MODEL 1
REMARK VINA RESULT:    -6.988      0.000      0.000
REMARK INTER + INTRA:          -8.712
REMARK INTER:                  -8.418
REMARK INTRA:                  -0.293
REMARK UNBOUND:                -0.293
REMARK SMILES Oc1cc(O)c2cc(O)c(-c3ccc(O)c(O)c3)[o+]c2c1
REMARK SMILES IDX 10 1 19 2 20 3 21 4 2 5 3 6 4 7 6 8 7 9 8 10 11 11 12 12
REMARK SMILES IDX 13 13 14 14 18 15 16 16 15 17 17 19 9 21 1 23 5 25
REMARK H PARENT 15 18 17 20 9 22 1 24 5 26
REMARK Flexibility Score: inf
ROOT
ATOM      1  C   UNL     1     -21.843  14.550 -39.687  1.00  0.00     0.402 A 
ATOM      2  O   UNL     1     -22.923  14.696 -38.923  1.00  0.00    -0.202 OA
ATOM      3  C   UNL     1     -23.806  15.676 -39.086  1.00  0.00     0.368 A 
ATOM      4  C   UNL     1     -24.909  15.748 -38.230  1.00  0.00     0.162 A 
ATOM      5  C   UNL     1     -25.850  16.770 -38.378  1.00  0.00     0.128 A 
ATOM      6  C   UNL     1     -25.689  17.725 -39.385  1.00  0.00     0.093 A 
ATOM      7  C   UNL     1     -24.593  17.675 -40.255  1.00  0.00     0.136 A 
ATOM      8  C   UNL     1     -23.635  16.638 -40.111  1.00  0.00     0.125 A 
ATOM      9  C   UNL     1     -22.513  16.501 -40.945  1.00  0.00     0.078 A 
ATOM     10  C   UNL     1     -21.613  15.450 -40.745  1.00  0.00     0.223 A 
ENDROOT
BRANCH   1  11
ATOM     11  C   UNL     1     -20.928  13.422 -39.397  1.00  0.00     0.087 A 
ATOM     12  C   UNL     1     -20.909  12.270 -40.203  1.00  0.00     0.022 A 
ATOM     13  C   UNL     1     -20.020  11.229 -39.923  1.00  0.00     0.051 A 
ATOM     14  C   UNL     1     -19.132  11.329 -38.845  1.00  0.00     0.157 A 
ATOM     15  C   UNL     1     -20.021  13.526 -38.331  1.00  0.00     0.068 A 
ATOM     16  C   UNL     1     -19.129  12.481 -38.049  1.00  0.00     0.158 A 
BRANCH  14  17
ATOM     17  O   UNL     1     -18.245  10.291 -38.563  1.00  0.00    -0.504 OA
ATOM     18  H   UNL     1     -18.379   9.361 -38.942  1.00  0.00     0.293 HD
ENDBRANCH  14  17
BRANCH  16  19
ATOM     19  O   UNL     1     -18.239  12.580 -36.981  1.00  0.00    -0.504 OA
ATOM     20  H   UNL     1     -17.318  12.988 -37.096  1.00  0.00     0.293 HD
ENDBRANCH  16  19
ENDBRANCH   1  11
BRANCH  10  21
ATOM     21  O   UNL     1     -20.527  15.285 -41.603  1.00  0.00    -0.500 OA
ATOM     22  H   UNL     1     -20.559  14.640 -42.385  1.00  0.00     0.294 HD
ENDBRANCH  10  21
BRANCH   5  23
ATOM     23  O   UNL     1     -26.953  16.848 -37.529  1.00  0.00    -0.507 OA
ATOM     24  H   UNL     1     -27.455  17.717 -37.392  1.00  0.00     0.293 HD
ENDBRANCH   5  23
BRANCH   7  25
ATOM     25  O   UNL     1     -24.502  18.669 -41.234  1.00  0.00    -0.507 OA
ATOM     26  H   UNL     1     -23.752  18.742 -41.905  1.00  0.00     0.293 HD
ENDBRANCH   7  25
TORSDOF 6
ENDMDL
MODEL 2
REMARK VINA RESULT:    -6.794      4.614      7.957
REMARK INTER + INTRA:          -8.478
REMARK INTER:                  -8.182
REMARK INTRA:                  -0.296
REMARK UNBOUND:                -0.293
REMARK SMILES Oc1cc(O)c2cc(O)c(-c3ccc(O)c(O)c3)[o+]c2c1
REMARK SMILES IDX 10 1 19 2 20 3 21 4 2 5 3 6 4 7 6 8 7 9 8 10 11 11 12 12
REMARK SMILES IDX 13 13 14 14 18 15 16 16 15 17 17 19 9 21 1 23 5 25
REMARK H PARENT 15 18 17 20 9 22 1 24 5 26
REMARK Flexibility Score: inf
ROOT
ATOM      1  C   UNL     1     -22.012  12.153 -35.113  1.00  0.00     0.402 A 
ATOM      2  O   UNL     1     -22.048  11.869 -36.413  1.00  0.00    -0.202 OA
ATOM      3  C   UNL     1     -20.957  11.682 -37.150  1.00  0.00     0.368 A 
ATOM      4  C   UNL     1     -21.097  11.391 -38.509  1.00  0.00     0.162 A 
ATOM      5  C   UNL     1     -19.967  11.192 -39.307  1.00  0.00     0.128 A 
ATOM      6  C   UNL     1     -18.692  11.286 -38.744  1.00  0.00     0.093 A 
ATOM      7  C   UNL     1     -18.525  11.575 -37.384  1.00  0.00     0.136 A 
ATOM      8  C   UNL     1     -19.670  11.776 -36.569  1.00  0.00     0.125 A 
ATOM      9  C   UNL     1     -19.599  12.057 -35.194  1.00  0.00     0.078 A 
ATOM     10  C   UNL     1     -20.771  12.239 -34.454  1.00  0.00     0.223 A 
ENDROOT
BRANCH   1  11
ATOM     11  C   UNL     1     -23.297  12.350 -34.404  1.00  0.00     0.087 A 
ATOM     12  C   UNL     1     -24.042  13.534 -34.554  1.00  0.00     0.022 A 
ATOM     13  C   UNL     1     -25.263  13.687 -33.893  1.00  0.00     0.051 A 
ATOM     14  C   UNL     1     -25.762  12.659 -33.084  1.00  0.00     0.157 A 
ATOM     15  C   UNL     1     -23.813  11.315 -33.608  1.00  0.00     0.068 A 
ATOM     16  C   UNL     1     -25.038  11.468 -32.943  1.00  0.00     0.158 A 
BRANCH  14  17
ATOM     17  O   UNL     1     -26.980  12.810 -32.421  1.00  0.00    -0.504 OA
ATOM     18  H   UNL     1     -27.690  12.087 -32.445  1.00  0.00     0.293 HD
ENDBRANCH  14  17
BRANCH  16  19
ATOM     19  O   UNL     1     -25.541  10.444 -32.143  1.00  0.00    -0.504 OA
ATOM     20  H   UNL     1     -26.277   9.829 -32.472  1.00  0.00     0.293 HD
ENDBRANCH  16  19
ENDBRANCH   1  11
BRANCH  10  21
ATOM     21  O   UNL     1     -20.703  12.468 -33.081  1.00  0.00    -0.500 OA
ATOM     22  H   UNL     1     -20.953  11.753 -32.407  1.00  0.00     0.294 HD
ENDBRANCH  10  21
BRANCH   5  23
ATOM     23  O   UNL     1     -20.098  10.901 -40.664  1.00  0.00    -0.507 OA
ATOM     24  H   UNL     1     -20.383   9.983 -40.983  1.00  0.00     0.293 HD
ENDBRANCH   5  23
BRANCH   7  25
ATOM     25  O   UNL     1     -17.217  11.655 -36.898  1.00  0.00    -0.507 OA
ATOM     26  H   UNL     1     -16.525  10.927 -37.001  1.00  0.00     0.293 HD
ENDBRANCH   7  25
TORSDOF 6
ENDMDL
MODEL 3
REMARK VINA RESULT:    -6.773      5.067      6.219
REMARK INTER + INTRA:          -8.452
REMARK INTER:                  -8.328
REMARK INTRA:                  -0.124
REMARK UNBOUND:                -0.293
REMARK SMILES Oc1cc(O)c2cc(O)c(-c3ccc(O)c(O)c3)[o+]c2c1
REMARK SMILES IDX 10 1 19 2 20 3 21 4 2 5 3 6 4 7 6 8 7 9 8 10 11 11 12 12
REMARK SMILES IDX 13 13 14 14 18 15 16 16 15 17 17 19 9 21 1 23 5 25
REMARK H PARENT 15 18 17 20 9 22 1 24 5 26
REMARK Flexibility Score: inf
ROOT
ATOM      1  C   UNL     1     -25.162  17.035 -37.150  1.00  0.00     0.402 A 
ATOM      2  O   UNL     1     -23.915  17.479 -37.280  1.00  0.00    -0.202 OA
ATOM      3  C   UNL     1     -23.539  18.333 -38.228  1.00  0.00     0.368 A 
ATOM      4  C   UNL     1     -22.203  18.740 -38.285  1.00  0.00     0.162 A 
ATOM      5  C   UNL     1     -21.781  19.635 -39.273  1.00  0.00     0.128 A 
ATOM      6  C   UNL     1     -22.698  20.124 -40.206  1.00  0.00     0.093 A 
ATOM      7  C   UNL     1     -24.042  19.733 -40.169  1.00  0.00     0.136 A 
ATOM      8  C   UNL     1     -24.476  18.825 -39.168  1.00  0.00     0.125 A 
ATOM      9  C   UNL     1     -25.805  18.388 -39.046  1.00  0.00     0.078 A 
ATOM     10  C   UNL     1     -26.160  17.496 -38.029  1.00  0.00     0.223 A 
ENDROOT
BRANCH   1  11
ATOM     11  C   UNL     1     -25.453  16.075 -36.060  1.00  0.00     0.087 A 
ATOM     12  C   UNL     1     -26.065  14.836 -36.319  1.00  0.00     0.022 A 
ATOM     13  C   UNL     1     -26.309  13.938 -35.277  1.00  0.00     0.051 A 
ATOM     14  C   UNL     1     -25.934  14.259 -33.966  1.00  0.00     0.157 A 
ATOM     15  C   UNL     1     -25.061  16.382 -34.747  1.00  0.00     0.068 A 
ATOM     16  C   UNL     1     -25.306  15.482 -33.700  1.00  0.00     0.158 A 
BRANCH  14  17
ATOM     17  O   UNL     1     -26.177  13.365 -32.924  1.00  0.00    -0.504 OA
ATOM     18  H   UNL     1     -26.735  13.627 -32.120  1.00  0.00     0.293 HD
ENDBRANCH  14  17
BRANCH  16  19
ATOM     19  O   UNL     1     -24.928  15.795 -32.396  1.00  0.00    -0.504 OA
ATOM     20  H   UNL     1     -24.054  15.462 -32.004  1.00  0.00     0.293 HD
ENDBRANCH  16  19
ENDBRANCH   1  11
BRANCH  10  21
ATOM     21  O   UNL     1     -27.488  17.100 -37.877  1.00  0.00    -0.500 OA
ATOM     22  H   UNL     1     -27.768  16.433 -37.167  1.00  0.00     0.294 HD
ENDBRANCH  10  21
BRANCH   5  23
ATOM     23  O   UNL     1     -20.451  20.045 -39.336  1.00  0.00    -0.507 OA
ATOM     24  H   UNL     1     -19.720  19.423 -39.660  1.00  0.00     0.293 HD
ENDBRANCH   5  23
BRANCH   7  25
ATOM     25  O   UNL     1     -24.895  20.264 -41.141  1.00  0.00    -0.507 OA
ATOM     26  H   UNL     1     -25.612  19.739 -41.619  1.00  0.00     0.293 HD
ENDBRANCH   7  25
TORSDOF 6
ENDMDL
MODEL 4
REMARK VINA RESULT:    -6.770      4.658      6.177
REMARK INTER + INTRA:          -8.448
REMARK INTER:                  -8.174
REMARK INTRA:                  -0.274
REMARK UNBOUND:                -0.293
REMARK SMILES Oc1cc(O)c2cc(O)c(-c3ccc(O)c(O)c3)[o+]c2c1
REMARK SMILES IDX 10 1 19 2 20 3 21 4 2 5 3 6 4 7 6 8 7 9 8 10 11 11 12 12
REMARK SMILES IDX 13 13 14 14 18 15 16 16 15 17 17 19 9 21 1 23 5 25
REMARK H PARENT 15 18 17 20 9 22 1 24 5 26
REMARK Flexibility Score: inf
ROOT
ATOM      1  C   UNL     1     -24.125  18.062 -38.068  1.00  0.00     0.402 A 
ATOM      2  O   UNL     1     -23.488  19.224 -37.945  1.00  0.00    -0.202 OA
ATOM      3  C   UNL     1     -23.065  19.939 -38.983  1.00  0.00     0.368 A 
ATOM      4  C   UNL     1     -22.401  21.147 -38.752  1.00  0.00     0.162 A 
ATOM      5  C   UNL     1     -21.944  21.916 -39.825  1.00  0.00     0.128 A 
ATOM      6  C   UNL     1     -22.150  21.476 -41.135  1.00  0.00     0.093 A 
ATOM      7  C   UNL     1     -22.813  20.270 -41.393  1.00  0.00     0.136 A 
ATOM      8  C   UNL     1     -23.281  19.485 -40.307  1.00  0.00     0.125 A 
ATOM      9  C   UNL     1     -23.967  18.270 -40.470  1.00  0.00     0.078 A 
ATOM     10  C   UNL     1     -24.402  17.554 -39.351  1.00  0.00     0.223 A 
ENDROOT
BRANCH   1  11
ATOM     11  C   UNL     1     -24.537  17.355 -36.834  1.00  0.00     0.087 A 
ATOM     12  C   UNL     1     -25.883  17.307 -36.431  1.00  0.00     0.022 A 
ATOM     13  C   UNL     1     -26.250  16.614 -35.275  1.00  0.00     0.051 A 
ATOM     14  C   UNL     1     -25.280  15.949 -34.513  1.00  0.00     0.157 A 
ATOM     15  C   UNL     1     -23.573  16.669 -36.078  1.00  0.00     0.068 A 
ATOM     16  C   UNL     1     -23.939  15.973 -34.917  1.00  0.00     0.158 A 
BRANCH  14  17
ATOM     17  O   UNL     1     -25.643  15.257 -33.358  1.00  0.00    -0.504 OA
ATOM     18  H   UNL     1     -26.388  15.586 -32.756  1.00  0.00     0.293 HD
ENDBRANCH  14  17
BRANCH  16  19
ATOM     19  O   UNL     1     -22.979  15.305 -34.160  1.00  0.00    -0.504 OA
ATOM     20  H   UNL     1     -22.810  14.312 -34.277  1.00  0.00     0.293 HD
ENDBRANCH  16  19
ENDBRANCH   1  11
BRANCH  10  21
ATOM     21  O   UNL     1     -25.126  16.374 -39.515  1.00  0.00    -0.500 OA
ATOM     22  H   UNL     1     -25.324  15.992 -40.433  1.00  0.00     0.294 HD
ENDBRANCH  10  21
BRANCH   5  23
ATOM     23  O   UNL     1     -21.282  23.122 -39.602  1.00  0.00    -0.507 OA
ATOM     24  H   UNL     1     -21.760  23.924 -39.208  1.00  0.00     0.293 HD
ENDBRANCH   5  23
BRANCH   7  25
ATOM     25  O   UNL     1     -22.976  19.899 -42.731  1.00  0.00    -0.507 OA
ATOM     26  H   UNL     1     -23.198  18.964 -43.040  1.00  0.00     0.293 HD
ENDBRANCH   7  25
TORSDOF 6
ENDMDL
MODEL 5
REMARK VINA RESULT:    -6.768      4.602      7.233
REMARK INTER + INTRA:          -8.446
REMARK INTER:                  -8.178
REMARK INTRA:                  -0.268
REMARK UNBOUND:                -0.293
REMARK SMILES Oc1cc(O)c2cc(O)c(-c3ccc(O)c(O)c3)[o+]c2c1
REMARK SMILES IDX 10 1 19 2 20 3 21 4 2 5 3 6 4 7 6 8 7 9 8 10 11 11 12 12
REMARK SMILES IDX 13 13 14 14 18 15 16 16 15 17 17 19 9 21 1 23 5 25
REMARK H PARENT 15 18 17 20 9 22 1 24 5 26
REMARK Flexibility Score: inf
ROOT
ATOM      1  C   UNL     1     -24.276  18.405 -38.812  1.00  0.00     0.402 A 
ATOM      2  O   UNL     1     -23.485  17.953 -37.841  1.00  0.00    -0.202 OA
ATOM      3  C   UNL     1     -23.879  17.063 -36.935  1.00  0.00     0.368 A 
ATOM      4  C   UNL     1     -22.976  16.650 -35.951  1.00  0.00     0.162 A 
ATOM      5  C   UNL     1     -23.365  15.719 -34.984  1.00  0.00     0.128 A 
ATOM      6  C   UNL     1     -24.661  15.198 -35.001  1.00  0.00     0.093 A 
ATOM      7  C   UNL     1     -25.584  15.595 -35.976  1.00  0.00     0.136 A 
ATOM      8  C   UNL     1     -25.194  16.539 -36.962  1.00  0.00     0.125 A 
ATOM      9  C   UNL     1     -26.047  16.985 -37.985  1.00  0.00     0.078 A 
ATOM     10  C   UNL     1     -25.590  17.915 -38.923  1.00  0.00     0.223 A 
ENDROOT
BRANCH   1  11
ATOM     11  C   UNL     1     -23.724  19.405 -39.755  1.00  0.00     0.087 A 
ATOM     12  C   UNL     1     -23.406  19.063 -41.082  1.00  0.00     0.022 A 
ATOM     13  C   UNL     1     -22.908  20.028 -41.959  1.00  0.00     0.051 A 
ATOM     14  C   UNL     1     -22.732  21.350 -41.529  1.00  0.00     0.157 A 
ATOM     15  C   UNL     1     -23.564  20.735 -39.336  1.00  0.00     0.068 A 
ATOM     16  C   UNL     1     -23.064  21.706 -40.216  1.00  0.00     0.158 A 
BRANCH  14  17
ATOM     17  O   UNL     1     -22.234  22.316 -42.402  1.00  0.00    -0.504 OA
ATOM     18  H   UNL     1     -22.842  22.994 -42.846  1.00  0.00     0.293 HD
ENDBRANCH  14  17
BRANCH  16  19
ATOM     19  O   UNL     1     -22.894  23.023 -39.793  1.00  0.00    -0.504 OA
ATOM     20  H   UNL     1     -22.062  23.315 -39.293  1.00  0.00     0.293 HD
ENDBRANCH  16  19
ENDBRANCH   1  11
BRANCH  10  21
ATOM     21  O   UNL     1     -26.420  18.320 -39.968  1.00  0.00    -0.500 OA
ATOM     22  H   UNL     1     -26.776  17.662 -40.652  1.00  0.00     0.294 HD
ENDBRANCH  10  21
BRANCH   5  23
ATOM     23  O   UNL     1     -22.470  15.302 -34.000  1.00  0.00    -0.507 OA
ATOM     24  H   UNL     1     -22.320  15.844 -33.158  1.00  0.00     0.293 HD
ENDBRANCH   5  23
BRANCH   7  25
ATOM     25  O   UNL     1     -26.862  15.030 -35.922  1.00  0.00    -0.507 OA
ATOM     26  H   UNL     1     -27.138  14.306 -35.275  1.00  0.00     0.293 HD
ENDBRANCH   7  25
TORSDOF 6
ENDMDL
MODEL 6
REMARK VINA RESULT:    -6.705      6.157      9.229
REMARK INTER + INTRA:          -8.370
REMARK INTER:                  -8.524
REMARK INTRA:                   0.154
REMARK UNBOUND:                -0.293
REMARK SMILES Oc1cc(O)c2cc(O)c(-c3ccc(O)c(O)c3)[o+]c2c1
REMARK SMILES IDX 10 1 19 2 20 3 21 4 2 5 3 6 4 7 6 8 7 9 8 10 11 11 12 12
REMARK SMILES IDX 13 13 14 14 18 15 16 16 15 17 17 19 9 21 1 23 5 25
REMARK H PARENT 15 18 17 20 9 22 1 24 5 26
REMARK Flexibility Score: inf
ROOT
ATOM      1  C   UNL     1     -16.818  12.998 -34.131  1.00  0.00     0.402 A 
ATOM      2  O   UNL     1     -17.124  13.106 -35.421  1.00  0.00    -0.202 OA
ATOM      3  C   UNL     1     -17.701  12.132 -36.119  1.00  0.00     0.368 A 
ATOM      4  C   UNL     1     -17.981  12.339 -37.472  1.00  0.00     0.162 A 
ATOM      5  C   UNL     1     -18.584  11.331 -38.230  1.00  0.00     0.128 A 
ATOM      6  C   UNL     1     -18.908  10.111 -37.631  1.00  0.00     0.093 A 
ATOM      7  C   UNL     1     -18.639   9.879 -36.277  1.00  0.00     0.136 A 
ATOM      8  C   UNL     1     -18.028  10.900 -35.503  1.00  0.00     0.125 A 
ATOM      9  C   UNL     1     -17.733  10.762 -34.137  1.00  0.00     0.078 A 
ATOM     10  C   UNL     1     -17.134  11.814 -33.438  1.00  0.00     0.223 A 
ENDROOT
BRANCH   1  11
ATOM     11  C   UNL     1     -16.167  14.150 -33.467  1.00  0.00     0.087 A 
ATOM     12  C   UNL     1     -16.554  15.473 -33.748  1.00  0.00     0.022 A 
ATOM     13  C   UNL     1     -15.941  16.543 -33.092  1.00  0.00     0.051 A 
ATOM     14  C   UNL     1     -14.942  16.307 -32.139  1.00  0.00     0.157 A 
ATOM     15  C   UNL     1     -15.179  13.920 -32.495  1.00  0.00     0.068 A 
ATOM     16  C   UNL     1     -14.562  14.993 -31.837  1.00  0.00     0.158 A 
BRANCH  14  17
ATOM     17  O   UNL     1     -14.326  17.373 -31.483  1.00  0.00    -0.504 OA
ATOM     18  H   UNL     1     -14.357  18.314 -31.857  1.00  0.00     0.293 HD
ENDBRANCH  14  17
BRANCH  16  19
ATOM     19  O   UNL     1     -13.573  14.762 -30.883  1.00  0.00    -0.504 OA
ATOM     20  H   UNL     1     -13.793  14.358 -29.979  1.00  0.00     0.293 HD
ENDBRANCH  16  19
ENDBRANCH   1  11
BRANCH  10  21
ATOM     21  O   UNL     1     -16.887  11.695 -32.071  1.00  0.00    -0.500 OA
ATOM     22  H   UNL     1     -17.254  10.922 -31.528  1.00  0.00     0.294 HD
ENDBRANCH  10  21
BRANCH   5  23
ATOM     23  O   UNL     1     -18.867  11.530 -39.580  1.00  0.00    -0.507 OA
ATOM     24  H   UNL     1     -19.042  12.456 -39.953  1.00  0.00     0.293 HD
ENDBRANCH   5  23
BRANCH   7  25
ATOM     25  O   UNL     1     -18.991   8.631 -35.755  1.00  0.00    -0.507 OA
ATOM     26  H   UNL     1     -18.380   7.828 -35.738  1.00  0.00     0.293 HD
ENDBRANCH   7  25
TORSDOF 6
ENDMDL
MODEL 7
REMARK VINA RESULT:    -6.638      2.139      3.612
REMARK INTER + INTRA:          -8.289
REMARK INTER:                  -8.170
REMARK INTRA:                  -0.119
REMARK UNBOUND:                -0.293
REMARK SMILES Oc1cc(O)c2cc(O)c(-c3ccc(O)c(O)c3)[o+]c2c1
REMARK SMILES IDX 10 1 19 2 20 3 21 4 2 5 3 6 4 7 6 8 7 9 8 10 11 11 12 12
REMARK SMILES IDX 13 13 14 14 18 15 16 16 15 17 17 19 9 21 1 23 5 25
REMARK H PARENT 15 18 17 20 9 22 1 24 5 26
REMARK Flexibility Score: inf
ROOT
ATOM      1  C   UNL     1     -23.313  15.486 -39.481  1.00  0.00     0.402 A 
ATOM      2  O   UNL     1     -23.038  16.312 -40.487  1.00  0.00    -0.202 OA
ATOM      3  C   UNL     1     -23.394  17.593 -40.498  1.00  0.00     0.368 A 
ATOM      4  C   UNL     1     -23.062  18.382 -41.603  1.00  0.00     0.162 A 
ATOM      5  C   UNL     1     -23.427  19.731 -41.642  1.00  0.00     0.128 A 
ATOM      6  C   UNL     1     -24.127  20.293 -40.572  1.00  0.00     0.093 A 
ATOM      7  C   UNL     1     -24.471  19.525 -39.453  1.00  0.00     0.136 A 
ATOM      8  C   UNL     1     -24.102  18.155 -39.408  1.00  0.00     0.125 A 
ATOM      9  C   UNL     1     -24.392  17.312 -38.322  1.00  0.00     0.078 A 
ATOM     10  C   UNL     1     -23.992  15.972 -38.347  1.00  0.00     0.223 A 
ENDROOT
BRANCH   1  11
ATOM     11  C   UNL     1     -22.872  14.077 -39.592  1.00  0.00     0.087 A 
ATOM     12  C   UNL     1     -23.778  13.012 -39.437  1.00  0.00     0.022 A 
ATOM     13  C   UNL     1     -23.342  11.691 -39.569  1.00  0.00     0.051 A 
ATOM     14  C   UNL     1     -22.002  11.416 -39.869  1.00  0.00     0.157 A 
ATOM     15  C   UNL     1     -21.535  13.795 -39.913  1.00  0.00     0.068 A 
ATOM     16  C   UNL     1     -21.096  12.470 -40.044  1.00  0.00     0.158 A 
BRANCH  14  17
ATOM     17  O   UNL     1     -21.564  10.099 -40.000  1.00  0.00    -0.504 OA
ATOM     18  H   UNL     1     -20.604   9.837 -39.808  1.00  0.00     0.293 HD
ENDBRANCH  14  17
BRANCH  16  19
ATOM     19  O   UNL     1     -19.765  12.193 -40.350  1.00  0.00    -0.504 OA
ATOM     20  H   UNL     1     -19.392  11.252 -40.285  1.00  0.00     0.293 HD
ENDBRANCH  16  19
ENDBRANCH   1  11
BRANCH  10  21
ATOM     21  O   UNL     1     -24.236  15.148 -37.249  1.00  0.00    -0.500 OA
ATOM     22  H   UNL     1     -23.498  14.882 -36.608  1.00  0.00     0.294 HD
ENDBRANCH  10  21
BRANCH   5  23
ATOM     23  O   UNL     1     -23.098  20.523 -42.740  1.00  0.00    -0.507 OA
ATOM     24  H   UNL     1     -23.632  21.352 -42.973  1.00  0.00     0.293 HD
ENDBRANCH   5  23
BRANCH   7  25
ATOM     25  O   UNL     1     -25.175  20.161 -38.427  1.00  0.00    -0.507 OA
ATOM     26  H   UNL     1     -26.163  20.365 -38.454  1.00  0.00     0.293 HD
ENDBRANCH   7  25
TORSDOF 6
ENDMDL
MODEL 8
REMARK VINA RESULT:    -6.609      3.484      5.983
REMARK INTER + INTRA:          -8.254
REMARK INTER:                  -8.160
REMARK INTRA:                  -0.094
REMARK UNBOUND:                -0.293
REMARK SMILES Oc1cc(O)c2cc(O)c(-c3ccc(O)c(O)c3)[o+]c2c1
REMARK SMILES IDX 10 1 19 2 20 3 21 4 2 5 3 6 4 7 6 8 7 9 8 10 11 11 12 12
REMARK SMILES IDX 13 13 14 14 18 15 16 16 15 17 17 19 9 21 1 23 5 25
REMARK H PARENT 15 18 17 20 9 22 1 24 5 26
REMARK Flexibility Score: inf
ROOT
ATOM      1  C   UNL     1     -24.666  16.471 -37.299  1.00  0.00     0.402 A 
ATOM      2  O   UNL     1     -23.974  15.830 -38.237  1.00  0.00    -0.202 OA
ATOM      3  C   UNL     1     -23.487  16.427 -39.321  1.00  0.00     0.368 A 
ATOM      4  C   UNL     1     -22.775  15.669 -40.254  1.00  0.00     0.162 A 
ATOM      5  C   UNL     1     -22.256  16.271 -41.403  1.00  0.00     0.128 A 
ATOM      6  C   UNL     1     -22.450  17.637 -41.622  1.00  0.00     0.093 A 
ATOM      7  C   UNL     1     -23.159  18.419 -40.702  1.00  0.00     0.136 A 
ATOM      8  C   UNL     1     -23.688  17.813 -39.532  1.00  0.00     0.125 A 
ATOM      9  C   UNL     1     -24.400  18.521 -38.550  1.00  0.00     0.078 A 
ATOM     10  C   UNL     1     -24.887  17.855 -37.421  1.00  0.00     0.223 A 
ENDROOT
BRANCH   1  11
ATOM     11  C   UNL     1     -25.165  15.691 -36.142  1.00  0.00     0.087 A 
ATOM     12  C   UNL     1     -25.988  14.565 -36.319  1.00  0.00     0.022 A 
ATOM     13  C   UNL     1     -26.427  13.832 -35.214  1.00  0.00     0.051 A 
ATOM     14  C   UNL     1     -26.041  14.205 -33.920  1.00  0.00     0.157 A 
ATOM     15  C   UNL     1     -24.764  16.048 -34.845  1.00  0.00     0.068 A 
ATOM     16  C   UNL     1     -25.205  15.314 -33.735  1.00  0.00     0.158 A 
BRANCH  14  17
ATOM     17  O   UNL     1     -26.478  13.477 -32.815  1.00  0.00    -0.504 OA
ATOM     18  H   UNL     1     -27.127  12.704 -32.912  1.00  0.00     0.293 HD
ENDBRANCH  14  17
BRANCH  16  19
ATOM     19  O   UNL     1     -24.817  15.678 -32.447  1.00  0.00    -0.504 OA
ATOM     20  H   UNL     1     -25.239  15.256 -31.627  1.00  0.00     0.293 HD
ENDBRANCH  16  19
ENDBRANCH   1  11
BRANCH  10  21
ATOM     21  O   UNL     1     -25.551  18.567 -36.422  1.00  0.00    -0.500 OA
ATOM     22  H   UNL     1     -25.122  19.359 -35.957  1.00  0.00     0.294 HD
ENDBRANCH  10  21
BRANCH   5  23
ATOM     23  O   UNL     1     -21.543  15.521 -42.337  1.00  0.00    -0.507 OA
ATOM     24  H   UNL     1     -20.551  15.662 -42.483  1.00  0.00     0.293 HD
ENDBRANCH   5  23
BRANCH   7  25
ATOM     25  O   UNL     1     -23.313  19.777 -40.996  1.00  0.00    -0.507 OA
ATOM     26  H   UNL     1     -23.889  20.414 -40.464  1.00  0.00     0.293 HD
ENDBRANCH   7  25
TORSDOF 6
ENDMDL
MODEL 9
REMARK VINA RESULT:    -6.547      4.787      8.125
REMARK INTER + INTRA:          -8.181
REMARK INTER:                  -8.208
REMARK INTRA:                   0.028
REMARK UNBOUND:                -0.293
REMARK SMILES Oc1cc(O)c2cc(O)c(-c3ccc(O)c(O)c3)[o+]c2c1
REMARK SMILES IDX 10 1 19 2 20 3 21 4 2 5 3 6 4 7 6 8 7 9 8 10 11 11 12 12
REMARK SMILES IDX 13 13 14 14 18 15 16 16 15 17 17 19 9 21 1 23 5 25
REMARK H PARENT 15 18 17 20 9 22 1 24 5 26
REMARK Flexibility Score: inf
ROOT
ATOM      1  C   UNL     1     -17.642  12.063 -34.780  1.00  0.00     0.402 A 
ATOM      2  O   UNL     1     -18.006  12.646 -35.920  1.00  0.00    -0.202 OA
ATOM      3  C   UNL     1     -18.835  12.083 -36.795  1.00  0.00     0.368 A 
ATOM      4  C   UNL     1     -19.156  12.773 -37.967  1.00  0.00     0.162 A 
ATOM      5  C   UNL     1     -20.022  12.203 -38.905  1.00  0.00     0.128 A 
ATOM      6  C   UNL     1     -20.568  10.939 -38.671  1.00  0.00     0.093 A 
ATOM      7  C   UNL     1     -20.262  10.228 -37.504  1.00  0.00     0.136 A 
ATOM      8  C   UNL     1     -19.384  10.802 -36.547  1.00  0.00     0.125 A 
ATOM      9  C   UNL     1     -19.032  10.168 -35.344  1.00  0.00     0.078 A 
ATOM     10  C   UNL     1     -18.164  10.799 -34.447  1.00  0.00     0.223 A 
ENDROOT
BRANCH   1  11
ATOM     11  C   UNL     1     -16.704  12.788 -33.893  1.00  0.00     0.087 A 
ATOM     12  C   UNL     1     -15.531  13.381 -34.394  1.00  0.00     0.022 A 
ATOM     13  C   UNL     1     -14.673  14.079 -33.541  1.00  0.00     0.051 A 
ATOM     14  C   UNL     1     -14.980  14.205 -32.180  1.00  0.00     0.157 A 
ATOM     15  C   UNL     1     -17.016  12.935 -32.532  1.00  0.00     0.068 A 
ATOM     16  C   UNL     1     -16.155  13.635 -31.674  1.00  0.00     0.158 A 
BRANCH  14  17
ATOM     17  O   UNL     1     -14.125  14.900 -31.326  1.00  0.00    -0.504 OA
ATOM     18  H   UNL     1     -13.141  14.667 -31.255  1.00  0.00     0.293 HD
ENDBRANCH  14  17
BRANCH  16  19
ATOM     19  O   UNL     1     -16.460  13.769 -30.321  1.00  0.00    -0.504 OA
ATOM     20  H   UNL     1     -16.526  12.962 -29.711  1.00  0.00     0.293 HD
ENDBRANCH  16  19
ENDBRANCH   1  11
BRANCH  10  21
ATOM     21  O   UNL     1     -17.853  10.193 -33.231  1.00  0.00    -0.500 OA
ATOM     22  H   UNL     1     -18.431  10.321 -32.408  1.00  0.00     0.294 HD
ENDBRANCH  10  21
BRANCH   5  23
ATOM     23  O   UNL     1     -20.348  12.886 -40.076  1.00  0.00    -0.507 OA
ATOM     24  H   UNL     1     -21.220  12.715 -40.563  1.00  0.00     0.293 HD
ENDBRANCH   5  23
BRANCH   7  25
ATOM     25  O   UNL     1     -20.845   8.967 -37.346  1.00  0.00    -0.507 OA
ATOM     26  H   UNL     1     -21.167   8.594 -36.465  1.00  0.00     0.293 HD
ENDBRANCH   7  25
TORSDOF 6
ENDMDL
