MODEL 1
REMARK VINA RESULT:    -4.867      0.000      0.000
REMARK INTER + INTRA:          -5.588
REMARK INTER:                  -5.294
REMARK INTRA:                  -0.294
REMARK UNBOUND:                -0.294
REMARK SMILES CC(=O)c1cc(C)ccc1O
REMARK SMILES IDX 7 1 6 2 5 3 4 4 10 5 9 6 8 7 2 8 3 9 1 10 11 11
REMARK H PARENT 11 12
REMARK Flexibility Score: inf
ROOT
ATOM      1  C   UNL     1      12.430  65.721 -30.874  1.00  0.00     0.044 C 
ATOM      2  C   UNL     1      13.447  66.500 -30.091  1.00  0.00    -0.050 A 
ATOM      3  C   UNL     1      13.100  67.732 -29.517  1.00  0.00     0.019 A 
ATOM      4  C   UNL     1      14.032  68.463 -28.751  1.00  0.00     0.059 A 
ATOM      5  C   UNL     1      15.324  67.921 -28.555  1.00  0.00     0.126 A 
ATOM      6  C   UNL     1      15.657  66.681 -29.120  1.00  0.00     0.047 A 
ATOM      7  C   UNL     1      14.724  65.973 -29.875  1.00  0.00     0.007 A 
ENDROOT
BRANCH   4   8
ATOM      8  C   UNL     1      13.652  69.780 -28.163  1.00  0.00     0.163 C 
ATOM      9  O   UNL     1      14.478  70.733 -28.156  1.00  0.00    -0.294 OA
ATOM     10  C   UNL     1      12.284  70.028 -27.600  1.00  0.00     0.093 C 
ENDBRANCH   4   8
BRANCH   5  11
ATOM     11  O   UNL     1      16.274  68.599 -27.792  1.00  0.00    -0.507 OA
ATOM     12  H   UNL     1      17.130  68.956 -28.200  1.00  0.00     0.293 HD
ENDBRANCH   5  11
TORSDOF 2
ENDMDL
MODEL 2
REMARK VINA RESULT:    -4.862      1.164      1.461
REMARK INTER + INTRA:          -5.582
REMARK INTER:                  -5.304
REMARK INTRA:                  -0.278
REMARK UNBOUND:                -0.294
REMARK SMILES CC(=O)c1cc(C)ccc1O
REMARK SMILES IDX 7 1 6 2 5 3 4 4 10 5 9 6 8 7 2 8 3 9 1 10 11 11
REMARK H PARENT 11 12
REMARK Flexibility Score: inf
ROOT
ATOM      1  C   UNL     1      11.436  65.510 -31.183  1.00  0.00     0.044 C 
ATOM      2  C   UNL     1      12.739  65.883 -30.540  1.00  0.00    -0.050 A 
ATOM      3  C   UNL     1      12.966  67.203 -30.122  1.00  0.00     0.019 A 
ATOM      4  C   UNL     1      14.171  67.566 -29.487  1.00  0.00     0.059 A 
ATOM      5  C   UNL     1      15.147  66.567 -29.260  1.00  0.00     0.126 A 
ATOM      6  C   UNL     1      14.905  65.246 -29.666  1.00  0.00     0.047 A 
ATOM      7  C   UNL     1      13.708  64.906 -30.294  1.00  0.00     0.007 A 
ENDROOT
BRANCH   4   8
ATOM      8  C   UNL     1      14.404  68.979 -29.067  1.00  0.00     0.163 C 
ATOM      9  O   UNL     1      15.307  69.664 -29.618  1.00  0.00    -0.294 OA
ATOM     10  C   UNL     1      13.562  69.637 -28.014  1.00  0.00     0.093 C 
ENDBRANCH   4   8
BRANCH   5  11
ATOM     11  O   UNL     1      16.348  66.874 -28.621  1.00  0.00    -0.507 OA
ATOM     12  H   UNL     1      16.826  66.202 -28.033  1.00  0.00     0.293 HD
ENDBRANCH   5  11
TORSDOF 2
ENDMDL
MODEL 3
REMARK VINA RESULT:    -4.360     16.828     18.848
REMARK INTER + INTRA:          -5.036
REMARK INTER:                  -4.730
REMARK INTRA:                  -0.306
REMARK UNBOUND:                -0.294
REMARK SMILES CC(=O)c1cc(C)ccc1O
REMARK SMILES IDX 7 1 6 2 5 3 4 4 10 5 9 6 8 7 2 8 3 9 1 10 11 11
REMARK H PARENT 11 12
REMARK Flexibility Score: inf
ROOT
ATOM      1  C   UNL     1       3.944  79.884 -30.123  1.00  0.00     0.044 C 
ATOM      2  C   UNL     1       2.453  80.055 -30.084  1.00  0.00    -0.050 A 
ATOM      3  C   UNL     1       1.885  81.129 -29.383  1.00  0.00     0.019 A 
ATOM      4  C   UNL     1       0.489  81.324 -29.362  1.00  0.00     0.059 A 
ATOM      5  C   UNL     1      -0.334  80.423 -30.080  1.00  0.00     0.126 A 
ATOM      6  C   UNL     1       0.244  79.362 -30.791  1.00  0.00     0.047 A 
ATOM      7  C   UNL     1       1.626  79.183 -30.800  1.00  0.00     0.007 A 
ENDROOT
BRANCH   4   8
ATOM      8  C   UNL     1      -0.099  82.461 -28.596  1.00  0.00     0.163 C 
ATOM      9  O   UNL     1      -0.954  83.214 -29.135  1.00  0.00    -0.294 OA
ATOM     10  C   UNL     1       0.272  82.724 -27.166  1.00  0.00     0.093 C 
ENDBRANCH   4   8
BRANCH   5  11
ATOM     11  O   UNL     1      -1.719  80.585 -30.102  1.00  0.00    -0.507 OA
ATOM     12  H   UNL     1      -2.246  80.554 -30.966  1.00  0.00     0.293 HD
ENDBRANCH   5  11
TORSDOF 2
ENDMDL
MODEL 4
REMARK VINA RESULT:    -4.344     19.361     20.650
REMARK INTER + INTRA:          -5.019
REMARK INTER:                  -4.716
REMARK INTRA:                  -0.303
REMARK UNBOUND:                -0.294
REMARK SMILES CC(=O)c1cc(C)ccc1O
REMARK SMILES IDX 7 1 6 2 5 3 4 4 10 5 9 6 8 7 2 8 3 9 1 10 11 11
REMARK H PARENT 11 12
REMARK Flexibility Score: inf
ROOT
ATOM      1  C   UNL     1       2.928  68.786 -12.875  1.00  0.00     0.044 C 
ATOM      2  C   UNL     1       1.523  69.057 -13.330  1.00  0.00    -0.050 A 
ATOM      3  C   UNL     1       1.248  70.163 -14.147  1.00  0.00     0.019 A 
ATOM      4  C   UNL     1      -0.060  70.416 -14.611  1.00  0.00     0.059 A 
ATOM      5  C   UNL     1      -1.093  69.518 -14.250  1.00  0.00     0.126 A 
ATOM      6  C   UNL     1      -0.806  68.406 -13.446  1.00  0.00     0.047 A 
ATOM      7  C   UNL     1       0.492  68.172 -12.996  1.00  0.00     0.007 A 
ENDROOT
BRANCH   4   8
ATOM      8  C   UNL     1      -0.337  71.607 -15.463  1.00  0.00     0.163 C 
ATOM      9  O   UNL     1      -1.337  72.338 -15.226  1.00  0.00    -0.294 OA
ATOM     10  C   UNL     1       0.567  71.996 -16.595  1.00  0.00     0.093 C 
ENDBRANCH   4   8
BRANCH   5  11
ATOM     11  O   UNL     1      -2.399  69.717 -14.698  1.00  0.00    -0.507 OA
ATOM     12  H   UNL     1      -3.173  69.823 -14.053  1.00  0.00     0.293 HD
ENDBRANCH   5  11
TORSDOF 2
ENDMDL
MODEL 5
REMARK VINA RESULT:    -4.269     16.153     17.770
REMARK INTER + INTRA:          -4.937
REMARK INTER:                  -4.630
REMARK INTRA:                  -0.307
REMARK UNBOUND:                -0.294
REMARK SMILES CC(=O)c1cc(C)ccc1O
REMARK SMILES IDX 7 1 6 2 5 3 4 4 10 5 9 6 8 7 2 8 3 9 1 10 11 11
REMARK H PARENT 11 12
REMARK Flexibility Score: inf
ROOT
ATOM      1  C   UNL     1       4.488  79.827 -30.089  1.00  0.00     0.044 C 
ATOM      2  C   UNL     1       3.075  79.587 -29.642  1.00  0.00    -0.050 A 
ATOM      3  C   UNL     1       2.003  79.922 -30.482  1.00  0.00     0.019 A 
ATOM      4  C   UNL     1       0.671  79.674 -30.093  1.00  0.00     0.059 A 
ATOM      5  C   UNL     1       0.433  79.060 -28.840  1.00  0.00     0.126 A 
ATOM      6  C   UNL     1       1.511  78.713 -28.013  1.00  0.00     0.047 A 
ATOM      7  C   UNL     1       2.821  78.967 -28.414  1.00  0.00     0.007 A 
ENDROOT
BRANCH   4   8
ATOM      8  C   UNL     1      -0.458  80.054 -30.991  1.00  0.00     0.163 C 
ATOM      9  O   UNL     1      -1.416  80.743 -30.548  1.00  0.00    -0.294 OA
ATOM     10  C   UNL     1      -0.476  79.669 -32.441  1.00  0.00     0.093 C 
ENDBRANCH   4   8
BRANCH   5  11
ATOM     11  O   UNL     1      -0.867  78.780 -28.419  1.00  0.00    -0.507 OA
ATOM     12  H   UNL     1      -1.170  77.834 -28.218  1.00  0.00     0.293 HD
ENDBRANCH   5  11
TORSDOF 2
ENDMDL
MODEL 6
REMARK VINA RESULT:    -4.242     16.192     17.660
REMARK INTER + INTRA:          -4.908
REMARK INTER:                  -4.602
REMARK INTRA:                  -0.306
REMARK UNBOUND:                -0.294
REMARK SMILES CC(=O)c1cc(C)ccc1O
REMARK SMILES IDX 7 1 6 2 5 3 4 4 10 5 9 6 8 7 2 8 3 9 1 10 11 11
REMARK H PARENT 11 12
REMARK Flexibility Score: inf
ROOT
ATOM      1  C   UNL     1      -2.459  67.437 -20.288  1.00  0.00     0.044 C 
ATOM      2  C   UNL     1      -2.569  67.392 -21.784  1.00  0.00    -0.050 A 
ATOM      3  C   UNL     1      -2.251  68.524 -22.549  1.00  0.00     0.019 A 
ATOM      4  C   UNL     1      -2.318  68.491 -23.957  1.00  0.00     0.059 A 
ATOM      5  C   UNL     1      -2.695  67.283 -24.590  1.00  0.00     0.126 A 
ATOM      6  C   UNL     1      -2.996  66.151 -23.819  1.00  0.00     0.047 A 
ATOM      7  C   UNL     1      -2.926  66.202 -22.428  1.00  0.00     0.007 A 
ENDROOT
BRANCH   4   8
ATOM      8  C   UNL     1      -1.995  69.710 -24.753  1.00  0.00     0.163 C 
ATOM      9  O   UNL     1      -2.822  70.155 -25.595  1.00  0.00    -0.294 OA
ATOM     10  C   UNL     1      -0.710  70.460 -24.561  1.00  0.00     0.093 C 
ENDBRANCH   4   8
BRANCH   5  11
ATOM     11  O   UNL     1      -2.760  67.197 -25.981  1.00  0.00    -0.507 OA
ATOM     12  H   UNL     1      -2.066  67.634 -26.575  1.00  0.00     0.293 HD
ENDBRANCH   5  11
TORSDOF 2
ENDMDL
MODEL 7
REMARK VINA RESULT:    -4.179     17.956     20.099
REMARK INTER + INTRA:          -4.839
REMARK INTER:                  -4.574
REMARK INTRA:                  -0.265
REMARK UNBOUND:                -0.294
REMARK SMILES CC(=O)c1cc(C)ccc1O
REMARK SMILES IDX 7 1 6 2 5 3 4 4 10 5 9 6 8 7 2 8 3 9 1 10 11 11
REMARK H PARENT 11 12
REMARK Flexibility Score: inf
ROOT
ATOM      1  C   UNL     1       1.058  68.204 -13.126  1.00  0.00     0.044 C 
ATOM      2  C   UNL     1       0.398  69.356 -13.826  1.00  0.00    -0.050 A 
ATOM      3  C   UNL     1       1.130  70.150 -14.721  1.00  0.00     0.019 A 
ATOM      4  C   UNL     1       0.520  71.216 -15.413  1.00  0.00     0.059 A 
ATOM      5  C   UNL     1      -0.858  71.462 -15.202  1.00  0.00     0.126 A 
ATOM      6  C   UNL     1      -1.587  70.653 -14.318  1.00  0.00     0.047 A 
ATOM      7  C   UNL     1      -0.966  69.604 -13.641  1.00  0.00     0.007 A 
ENDROOT
BRANCH   4   8
ATOM      8  C   UNL     1       1.319  72.062 -16.346  1.00  0.00     0.163 C 
ATOM      9  O   UNL     1       0.765  72.607 -17.339  1.00  0.00    -0.294 OA
ATOM     10  C   UNL     1       2.779  72.321 -16.122  1.00  0.00     0.093 C 
ENDBRANCH   4   8
BRANCH   5  11
ATOM     11  O   UNL     1      -1.510  72.495 -15.875  1.00  0.00    -0.507 OA
ATOM     12  H   UNL     1      -1.242  73.464 -15.753  1.00  0.00     0.293 HD
ENDBRANCH   5  11
TORSDOF 2
ENDMDL
MODEL 8
REMARK VINA RESULT:    -4.135     17.218     18.268
REMARK INTER + INTRA:          -4.791
REMARK INTER:                  -4.500
REMARK INTRA:                  -0.291
REMARK UNBOUND:                -0.294
REMARK SMILES CC(=O)c1cc(C)ccc1O
REMARK SMILES IDX 7 1 6 2 5 3 4 4 10 5 9 6 8 7 2 8 3 9 1 10 11 11
REMARK H PARENT 11 12
REMARK Flexibility Score: inf
ROOT
ATOM      1  C   UNL     1       9.357  82.020 -18.264  1.00  0.00     0.044 C 
ATOM      2  C   UNL     1      10.750  82.514 -18.529  1.00  0.00    -0.050 A 
ATOM      3  C   UNL     1      11.081  83.052 -19.781  1.00  0.00     0.019 A 
ATOM      4  C   UNL     1      12.375  83.550 -20.038  1.00  0.00     0.059 A 
ATOM      5  C   UNL     1      13.334  83.514 -18.999  1.00  0.00     0.126 A 
ATOM      6  C   UNL     1      12.991  82.990 -17.745  1.00  0.00     0.047 A 
ATOM      7  C   UNL     1      11.707  82.500 -17.509  1.00  0.00     0.007 A 
ENDROOT
BRANCH   4   8
ATOM      8  C   UNL     1      12.714  84.101 -21.382  1.00  0.00     0.163 C 
ATOM      9  O   UNL     1      13.445  85.123 -21.482  1.00  0.00    -0.294 OA
ATOM     10  C   UNL     1      12.236  83.449 -22.646  1.00  0.00     0.093 C 
ENDBRANCH   4   8
BRANCH   5  11
ATOM     11  O   UNL     1      14.623  84.010 -19.201  1.00  0.00    -0.507 OA
ATOM     12  H   UNL     1      15.296  84.068 -18.446  1.00  0.00     0.293 HD
ENDBRANCH   5  11
TORSDOF 2
ENDMDL
MODEL 9
REMARK VINA RESULT:    -3.971      9.819     12.385
REMARK INTER + INTRA:          -4.613
REMARK INTER:                  -4.308
REMARK INTRA:                  -0.305
REMARK UNBOUND:                -0.294
REMARK SMILES CC(=O)c1cc(C)ccc1O
REMARK SMILES IDX 7 1 6 2 5 3 4 4 10 5 9 6 8 7 2 8 3 9 1 10 11 11
REMARK H PARENT 11 12
REMARK Flexibility Score: inf
ROOT
ATOM      1  C   UNL     1      10.753  80.562 -29.453  1.00  0.00     0.044 C 
ATOM      2  C   UNL     1       9.829  79.776 -30.337  1.00  0.00    -0.050 A 
ATOM      3  C   UNL     1       9.742  78.382 -30.202  1.00  0.00     0.019 A 
ATOM      4  C   UNL     1       8.856  77.630 -31.001  1.00  0.00     0.059 A 
ATOM      5  C   UNL     1       8.038  78.311 -31.934  1.00  0.00     0.126 A 
ATOM      6  C   UNL     1       8.119  79.706 -32.050  1.00  0.00     0.047 A 
ATOM      7  C   UNL     1       9.002  80.434 -31.253  1.00  0.00     0.007 A 
ENDROOT
BRANCH   4   8
ATOM      8  C   UNL     1       8.791  76.147 -30.858  1.00  0.00     0.163 C 
ATOM      9  O   UNL     1       7.675  75.567 -30.770  1.00  0.00    -0.294 OA
ATOM     10  C   UNL     1      10.029  75.300 -30.850  1.00  0.00     0.093 C 
ENDBRANCH   4   8
BRANCH   5  11
ATOM     11  O   UNL     1       7.135  77.612 -32.734  1.00  0.00    -0.507 OA
ATOM     12  H   UNL     1       7.394  76.754 -33.206  1.00  0.00     0.293 HD
ENDBRANCH   5  11
TORSDOF 2
ENDMDL
