MODEL 1
REMARK VINA RESULT:    -6.336      0.000      0.000
REMARK INTER + INTRA:          -7.724
REMARK INTER:                  -7.447
REMARK INTRA:                  -0.277
REMARK UNBOUND:                -0.277
REMARK SMILES O=c1c(O)c(-c2ccc(O)cc2)oc2cc(O)cc(O)c12
REMARK SMILES IDX 5 1 3 2 2 3 1 4 21 5 19 6 18 7 16 8 15 9 14 10 13 11 6 12
REMARK SMILES IDX 7 13 8 14 9 15 12 16 11 17 10 18 4 20 20 22 17 24
REMARK H PARENT 10 19 4 21 20 23 17 25
REMARK Flexibility Score: inf
ROOT
ATOM      1  C   UNL     1       6.925  52.601  19.177  1.00  0.00     0.180 A 
ATOM      2  C   UNL     1       8.265  52.872  18.848  1.00  0.00     0.208 A 
ATOM      3  C   UNL     1       9.235  52.837  19.861  1.00  0.00     0.238 A 
ATOM      4  O   UNL     1      10.424  53.132  19.572  1.00  0.00    -0.285 OA
ATOM      5  C   UNL     1       8.858  52.515  21.188  1.00  0.00     0.111 A 
ATOM      6  C   UNL     1       9.764  52.411  22.286  1.00  0.00     0.134 A 
ATOM      7  C   UNL     1       9.262  52.217  23.578  1.00  0.00     0.093 A 
ATOM      8  C   UNL     1       7.895  52.057  23.804  1.00  0.00     0.123 A 
ATOM      9  C   UNL     1       7.006  52.097  22.730  1.00  0.00     0.094 A 
ATOM     10  C   UNL     1       7.473  52.326  21.434  1.00  0.00     0.146 A 
ATOM     11  O   UNL     1       6.593  52.369  20.440  1.00  0.00    -0.452 OA
ENDROOT
BRANCH   1  12
ATOM     12  C   UNL     1       5.851  52.595  18.158  1.00  0.00     0.021 A 
ATOM     13  C   UNL     1       5.061  53.734  17.918  1.00  0.00     0.016 A 
ATOM     14  C   UNL     1       4.068  53.712  16.933  1.00  0.00     0.047 A 
ATOM     15  C   UNL     1       3.861  52.557  16.168  1.00  0.00     0.115 A 
ATOM     16  C   UNL     1       5.650  51.447  17.371  1.00  0.00     0.016 A 
ATOM     17  C   UNL     1       4.656  51.428  16.389  1.00  0.00     0.047 A 
BRANCH  15  18
ATOM     18  O   UNL     1       2.875  52.523  15.185  1.00  0.00    -0.508 OA
ATOM     19  H   UNL     1       2.717  53.310  14.565  1.00  0.00     0.293 HD
ENDBRANCH  15  18
ENDBRANCH   1  12
BRANCH   2  20
ATOM     20  O   UNL     1       8.613  53.209  17.536  1.00  0.00    -0.502 OA
ATOM     21  H   UNL     1       8.006  53.753  16.935  1.00  0.00     0.293 HD
ENDBRANCH   2  20
BRANCH   6  22
ATOM     22  O   UNL     1      11.155  52.464  22.157  1.00  0.00    -0.507 OA
ATOM     23  H   UNL     1      11.797  52.620  22.919  1.00  0.00     0.293 HD
ENDBRANCH   6  22
BRANCH   8  24
ATOM     24  O   UNL     1       7.433  51.849  25.102  1.00  0.00    -0.508 OA
ATOM     25  H   UNL     1       7.990  51.356  25.790  1.00  0.00     0.293 HD
ENDBRANCH   8  24
TORSDOF 5
ENDMDL
MODEL 2
REMARK VINA RESULT:    -6.296      2.509      3.892
REMARK INTER + INTRA:          -7.678
REMARK INTER:                  -7.420
REMARK INTRA:                  -0.257
REMARK UNBOUND:                -0.277
REMARK SMILES O=c1c(O)c(-c2ccc(O)cc2)oc2cc(O)cc(O)c12
REMARK SMILES IDX 5 1 3 2 2 3 1 4 21 5 19 6 18 7 16 8 15 9 14 10 13 11 6 12
REMARK SMILES IDX 7 13 8 14 9 15 12 16 11 17 10 18 4 20 20 22 17 24
REMARK H PARENT 10 19 4 21 20 23 17 25
REMARK Flexibility Score: inf
ROOT
ATOM      1  C   UNL     1       9.394  52.738  20.289  1.00  0.00     0.180 A 
ATOM      2  C   UNL     1      10.267  53.392  19.401  1.00  0.00     0.208 A 
ATOM      3  C   UNL     1      11.652  53.279  19.601  1.00  0.00     0.238 A 
ATOM      4  O   UNL     1      12.427  53.909  18.836  1.00  0.00    -0.285 OA
ATOM      5  C   UNL     1      12.148  52.501  20.675  1.00  0.00     0.111 A 
ATOM      6  C   UNL     1      13.532  52.284  20.948  1.00  0.00     0.134 A 
ATOM      7  C   UNL     1      13.907  51.606  22.114  1.00  0.00     0.093 A 
ATOM      8  C   UNL     1      12.951  51.080  22.982  1.00  0.00     0.123 A 
ATOM      9  C   UNL     1      11.595  51.234  22.693  1.00  0.00     0.094 A 
ATOM     10  C   UNL     1      11.189  51.938  21.557  1.00  0.00     0.146 A 
ATOM     11  O   UNL     1       9.888  52.072  21.324  1.00  0.00    -0.452 OA
ENDROOT
BRANCH   1  12
ATOM     12  C   UNL     1       7.923  52.790  20.127  1.00  0.00     0.021 A 
ATOM     13  C   UNL     1       7.263  52.015  19.157  1.00  0.00     0.016 A 
ATOM     14  C   UNL     1       5.870  52.063  19.041  1.00  0.00     0.047 A 
ATOM     15  C   UNL     1       5.120  52.874  19.900  1.00  0.00     0.115 A 
ATOM     16  C   UNL     1       7.160  53.586  21.000  1.00  0.00     0.016 A 
ATOM     17  C   UNL     1       5.768  53.632  20.880  1.00  0.00     0.047 A 
BRANCH  15  18
ATOM     18  O   UNL     1       3.732  52.930  19.793  1.00  0.00    -0.508 OA
ATOM     19  H   UNL     1       3.129  52.548  20.514  1.00  0.00     0.293 HD
ENDBRANCH  15  18
ENDBRANCH   1  12
BRANCH   2  20
ATOM     20  O   UNL     1       9.756  54.172  18.359  1.00  0.00    -0.502 OA
ATOM     21  H   UNL     1       9.230  53.776  17.590  1.00  0.00     0.293 HD
ENDBRANCH   2  20
BRANCH   6  22
ATOM     22  O   UNL     1      14.567  52.688  20.099  1.00  0.00    -0.507 OA
ATOM     23  H   UNL     1      14.554  53.523  19.534  1.00  0.00     0.293 HD
ENDBRANCH   6  22
BRANCH   8  24
ATOM     24  O   UNL     1      13.362  50.397  24.124  1.00  0.00    -0.508 OA
ATOM     25  H   UNL     1      12.697  50.090  24.825  1.00  0.00     0.293 HD
ENDBRANCH   8  24
TORSDOF 5
ENDMDL
MODEL 3
REMARK VINA RESULT:    -6.135      2.169      4.170
REMARK INTER + INTRA:          -7.488
REMARK INTER:                  -7.424
REMARK INTRA:                  -0.064
REMARK UNBOUND:                -0.277
REMARK SMILES O=c1c(O)c(-c2ccc(O)cc2)oc2cc(O)cc(O)c12
REMARK SMILES IDX 5 1 3 2 2 3 1 4 21 5 19 6 18 7 16 8 15 9 14 10 13 11 6 12
REMARK SMILES IDX 7 13 8 14 9 15 12 16 11 17 10 18 4 20 20 22 17 24
REMARK H PARENT 10 19 4 21 20 23 17 25
REMARK Flexibility Score: inf
ROOT
ATOM      1  C   UNL     1       8.382  52.310  21.587  1.00  0.00     0.180 A 
ATOM      2  C   UNL     1       8.282  52.136  22.978  1.00  0.00     0.208 A 
ATOM      3  C   UNL     1       9.451  51.922  23.724  1.00  0.00     0.238 A 
ATOM      4  O   UNL     1       9.350  51.714  24.961  1.00  0.00    -0.285 OA
ATOM      5  C   UNL     1      10.709  51.901  23.073  1.00  0.00     0.111 A 
ATOM      6  C   UNL     1      11.962  51.733  23.735  1.00  0.00     0.134 A 
ATOM      7  C   UNL     1      13.130  51.597  22.976  1.00  0.00     0.093 A 
ATOM      8  C   UNL     1      13.101  51.689  21.585  1.00  0.00     0.123 A 
ATOM      9  C   UNL     1      11.889  51.914  20.931  1.00  0.00     0.094 A 
ATOM     10  C   UNL     1      10.702  52.017  21.658  1.00  0.00     0.146 A 
ATOM     11  O   UNL     1       9.568  52.219  20.998  1.00  0.00    -0.452 OA
ENDROOT
BRANCH   1  12
ATOM     12  C   UNL     1       7.197  52.565  20.737  1.00  0.00     0.021 A 
ATOM     13  C   UNL     1       6.328  53.641  20.993  1.00  0.00     0.016 A 
ATOM     14  C   UNL     1       5.228  53.876  20.162  1.00  0.00     0.047 A 
ATOM     15  C   UNL     1       4.991  53.048  19.058  1.00  0.00     0.115 A 
ATOM     16  C   UNL     1       6.962  51.751  19.615  1.00  0.00     0.016 A 
ATOM     17  C   UNL     1       5.861  51.988  18.787  1.00  0.00     0.047 A 
BRANCH  15  18
ATOM     18  O   UNL     1       3.898  53.271  18.223  1.00  0.00    -0.508 OA
ATOM     19  H   UNL     1       2.946  53.184  18.562  1.00  0.00     0.293 HD
ENDBRANCH  15  18
ENDBRANCH   1  12
BRANCH   2  20
ATOM     20  O   UNL     1       7.028  52.138  23.598  1.00  0.00    -0.502 OA
ATOM     21  H   UNL     1       6.754  52.848  24.267  1.00  0.00     0.293 HD
ENDBRANCH   2  20
BRANCH   6  22
ATOM     22  O   UNL     1      12.114  51.720  25.125  1.00  0.00    -0.507 OA
ATOM     23  H   UNL     1      11.469  52.137  25.778  1.00  0.00     0.293 HD
ENDBRANCH   6  22
BRANCH   8  24
ATOM     24  O   UNL     1      14.286  51.566  20.863  1.00  0.00    -0.508 OA
ATOM     25  H   UNL     1      14.489  52.164  20.071  1.00  0.00     0.293 HD
ENDBRANCH   8  24
TORSDOF 5
ENDMDL
MODEL 4
REMARK VINA RESULT:    -5.864      2.197      6.665
REMARK INTER + INTRA:          -7.170
REMARK INTER:                  -6.896
REMARK INTRA:                  -0.273
REMARK UNBOUND:                -0.277
REMARK SMILES O=c1c(O)c(-c2ccc(O)cc2)oc2cc(O)cc(O)c12
REMARK SMILES IDX 5 1 3 2 2 3 1 4 21 5 19 6 18 7 16 8 15 9 14 10 13 11 6 12
REMARK SMILES IDX 7 13 8 14 9 15 12 16 11 17 10 18 4 20 20 22 17 24
REMARK H PARENT 10 19 4 21 20 23 17 25
REMARK Flexibility Score: inf
ROOT
ATOM      1  C   UNL     1       8.860  52.677  19.476  1.00  0.00     0.180 A 
ATOM      2  C   UNL     1       8.175  52.721  20.703  1.00  0.00     0.208 A 
ATOM      3  C   UNL     1       6.781  52.884  20.700  1.00  0.00     0.238 A 
ATOM      4  O   UNL     1       6.180  52.976  21.802  1.00  0.00    -0.285 OA
ATOM      5  C   UNL     1       6.086  52.984  19.470  1.00  0.00     0.111 A 
ATOM      6  C   UNL     1       4.670  53.111  19.347  1.00  0.00     0.134 A 
ATOM      7  C   UNL     1       4.104  53.335  18.086  1.00  0.00     0.093 A 
ATOM      8  C   UNL     1       4.894  53.370  16.938  1.00  0.00     0.123 A 
ATOM      9  C   UNL     1       6.273  53.187  17.040  1.00  0.00     0.094 A 
ATOM     10  C   UNL     1       6.871  52.999  18.288  1.00  0.00     0.146 A 
ATOM     11  O   UNL     1       8.188  52.840  18.343  1.00  0.00    -0.452 OA
ENDROOT
BRANCH   1  12
ATOM     12  C   UNL     1      10.326  52.482  19.399  1.00  0.00     0.021 A 
ATOM     13  C   UNL     1      10.886  51.217  19.147  1.00  0.00     0.016 A 
ATOM     14  C   UNL     1      12.273  51.063  19.054  1.00  0.00     0.047 A 
ATOM     15  C   UNL     1      13.115  52.172  19.198  1.00  0.00     0.115 A 
ATOM     16  C   UNL     1      11.178  53.594  19.522  1.00  0.00     0.016 A 
ATOM     17  C   UNL     1      12.564  53.436  19.430  1.00  0.00     0.047 A 
BRANCH  15  18
ATOM     18  O   UNL     1      14.498  52.031  19.108  1.00  0.00    -0.508 OA
ATOM     19  H   UNL     1      15.022  52.430  18.337  1.00  0.00     0.293 HD
ENDBRANCH  15  18
ENDBRANCH   1  12
BRANCH   2  20
ATOM     20  O   UNL     1       8.883  52.642  21.907  1.00  0.00    -0.502 OA
ATOM     21  H   UNL     1       8.717  51.910  22.588  1.00  0.00     0.293 HD
ENDBRANCH   2  20
BRANCH   6  22
ATOM     22  O   UNL     1       3.781  52.999  20.420  1.00  0.00    -0.507 OA
ATOM     23  H   UNL     1       4.032  53.117  21.389  1.00  0.00     0.293 HD
ENDBRANCH   6  22
BRANCH   8  24
ATOM     24  O   UNL     1       4.294  53.579  15.697  1.00  0.00    -0.508 OA
ATOM     25  H   UNL     1       3.398  54.044  15.614  1.00  0.00     0.293 HD
ENDBRANCH   8  24
TORSDOF 5
ENDMDL
MODEL 5
REMARK VINA RESULT:    -5.744      4.123      5.701
REMARK INTER + INTRA:          -7.029
REMARK INTER:                  -6.736
REMARK INTRA:                  -0.293
REMARK UNBOUND:                -0.277
REMARK SMILES O=c1c(O)c(-c2ccc(O)cc2)oc2cc(O)cc(O)c12
REMARK SMILES IDX 5 1 3 2 2 3 1 4 21 5 19 6 18 7 16 8 15 9 14 10 13 11 6 12
REMARK SMILES IDX 7 13 8 14 9 15 12 16 11 17 10 18 4 20 20 22 17 24
REMARK H PARENT 10 19 4 21 20 23 17 25
REMARK Flexibility Score: inf
ROOT
ATOM      1  C   UNL     1      11.148  52.575  20.246  1.00  0.00     0.180 A 
ATOM      2  C   UNL     1       9.914  53.119  20.640  1.00  0.00     0.208 A 
ATOM      3  C   UNL     1       9.343  52.704  21.853  1.00  0.00     0.238 A 
ATOM      4  O   UNL     1       8.212  53.154  22.175  1.00  0.00    -0.285 OA
ATOM      5  C   UNL     1      10.020  51.762  22.665  1.00  0.00     0.111 A 
ATOM      6  C   UNL     1       9.554  51.301  23.932  1.00  0.00     0.134 A 
ATOM      7  C   UNL     1      10.239  50.270  24.587  1.00  0.00     0.093 A 
ATOM      8  C   UNL     1      11.409  49.731  24.053  1.00  0.00     0.123 A 
ATOM      9  C   UNL     1      11.907  50.217  22.844  1.00  0.00     0.094 A 
ATOM     10  C   UNL     1      11.225  51.218  22.149  1.00  0.00     0.146 A 
ATOM     11  O   UNL     1      11.726  51.645  20.996  1.00  0.00    -0.452 OA
ENDROOT
BRANCH   1  12
ATOM     12  C   UNL     1      11.824  52.982  18.993  1.00  0.00     0.021 A 
ATOM     13  C   UNL     1      12.769  54.024  18.974  1.00  0.00     0.016 A 
ATOM     14  C   UNL     1      13.413  54.374  17.783  1.00  0.00     0.047 A 
ATOM     15  C   UNL     1      13.131  53.680  16.600  1.00  0.00     0.115 A 
ATOM     16  C   UNL     1      11.563  52.277  17.805  1.00  0.00     0.016 A 
ATOM     17  C   UNL     1      12.207  52.630  16.616  1.00  0.00     0.047 A 
BRANCH  15  18
ATOM     18  O   UNL     1      13.765  54.019  15.407  1.00  0.00    -0.508 OA
ATOM     19  H   UNL     1      14.192  54.930  15.275  1.00  0.00     0.293 HD
ENDBRANCH  15  18
ENDBRANCH   1  12
BRANCH   2  20
ATOM     20  O   UNL     1       9.251  54.032  19.813  1.00  0.00    -0.502 OA
ATOM     21  H   UNL     1       8.789  54.858  20.175  1.00  0.00     0.293 HD
ENDBRANCH   2  20
BRANCH   6  22
ATOM     22  O   UNL     1       8.446  51.835  24.598  1.00  0.00    -0.507 OA
ATOM     23  H   UNL     1       8.406  52.762  24.994  1.00  0.00     0.293 HD
ENDBRANCH   6  22
BRANCH   8  24
ATOM     24  O   UNL     1      12.075  48.717  24.740  1.00  0.00    -0.508 OA
ATOM     25  H   UNL     1      12.065  47.759  24.410  1.00  0.00     0.293 HD
ENDBRANCH   8  24
TORSDOF 5
ENDMDL
MODEL 6
REMARK VINA RESULT:    -5.682      2.054      6.655
REMARK INTER + INTRA:          -6.955
REMARK INTER:                  -7.301
REMARK INTRA:                   0.345
REMARK UNBOUND:                -0.277
REMARK SMILES O=c1c(O)c(-c2ccc(O)cc2)oc2cc(O)cc(O)c12
REMARK SMILES IDX 5 1 3 2 2 3 1 4 21 5 19 6 18 7 16 8 15 9 14 10 13 11 6 12
REMARK SMILES IDX 7 13 8 14 9 15 12 16 11 17 10 18 4 20 20 22 17 24
REMARK H PARENT 10 19 4 21 20 23 17 25
REMARK Flexibility Score: inf
ROOT
ATOM      1  C   UNL     1       9.429  52.333  20.863  1.00  0.00     0.180 A 
ATOM      2  C   UNL     1       9.882  52.502  19.543  1.00  0.00     0.208 A 
ATOM      3  C   UNL     1       8.949  52.790  18.535  1.00  0.00     0.238 A 
ATOM      4  O   UNL     1       9.353  52.888  17.346  1.00  0.00    -0.285 OA
ATOM      5  C   UNL     1       7.577  52.921  18.860  1.00  0.00     0.111 A 
ATOM      6  C   UNL     1       6.550  53.251  17.926  1.00  0.00     0.134 A 
ATOM      7  C   UNL     1       5.211  53.224  18.335  1.00  0.00     0.093 A 
ATOM      8  C   UNL     1       4.866  52.945  19.656  1.00  0.00     0.123 A 
ATOM      9  C   UNL     1       5.867  52.680  20.592  1.00  0.00     0.094 A 
ATOM     10  C   UNL     1       7.209  52.663  20.207  1.00  0.00     0.146 A 
ATOM     11  O   UNL     1       8.130  52.396  21.125  1.00  0.00    -0.452 OA
ENDROOT
BRANCH   1  12
ATOM     12  C   UNL     1      10.356  52.052  21.983  1.00  0.00     0.021 A 
ATOM     13  C   UNL     1      10.070  52.471  23.295  1.00  0.00     0.016 A 
ATOM     14  C   UNL     1      10.949  52.173  24.341  1.00  0.00     0.047 A 
ATOM     15  C   UNL     1      12.117  51.441  24.092  1.00  0.00     0.115 A 
ATOM     16  C   UNL     1      11.521  51.300  21.746  1.00  0.00     0.016 A 
ATOM     17  C   UNL     1      12.398  51.005  22.793  1.00  0.00     0.047 A 
BRANCH  15  18
ATOM     18  O   UNL     1      13.000  51.138  25.125  1.00  0.00    -0.508 OA
ATOM     19  H   UNL     1      12.688  51.073  26.087  1.00  0.00     0.293 HD
ENDBRANCH  15  18
ENDBRANCH   1  12
BRANCH   2  20
ATOM     20  O   UNL     1      11.239  52.348  19.239  1.00  0.00    -0.502 OA
ATOM     21  H   UNL     1      11.974  52.687  19.847  1.00  0.00     0.293 HD
ENDBRANCH   2  20
BRANCH   6  22
ATOM     22  O   UNL     1       6.792  53.635  16.603  1.00  0.00    -0.507 OA
ATOM     23  H   UNL     1       7.124  53.018  15.878  1.00  0.00     0.293 HD
ENDBRANCH   6  22
BRANCH   8  24
ATOM     24  O   UNL     1       3.524  52.943  20.031  1.00  0.00    -0.508 OA
ATOM     25  H   UNL     1       2.884  52.231  19.702  1.00  0.00     0.293 HD
ENDBRANCH   8  24
TORSDOF 5
ENDMDL
MODEL 7
REMARK VINA RESULT:    -5.661      4.731      6.950
REMARK INTER + INTRA:          -6.931
REMARK INTER:                  -7.048
REMARK INTRA:                   0.118
REMARK UNBOUND:                -0.277
REMARK SMILES O=c1c(O)c(-c2ccc(O)cc2)oc2cc(O)cc(O)c12
REMARK SMILES IDX 5 1 3 2 2 3 1 4 21 5 19 6 18 7 16 8 15 9 14 10 13 11 6 12
REMARK SMILES IDX 7 13 8 14 9 15 12 16 11 17 10 18 4 20 20 22 17 24
REMARK H PARENT 10 19 4 21 20 23 17 25
REMARK Flexibility Score: inf
ROOT
ATOM      1  C   UNL     1      11.192  51.606  22.950  1.00  0.00     0.180 A 
ATOM      2  C   UNL     1      11.464  51.447  21.580  1.00  0.00     0.208 A 
ATOM      3  C   UNL     1      12.800  51.411  21.151  1.00  0.00     0.238 A 
ATOM      4  O   UNL     1      13.037  51.322  19.918  1.00  0.00    -0.285 OA
ATOM      5  C   UNL     1      13.848  51.517  22.097  1.00  0.00     0.111 A 
ATOM      6  C   UNL     1      15.237  51.452  21.779  1.00  0.00     0.134 A 
ATOM      7  C   UNL     1      16.186  51.701  22.778  1.00  0.00     0.093 A 
ATOM      8  C   UNL     1      15.799  51.947  24.095  1.00  0.00     0.123 A 
ATOM      9  C   UNL     1      14.445  51.953  24.428  1.00  0.00     0.094 A 
ATOM     10  C   UNL     1      13.473  51.745  23.447  1.00  0.00     0.146 A 
ATOM     11  O   UNL     1      12.195  51.769  23.804  1.00  0.00    -0.452 OA
ENDROOT
BRANCH   1  12
ATOM     12  C   UNL     1       9.810  51.628  23.481  1.00  0.00     0.021 A 
ATOM     13  C   UNL     1       9.452  50.896  24.628  1.00  0.00     0.016 A 
ATOM     14  C   UNL     1       8.146  50.953  25.125  1.00  0.00     0.047 A 
ATOM     15  C   UNL     1       7.186  51.751  24.491  1.00  0.00     0.115 A 
ATOM     16  C   UNL     1       8.845  52.443  22.863  1.00  0.00     0.016 A 
ATOM     17  C   UNL     1       7.540  52.496  23.362  1.00  0.00     0.047 A 
BRANCH  15  18
ATOM     18  O   UNL     1       5.882  51.815  24.976  1.00  0.00    -0.508 OA
ATOM     19  H   UNL     1       5.105  51.416  24.461  1.00  0.00     0.293 HD
ENDBRANCH  15  18
ENDBRANCH   1  12
BRANCH   2  20
ATOM     20  O   UNL     1      10.414  51.365  20.660  1.00  0.00    -0.502 OA
ATOM     21  H   UNL     1       9.486  51.055  20.920  1.00  0.00     0.293 HD
ENDBRANCH   2  20
BRANCH   6  22
ATOM     22  O   UNL     1      15.733  51.124  20.514  1.00  0.00    -0.507 OA
ATOM     23  H   UNL     1      16.161  51.777  19.877  1.00  0.00     0.293 HD
ENDBRANCH   6  22
BRANCH   8  24
ATOM     24  O   UNL     1      16.772  52.174  25.066  1.00  0.00    -0.508 OA
ATOM     25  H   UNL     1      17.446  51.461  25.317  1.00  0.00     0.293 HD
ENDBRANCH   8  24
TORSDOF 5
ENDMDL
MODEL 8
REMARK VINA RESULT:    -5.655      2.776      4.950
REMARK INTER + INTRA:          -6.924
REMARK INTER:                  -6.665
REMARK INTRA:                  -0.259
REMARK UNBOUND:                -0.277
REMARK SMILES O=c1c(O)c(-c2ccc(O)cc2)oc2cc(O)cc(O)c12
REMARK SMILES IDX 5 1 3 2 2 3 1 4 21 5 19 6 18 7 16 8 15 9 14 10 13 11 6 12
REMARK SMILES IDX 7 13 8 14 9 15 12 16 11 17 10 18 4 20 20 22 17 24
REMARK H PARENT 10 19 4 21 20 23 17 25
REMARK Flexibility Score: inf
ROOT
ATOM      1  C   UNL     1       9.326  52.845  20.200  1.00  0.00     0.180 A 
ATOM      2  C   UNL     1      10.037  52.152  21.195  1.00  0.00     0.208 A 
ATOM      3  C   UNL     1      11.439  52.203  21.190  1.00  0.00     0.238 A 
ATOM      4  O   UNL     1      12.073  51.538  22.051  1.00  0.00    -0.285 OA
ATOM      5  C   UNL     1      12.114  52.958  20.200  1.00  0.00     0.111 A 
ATOM      6  C   UNL     1      13.530  53.113  20.123  1.00  0.00     0.134 A 
ATOM      7  C   UNL     1      14.094  53.774  19.025  1.00  0.00     0.093 A 
ATOM      8  C   UNL     1      13.292  54.344  18.037  1.00  0.00     0.123 A 
ATOM      9  C   UNL     1      11.903  54.250  18.134  1.00  0.00     0.094 A 
ATOM     10  C   UNL     1      11.312  53.565  19.197  1.00  0.00     0.146 A 
ATOM     11  O   UNL     1       9.988  53.489  19.247  1.00  0.00    -0.452 OA
ENDROOT
BRANCH   1  12
ATOM     12  C   UNL     1       7.845  52.858  20.155  1.00  0.00     0.021 A 
ATOM     13  C   UNL     1       7.092  53.667  21.026  1.00  0.00     0.016 A 
ATOM     14  C   UNL     1       5.696  53.681  20.948  1.00  0.00     0.047 A 
ATOM     15  C   UNL     1       5.037  52.900  19.991  1.00  0.00     0.115 A 
ATOM     16  C   UNL     1       7.176  52.093  19.184  1.00  0.00     0.016 A 
ATOM     17  C   UNL     1       5.780  52.109  19.109  1.00  0.00     0.047 A 
BRANCH  15  18
ATOM     18  O   UNL     1       3.646  52.906  19.904  1.00  0.00    -0.508 OA
ATOM     19  H   UNL     1       3.149  53.644  19.419  1.00  0.00     0.293 HD
ENDBRANCH  15  18
ENDBRANCH   1  12
BRANCH   2  20
ATOM     20  O   UNL     1       9.352  51.394  22.150  1.00  0.00    -0.502 OA
ATOM     21  H   UNL     1       8.393  51.096  22.022  1.00  0.00     0.293 HD
ENDBRANCH   2  20
BRANCH   6  22
ATOM     22  O   UNL     1      14.419  52.662  21.104  1.00  0.00    -0.507 OA
ATOM     23  H   UNL     1      15.322  53.069  21.292  1.00  0.00     0.293 HD
ENDBRANCH   6  22
BRANCH   8  24
ATOM     24  O   UNL     1      13.887  55.009  16.967  1.00  0.00    -0.508 OA
ATOM     25  H   UNL     1      13.610  54.825  16.009  1.00  0.00     0.293 HD
ENDBRANCH   8  24
TORSDOF 5
ENDMDL
MODEL 9
REMARK VINA RESULT:    -5.494      3.677      8.045
REMARK INTER + INTRA:          -6.735
REMARK INTER:                  -6.447
REMARK INTRA:                  -0.288
REMARK UNBOUND:                -0.277
REMARK SMILES O=c1c(O)c(-c2ccc(O)cc2)oc2cc(O)cc(O)c12
REMARK SMILES IDX 5 1 3 2 2 3 1 4 21 5 19 6 18 7 16 8 15 9 14 10 13 11 6 12
REMARK SMILES IDX 7 13 8 14 9 15 12 16 11 17 10 18 4 20 20 22 17 24
REMARK H PARENT 10 19 4 21 20 23 17 25
REMARK Flexibility Score: inf
ROOT
ATOM      1  C   UNL     1      12.329  51.707  22.365  1.00  0.00     0.180 A 
ATOM      2  C   UNL     1      11.899  50.922  23.449  1.00  0.00     0.208 A 
ATOM      3  C   UNL     1      10.528  50.853  23.739  1.00  0.00     0.238 A 
ATOM      4  O   UNL     1      10.154  50.192  24.743  1.00  0.00    -0.285 OA
ATOM      5  C   UNL     1       9.600  51.556  22.932  1.00  0.00     0.111 A 
ATOM      6  C   UNL     1       8.185  51.526  23.110  1.00  0.00     0.134 A 
ATOM      7  C   UNL     1       7.374  52.364  22.335  1.00  0.00     0.093 A 
ATOM      8  C   UNL     1       7.919  53.181  21.346  1.00  0.00     0.123 A 
ATOM      9  C   UNL     1       9.297  53.174  21.123  1.00  0.00     0.094 A 
ATOM     10  C   UNL     1      10.135  52.377  21.904  1.00  0.00     0.146 A 
ATOM     11  O   UNL     1      11.442  52.407  21.669  1.00  0.00    -0.452 OA
ENDROOT
BRANCH   1  12
ATOM     12  C   UNL     1      13.756  51.808  21.982  1.00  0.00     0.021 A 
ATOM     13  C   UNL     1      14.312  50.974  20.996  1.00  0.00     0.016 A 
ATOM     14  C   UNL     1      15.657  51.106  20.634  1.00  0.00     0.047 A 
ATOM     15  C   UNL     1      16.457  52.080  21.243  1.00  0.00     0.115 A 
ATOM     16  C   UNL     1      14.561  52.797  22.574  1.00  0.00     0.016 A 
ATOM     17  C   UNL     1      15.905  52.925  22.211  1.00  0.00     0.047 A 
BRANCH  15  18
ATOM     18  O   UNL     1      17.798  52.220  20.892  1.00  0.00    -0.508 OA
ATOM     19  H   UNL     1      18.156  51.860  20.015  1.00  0.00     0.293 HD
ENDBRANCH  15  18
ENDBRANCH   1  12
BRANCH   2  20
ATOM     20  O   UNL     1      12.833  50.253  24.246  1.00  0.00    -0.502 OA
ATOM     21  H   UNL     1      13.831  50.310  24.079  1.00  0.00     0.293 HD
ENDBRANCH   2  20
BRANCH   6  22
ATOM     22  O   UNL     1       7.529  50.678  24.007  1.00  0.00    -0.507 OA
ATOM     23  H   UNL     1       7.013  50.986  24.817  1.00  0.00     0.293 HD
ENDBRANCH   6  22
BRANCH   8  24
ATOM     24  O   UNL     1       7.080  53.991  20.582  1.00  0.00    -0.508 OA
ATOM     25  H   UNL     1       6.602  54.787  20.986  1.00  0.00     0.293 HD
ENDBRANCH   8  24
TORSDOF 5
ENDMDL
