MODEL 1
REMARK VINA RESULT:    -3.847      0.000      0.000
REMARK INTER + INTRA:          -9.764
REMARK INTER:                  -7.221
REMARK INTRA:                  -2.543
REMARK UNBOUND:                -2.543
REMARK SMILES CCCCCCCCC=CCCCCCCCC(=O)[O-]
REMARK SMILES IDX 10 1 9 2 11 3 12 4 13 5 14 6 15 7 16 8 17 9 18 10 19 11
REMARK SMILES IDX 20 12 8 13 7 14 6 15 5 16 4 17 3 18 2 19 1 20
REMARK H PARENT
REMARK Flexibility Score: inf
ROOT
ATOM      1  C   UNL     1       9.609  47.001  62.752  1.00  0.00    -0.031 C 
ATOM      2  C   UNL     1       8.991  47.315  61.596  1.00  0.00    -0.031 C 
ENDROOT
BRANCH   1   3
ATOM      3  C   UNL     1      11.069  47.253  63.059  1.00  0.00     0.027 C 
BRANCH   3   4
ATOM      4  C   UNL     1      11.260  48.539  63.877  1.00  0.00     0.004 C 
BRANCH   4   5
ATOM      5  C   UNL     1      12.240  49.517  63.208  1.00  0.00     0.000 C 
BRANCH   5   6
ATOM      6  C   UNL     1      12.770  49.003  61.856  1.00  0.00     0.000 C 
BRANCH   6   7
ATOM      7  C   UNL     1      12.922  50.076  60.760  1.00  0.00     0.000 C 
BRANCH   7   8
ATOM      8  C   UNL     1      14.289  50.782  60.711  1.00  0.00     0.006 C 
BRANCH   8   9
ATOM      9  C   UNL     1      14.675  51.305  59.314  1.00  0.00     0.053 C 
BRANCH   9  10
ATOM     10  C   UNL     1      15.580  50.366  58.578  1.00  0.00     0.041 C 
ATOM     11  O   UNL     1      15.641  49.152  58.910  1.00  0.00    -0.550 OA
ATOM     12  O   UNL     1      16.374  50.834  57.539  1.00  0.00    -0.550 OA
ENDBRANCH   9  10
ENDBRANCH   8   9
ENDBRANCH   7   8
ENDBRANCH   6   7
ENDBRANCH   5   6
ENDBRANCH   4   5
ENDBRANCH   3   4
ENDBRANCH   1   3
BRANCH   2  13
ATOM     13  C   UNL     1       9.642  47.999  60.421  1.00  0.00     0.027 C 
BRANCH  13  14
ATOM     14  C   UNL     1       9.306  49.497  60.384  1.00  0.00     0.004 C 
BRANCH  14  15
ATOM     15  C   UNL     1       7.903  49.798  60.935  1.00  0.00     0.000 C 
BRANCH  15  16
ATOM     16  C   UNL     1       7.863  51.110  61.740  1.00  0.00     0.000 C 
BRANCH  16  17
ATOM     17  C   UNL     1       9.124  51.316  62.594  1.00  0.00    -0.000 C 
BRANCH  17  18
ATOM     18  C   UNL     1       8.836  51.260  64.105  1.00  0.00    -0.000 C 
BRANCH  18  19
ATOM     19  C   UNL     1       7.962  50.057  64.493  1.00  0.00    -0.003 C 
ATOM     20  C   UNL     1       7.272  50.240  65.845  1.00  0.00     0.004 C 
ENDBRANCH  18  19
ENDBRANCH  17  18
ENDBRANCH  16  17
ENDBRANCH  15  16
ENDBRANCH  14  15
ENDBRANCH  13  14
ENDBRANCH   2  13
TORSDOF 15
ENDMDL
MODEL 2
REMARK VINA RESULT:    -3.676      1.443      2.473
REMARK INTER + INTRA:          -9.443
REMARK INTER:                  -6.934
REMARK INTRA:                  -2.509
REMARK UNBOUND:                -2.543
REMARK SMILES CCCCCCCCC=CCCCCCCCC(=O)[O-]
REMARK SMILES IDX 10 1 9 2 11 3 12 4 13 5 14 6 15 7 16 8 17 9 18 10 19 11
REMARK SMILES IDX 20 12 8 13 7 14 6 15 5 16 4 17 3 18 2 19 1 20
REMARK H PARENT
REMARK Flexibility Score: inf
ROOT
ATOM      1  C   UNL     1      12.805  48.418  60.909  1.00  0.00    -0.031 C 
ATOM      2  C   UNL     1      11.799  48.047  60.093  1.00  0.00    -0.031 C 
ENDROOT
BRANCH   1   3
ATOM      3  C   UNL     1      12.638  49.086  62.255  1.00  0.00     0.027 C 
BRANCH   3   4
ATOM      4  C   UNL     1      13.297  50.473  62.284  1.00  0.00     0.004 C 
BRANCH   4   5
ATOM      5  C   UNL     1      12.862  51.351  61.099  1.00  0.00     0.000 C 
BRANCH   5   6
ATOM      6  C   UNL     1      14.045  51.808  60.226  1.00  0.00     0.000 C 
BRANCH   6   7
ATOM      7  C   UNL     1      15.439  51.408  60.748  1.00  0.00     0.000 C 
BRANCH   7   8
ATOM      8  C   UNL     1      16.328  50.650  59.744  1.00  0.00     0.006 C 
BRANCH   8   9
ATOM      9  C   UNL     1      15.575  49.595  58.913  1.00  0.00     0.053 C 
BRANCH   9  10
ATOM     10  C   UNL     1      15.607  49.888  57.445  1.00  0.00     0.041 C 
ATOM     11  O   UNL     1      15.648  51.079  57.036  1.00  0.00    -0.550 OA
ATOM     12  O   UNL     1      15.571  48.849  56.525  1.00  0.00    -0.550 OA
ENDBRANCH   9  10
ENDBRANCH   8   9
ENDBRANCH   7   8
ENDBRANCH   6   7
ENDBRANCH   5   6
ENDBRANCH   4   5
ENDBRANCH   3   4
ENDBRANCH   1   3
BRANCH   2  13
ATOM     13  C   UNL     1      10.331  48.208  60.397  1.00  0.00     0.027 C 
BRANCH  13  14
ATOM     14  C   UNL     1       9.875  49.664  60.217  1.00  0.00     0.004 C 
BRANCH  14  15
ATOM     15  C   UNL     1       8.361  49.835  60.421  1.00  0.00     0.000 C 
BRANCH  15  16
ATOM     16  C   UNL     1       8.011  50.249  61.862  1.00  0.00     0.000 C 
BRANCH  16  17
ATOM     17  C   UNL     1       9.227  50.789  62.631  1.00  0.00    -0.000 C 
BRANCH  17  18
ATOM     18  C   UNL     1       9.598  49.918  63.845  1.00  0.00    -0.000 C 
BRANCH  18  19
ATOM     19  C   UNL     1       8.882  48.560  63.835  1.00  0.00    -0.003 C 
ATOM     20  C   UNL     1       9.853  47.379  63.836  1.00  0.00     0.004 C 
ENDBRANCH  18  19
ENDBRANCH  17  18
ENDBRANCH  16  17
ENDBRANCH  15  16
ENDBRANCH  14  15
ENDBRANCH  13  14
ENDBRANCH   2  13
TORSDOF 15
ENDMDL
MODEL 3
REMARK VINA RESULT:    -3.609      1.437      2.291
REMARK INTER + INTRA:          -9.317
REMARK INTER:                  -6.930
REMARK INTRA:                  -2.388
REMARK UNBOUND:                -2.543
REMARK SMILES CCCCCCCCC=CCCCCCCCC(=O)[O-]
REMARK SMILES IDX 10 1 9 2 11 3 12 4 13 5 14 6 15 7 16 8 17 9 18 10 19 11
REMARK SMILES IDX 20 12 8 13 7 14 6 15 5 16 4 17 3 18 2 19 1 20
REMARK H PARENT
REMARK Flexibility Score: inf
ROOT
ATOM      1  C   UNL     1       9.668  47.979  60.969  1.00  0.00    -0.031 C 
ATOM      2  C   UNL     1       8.984  48.772  60.122  1.00  0.00    -0.031 C 
ENDROOT
BRANCH   1   3
ATOM      3  C   UNL     1       9.050  47.001  61.943  1.00  0.00     0.027 C 
BRANCH   3   4
ATOM      4  C   UNL     1       9.601  47.194  63.364  1.00  0.00     0.004 C 
BRANCH   4   5
ATOM      5  C   UNL     1      11.086  47.594  63.366  1.00  0.00     0.000 C 
BRANCH   5   6
ATOM      6  C   UNL     1      11.332  48.981  63.989  1.00  0.00     0.000 C 
BRANCH   6   7
ATOM      7  C   UNL     1      11.547  50.125  62.979  1.00  0.00     0.000 C 
BRANCH   7   8
ATOM      8  C   UNL     1      12.970  50.241  62.403  1.00  0.00     0.006 C 
BRANCH   8   9
ATOM      9  C   UNL     1      13.024  50.263  60.864  1.00  0.00     0.053 C 
BRANCH   9  10
ATOM     10  C   UNL     1      13.651  49.030  60.292  1.00  0.00     0.041 C 
ATOM     11  O   UNL     1      13.203  47.891  60.593  1.00  0.00    -0.550 OA
ATOM     12  O   UNL     1      14.744  49.133  59.441  1.00  0.00    -0.550 OA
ENDBRANCH   9  10
ENDBRANCH   8   9
ENDBRANCH   7   8
ENDBRANCH   6   7
ENDBRANCH   5   6
ENDBRANCH   4   5
ENDBRANCH   3   4
ENDBRANCH   1   3
BRANCH   2  13
ATOM     13  C   UNL     1       7.483  48.800  59.979  1.00  0.00     0.027 C 
BRANCH  13  14
ATOM     14  C   UNL     1       7.016  50.025  59.177  1.00  0.00     0.004 C 
BRANCH  14  15
ATOM     15  C   UNL     1       6.614  51.201  60.082  1.00  0.00     0.000 C 
BRANCH  15  16
ATOM     16  C   UNL     1       6.075  50.729  61.445  1.00  0.00     0.000 C 
BRANCH  16  17
ATOM     17  C   UNL     1       6.847  51.337  62.627  1.00  0.00    -0.000 C 
BRANCH  17  18
ATOM     18  C   UNL     1       7.771  50.320  63.320  1.00  0.00    -0.000 C 
BRANCH  18  19
ATOM     19  C   UNL     1       7.982  50.638  64.809  1.00  0.00    -0.003 C 
ATOM     20  C   UNL     1       7.124  49.767  65.726  1.00  0.00     0.004 C 
ENDBRANCH  18  19
ENDBRANCH  17  18
ENDBRANCH  16  17
ENDBRANCH  15  16
ENDBRANCH  14  15
ENDBRANCH  13  14
ENDBRANCH   2  13
TORSDOF 15
ENDMDL
MODEL 4
REMARK VINA RESULT:    -3.570      3.276      6.980
REMARK INTER + INTRA:          -9.243
REMARK INTER:                  -6.911
REMARK INTRA:                  -2.332
REMARK UNBOUND:                -2.543
REMARK SMILES CCCCCCCCC=CCCCCCCCC(=O)[O-]
REMARK SMILES IDX 10 1 9 2 11 3 12 4 13 5 14 6 15 7 16 8 17 9 18 10 19 11
REMARK SMILES IDX 20 12 8 13 7 14 6 15 5 16 4 17 3 18 2 19 1 20
REMARK H PARENT
REMARK Flexibility Score: inf
ROOT
ATOM      1  C   UNL     1      11.070  48.768  63.835  1.00  0.00    -0.031 C 
ATOM      2  C   UNL     1      11.994  49.391  63.078  1.00  0.00    -0.031 C 
ENDROOT
BRANCH   1   3
ATOM      3  C   UNL     1      10.703  47.304  63.737  1.00  0.00     0.027 C 
BRANCH   3   4
ATOM      4  C   UNL     1       9.356  47.106  63.026  1.00  0.00     0.004 C 
BRANCH   4   5
ATOM      5  C   UNL     1       9.466  47.289  61.503  1.00  0.00     0.000 C 
BRANCH   5   6
ATOM      6  C   UNL     1       8.426  48.275  60.941  1.00  0.00     0.000 C 
BRANCH   6   7
ATOM      7  C   UNL     1       8.963  49.683  60.619  1.00  0.00     0.000 C 
BRANCH   7   8
ATOM      8  C   UNL     1       8.742  50.742  61.716  1.00  0.00     0.006 C 
BRANCH   8   9
ATOM      9  C   UNL     1       7.556  50.438  62.649  1.00  0.00     0.053 C 
BRANCH   9  10
ATOM     10  C   UNL     1       7.895  50.634  64.095  1.00  0.00     0.041 C 
ATOM     11  O   UNL     1       8.506  51.671  64.468  1.00  0.00    -0.550 OA
ATOM     12  O   UNL     1       7.556  49.665  65.029  1.00  0.00    -0.550 OA
ENDBRANCH   9  10
ENDBRANCH   8   9
ENDBRANCH   7   8
ENDBRANCH   6   7
ENDBRANCH   5   6
ENDBRANCH   4   5
ENDBRANCH   3   4
ENDBRANCH   1   3
BRANCH   2  13
ATOM     13  C   UNL     1      12.843  48.729  62.023  1.00  0.00     0.027 C 
BRANCH  13  14
ATOM     14  C   UNL     1      12.558  49.306  60.627  1.00  0.00     0.004 C 
BRANCH  14  15
ATOM     15  C   UNL     1      12.682  50.837  60.588  1.00  0.00     0.000 C 
BRANCH  15  16
ATOM     16  C   UNL     1      14.037  51.297  60.019  1.00  0.00     0.000 C 
BRANCH  16  17
ATOM     17  C   UNL     1      14.929  50.118  59.598  1.00  0.00    -0.000 C 
BRANCH  17  18
ATOM     18  C   UNL     1      16.428  50.465  59.631  1.00  0.00    -0.000 C 
BRANCH  18  19
ATOM     19  C   UNL     1      16.735  51.816  58.968  1.00  0.00    -0.003 C 
ATOM     20  C   UNL     1      16.854  51.713  57.447  1.00  0.00     0.004 C 
ENDBRANCH  18  19
ENDBRANCH  17  18
ENDBRANCH  16  17
ENDBRANCH  15  16
ENDBRANCH  14  15
ENDBRANCH  13  14
ENDBRANCH   2  13
TORSDOF 15
ENDMDL
MODEL 5
REMARK VINA RESULT:    -3.561      1.135      2.839
REMARK INTER + INTRA:          -9.226
REMARK INTER:                  -6.856
REMARK INTRA:                  -2.370
REMARK UNBOUND:                -2.543
REMARK SMILES CCCCCCCCC=CCCCCCCCC(=O)[O-]
REMARK SMILES IDX 10 1 9 2 11 3 12 4 13 5 14 6 15 7 16 8 17 9 18 10 19 11
REMARK SMILES IDX 20 12 8 13 7 14 6 15 5 16 4 17 3 18 2 19 1 20
REMARK H PARENT
REMARK Flexibility Score: inf
ROOT
ATOM      1  C   UNL     1      12.201  49.284  63.038  1.00  0.00    -0.031 C 
ATOM      2  C   UNL     1      11.385  48.766  63.976  1.00  0.00    -0.031 C 
ENDROOT
BRANCH   1   3
ATOM      3  C   UNL     1      12.609  48.593  61.756  1.00  0.00     0.027 C 
BRANCH   3   4
ATOM      4  C   UNL     1      13.220  49.581  60.751  1.00  0.00     0.004 C 
BRANCH   4   5
ATOM      5  C   UNL     1      12.487  50.933  60.741  1.00  0.00     0.000 C 
BRANCH   5   6
ATOM      6  C   UNL     1      13.413  52.119  61.068  1.00  0.00     0.000 C 
BRANCH   6   7
ATOM      7  C   UNL     1      14.873  51.743  61.389  1.00  0.00     0.000 C 
BRANCH   7   8
ATOM      8  C   UNL     1      15.906  52.125  60.312  1.00  0.00     0.006 C 
BRANCH   8   9
ATOM      9  C   UNL     1      15.363  52.062  58.873  1.00  0.00     0.053 C 
BRANCH   9  10
ATOM     10  C   UNL     1      15.657  50.754  58.203  1.00  0.00     0.041 C 
ATOM     11  O   UNL     1      15.965  49.744  58.891  1.00  0.00    -0.550 OA
ATOM     12  O   UNL     1      15.612  50.654  56.819  1.00  0.00    -0.550 OA
ENDBRANCH   9  10
ENDBRANCH   8   9
ENDBRANCH   7   8
ENDBRANCH   6   7
ENDBRANCH   5   6
ENDBRANCH   4   5
ENDBRANCH   3   4
ENDBRANCH   1   3
BRANCH   2  13
ATOM     13  C   UNL     1      10.713  47.419  63.896  1.00  0.00     0.027 C 
BRANCH  13  14
ATOM     14  C   UNL     1       9.294  47.531  63.318  1.00  0.00     0.004 C 
BRANCH  14  15
ATOM     15  C   UNL     1       9.243  47.209  61.816  1.00  0.00     0.000 C 
BRANCH  15  16
ATOM     16  C   UNL     1       9.113  48.477  60.953  1.00  0.00     0.000 C 
BRANCH  16  17
ATOM     17  C   UNL     1       7.699  49.079  61.001  1.00  0.00    -0.000 C 
BRANCH  17  18
ATOM     18  C   UNL     1       7.693  50.550  61.453  1.00  0.00    -0.000 C 
BRANCH  18  19
ATOM     19  C   UNL     1       9.060  51.008  61.981  1.00  0.00    -0.003 C 
ATOM     20  C   UNL     1       9.011  51.450  63.444  1.00  0.00     0.004 C 
ENDBRANCH  18  19
ENDBRANCH  17  18
ENDBRANCH  16  17
ENDBRANCH  15  16
ENDBRANCH  14  15
ENDBRANCH  13  14
ENDBRANCH   2  13
TORSDOF 15
ENDMDL
MODEL 6
REMARK VINA RESULT:    -3.513      3.006      7.169
REMARK INTER + INTRA:          -9.137
REMARK INTER:                  -6.916
REMARK INTRA:                  -2.222
REMARK UNBOUND:                -2.543
REMARK SMILES CCCCCCCCC=CCCCCCCCC(=O)[O-]
REMARK SMILES IDX 10 1 9 2 11 3 12 4 13 5 14 6 15 7 16 8 17 9 18 10 19 11
REMARK SMILES IDX 20 12 8 13 7 14 6 15 5 16 4 17 3 18 2 19 1 20
REMARK H PARENT
REMARK Flexibility Score: inf
ROOT
ATOM      1  C   UNL     1      12.749  48.702  61.675  1.00  0.00    -0.031 C 
ATOM      2  C   UNL     1      12.976  49.873  62.302  1.00  0.00    -0.031 C 
ENDROOT
BRANCH   1   3
ATOM      3  C   UNL     1      12.164  48.552  60.289  1.00  0.00     0.027 C 
BRANCH   3   4
ATOM      4  C   UNL     1      10.644  48.329  60.338  1.00  0.00     0.004 C 
BRANCH   4   5
ATOM      5  C   UNL     1       9.856  49.640  60.181  1.00  0.00     0.000 C 
BRANCH   5   6
ATOM      6  C   UNL     1       8.794  49.836  61.279  1.00  0.00     0.000 C 
BRANCH   6   7
ATOM      7  C   UNL     1       9.232  50.715  62.467  1.00  0.00     0.000 C 
BRANCH   7   8
ATOM      8  C   UNL     1       9.613  49.952  63.749  1.00  0.00     0.006 C 
BRANCH   8   9
ATOM      9  C   UNL     1       8.841  48.635  63.947  1.00  0.00     0.053 C 
BRANCH   9  10
ATOM     10  C   UNL     1       9.671  47.428  63.633  1.00  0.00     0.041 C 
ATOM     11  O   UNL     1      10.815  47.293  64.145  1.00  0.00    -0.550 OA
ATOM     12  O   UNL     1       9.193  46.460  62.760  1.00  0.00    -0.550 OA
ENDBRANCH   9  10
ENDBRANCH   8   9
ENDBRANCH   7   8
ENDBRANCH   6   7
ENDBRANCH   5   6
ENDBRANCH   4   5
ENDBRANCH   3   4
ENDBRANCH   1   3
BRANCH   2  13
ATOM     13  C   UNL     1      12.711  51.237  61.717  1.00  0.00     0.027 C 
BRANCH  13  14
ATOM     14  C   UNL     1      13.791  51.632  60.698  1.00  0.00     0.004 C 
BRANCH  14  15
ATOM     15  C   UNL     1      15.212  51.524  61.275  1.00  0.00     0.000 C 
BRANCH  15  16
ATOM     16  C   UNL     1      16.212  50.950  60.256  1.00  0.00     0.000 C 
BRANCH  16  17
ATOM     17  C   UNL     1      15.620  49.790  59.439  1.00  0.00    -0.000 C 
BRANCH  17  18
ATOM     18  C   UNL     1      15.735  50.012  57.920  1.00  0.00    -0.000 C 
BRANCH  18  19
ATOM     19  C   UNL     1      15.753  51.502  57.543  1.00  0.00    -0.003 C 
ATOM     20  C   UNL     1      17.154  52.008  57.201  1.00  0.00     0.004 C 
ENDBRANCH  18  19
ENDBRANCH  17  18
ENDBRANCH  16  17
ENDBRANCH  15  16
ENDBRANCH  14  15
ENDBRANCH  13  14
ENDBRANCH   2  13
TORSDOF 15
ENDMDL
MODEL 7
REMARK VINA RESULT:    -3.475      1.424      3.149
REMARK INTER + INTRA:          -9.065
REMARK INTER:                  -6.488
REMARK INTRA:                  -2.577
REMARK UNBOUND:                -2.543
REMARK SMILES CCCCCCCCC=CCCCCCCCC(=O)[O-]
REMARK SMILES IDX 10 1 9 2 11 3 12 4 13 5 14 6 15 7 16 8 17 9 18 10 19 11
REMARK SMILES IDX 20 12 8 13 7 14 6 15 5 16 4 17 3 18 2 19 1 20
REMARK H PARENT
REMARK Flexibility Score: inf
ROOT
ATOM      1  C   UNL     1      10.774  47.219  62.666  1.00  0.00    -0.031 C 
ATOM      2  C   UNL     1       9.881  47.707  63.549  1.00  0.00    -0.031 C 
ENDROOT
BRANCH   1   3
ATOM      3  C   UNL     1      11.886  48.013  62.018  1.00  0.00     0.027 C 
BRANCH   3   4
ATOM      4  C   UNL     1      11.397  48.753  60.764  1.00  0.00     0.004 C 
BRANCH   4   5
ATOM      5  C   UNL     1      11.775  50.243  60.779  1.00  0.00     0.000 C 
BRANCH   5   6
ATOM      6  C   UNL     1      12.465  50.673  62.087  1.00  0.00     0.000 C 
BRANCH   6   7
ATOM      7  C   UNL     1      13.915  51.172  61.931  1.00  0.00     0.000 C 
BRANCH   7   8
ATOM      8  C   UNL     1      14.333  51.552  60.499  1.00  0.00     0.006 C 
BRANCH   8   9
ATOM      9  C   UNL     1      15.597  50.826  60.002  1.00  0.00     0.053 C 
BRANCH   9  10
ATOM     10  C   UNL     1      15.281  49.647  59.134  1.00  0.00     0.041 C 
ATOM     11  O   UNL     1      14.720  48.631  59.624  1.00  0.00    -0.550 OA
ATOM     12  O   UNL     1      15.624  49.658  57.789  1.00  0.00    -0.550 OA
ENDBRANCH   9  10
ENDBRANCH   8   9
ENDBRANCH   7   8
ENDBRANCH   6   7
ENDBRANCH   5   6
ENDBRANCH   4   5
ENDBRANCH   3   4
ENDBRANCH   1   3
BRANCH   2  13
ATOM     13  C   UNL     1       9.856  49.123  64.067  1.00  0.00     0.027 C 
BRANCH  13  14
ATOM     14  C   UNL     1       8.542  49.832  63.705  1.00  0.00     0.004 C 
BRANCH  14  15
ATOM     15  C   UNL     1       8.769  51.097  62.863  1.00  0.00     0.000 C 
BRANCH  15  16
ATOM     16  C   UNL     1       8.174  50.970  61.448  1.00  0.00     0.000 C 
BRANCH  16  17
ATOM     17  C   UNL     1       7.646  49.557  61.157  1.00  0.00    -0.000 C 
BRANCH  17  18
ATOM     18  C   UNL     1       7.945  49.094  59.719  1.00  0.00    -0.000 C 
BRANCH  18  19
ATOM     19  C   UNL     1       6.731  49.243  58.789  1.00  0.00    -0.003 C 
ATOM     20  C   UNL     1       6.694  50.596  58.079  1.00  0.00     0.004 C 
ENDBRANCH  18  19
ENDBRANCH  17  18
ENDBRANCH  16  17
ENDBRANCH  15  16
ENDBRANCH  14  15
ENDBRANCH  13  14
ENDBRANCH   2  13
TORSDOF 15
ENDMDL
MODEL 8
REMARK VINA RESULT:    -3.454      0.880      1.526
REMARK INTER + INTRA:          -9.025
REMARK INTER:                  -6.392
REMARK INTRA:                  -2.633
REMARK UNBOUND:                -2.543
REMARK SMILES CCCCCCCCC=CCCCCCCCC(=O)[O-]
REMARK SMILES IDX 10 1 9 2 11 3 12 4 13 5 14 6 15 7 16 8 17 9 18 10 19 11
REMARK SMILES IDX 20 12 8 13 7 14 6 15 5 16 4 17 3 18 2 19 1 20
REMARK H PARENT
REMARK Flexibility Score: inf
ROOT
ATOM      1  C   UNL     1      10.747  47.706  63.430  1.00  0.00    -0.031 C 
ATOM      2  C   UNL     1       9.551  47.447  62.867  1.00  0.00    -0.031 C 
ENDROOT
BRANCH   1   3
ATOM      3  C   UNL     1      12.022  48.006  62.675  1.00  0.00     0.027 C 
BRANCH   3   4
ATOM      4  C   UNL     1      12.187  49.513  62.422  1.00  0.00     0.004 C 
BRANCH   4   5
ATOM      5  C   UNL     1      12.153  49.861  60.925  1.00  0.00     0.000 C 
BRANCH   5   6
ATOM      6  C   UNL     1      12.232  51.376  60.660  1.00  0.00     0.000 C 
BRANCH   6   7
ATOM      7  C   UNL     1      13.461  51.839  59.854  1.00  0.00     0.000 C 
BRANCH   7   8
ATOM      8  C   UNL     1      14.826  51.542  60.502  1.00  0.00     0.006 C 
BRANCH   8   9
ATOM      9  C   UNL     1      15.948  51.241  59.490  1.00  0.00     0.053 C 
BRANCH   9  10
ATOM     10  C   UNL     1      15.668  50.021  58.667  1.00  0.00     0.041 C 
ATOM     11  O   UNL     1      15.749  50.071  57.410  1.00  0.00    -0.550 OA
ATOM     12  O   UNL     1      15.299  48.833  59.283  1.00  0.00    -0.550 OA
ENDBRANCH   9  10
ENDBRANCH   8   9
ENDBRANCH   7   8
ENDBRANCH   6   7
ENDBRANCH   5   6
ENDBRANCH   4   5
ENDBRANCH   3   4
ENDBRANCH   1   3
BRANCH   2  13
ATOM     13  C   UNL     1       9.272  47.441  61.385  1.00  0.00     0.027 C 
BRANCH  13  14
ATOM     14  C   UNL     1       8.116  48.387  61.026  1.00  0.00     0.004 C 
BRANCH  14  15
ATOM     15  C   UNL     1       8.589  49.830  60.789  1.00  0.00     0.000 C 
BRANCH  15  16
ATOM     16  C   UNL     1       8.013  50.810  61.827  1.00  0.00     0.000 C 
BRANCH  16  17
ATOM     17  C   UNL     1       9.105  51.465  62.688  1.00  0.00    -0.000 C 
BRANCH  17  18
ATOM     18  C   UNL     1       9.106  50.953  64.140  1.00  0.00    -0.000 C 
BRANCH  18  19
ATOM     19  C   UNL     1       7.831  50.170  64.488  1.00  0.00    -0.003 C 
ATOM     20  C   UNL     1       6.964  50.883  65.525  1.00  0.00     0.004 C 
ENDBRANCH  18  19
ENDBRANCH  17  18
ENDBRANCH  16  17
ENDBRANCH  15  16
ENDBRANCH  14  15
ENDBRANCH  13  14
ENDBRANCH   2  13
TORSDOF 15
ENDMDL
MODEL 9
REMARK VINA RESULT:    -3.429      1.260      2.846
REMARK INTER + INTRA:          -8.979
REMARK INTER:                  -6.640
REMARK INTRA:                  -2.340
REMARK UNBOUND:                -2.543
REMARK SMILES CCCCCCCCC=CCCCCCCCC(=O)[O-]
REMARK SMILES IDX 10 1 9 2 11 3 12 4 13 5 14 6 15 7 16 8 17 9 18 10 19 11
REMARK SMILES IDX 20 12 8 13 7 14 6 15 5 16 4 17 3 18 2 19 1 20
REMARK H PARENT
REMARK Flexibility Score: inf
ROOT
ATOM      1  C   UNL     1      10.645  48.340  60.423  1.00  0.00    -0.031 C 
ATOM      2  C   UNL     1       9.823  47.634  61.223  1.00  0.00    -0.031 C 
ENDROOT
BRANCH   1   3
ATOM      3  C   UNL     1      12.119  48.572  60.669  1.00  0.00     0.027 C 
BRANCH   3   4
ATOM      4  C   UNL     1      12.443  50.069  60.790  1.00  0.00     0.004 C 
BRANCH   4   5
ATOM      5  C   UNL     1      13.400  50.368  61.955  1.00  0.00     0.000 C 
BRANCH   5   6
ATOM      6  C   UNL     1      14.050  51.760  61.854  1.00  0.00     0.000 C 
BRANCH   6   7
ATOM      7  C   UNL     1      15.589  51.775  61.947  1.00  0.00     0.000 C 
BRANCH   7   8
ATOM      8  C   UNL     1      16.327  52.125  60.642  1.00  0.00     0.006 C 
BRANCH   8   9
ATOM      9  C   UNL     1      16.725  50.899  59.799  1.00  0.00     0.053 C 
BRANCH   9  10
ATOM     10  C   UNL     1      15.636  50.462  58.869  1.00  0.00     0.041 C 
ATOM     11  O   UNL     1      15.023  51.310  58.166  1.00  0.00    -0.550 OA
ATOM     12  O   UNL     1      15.281  49.122  58.790  1.00  0.00    -0.550 OA
ENDBRANCH   9  10
ENDBRANCH   8   9
ENDBRANCH   7   8
ENDBRANCH   6   7
ENDBRANCH   5   6
ENDBRANCH   4   5
ENDBRANCH   3   4
ENDBRANCH   1   3
BRANCH   2  13
ATOM     13  C   UNL     1      10.239  46.929  62.489  1.00  0.00     0.027 C 
BRANCH  13  14
ATOM     14  C   UNL     1       9.760  47.685  63.738  1.00  0.00     0.004 C 
BRANCH  14  15
ATOM     15  C   UNL     1      10.692  48.848  64.115  1.00  0.00     0.000 C 
BRANCH  15  16
ATOM     16  C   UNL     1      10.126  50.212  63.680  1.00  0.00     0.000 C 
BRANCH  16  17
ATOM     17  C   UNL     1       8.831  50.576  64.422  1.00  0.00    -0.000 C 
BRANCH  17  18
ATOM     18  C   UNL     1       7.588  50.514  63.516  1.00  0.00    -0.000 C 
BRANCH  18  19
ATOM     19  C   UNL     1       7.928  50.741  62.035  1.00  0.00    -0.003 C 
ATOM     20  C   UNL     1       6.978  50.004  61.091  1.00  0.00     0.004 C 
ENDBRANCH  18  19
ENDBRANCH  17  18
ENDBRANCH  16  17
ENDBRANCH  15  16
ENDBRANCH  14  15
ENDBRANCH  13  14
ENDBRANCH   2  13
TORSDOF 15
ENDMDL
