MODEL 1
REMARK VINA RESULT:    -5.622      0.000      0.000
REMARK INTER + INTRA:          -6.415
REMARK INTER:                  -6.279
REMARK INTRA:                  -0.136
REMARK UNBOUND:                -0.136
REMARK SMILES O=C([O-])c1ccccc1C(=O)[O-]
REMARK SMILES IDX 4 1 9 2 5 3 8 4 6 5 7 6 2 7 1 8 3 9 10 10 11 11 12 12
REMARK H PARENT
REMARK Flexibility Score: inf
ROOT
ATOM      1  C   UNL     1     151.951 148.536 148.562  1.00  0.00     0.006 A 
ATOM      2  C   UNL     1     151.115 148.842 149.671  1.00  0.00     0.006 A 
ATOM      3  C   UNL     1     153.192 149.186 148.441  1.00  0.00     0.010 A 
ATOM      4  C   UNL     1     151.580 149.739 150.651  1.00  0.00     0.010 A 
ATOM      5  C   UNL     1     153.625 150.089 149.413  1.00  0.00     0.001 A 
ATOM      6  C   UNL     1     152.826 150.355 150.522  1.00  0.00     0.001 A 
ENDROOT
BRANCH   1   7
ATOM      7  C   UNL     1     151.607 147.505 147.555  1.00  0.00     0.072 C 
ATOM      8  O   UNL     1     150.884 147.789 146.563  1.00  0.00    -0.545 OA
ATOM      9  O   UNL     1     152.028 146.191 147.730  1.00  0.00    -0.545 OA
ENDBRANCH   1   7
BRANCH   2  10
ATOM     10  C   UNL     1     149.739 148.313 149.807  1.00  0.00     0.072 C 
ATOM     11  O   UNL     1     148.747 149.071 149.637  1.00  0.00    -0.545 OA
ATOM     12  O   UNL     1     149.520 146.963 150.058  1.00  0.00    -0.545 OA
ENDBRANCH   2  10
TORSDOF 2
ENDMDL
MODEL 2
REMARK VINA RESULT:    -5.613      0.080      2.995
REMARK INTER + INTRA:          -6.405
REMARK INTER:                  -6.269
REMARK INTRA:                  -0.136
REMARK UNBOUND:                -0.136
REMARK SMILES O=C([O-])c1ccccc1C(=O)[O-]
REMARK SMILES IDX 4 1 9 2 5 3 8 4 6 5 7 6 2 7 1 8 3 9 10 10 11 11 12 12
REMARK H PARENT
REMARK Flexibility Score: inf
ROOT
ATOM      1  C   UNL     1     151.072 148.837 149.653  1.00  0.00     0.006 A 
ATOM      2  C   UNL     1     151.949 148.487 148.589  1.00  0.00     0.006 A 
ATOM      3  C   UNL     1     151.511 149.750 150.629  1.00  0.00     0.010 A 
ATOM      4  C   UNL     1     153.208 149.113 148.506  1.00  0.00     0.010 A 
ATOM      5  C   UNL     1     152.771 150.342 150.540  1.00  0.00     0.001 A 
ATOM      6  C   UNL     1     153.612 150.033 149.474  1.00  0.00     0.001 A 
ENDROOT
BRANCH   1   7
ATOM      7  C   UNL     1     149.681 148.336 149.747  1.00  0.00     0.072 C 
ATOM      8  O   UNL     1     148.703 149.122 149.628  1.00  0.00    -0.545 OA
ATOM      9  O   UNL     1     149.440 146.997 150.036  1.00  0.00    -0.545 OA
ENDBRANCH   1   7
BRANCH   2  10
ATOM     10  C   UNL     1     151.627 147.435 147.598  1.00  0.00     0.072 C 
ATOM     11  O   UNL     1     152.005 146.248 147.786  1.00  0.00    -0.545 OA
ATOM     12  O   UNL     1     150.848 147.725 146.483  1.00  0.00    -0.545 OA
ENDBRANCH   2  10
TORSDOF 2
ENDMDL
MODEL 3
REMARK VINA RESULT:    -5.512      2.437      3.491
REMARK INTER + INTRA:          -6.292
REMARK INTER:                  -6.114
REMARK INTRA:                  -0.177
REMARK UNBOUND:                -0.136
REMARK SMILES O=C([O-])c1ccccc1C(=O)[O-]
REMARK SMILES IDX 4 1 9 2 5 3 8 4 6 5 7 6 2 7 1 8 3 9 10 10 11 11 12 12
REMARK H PARENT
REMARK Flexibility Score: inf
ROOT
ATOM      1  C   UNL     1     151.243 148.836 149.858  1.00  0.00     0.006 A 
ATOM      2  C   UNL     1     149.849 148.741 150.127  1.00  0.00     0.006 A 
ATOM      3  C   UNL     1     151.906 147.733 149.290  1.00  0.00     0.010 A 
ATOM      4  C   UNL     1     149.159 147.572 149.758  1.00  0.00     0.010 A 
ATOM      5  C   UNL     1     151.206 146.574 148.952  1.00  0.00     0.001 A 
ATOM      6  C   UNL     1     149.834 146.499 149.174  1.00  0.00     0.001 A 
ENDROOT
BRANCH   1   7
ATOM      7  C   UNL     1     152.025 150.074 150.084  1.00  0.00     0.072 C 
ATOM      8  O   UNL     1     152.354 150.814 149.120  1.00  0.00    -0.545 OA
ATOM      9  O   UNL     1     152.462 150.398 151.364  1.00  0.00    -0.545 OA
ENDBRANCH   1   7
BRANCH   2  10
ATOM     10  C   UNL     1     149.099 149.796 150.848  1.00  0.00     0.072 C 
ATOM     11  O   UNL     1     148.260 150.509 150.236  1.00  0.00    -0.545 OA
ATOM     12  O   UNL     1     149.260 149.970 152.218  1.00  0.00    -0.545 OA
ENDBRANCH   2  10
TORSDOF 2
ENDMDL
MODEL 4
REMARK VINA RESULT:    -5.368      2.382      4.298
REMARK INTER + INTRA:          -6.131
REMARK INTER:                  -5.984
REMARK INTRA:                  -0.147
REMARK UNBOUND:                -0.136
REMARK SMILES O=C([O-])c1ccccc1C(=O)[O-]
REMARK SMILES IDX 4 1 9 2 5 3 8 4 6 5 7 6 2 7 1 8 3 9 10 10 11 11 12 12
REMARK H PARENT
REMARK Flexibility Score: inf
ROOT
ATOM      1  C   UNL     1     149.846 148.651 149.997  1.00  0.00     0.006 A 
ATOM      2  C   UNL     1     151.248 148.772 149.788  1.00  0.00     0.006 A 
ATOM      3  C   UNL     1     149.189 147.480 149.578  1.00  0.00     0.010 A 
ATOM      4  C   UNL     1     151.951 147.688 149.229  1.00  0.00     0.010 A 
ATOM      5  C   UNL     1     149.903 146.427 149.005  1.00  0.00     0.001 A 
ATOM      6  C   UNL     1     151.282 146.526 148.842  1.00  0.00     0.001 A 
ENDROOT
BRANCH   1   7
ATOM      7  C   UNL     1     149.045 149.680 150.702  1.00  0.00     0.072 C 
ATOM      8  O   UNL     1     149.065 149.763 151.958  1.00  0.00    -0.545 OA
ATOM      9  O   UNL     1     148.208 150.525 149.982  1.00  0.00    -0.545 OA
ENDBRANCH   1   7
BRANCH   2  10
ATOM     10  C   UNL     1     151.995 150.019 150.069  1.00  0.00     0.072 C 
ATOM     11  O   UNL     1     152.334 150.782 149.126  1.00  0.00    -0.545 OA
ATOM     12  O   UNL     1     152.275 150.399 151.377  1.00  0.00    -0.545 OA
ENDBRANCH   2  10
TORSDOF 2
ENDMDL
MODEL 5
REMARK VINA RESULT:    -5.308      2.336      3.282
REMARK INTER + INTRA:          -6.064
REMARK INTER:                  -6.229
REMARK INTRA:                   0.166
REMARK UNBOUND:                -0.136
REMARK SMILES O=C([O-])c1ccccc1C(=O)[O-]
REMARK SMILES IDX 4 1 9 2 5 3 8 4 6 5 7 6 2 7 1 8 3 9 10 10 11 11 12 12
REMARK H PARENT
REMARK Flexibility Score: inf
ROOT
ATOM      1  C   UNL     1     152.610 148.171 148.666  1.00  0.00     0.006 A 
ATOM      2  C   UNL     1     151.532 148.331 149.581  1.00  0.00     0.006 A 
ATOM      3  C   UNL     1     152.683 146.998 147.894  1.00  0.00     0.010 A 
ATOM      4  C   UNL     1     150.534 147.341 149.641  1.00  0.00     0.010 A 
ATOM      5  C   UNL     1     151.694 146.018 147.986  1.00  0.00     0.001 A 
ATOM      6  C   UNL     1     150.615 146.196 148.848  1.00  0.00     0.001 A 
ENDROOT
BRANCH   1   7
ATOM      7  C   UNL     1     153.631 149.219 148.434  1.00  0.00     0.072 C 
ATOM      8  O   UNL     1     153.292 150.408 148.191  1.00  0.00    -0.545 OA
ATOM      9  O   UNL     1     154.981 148.885 148.416  1.00  0.00    -0.545 OA
ENDBRANCH   1   7
BRANCH   2  10
ATOM     10  C   UNL     1     151.449 149.465 150.530  1.00  0.00     0.072 C 
ATOM     11  O   UNL     1     150.385 150.131 150.631  1.00  0.00    -0.545 OA
ATOM     12  O   UNL     1     152.516 149.768 151.368  1.00  0.00    -0.545 OA
ENDBRANCH   2  10
TORSDOF 2
ENDMDL
MODEL 6
REMARK VINA RESULT:    -5.213      1.778      3.065
REMARK INTER + INTRA:          -5.958
REMARK INTER:                  -5.884
REMARK INTRA:                  -0.074
REMARK UNBOUND:                -0.136
REMARK SMILES O=C([O-])c1ccccc1C(=O)[O-]
REMARK SMILES IDX 4 1 9 2 5 3 8 4 6 5 7 6 2 7 1 8 3 9 10 10 11 11 12 12
REMARK H PARENT
REMARK Flexibility Score: inf
ROOT
ATOM      1  C   UNL     1     150.797 148.124 148.493  1.00  0.00     0.006 A 
ATOM      2  C   UNL     1     151.773 148.994 149.054  1.00  0.00     0.006 A 
ATOM      3  C   UNL     1     149.550 147.992 149.130  1.00  0.00     0.010 A 
ATOM      4  C   UNL     1     151.440 149.749 150.194  1.00  0.00     0.010 A 
ATOM      5  C   UNL     1     149.249 148.734 150.273  1.00  0.00     0.001 A 
ATOM      6  C   UNL     1     150.188 149.620 150.796  1.00  0.00     0.001 A 
ENDROOT
BRANCH   1   7
ATOM      7  C   UNL     1     151.006 147.394 147.220  1.00  0.00     0.072 C 
ATOM      8  O   UNL     1     150.606 147.876 146.127  1.00  0.00    -0.545 OA
ATOM      9  O   UNL     1     151.591 146.132 147.228  1.00  0.00    -0.545 OA
ENDBRANCH   1   7
BRANCH   2  10
ATOM     10  C   UNL     1     153.155 149.090 148.532  1.00  0.00     0.072 C 
ATOM     11  O   UNL     1     153.636 150.209 148.210  1.00  0.00    -0.545 OA
ATOM     12  O   UNL     1     153.964 147.961 148.454  1.00  0.00    -0.545 OA
ENDBRANCH   2  10
TORSDOF 2
ENDMDL
MODEL 7
REMARK VINA RESULT:    -5.203      1.361      2.021
REMARK INTER + INTRA:          -5.947
REMARK INTER:                  -5.895
REMARK INTRA:                  -0.052
REMARK UNBOUND:                -0.136
REMARK SMILES O=C([O-])c1ccccc1C(=O)[O-]
REMARK SMILES IDX 4 1 9 2 5 3 8 4 6 5 7 6 2 7 1 8 3 9 10 10 11 11 12 12
REMARK H PARENT
REMARK Flexibility Score: inf
ROOT
ATOM      1  C   UNL     1     151.303 148.149 149.201  1.00  0.00     0.006 A 
ATOM      2  C   UNL     1     150.998 149.320 149.948  1.00  0.00     0.006 A 
ATOM      3  C   UNL     1     152.536 148.067 148.530  1.00  0.00     0.010 A 
ATOM      4  C   UNL     1     151.965 150.338 150.049  1.00  0.00     0.010 A 
ATOM      5  C   UNL     1     153.472 149.098 148.625  1.00  0.00     0.001 A 
ATOM      6  C   UNL     1     153.191 150.225 149.393  1.00  0.00     0.001 A 
ENDROOT
BRANCH   1   7
ATOM      7  C   UNL     1     150.407 146.969 149.150  1.00  0.00     0.072 C 
ATOM      8  O   UNL     1     150.562 146.008 149.949  1.00  0.00    -0.545 OA
ATOM      9  O   UNL     1     149.423 146.883 148.172  1.00  0.00    -0.545 OA
ENDBRANCH   1   7
BRANCH   2  10
ATOM     10  C   UNL     1     149.674 149.551 150.570  1.00  0.00     0.072 C 
ATOM     11  O   UNL     1     149.590 149.853 151.790  1.00  0.00    -0.545 OA
ATOM     12  O   UNL     1     148.513 149.504 149.806  1.00  0.00    -0.545 OA
ENDBRANCH   2  10
TORSDOF 2
ENDMDL
MODEL 8
REMARK VINA RESULT:    -5.135      1.998      4.046
REMARK INTER + INTRA:          -5.871
REMARK INTER:                  -5.693
REMARK INTRA:                  -0.178
REMARK UNBOUND:                -0.136
REMARK SMILES O=C([O-])c1ccccc1C(=O)[O-]
REMARK SMILES IDX 4 1 9 2 5 3 8 4 6 5 7 6 2 7 1 8 3 9 10 10 11 11 12 12
REMARK H PARENT
REMARK Flexibility Score: inf
ROOT
ATOM      1  C   UNL     1     150.627 149.106 150.011  1.00  0.00     0.006 A 
ATOM      2  C   UNL     1     150.363 147.956 149.217  1.00  0.00     0.006 A 
ATOM      3  C   UNL     1     149.615 149.603 150.853  1.00  0.00     0.010 A 
ATOM      4  C   UNL     1     149.120 147.307 149.344  1.00  0.00     0.010 A 
ATOM      5  C   UNL     1     148.381 148.958 150.946  1.00  0.00     0.001 A 
ATOM      6  C   UNL     1     148.140 147.805 150.203  1.00  0.00     0.001 A 
ENDROOT
BRANCH   1   7
ATOM      7  C   UNL     1     151.949 149.774 150.049  1.00  0.00     0.072 C 
ATOM      8  O   UNL     1     152.699 149.664 151.055  1.00  0.00    -0.545 OA
ATOM      9  O   UNL     1     152.350 150.587 148.994  1.00  0.00    -0.545 OA
ENDBRANCH   1   7
BRANCH   2  10
ATOM     10  C   UNL     1     151.316 147.446 148.205  1.00  0.00     0.072 C 
ATOM     11  O   UNL     1     152.113 146.515 148.495  1.00  0.00    -0.545 OA
ATOM     12  O   UNL     1     151.301 147.940 146.905  1.00  0.00    -0.545 OA
ENDBRANCH   2  10
TORSDOF 2
ENDMDL
MODEL 9
REMARK VINA RESULT:    -5.110      1.993      3.482
REMARK INTER + INTRA:          -5.843
REMARK INTER:                  -5.677
REMARK INTRA:                  -0.166
REMARK UNBOUND:                -0.136
REMARK SMILES O=C([O-])c1ccccc1C(=O)[O-]
REMARK SMILES IDX 4 1 9 2 5 3 8 4 6 5 7 6 2 7 1 8 3 9 10 10 11 11 12 12
REMARK H PARENT
REMARK Flexibility Score: inf
ROOT
ATOM      1  C   UNL     1     150.329 147.975 149.200  1.00  0.00     0.006 A 
ATOM      2  C   UNL     1     150.609 149.120 149.996  1.00  0.00     0.006 A 
ATOM      3  C   UNL     1     149.089 147.328 149.344  1.00  0.00     0.010 A 
ATOM      4  C   UNL     1     149.613 149.613 150.859  1.00  0.00     0.010 A 
ATOM      5  C   UNL     1     148.123 147.821 150.222  1.00  0.00     0.001 A 
ATOM      6  C   UNL     1     148.380 148.968 150.968  1.00  0.00     0.001 A 
ENDROOT
BRANCH   1   7
ATOM      7  C   UNL     1     151.261 147.465 148.166  1.00  0.00     0.072 C 
ATOM      8  O   UNL     1     152.187 146.667 148.470  1.00  0.00    -0.545 OA
ATOM      9  O   UNL     1     151.162 147.917 146.855  1.00  0.00    -0.545 OA
ENDBRANCH   1   7
BRANCH   2  10
ATOM     10  C   UNL     1     151.935 149.779 150.012  1.00  0.00     0.072 C 
ATOM     11  O   UNL     1     152.723 149.597 150.978  1.00  0.00    -0.545 OA
ATOM     12  O   UNL     1     152.356 150.552 148.936  1.00  0.00    -0.545 OA
ENDBRANCH   2  10
TORSDOF 2
ENDMDL
