MODEL 1
REMARK VINA RESULT:    -6.333      0.000      0.000
REMARK INTER + INTRA:          -7.939
REMARK INTER:                  -7.628
REMARK INTRA:                  -0.311
REMARK UNBOUND:                -0.311
REMARK SMILES O=c1c(O)c(-c2ccc(O)c(O)c2)oc2cc(O)cc(O)c12
REMARK SMILES IDX 5 1 3 2 2 3 1 4 22 5 20 6 19 7 17 8 16 9 15 10 14 11 6 12
REMARK SMILES IDX 7 13 8 14 9 15 13 16 11 17 10 18 12 20 4 22 21 24 18 26
REMARK H PARENT 10 19 12 21 4 23 21 25 18 27
REMARK Flexibility Score: inf
ROOT
ATOM      1  C   UNL     1      -2.973  52.123  11.902  1.00  0.00     0.180 A 
ATOM      2  C   UNL     1      -3.309  53.443  11.556  1.00  0.00     0.208 A 
ATOM      3  C   UNL     1      -3.459  53.774  10.200  1.00  0.00     0.238 A 
ATOM      4  O   UNL     1      -3.705  54.971   9.894  1.00  0.00    -0.285 OA
ATOM      5  C   UNL     1      -3.286  52.780   9.208  1.00  0.00     0.111 A 
ATOM      6  C   UNL     1      -3.452  52.995   7.807  1.00  0.00     0.134 A 
ATOM      7  C   UNL     1      -3.129  51.971   6.907  1.00  0.00     0.093 A 
ATOM      8  C   UNL     1      -2.708  50.720   7.360  1.00  0.00     0.123 A 
ATOM      9  C   UNL     1      -2.600  50.481   8.730  1.00  0.00     0.094 A 
ATOM     10  C   UNL     1      -2.880  51.493   9.650  1.00  0.00     0.146 A 
ATOM     11  O   UNL     1      -2.753  51.228  10.945  1.00  0.00    -0.452 OA
ENDROOT
BRANCH   1  12
ATOM     12  C   UNL     1      -2.823  51.691  13.310  1.00  0.00     0.025 A 
ATOM     13  C   UNL     1      -1.537  51.522  13.848  1.00  0.00     0.016 A 
ATOM     14  C   UNL     1      -1.372  51.095  15.168  1.00  0.00     0.051 A 
ATOM     15  C   UNL     1      -2.491  50.816  15.965  1.00  0.00     0.157 A 
ATOM     16  C   UNL     1      -3.942  51.390  14.106  1.00  0.00     0.062 A 
ATOM     17  C   UNL     1      -3.781  50.960  15.429  1.00  0.00     0.158 A 
BRANCH  15  18
ATOM     18  O   UNL     1      -2.323  50.392  17.282  1.00  0.00    -0.504 OA
ATOM     19  H   UNL     1      -1.461  49.964  17.597  1.00  0.00     0.293 HD
ENDBRANCH  15  18
BRANCH  17  20
ATOM     20  O   UNL     1      -4.914  50.676  16.191  1.00  0.00    -0.504 OA
ATOM     21  H   UNL     1      -5.821  51.070  15.974  1.00  0.00     0.293 HD
ENDBRANCH  17  20
ENDBRANCH   1  12
BRANCH   2  22
ATOM     22  O   UNL     1      -3.453  54.415  12.549  1.00  0.00    -0.502 OA
ATOM     23  H   UNL     1      -2.932  54.389  13.417  1.00  0.00     0.293 HD
ENDBRANCH   2  22
BRANCH   6  24
ATOM     24  O   UNL     1      -3.954  54.176   7.252  1.00  0.00    -0.507 OA
ATOM     25  H   UNL     1      -3.472  54.741   6.570  1.00  0.00     0.293 HD
ENDBRANCH   6  24
BRANCH   8  26
ATOM     26  O   UNL     1      -2.410  49.720   6.437  1.00  0.00    -0.508 OA
ATOM     27  H   UNL     1      -1.568  49.161   6.516  1.00  0.00     0.293 HD
ENDBRANCH   8  26
TORSDOF 6
ENDMDL
MODEL 2
REMARK VINA RESULT:    -6.055      1.552      6.788
REMARK INTER + INTRA:          -7.605
REMARK INTER:                  -7.285
REMARK INTRA:                  -0.320
REMARK UNBOUND:                -0.311
REMARK SMILES O=c1c(O)c(-c2ccc(O)c(O)c2)oc2cc(O)cc(O)c12
REMARK SMILES IDX 5 1 3 2 2 3 1 4 22 5 20 6 19 7 17 8 16 9 15 10 14 11 6 12
REMARK SMILES IDX 7 13 8 14 9 15 13 16 11 17 10 18 12 20 4 22 21 24 18 26
REMARK H PARENT 10 19 12 21 4 23 21 25 18 27
REMARK Flexibility Score: inf
ROOT
ATOM      1  C   UNL     1      -2.875  52.190  10.690  1.00  0.00     0.180 A 
ATOM      2  C   UNL     1      -2.024  53.273  10.968  1.00  0.00     0.208 A 
ATOM      3  C   UNL     1      -1.761  53.606  12.307  1.00  0.00     0.238 A 
ATOM      4  O   UNL     1      -1.042  54.610  12.550  1.00  0.00    -0.285 OA
ATOM      5  C   UNL     1      -2.341  52.844  13.349  1.00  0.00     0.111 A 
ATOM      6  C   UNL     1      -2.113  53.068  14.741  1.00  0.00     0.134 A 
ATOM      7  C   UNL     1      -2.840  52.335  15.687  1.00  0.00     0.093 A 
ATOM      8  C   UNL     1      -3.740  51.344  15.294  1.00  0.00     0.123 A 
ATOM      9  C   UNL     1      -3.926  51.076  13.938  1.00  0.00     0.094 A 
ATOM     10  C   UNL     1      -3.241  51.814  12.970  1.00  0.00     0.146 A 
ATOM     11  O   UNL     1      -3.456  51.536  11.689  1.00  0.00    -0.452 OA
ENDROOT
BRANCH   1  12
ATOM     12  C   UNL     1      -3.179  51.762   9.306  1.00  0.00     0.025 A 
ATOM     13  C   UNL     1      -4.248  52.357   8.617  1.00  0.00     0.016 A 
ATOM     14  C   UNL     1      -4.566  51.953   7.318  1.00  0.00     0.051 A 
ATOM     15  C   UNL     1      -3.828  50.938   6.692  1.00  0.00     0.157 A 
ATOM     16  C   UNL     1      -2.455  50.730   8.683  1.00  0.00     0.062 A 
ATOM     17  C   UNL     1      -2.771  50.322   7.381  1.00  0.00     0.158 A 
BRANCH  15  18
ATOM     18  O   UNL     1      -4.145  50.540   5.395  1.00  0.00    -0.504 OA
ATOM     19  H   UNL     1      -4.335  51.215   4.664  1.00  0.00     0.293 HD
ENDBRANCH  15  18
BRANCH  17  20
ATOM     20  O   UNL     1      -2.028  49.299   6.794  1.00  0.00    -0.504 OA
ATOM     21  H   UNL     1      -1.605  49.398   5.879  1.00  0.00     0.293 HD
ENDBRANCH  17  20
ENDBRANCH   1  12
BRANCH   2  22
ATOM     22  O   UNL     1      -1.479  54.026   9.925  1.00  0.00    -0.502 OA
ATOM     23  H   UNL     1      -1.469  55.038   9.932  1.00  0.00     0.293 HD
ENDBRANCH   2  22
BRANCH   6  24
ATOM     24  O   UNL     1      -1.170  53.970  15.241  1.00  0.00    -0.507 OA
ATOM     25  H   UNL     1      -0.828  54.779  14.745  1.00  0.00     0.293 HD
ENDBRANCH   6  24
BRANCH   8  26
ATOM     26  O   UNL     1      -4.435  50.624  16.264  1.00  0.00    -0.508 OA
ATOM     27  H   UNL     1      -4.156  50.642  17.238  1.00  0.00     0.293 HD
ENDBRANCH   8  26
TORSDOF 6
ENDMDL
MODEL 3
REMARK VINA RESULT:    -6.039      1.804      7.083
REMARK INTER + INTRA:          -7.586
REMARK INTER:                  -7.363
REMARK INTRA:                  -0.223
REMARK UNBOUND:                -0.311
REMARK SMILES O=c1c(O)c(-c2ccc(O)c(O)c2)oc2cc(O)cc(O)c12
REMARK SMILES IDX 5 1 3 2 2 3 1 4 22 5 20 6 19 7 17 8 16 9 15 10 14 11 6 12
REMARK SMILES IDX 7 13 8 14 9 15 13 16 11 17 10 18 12 20 4 22 21 24 18 26
REMARK H PARENT 10 19 12 21 4 23 21 25 18 27
REMARK Flexibility Score: inf
ROOT
ATOM      1  C   UNL     1      -1.982  51.631  11.408  1.00  0.00     0.180 A 
ATOM      2  C   UNL     1      -0.631  51.945  11.638  1.00  0.00     0.208 A 
ATOM      3  C   UNL     1      -0.154  51.972  12.958  1.00  0.00     0.238 A 
ATOM      4  O   UNL     1       1.043  52.308  13.161  1.00  0.00    -0.285 OA
ATOM      5  C   UNL     1      -1.028  51.671  14.030  1.00  0.00     0.111 A 
ATOM      6  C   UNL     1      -0.642  51.631  15.404  1.00  0.00     0.134 A 
ATOM      7  C   UNL     1      -1.619  51.450  16.391  1.00  0.00     0.093 A 
ATOM      8  C   UNL     1      -2.956  51.243  16.052  1.00  0.00     0.123 A 
ATOM      9  C   UNL     1      -3.334  51.221  14.709  1.00  0.00     0.094 A 
ATOM     10  C   UNL     1      -2.389  51.435  13.703  1.00  0.00     0.146 A 
ATOM     11  O   UNL     1      -2.792  51.418  12.438  1.00  0.00    -0.452 OA
ENDROOT
BRANCH   1  12
ATOM     12  C   UNL     1      -2.553  51.556  10.044  1.00  0.00     0.025 A 
ATOM     13  C   UNL     1      -3.541  52.475   9.657  1.00  0.00     0.016 A 
ATOM     14  C   UNL     1      -4.109  52.410   8.382  1.00  0.00     0.051 A 
ATOM     15  C   UNL     1      -3.706  51.416   7.479  1.00  0.00     0.157 A 
ATOM     16  C   UNL     1      -2.167  50.548   9.143  1.00  0.00     0.062 A 
ATOM     17  C   UNL     1      -2.734  50.479   7.865  1.00  0.00     0.158 A 
BRANCH  15  18
ATOM     18  O   UNL     1      -4.272  51.355   6.207  1.00  0.00    -0.504 OA
ATOM     19  H   UNL     1      -4.278  50.497   5.669  1.00  0.00     0.293 HD
ENDBRANCH  15  18
BRANCH  17  20
ATOM     20  O   UNL     1      -2.323  49.468   6.996  1.00  0.00    -0.504 OA
ATOM     21  H   UNL     1      -2.755  48.552   6.993  1.00  0.00     0.293 HD
ENDBRANCH  17  20
ENDBRANCH   1  12
BRANCH   2  22
ATOM     22  O   UNL     1       0.210  52.260  10.567  1.00  0.00    -0.502 OA
ATOM     23  H   UNL     1      -0.143  52.465   9.640  1.00  0.00     0.293 HD
ENDBRANCH   2  22
BRANCH   6  24
ATOM     24  O   UNL     1       0.680  51.735  15.846  1.00  0.00    -0.507 OA
ATOM     25  H   UNL     1       1.013  52.420  16.508  1.00  0.00     0.293 HD
ENDBRANCH   6  24
BRANCH   8  26
ATOM     26  O   UNL     1      -3.898  51.051  17.059  1.00  0.00    -0.508 OA
ATOM     27  H   UNL     1      -4.710  50.461  16.919  1.00  0.00     0.293 HD
ENDBRANCH   8  26
TORSDOF 6
ENDMDL
MODEL 4
REMARK VINA RESULT:    -6.038      0.564      1.436
REMARK INTER + INTRA:          -7.585
REMARK INTER:                  -7.283
REMARK INTRA:                  -0.302
REMARK UNBOUND:                -0.311
REMARK SMILES O=c1c(O)c(-c2ccc(O)c(O)c2)oc2cc(O)cc(O)c12
REMARK SMILES IDX 5 1 3 2 2 3 1 4 22 5 20 6 19 7 17 8 16 9 15 10 14 11 6 12
REMARK SMILES IDX 7 13 8 14 9 15 13 16 11 17 10 18 12 20 4 22 21 24 18 26
REMARK H PARENT 10 19 12 21 4 23 21 25 18 27
REMARK Flexibility Score: inf
ROOT
ATOM      1  C   UNL     1      -2.953  52.118  11.871  1.00  0.00     0.180 A 
ATOM      2  C   UNL     1      -3.207  53.459  11.535  1.00  0.00     0.208 A 
ATOM      3  C   UNL     1      -3.300  53.815  10.180  1.00  0.00     0.238 A 
ATOM      4  O   UNL     1      -3.473  55.027   9.884  1.00  0.00    -0.285 OA
ATOM      5  C   UNL     1      -3.153  52.825   9.180  1.00  0.00     0.111 A 
ATOM      6  C   UNL     1      -3.267  53.066   7.777  1.00  0.00     0.134 A 
ATOM      7  C   UNL     1      -2.974  52.037   6.873  1.00  0.00     0.093 A 
ATOM      8  C   UNL     1      -2.634  50.760   7.320  1.00  0.00     0.123 A 
ATOM      9  C   UNL     1      -2.578  50.498   8.689  1.00  0.00     0.094 A 
ATOM     10  C   UNL     1      -2.830  51.513   9.615  1.00  0.00     0.146 A 
ATOM     11  O   UNL     1      -2.755  51.225  10.909  1.00  0.00    -0.452 OA
ENDROOT
BRANCH   1  12
ATOM     12  C   UNL     1      -2.868  51.661  13.277  1.00  0.00     0.025 A 
ATOM     13  C   UNL     1      -4.047  51.418  13.998  1.00  0.00     0.016 A 
ATOM     14  C   UNL     1      -3.990  51.006  15.332  1.00  0.00     0.051 A 
ATOM     15  C   UNL     1      -2.752  50.845  15.969  1.00  0.00     0.157 A 
ATOM     16  C   UNL     1      -1.628  51.518  13.926  1.00  0.00     0.062 A 
ATOM     17  C   UNL     1      -1.567  51.107  15.263  1.00  0.00     0.158 A 
BRANCH  15  18
ATOM     18  O   UNL     1      -2.698  50.431  17.299  1.00  0.00    -0.504 OA
ATOM     19  H   UNL     1      -3.539  50.308  17.851  1.00  0.00     0.293 HD
ENDBRANCH  15  18
BRANCH  17  20
ATOM     20  O   UNL     1      -0.320  50.971  15.873  1.00  0.00    -0.504 OA
ATOM     21  H   UNL     1      -0.185  50.403  16.701  1.00  0.00     0.293 HD
ENDBRANCH  17  20
ENDBRANCH   1  12
BRANCH   2  22
ATOM     22  O   UNL     1      -3.327  54.425  12.537  1.00  0.00    -0.502 OA
ATOM     23  H   UNL     1      -3.938  55.227  12.450  1.00  0.00     0.293 HD
ENDBRANCH   2  22
BRANCH   6  24
ATOM     24  O   UNL     1      -3.688  54.280   7.226  1.00  0.00    -0.507 OA
ATOM     25  H   UNL     1      -3.477  55.188   7.609  1.00  0.00     0.293 HD
ENDBRANCH   6  24
BRANCH   8  26
ATOM     26  O   UNL     1      -2.364  49.757   6.392  1.00  0.00    -0.508 OA
ATOM     27  H   UNL     1      -1.789  48.957   6.630  1.00  0.00     0.293 HD
ENDBRANCH   8  26
TORSDOF 6
ENDMDL
MODEL 5
REMARK VINA RESULT:    -5.889      2.093      6.819
REMARK INTER + INTRA:          -7.404
REMARK INTER:                  -7.070
REMARK INTRA:                  -0.335
REMARK UNBOUND:                -0.311
REMARK SMILES O=c1c(O)c(-c2ccc(O)c(O)c2)oc2cc(O)cc(O)c12
REMARK SMILES IDX 5 1 3 2 2 3 1 4 22 5 20 6 19 7 17 8 16 9 15 10 14 11 6 12
REMARK SMILES IDX 7 13 8 14 9 15 13 16 11 17 10 18 12 20 4 22 21 24 18 26
REMARK H PARENT 10 19 12 21 4 23 21 25 18 27
REMARK Flexibility Score: inf
ROOT
ATOM      1  C   UNL     1      -2.663  53.342  11.215  1.00  0.00     0.180 A 
ATOM      2  C   UNL     1      -1.274  53.554  11.225  1.00  0.00     0.208 A 
ATOM      3  C   UNL     1      -0.501  52.950  12.229  1.00  0.00     0.238 A 
ATOM      4  O   UNL     1       0.735  53.187  12.266  1.00  0.00    -0.285 OA
ATOM      5  C   UNL     1      -1.123  52.129  13.200  1.00  0.00     0.111 A 
ATOM      6  C   UNL     1      -0.432  51.436  14.240  1.00  0.00     0.134 A 
ATOM      7  C   UNL     1      -1.164  50.758  15.223  1.00  0.00     0.093 A 
ATOM      8  C   UNL     1      -2.556  50.694  15.169  1.00  0.00     0.123 A 
ATOM      9  C   UNL     1      -3.238  51.318  14.124  1.00  0.00     0.094 A 
ATOM     10  C   UNL     1      -2.538  52.032  13.149  1.00  0.00     0.146 A 
ATOM     11  O   UNL     1      -3.226  52.622  12.177  1.00  0.00    -0.452 OA
ENDROOT
BRANCH   1  12
ATOM     12  C   UNL     1      -3.541  53.924  10.174  1.00  0.00     0.025 A 
ATOM     13  C   UNL     1      -4.175  55.153  10.413  1.00  0.00     0.016 A 
ATOM     14  C   UNL     1      -5.024  55.710   9.453  1.00  0.00     0.051 A 
ATOM     15  C   UNL     1      -5.264  55.039   8.246  1.00  0.00     0.157 A 
ATOM     16  C   UNL     1      -3.800  53.243   8.971  1.00  0.00     0.062 A 
ATOM     17  C   UNL     1      -4.651  53.798   8.007  1.00  0.00     0.158 A 
BRANCH  15  18
ATOM     18  O   UNL     1      -6.109  55.599   7.290  1.00  0.00    -0.504 OA
ATOM     19  H   UNL     1      -6.875  56.209   7.550  1.00  0.00     0.293 HD
ENDBRANCH  15  18
BRANCH  17  20
ATOM     20  O   UNL     1      -4.881  53.098   6.824  1.00  0.00    -0.504 OA
ATOM     21  H   UNL     1      -5.443  52.256   6.797  1.00  0.00     0.293 HD
ENDBRANCH  17  20
ENDBRANCH   1  12
BRANCH   2  22
ATOM     22  O   UNL     1      -0.681  54.385  10.270  1.00  0.00    -0.502 OA
ATOM     23  H   UNL     1      -0.078  54.030   9.539  1.00  0.00     0.293 HD
ENDBRANCH   2  22
BRANCH   6  24
ATOM     24  O   UNL     1       0.960  51.360  14.334  1.00  0.00    -0.507 OA
ATOM     25  H   UNL     1       1.539  50.732  13.798  1.00  0.00     0.293 HD
ENDBRANCH   6  24
BRANCH   8  26
ATOM     26  O   UNL     1      -3.250  49.997  16.155  1.00  0.00    -0.508 OA
ATOM     27  H   UNL     1      -2.845  49.193  16.621  1.00  0.00     0.293 HD
ENDBRANCH   8  26
TORSDOF 6
ENDMDL
MODEL 6
REMARK VINA RESULT:    -5.885      2.964      5.574
REMARK INTER + INTRA:          -7.400
REMARK INTER:                  -7.080
REMARK INTRA:                  -0.320
REMARK UNBOUND:                -0.311
REMARK SMILES O=c1c(O)c(-c2ccc(O)c(O)c2)oc2cc(O)cc(O)c12
REMARK SMILES IDX 5 1 3 2 2 3 1 4 22 5 20 6 19 7 17 8 16 9 15 10 14 11 6 12
REMARK SMILES IDX 7 13 8 14 9 15 13 16 11 17 10 18 12 20 4 22 21 24 18 26
REMARK H PARENT 10 19 12 21 4 23 21 25 18 27
REMARK Flexibility Score: inf
ROOT
ATOM      1  C   UNL     1      -4.358  51.584  15.096  1.00  0.00     0.180 A 
ATOM      2  C   UNL     1      -3.374  51.417  16.086  1.00  0.00     0.208 A 
ATOM      3  C   UNL     1      -2.023  51.392  15.704  1.00  0.00     0.238 A 
ATOM      4  O   UNL     1      -1.149  51.187  16.588  1.00  0.00    -0.285 OA
ATOM      5  C   UNL     1      -1.672  51.549  14.342  1.00  0.00     0.111 A 
ATOM      6  C   UNL     1      -0.333  51.578  13.848  1.00  0.00     0.134 A 
ATOM      7  C   UNL     1      -0.107  51.609  12.466  1.00  0.00     0.093 A 
ATOM      8  C   UNL     1      -1.168  51.675  11.563  1.00  0.00     0.123 A 
ATOM      9  C   UNL     1      -2.480  51.707  12.038  1.00  0.00     0.094 A 
ATOM     10  C   UNL     1      -2.738  51.642  13.409  1.00  0.00     0.146 A 
ATOM     11  O   UNL     1      -4.001  51.663  13.820  1.00  0.00    -0.452 OA
ENDROOT
BRANCH   1  12
ATOM     12  C   UNL     1      -5.801  51.648  15.423  1.00  0.00     0.025 A 
ATOM     13  C   UNL     1      -6.397  52.892  15.680  1.00  0.00     0.016 A 
ATOM     14  C   UNL     1      -7.752  52.973  16.011  1.00  0.00     0.051 A 
ATOM     15  C   UNL     1      -8.528  51.809  16.103  1.00  0.00     0.157 A 
ATOM     16  C   UNL     1      -6.577  50.480  15.537  1.00  0.00     0.062 A 
ATOM     17  C   UNL     1      -7.935  50.558  15.869  1.00  0.00     0.158 A 
BRANCH  15  18
ATOM     18  O   UNL     1      -9.880  51.893  16.430  1.00  0.00    -0.504 OA
ATOM     19  H   UNL     1     -10.303  51.269  17.106  1.00  0.00     0.293 HD
ENDBRANCH  15  18
BRANCH  17  20
ATOM     20  O   UNL     1      -8.676  49.380  15.967  1.00  0.00    -0.504 OA
ATOM     21  H   UNL     1      -9.549  49.335  16.478  1.00  0.00     0.293 HD
ENDBRANCH  17  20
ENDBRANCH   1  12
BRANCH   2  22
ATOM     22  O   UNL     1      -3.742  51.242  17.422  1.00  0.00    -0.502 OA
ATOM     23  H   UNL     1      -4.695  51.357  17.744  1.00  0.00     0.293 HD
ENDBRANCH   2  22
BRANCH   6  24
ATOM     24  O   UNL     1       0.800  51.608  14.666  1.00  0.00    -0.507 OA
ATOM     25  H   UNL     1       1.512  52.322  14.636  1.00  0.00     0.293 HD
ENDBRANCH   6  24
BRANCH   8  26
ATOM     26  O   UNL     1      -0.906  51.719  10.196  1.00  0.00    -0.508 OA
ATOM     27  H   UNL     1      -1.635  51.930   9.524  1.00  0.00     0.293 HD
ENDBRANCH   8  26
TORSDOF 6
ENDMDL
MODEL 7
REMARK VINA RESULT:    -5.374      1.621      3.002
REMARK INTER + INTRA:          -6.785
REMARK INTER:                  -6.476
REMARK INTRA:                  -0.309
REMARK UNBOUND:                -0.311
REMARK SMILES O=c1c(O)c(-c2ccc(O)c(O)c2)oc2cc(O)cc(O)c12
REMARK SMILES IDX 5 1 3 2 2 3 1 4 22 5 20 6 19 7 17 8 16 9 15 10 14 11 6 12
REMARK SMILES IDX 7 13 8 14 9 15 13 16 11 17 10 18 12 20 4 22 21 24 18 26
REMARK H PARENT 10 19 12 21 4 23 21 25 18 27
REMARK Flexibility Score: inf
ROOT
ATOM      1  C   UNL     1      -2.131  52.399  11.848  1.00  0.00     0.180 A 
ATOM      2  C   UNL     1      -1.442  51.718  10.830  1.00  0.00     0.208 A 
ATOM      3  C   UNL     1      -1.687  52.066   9.492  1.00  0.00     0.238 A 
ATOM      4  O   UNL     1      -1.108  51.415   8.582  1.00  0.00    -0.285 OA
ATOM      5  C   UNL     1      -2.606  53.099   9.189  1.00  0.00     0.111 A 
ATOM      6  C   UNL     1      -2.902  53.560   7.871  1.00  0.00     0.134 A 
ATOM      7  C   UNL     1      -3.924  54.499   7.680  1.00  0.00     0.093 A 
ATOM      8  C   UNL     1      -4.616  55.040   8.763  1.00  0.00     0.123 A 
ATOM      9  C   UNL     1      -4.294  54.640  10.060  1.00  0.00     0.094 A 
ATOM     10  C   UNL     1      -3.304  53.680  10.280  1.00  0.00     0.146 A 
ATOM     11  O   UNL     1      -3.036  53.318  11.529  1.00  0.00    -0.452 OA
ENDROOT
BRANCH   1  12
ATOM     12  C   UNL     1      -1.908  52.107  13.282  1.00  0.00     0.025 A 
ATOM     13  C   UNL     1      -0.810  52.683  13.941  1.00  0.00     0.016 A 
ATOM     14  C   UNL     1      -0.568  52.405  15.289  1.00  0.00     0.051 A 
ATOM     15  C   UNL     1      -1.412  51.536  15.994  1.00  0.00     0.157 A 
ATOM     16  C   UNL     1      -2.740  51.219  13.987  1.00  0.00     0.062 A 
ATOM     17  C   UNL     1      -2.500  50.937  15.337  1.00  0.00     0.158 A 
BRANCH  15  18
ATOM     18  O   UNL     1      -1.170  51.263  17.339  1.00  0.00    -0.504 OA
ATOM     19  H   UNL     1      -0.651  50.443  17.630  1.00  0.00     0.293 HD
ENDBRANCH  15  18
BRANCH  17  20
ATOM     20  O   UNL     1      -3.348  50.056  16.006  1.00  0.00    -0.504 OA
ATOM     21  H   UNL     1      -3.392  50.013  17.017  1.00  0.00     0.293 HD
ENDBRANCH  17  20
ENDBRANCH   1  12
BRANCH   2  22
ATOM     22  O   UNL     1      -0.555  50.687  11.149  1.00  0.00    -0.502 OA
ATOM     23  H   UNL     1      -0.840  49.864  11.665  1.00  0.00     0.293 HD
ENDBRANCH   2  22
BRANCH   6  24
ATOM     24  O   UNL     1      -2.209  53.152   6.727  1.00  0.00    -0.507 OA
ATOM     25  H   UNL     1      -1.205  53.167   6.628  1.00  0.00     0.293 HD
ENDBRANCH   6  24
BRANCH   8  26
ATOM     26  O   UNL     1      -5.616  55.983   8.538  1.00  0.00    -0.508 OA
ATOM     27  H   UNL     1      -6.586  55.711   8.430  1.00  0.00     0.293 HD
ENDBRANCH   8  26
TORSDOF 6
ENDMDL
MODEL 8
REMARK VINA RESULT:    -5.255      4.702      7.879
REMARK INTER + INTRA:          -6.641
REMARK INTER:                  -6.482
REMARK INTRA:                  -0.159
REMARK UNBOUND:                -0.311
REMARK SMILES O=c1c(O)c(-c2ccc(O)c(O)c2)oc2cc(O)cc(O)c12
REMARK SMILES IDX 5 1 3 2 2 3 1 4 22 5 20 6 19 7 17 8 16 9 15 10 14 11 6 12
REMARK SMILES IDX 7 13 8 14 9 15 13 16 11 17 10 18 12 20 4 22 21 24 18 26
REMARK H PARENT 10 19 12 21 4 23 21 25 18 27
REMARK Flexibility Score: inf
ROOT
ATOM      1  C   UNL     1      -6.368  52.512  15.892  1.00  0.00     0.180 A 
ATOM      2  C   UNL     1      -6.729  53.807  15.482  1.00  0.00     0.208 A 
ATOM      3  C   UNL     1      -8.046  54.245  15.692  1.00  0.00     0.238 A 
ATOM      4  O   UNL     1      -8.378  55.385  15.272  1.00  0.00    -0.285 OA
ATOM      5  C   UNL     1      -8.981  53.389  16.322  1.00  0.00     0.111 A 
ATOM      6  C   UNL     1     -10.332  53.743  16.619  1.00  0.00     0.134 A 
ATOM      7  C   UNL     1     -11.205  52.773  17.127  1.00  0.00     0.093 A 
ATOM      8  C   UNL     1     -10.761  51.481  17.408  1.00  0.00     0.123 A 
ATOM      9  C   UNL     1      -9.428  51.141  17.176  1.00  0.00     0.094 A 
ATOM     10  C   UNL     1      -8.542  52.077  16.637  1.00  0.00     0.146 A 
ATOM     11  O   UNL     1      -7.284  51.710  16.421  1.00  0.00    -0.452 OA
ENDROOT
BRANCH   1  12
ATOM     12  C   UNL     1      -4.992  51.989  15.729  1.00  0.00     0.025 A 
ATOM     13  C   UNL     1      -4.486  51.767  14.439  1.00  0.00     0.016 A 
ATOM     14  C   UNL     1      -3.198  51.253  14.263  1.00  0.00     0.051 A 
ATOM     15  C   UNL     1      -2.403  50.941  15.374  1.00  0.00     0.157 A 
ATOM     16  C   UNL     1      -4.200  51.654  16.842  1.00  0.00     0.062 A 
ATOM     17  C   UNL     1      -2.910  51.139  16.669  1.00  0.00     0.158 A 
BRANCH  15  18
ATOM     18  O   UNL     1      -1.118  50.432  15.195  1.00  0.00    -0.504 OA
ATOM     19  H   UNL     1      -0.924  49.441  15.274  1.00  0.00     0.293 HD
ENDBRANCH  15  18
BRANCH  17  20
ATOM     20  O   UNL     1      -2.150  50.823  17.795  1.00  0.00    -0.504 OA
ATOM     21  H   UNL     1      -1.733  49.910  17.924  1.00  0.00     0.293 HD
ENDBRANCH  17  20
ENDBRANCH   1  12
BRANCH   2  22
ATOM     22  O   UNL     1      -5.797  54.628  14.842  1.00  0.00    -0.502 OA
ATOM     23  H   UNL     1      -5.284  54.332  14.021  1.00  0.00     0.293 HD
ENDBRANCH   2  22
BRANCH   6  24
ATOM     24  O   UNL     1     -10.854  55.031  16.463  1.00  0.00    -0.507 OA
ATOM     25  H   UNL     1     -10.411  55.874  16.794  1.00  0.00     0.293 HD
ENDBRANCH   6  24
BRANCH   8  26
ATOM     26  O   UNL     1     -11.653  50.545  17.927  1.00  0.00    -0.508 OA
ATOM     27  H   UNL     1     -12.473  50.251  17.408  1.00  0.00     0.293 HD
ENDBRANCH   8  26
TORSDOF 6
ENDMDL
MODEL 9
REMARK VINA RESULT:    -5.245      2.352      7.000
REMARK INTER + INTRA:          -6.629
REMARK INTER:                  -6.376
REMARK INTRA:                  -0.253
REMARK UNBOUND:                -0.311
REMARK SMILES O=c1c(O)c(-c2ccc(O)c(O)c2)oc2cc(O)cc(O)c12
REMARK SMILES IDX 5 1 3 2 2 3 1 4 22 5 20 6 19 7 17 8 16 9 15 10 14 11 6 12
REMARK SMILES IDX 7 13 8 14 9 15 13 16 11 17 10 18 12 20 4 22 21 24 18 26
REMARK H PARENT 10 19 12 21 4 23 21 25 18 27
REMARK Flexibility Score: inf
ROOT
ATOM      1  C   UNL     1      -2.825  52.152   9.675  1.00  0.00     0.180 A 
ATOM      2  C   UNL     1      -3.399  51.583  10.825  1.00  0.00     0.208 A 
ATOM      3  C   UNL     1      -3.034  52.082  12.085  1.00  0.00     0.238 A 
ATOM      4  O   UNL     1      -3.509  51.532  13.114  1.00  0.00    -0.285 OA
ATOM      5  C   UNL     1      -2.113  53.153  12.180  1.00  0.00     0.111 A 
ATOM      6  C   UNL     1      -1.702  53.762  13.404  1.00  0.00     0.134 A 
ATOM      7  C   UNL     1      -0.687  54.728  13.388  1.00  0.00     0.093 A 
ATOM      8  C   UNL     1      -0.115  55.151  12.189  1.00  0.00     0.123 A 
ATOM      9  C   UNL     1      -0.551  54.605  10.982  1.00  0.00     0.094 A 
ATOM     10  C   UNL     1      -1.536  53.614  10.968  1.00  0.00     0.146 A 
ATOM     11  O   UNL     1      -1.915  53.111   9.799  1.00  0.00    -0.452 OA
ENDROOT
BRANCH   1  12
ATOM     12  C   UNL     1      -3.179  51.699   8.311  1.00  0.00     0.025 A 
ATOM     13  C   UNL     1      -4.432  52.033   7.774  1.00  0.00     0.016 A 
ATOM     14  C   UNL     1      -4.795  51.598   6.497  1.00  0.00     0.051 A 
ATOM     15  C   UNL     1      -3.915  50.809   5.742  1.00  0.00     0.157 A 
ATOM     16  C   UNL     1      -2.307  50.890   7.559  1.00  0.00     0.062 A 
ATOM     17  C   UNL     1      -2.668  50.451   6.279  1.00  0.00     0.158 A 
BRANCH  15  18
ATOM     18  O   UNL     1      -4.279  50.379   4.468  1.00  0.00    -0.504 OA
ATOM     19  H   UNL     1      -5.152  49.895   4.300  1.00  0.00     0.293 HD
ENDBRANCH  15  18
BRANCH  17  20
ATOM     20  O   UNL     1      -1.776  49.656   5.561  1.00  0.00    -0.504 OA
ATOM     21  H   UNL     1      -1.708  48.656   5.708  1.00  0.00     0.293 HD
ENDBRANCH  17  20
ENDBRANCH   1  12
BRANCH   2  22
ATOM     22  O   UNL     1      -4.289  50.513  10.710  1.00  0.00    -0.502 OA
ATOM     23  H   UNL     1      -4.232  49.834   9.961  1.00  0.00     0.293 HD
ENDBRANCH   2  22
BRANCH   6  24
ATOM     24  O   UNL     1      -2.273  53.479  14.648  1.00  0.00    -0.507 OA
ATOM     25  H   UNL     1      -2.903  54.091  15.144  1.00  0.00     0.293 HD
ENDBRANCH   6  24
BRANCH   8  26
ATOM     26  O   UNL     1       0.882  56.125  12.210  1.00  0.00    -0.508 OA
ATOM     27  H   UNL     1       1.649  56.111  11.548  1.00  0.00     0.293 HD
ENDBRANCH   8  26
TORSDOF 6
ENDMDL
