MODEL 1
REMARK VINA RESULT:    -4.449      0.000      0.000
REMARK INTER + INTRA:          -9.670
REMARK INTER:                  -8.090
REMARK INTRA:                  -1.581
REMARK UNBOUND:                -1.581
REMARK SMILES CCCCCCCCCCCCCCCC(=O)[O-]
REMARK SMILES IDX 9 1 10 2 11 3 12 4 13 5 14 6 15 7 16 8 17 9 18 10 8 11 7 12
REMARK SMILES IDX 6 13 5 14 4 15 3 16 2 17 1 18
REMARK H PARENT
REMARK Flexibility Score: inf
ROOT
ATOM      1  C   UNL     1     -23.399   5.946  35.837  1.00  0.00     0.000 C 
ENDROOT
BRANCH   1   2
ATOM      2  C   UNL     1     -23.835   6.746  34.599  1.00  0.00     0.000 C 
BRANCH   2   3
ATOM      3  C   UNL     1     -23.349   6.116  33.285  1.00  0.00     0.000 C 
BRANCH   3   4
ATOM      4  C   UNL     1     -24.304   6.445  32.131  1.00  0.00     0.000 C 
BRANCH   4   5
ATOM      5  C   UNL     1     -25.625   5.681  32.274  1.00  0.00     0.000 C 
BRANCH   5   6
ATOM      6  C   UNL     1     -26.461   5.781  30.994  1.00  0.00     0.006 C 
BRANCH   6   7
ATOM      7  C   UNL     1     -27.702   6.652  31.213  1.00  0.00     0.053 C 
BRANCH   7   8
ATOM      8  C   UNL     1     -28.632   6.544  30.047  1.00  0.00     0.041 C 
ATOM      9  O   UNL     1     -29.526   5.657  30.030  1.00  0.00    -0.550 OA
ATOM     10  O   UNL     1     -28.544   7.453  29.001  1.00  0.00    -0.550 OA
ENDBRANCH   7   8
ENDBRANCH   6   7
ENDBRANCH   5   6
ENDBRANCH   4   5
ENDBRANCH   3   4
ENDBRANCH   2   3
ENDBRANCH   1   2
BRANCH   1  11
ATOM     11  C   UNL     1     -23.629   6.712  37.148  1.00  0.00     0.000 C 
BRANCH  11  12
ATOM     12  C   UNL     1     -24.317   5.823  38.190  1.00  0.00    -0.000 C 
BRANCH  12  13
ATOM     13  C   UNL     1     -25.819   5.685  37.893  1.00  0.00    -0.000 C 
BRANCH  13  14
ATOM     14  C   UNL     1     -26.507   7.056  37.721  1.00  0.00    -0.000 C 
BRANCH  14  15
ATOM     15  C   UNL     1     -27.371   7.157  36.452  1.00  0.00    -0.000 C 
BRANCH  15  16
ATOM     16  C   UNL     1     -27.196   5.952  35.514  1.00  0.00    -0.000 C 
BRANCH  16  17
ATOM     17  C   UNL     1     -28.471   5.099  35.408  1.00  0.00    -0.003 C 
ATOM     18  C   UNL     1     -28.771   4.658  33.975  1.00  0.00     0.004 C 
ENDBRANCH  16  17
ENDBRANCH  15  16
ENDBRANCH  14  15
ENDBRANCH  13  14
ENDBRANCH  12  13
ENDBRANCH  11  12
ENDBRANCH   1  11
TORSDOF 14
ENDMDL
MODEL 2
REMARK VINA RESULT:    -4.350      1.198      3.840
REMARK INTER + INTRA:          -9.490
REMARK INTER:                  -7.541
REMARK INTRA:                  -1.949
REMARK UNBOUND:                -1.581
REMARK SMILES CCCCCCCCCCCCCCCC(=O)[O-]
REMARK SMILES IDX 9 1 10 2 11 3 12 4 13 5 14 6 15 7 16 8 17 9 18 10 8 11 7 12
REMARK SMILES IDX 6 13 5 14 4 15 3 16 2 17 1 18
REMARK H PARENT
REMARK Flexibility Score: inf
ROOT
ATOM      1  C   UNL     1     -27.219   6.350  35.815  1.00  0.00     0.000 C 
ENDROOT
BRANCH   1   2
ATOM      2  C   UNL     1     -28.132   5.129  35.621  1.00  0.00     0.000 C 
BRANCH   2   3
ATOM      3  C   UNL     1     -28.514   4.903  34.150  1.00  0.00     0.000 C 
BRANCH   3   4
ATOM      4  C   UNL     1     -27.431   5.450  33.211  1.00  0.00     0.000 C 
BRANCH   4   5
ATOM      5  C   UNL     1     -27.020   4.400  32.173  1.00  0.00     0.000 C 
BRANCH   5   6
ATOM      6  C   UNL     1     -27.718   4.647  30.832  1.00  0.00     0.006 C 
BRANCH   6   7
ATOM      7  C   UNL     1     -27.552   6.102  30.384  1.00  0.00     0.053 C 
BRANCH   7   8
ATOM      8  C   UNL     1     -28.770   6.569  29.653  1.00  0.00     0.041 C 
ATOM      9  O   UNL     1     -28.731   7.624  28.966  1.00  0.00    -0.550 OA
ATOM     10  O   UNL     1     -29.934   5.814  29.688  1.00  0.00    -0.550 OA
ENDBRANCH   7   8
ENDBRANCH   6   7
ENDBRANCH   5   6
ENDBRANCH   4   5
ENDBRANCH   3   4
ENDBRANCH   2   3
ENDBRANCH   1   2
BRANCH   1  11
ATOM     11  C   UNL     1     -26.360   6.251  37.084  1.00  0.00     0.000 C 
BRANCH  11  12
ATOM     12  C   UNL     1     -24.867   6.233  36.735  1.00  0.00    -0.000 C 
BRANCH  12  13
ATOM     13  C   UNL     1     -24.620   6.809  35.332  1.00  0.00    -0.000 C 
BRANCH  13  14
ATOM     14  C   UNL     1     -23.367   6.204  34.665  1.00  0.00    -0.000 C 
BRANCH  14  15
ATOM     15  C   UNL     1     -23.654   5.519  33.319  1.00  0.00    -0.000 C 
BRANCH  15  16
ATOM     16  C   UNL     1     -23.905   6.522  32.181  1.00  0.00    -0.000 C 
BRANCH  16  17
ATOM     17  C   UNL     1     -23.858   5.863  30.794  1.00  0.00    -0.003 C 
ATOM     18  C   UNL     1     -23.456   4.388  30.852  1.00  0.00     0.004 C 
ENDBRANCH  16  17
ENDBRANCH  15  16
ENDBRANCH  14  15
ENDBRANCH  13  14
ENDBRANCH  12  13
ENDBRANCH  11  12
ENDBRANCH   1  11
TORSDOF 14
ENDMDL
MODEL 3
REMARK VINA RESULT:    -4.261      2.019      2.612
REMARK INTER + INTRA:          -9.329
REMARK INTER:                  -7.567
REMARK INTRA:                  -1.762
REMARK UNBOUND:                -1.581
REMARK SMILES CCCCCCCCCCCCCCCC(=O)[O-]
REMARK SMILES IDX 9 1 10 2 11 3 12 4 13 5 14 6 15 7 16 8 17 9 18 10 8 11 7 12
REMARK SMILES IDX 6 13 5 14 4 15 3 16 2 17 1 18
REMARK H PARENT
REMARK Flexibility Score: inf
ROOT
ATOM      1  C   UNL     1     -23.739   6.798  34.681  1.00  0.00     0.000 C 
ENDROOT
BRANCH   1   2
ATOM      2  C   UNL     1     -22.875   6.618  33.422  1.00  0.00     0.000 C 
BRANCH   2   3
ATOM      3  C   UNL     1     -23.632   5.926  32.278  1.00  0.00     0.000 C 
BRANCH   3   4
ATOM      4  C   UNL     1     -25.132   5.842  32.585  1.00  0.00     0.000 C 
BRANCH   4   5
ATOM      5  C   UNL     1     -25.968   6.095  31.324  1.00  0.00     0.000 C 
BRANCH   5   6
ATOM      6  C   UNL     1     -26.997   4.980  31.112  1.00  0.00     0.006 C 
BRANCH   6   7
ATOM      7  C   UNL     1     -26.582   3.701  31.845  1.00  0.00     0.053 C 
BRANCH   7   8
ATOM      8  C   UNL     1     -25.936   2.740  30.898  1.00  0.00     0.041 C 
ATOM      9  O   UNL     1     -26.640   1.927  30.242  1.00  0.00    -0.550 OA
ATOM     10  O   UNL     1     -24.562   2.774  30.702  1.00  0.00    -0.550 OA
ENDBRANCH   7   8
ENDBRANCH   6   7
ENDBRANCH   5   6
ENDBRANCH   4   5
ENDBRANCH   3   4
ENDBRANCH   2   3
ENDBRANCH   1   2
BRANCH   1  11
ATOM     11  C   UNL     1     -23.224   5.979  35.874  1.00  0.00     0.000 C 
BRANCH  11  12
ATOM     12  C   UNL     1     -23.596   6.650  37.201  1.00  0.00    -0.000 C 
BRANCH  12  13
ATOM     13  C   UNL     1     -24.314   5.665  38.137  1.00  0.00    -0.000 C 
BRANCH  13  14
ATOM     14  C   UNL     1     -25.841   5.653  37.910  1.00  0.00    -0.000 C 
BRANCH  14  15
ATOM     15  C   UNL     1     -26.439   7.048  37.663  1.00  0.00    -0.000 C 
BRANCH  15  16
ATOM     16  C   UNL     1     -27.360   7.094  36.433  1.00  0.00    -0.000 C 
BRANCH  16  17
ATOM     17  C   UNL     1     -27.143   5.899  35.491  1.00  0.00    -0.003 C 
ATOM     18  C   UNL     1     -28.430   5.122  35.214  1.00  0.00     0.004 C 
ENDBRANCH  16  17
ENDBRANCH  15  16
ENDBRANCH  14  15
ENDBRANCH  13  14
ENDBRANCH  12  13
ENDBRANCH  11  12
ENDBRANCH   1  11
TORSDOF 14
ENDMDL
MODEL 4
REMARK VINA RESULT:    -4.257      1.328      2.980
REMARK INTER + INTRA:          -9.321
REMARK INTER:                  -7.735
REMARK INTRA:                  -1.586
REMARK UNBOUND:                -1.581
REMARK SMILES CCCCCCCCCCCCCCCC(=O)[O-]
REMARK SMILES IDX 9 1 10 2 11 3 12 4 13 5 14 6 15 7 16 8 17 9 18 10 8 11 7 12
REMARK SMILES IDX 6 13 5 14 4 15 3 16 2 17 1 18
REMARK H PARENT
REMARK Flexibility Score: inf
ROOT
ATOM      1  C   UNL     1     -24.326   5.256  32.852  1.00  0.00     0.000 C 
ENDROOT
BRANCH   1   2
ATOM      2  C   UNL     1     -25.450   5.482  31.828  1.00  0.00     0.000 C 
BRANCH   2   3
ATOM      3  C   UNL     1     -26.615   4.496  32.000  1.00  0.00     0.000 C 
BRANCH   3   4
ATOM      4  C   UNL     1     -27.964   5.217  31.901  1.00  0.00     0.000 C 
BRANCH   4   5
ATOM      5  C   UNL     1     -27.799   6.618  31.301  1.00  0.00     0.000 C 
BRANCH   5   6
ATOM      6  C   UNL     1     -28.273   6.653  29.843  1.00  0.00     0.006 C 
BRANCH   6   7
ATOM      7  C   UNL     1     -29.563   5.847  29.665  1.00  0.00     0.053 C 
BRANCH   7   8
ATOM      8  C   UNL     1     -29.452   4.935  28.484  1.00  0.00     0.041 C 
ATOM      9  O   UNL     1     -30.069   5.201  27.419  1.00  0.00    -0.550 OA
ATOM     10  O   UNL     1     -28.629   3.818  28.543  1.00  0.00    -0.550 OA
ENDBRANCH   7   8
ENDBRANCH   6   7
ENDBRANCH   5   6
ENDBRANCH   4   5
ENDBRANCH   3   4
ENDBRANCH   2   3
ENDBRANCH   1   2
BRANCH   1  11
ATOM     11  C   UNL     1     -24.236   6.384  33.891  1.00  0.00     0.000 C 
BRANCH  11  12
ATOM     12  C   UNL     1     -23.265   6.015  35.018  1.00  0.00    -0.000 C 
BRANCH  12  13
ATOM     13  C   UNL     1     -23.609   6.768  36.313  1.00  0.00    -0.000 C 
BRANCH  13  14
ATOM     14  C   UNL     1     -24.075   5.816  37.435  1.00  0.00    -0.000 C 
BRANCH  14  15
ATOM     15  C   UNL     1     -25.598   5.602  37.470  1.00  0.00    -0.000 C 
BRANCH  15  16
ATOM     16  C   UNL     1     -26.383   6.919  37.577  1.00  0.00    -0.000 C 
BRANCH  16  17
ATOM     17  C   UNL     1     -27.282   7.169  36.355  1.00  0.00    -0.003 C 
ATOM     18  C   UNL     1     -27.560   5.896  35.555  1.00  0.00     0.004 C 
ENDBRANCH  16  17
ENDBRANCH  15  16
ENDBRANCH  14  15
ENDBRANCH  13  14
ENDBRANCH  12  13
ENDBRANCH  11  12
ENDBRANCH   1  11
TORSDOF 14
ENDMDL
MODEL 5
REMARK VINA RESULT:    -4.223     13.510     14.911
REMARK INTER + INTRA:          -9.259
REMARK INTER:                  -7.056
REMARK INTRA:                  -2.203
REMARK UNBOUND:                -1.581
REMARK SMILES CCCCCCCCCCCCCCCC(=O)[O-]
REMARK SMILES IDX 9 1 10 2 11 3 12 4 13 5 14 6 15 7 16 8 17 9 18 10 8 11 7 12
REMARK SMILES IDX 6 13 5 14 4 15 3 16 2 17 1 18
REMARK H PARENT
REMARK Flexibility Score: inf
ROOT
ATOM      1  C   UNL     1     -35.592   8.384  23.812  1.00  0.00     0.000 C 
ENDROOT
BRANCH   1   2
ATOM      2  C   UNL     1     -35.307   8.957  25.210  1.00  0.00     0.000 C 
BRANCH   2   3
ATOM      3  C   UNL     1     -36.579   9.107  26.058  1.00  0.00     0.000 C 
BRANCH   3   4
ATOM      4  C   UNL     1     -37.791   9.433  25.178  1.00  0.00     0.000 C 
BRANCH   4   5
ATOM      5  C   UNL     1     -39.003   8.580  25.570  1.00  0.00     0.000 C 
BRANCH   5   6
ATOM      6  C   UNL     1     -38.736   7.804  26.865  1.00  0.00     0.006 C 
BRANCH   6   7
ATOM      7  C   UNL     1     -39.970   7.803  27.771  1.00  0.00     0.053 C 
BRANCH   7   8
ATOM      8  C   UNL     1     -40.063   9.087  28.533  1.00  0.00     0.041 C 
ATOM      9  O   UNL     1     -41.167   9.465  29.006  1.00  0.00    -0.550 OA
ATOM     10  O   UNL     1     -38.920   9.842  28.764  1.00  0.00    -0.550 OA
ENDBRANCH   7   8
ENDBRANCH   6   7
ENDBRANCH   5   6
ENDBRANCH   4   5
ENDBRANCH   3   4
ENDBRANCH   2   3
ENDBRANCH   1   2
BRANCH   1  11
ATOM     11  C   UNL     1     -35.586   6.849  23.789  1.00  0.00     0.000 C 
BRANCH  11  12
ATOM     12  C   UNL     1     -36.932   6.301  23.301  1.00  0.00    -0.000 C 
BRANCH  12  13
ATOM     13  C   UNL     1     -37.505   5.278  24.294  1.00  0.00    -0.000 C 
BRANCH  13  14
ATOM     14  C   UNL     1     -36.666   5.187  25.587  1.00  0.00    -0.000 C 
BRANCH  14  15
ATOM     15  C   UNL     1     -37.391   4.479  26.744  1.00  0.00    -0.000 C 
BRANCH  15  16
ATOM     16  C   UNL     1     -38.803   4.005  26.363  1.00  0.00    -0.000 C 
BRANCH  16  17
ATOM     17  C   UNL     1     -39.058   2.541  26.755  1.00  0.00    -0.003 C 
ATOM     18  C   UNL     1     -38.540   2.204  28.154  1.00  0.00     0.004 C 
ENDBRANCH  16  17
ENDBRANCH  15  16
ENDBRANCH  14  15
ENDBRANCH  13  14
ENDBRANCH  12  13
ENDBRANCH  11  12
ENDBRANCH   1  11
TORSDOF 14
ENDMDL
MODEL 6
REMARK VINA RESULT:    -4.211      2.347      4.875
REMARK INTER + INTRA:          -9.239
REMARK INTER:                  -8.071
REMARK INTRA:                  -1.168
REMARK UNBOUND:                -1.581
REMARK SMILES CCCCCCCCCCCCCCCC(=O)[O-]
REMARK SMILES IDX 9 1 10 2 11 3 12 4 13 5 14 6 15 7 16 8 17 9 18 10 8 11 7 12
REMARK SMILES IDX 6 13 5 14 4 15 3 16 2 17 1 18
REMARK H PARENT
REMARK Flexibility Score: inf
ROOT
ATOM      1  C   UNL     1     -28.108   5.446  32.031  1.00  0.00     0.000 C 
ENDROOT
BRANCH   1   2
ATOM      2  C   UNL     1     -27.424   6.314  30.962  1.00  0.00     0.000 C 
BRANCH   2   3
ATOM      3  C   UNL     1     -28.327   6.581  29.749  1.00  0.00     0.000 C 
BRANCH   3   4
ATOM      4  C   UNL     1     -29.597   5.723  29.810  1.00  0.00     0.000 C 
BRANCH   4   5
ATOM      5  C   UNL     1     -29.946   5.155  28.429  1.00  0.00     0.000 C 
BRANCH   5   6
ATOM      6  C   UNL     1     -28.685   4.700  27.686  1.00  0.00     0.006 C 
BRANCH   6   7
ATOM      7  C   UNL     1     -28.599   3.171  27.633  1.00  0.00     0.053 C 
BRANCH   7   8
ATOM      8  C   UNL     1     -27.652   2.664  28.674  1.00  0.00     0.041 C 
ATOM      9  O   UNL     1     -26.731   3.405  29.108  1.00  0.00    -0.550 OA
ATOM     10  O   UNL     1     -27.817   1.390  29.202  1.00  0.00    -0.550 OA
ENDBRANCH   7   8
ENDBRANCH   6   7
ENDBRANCH   5   6
ENDBRANCH   4   5
ENDBRANCH   3   4
ENDBRANCH   2   3
ENDBRANCH   1   2
BRANCH   1  11
ATOM     11  C   UNL     1     -27.759   5.884  33.461  1.00  0.00     0.000 C 
BRANCH  11  12
ATOM     12  C   UNL     1     -28.300   4.883  34.488  1.00  0.00    -0.000 C 
BRANCH  12  13
ATOM     13  C   UNL     1     -27.809   5.224  35.904  1.00  0.00    -0.000 C 
BRANCH  13  14
ATOM     14  C   UNL     1     -27.458   6.719  36.054  1.00  0.00    -0.000 C 
BRANCH  14  15
ATOM     15  C   UNL     1     -26.191   6.974  36.888  1.00  0.00    -0.000 C 
BRANCH  15  16
ATOM     16  C   UNL     1     -25.507   5.676  37.346  1.00  0.00    -0.000 C 
BRANCH  16  17
ATOM     17  C   UNL     1     -24.994   5.760  38.793  1.00  0.00    -0.003 C 
ATOM     18  C   UNL     1     -26.046   5.337  39.819  1.00  0.00     0.004 C 
ENDBRANCH  16  17
ENDBRANCH  15  16
ENDBRANCH  14  15
ENDBRANCH  13  14
ENDBRANCH  12  13
ENDBRANCH  11  12
ENDBRANCH   1  11
TORSDOF 14
ENDMDL
MODEL 7
REMARK VINA RESULT:    -4.163     12.066     14.998
REMARK INTER + INTRA:          -9.151
REMARK INTER:                  -6.737
REMARK INTRA:                  -2.414
REMARK UNBOUND:                -1.581
REMARK SMILES CCCCCCCCCCCCCCCC(=O)[O-]
REMARK SMILES IDX 9 1 10 2 11 3 12 4 13 5 14 6 15 7 16 8 17 9 18 10 8 11 7 12
REMARK SMILES IDX 6 13 5 14 4 15 3 16 2 17 1 18
REMARK H PARENT
REMARK Flexibility Score: inf
ROOT
ATOM      1  C   UNL     1     -38.425   6.660  27.094  1.00  0.00     0.000 C 
ENDROOT
BRANCH   1   2
ATOM      2  C   UNL     1     -37.365   7.739  27.364  1.00  0.00     0.000 C 
BRANCH   2   3
ATOM      3  C   UNL     1     -37.259   8.763  26.225  1.00  0.00     0.000 C 
BRANCH   3   4
ATOM      4  C   UNL     1     -38.371   8.551  25.191  1.00  0.00     0.000 C 
BRANCH   4   5
ATOM      5  C   UNL     1     -39.326   9.750  25.153  1.00  0.00     0.000 C 
BRANCH   5   6
ATOM      6  C   UNL     1     -40.578   9.485  25.995  1.00  0.00     0.006 C 
BRANCH   6   7
ATOM      7  C   UNL     1     -40.769  10.574  27.055  1.00  0.00     0.053 C 
BRANCH   7   8
ATOM      8  C   UNL     1     -39.948  10.274  28.269  1.00  0.00     0.041 C 
ATOM      9  O   UNL     1     -40.180   9.241  28.951  1.00  0.00    -0.550 OA
ATOM     10  O   UNL     1     -38.894  11.108  28.619  1.00  0.00    -0.550 OA
ENDBRANCH   7   8
ENDBRANCH   6   7
ENDBRANCH   5   6
ENDBRANCH   4   5
ENDBRANCH   3   4
ENDBRANCH   2   3
ENDBRANCH   1   2
BRANCH   1  11
ATOM     11  C   UNL     1     -37.980   5.263  27.553  1.00  0.00     0.000 C 
BRANCH  11  12
ATOM     12  C   UNL     1     -37.654   4.369  26.352  1.00  0.00    -0.000 C 
BRANCH  12  13
ATOM     13  C   UNL     1     -38.386   4.850  25.089  1.00  0.00    -0.000 C 
BRANCH  13  14
ATOM     14  C   UNL     1     -37.409   5.198  23.946  1.00  0.00    -0.000 C 
BRANCH  14  15
ATOM     15  C   UNL     1     -35.933   5.215  24.378  1.00  0.00    -0.000 C 
BRANCH  15  16
ATOM     16  C   UNL     1     -35.243   6.558  24.092  1.00  0.00    -0.000 C 
BRANCH  16  17
ATOM     17  C   UNL     1     -33.823   6.626  24.676  1.00  0.00    -0.003 C 
ATOM     18  C   UNL     1     -33.702   7.629  25.824  1.00  0.00     0.004 C 
ENDBRANCH  16  17
ENDBRANCH  15  16
ENDBRANCH  14  15
ENDBRANCH  13  14
ENDBRANCH  12  13
ENDBRANCH  11  12
ENDBRANCH   1  11
TORSDOF 14
ENDMDL
MODEL 8
REMARK VINA RESULT:    -4.149      3.671      7.346
REMARK INTER + INTRA:          -9.125
REMARK INTER:                  -7.418
REMARK INTRA:                  -1.707
REMARK UNBOUND:                -1.581
REMARK SMILES CCCCCCCCCCCCCCCC(=O)[O-]
REMARK SMILES IDX 9 1 10 2 11 3 12 4 13 5 14 6 15 7 16 8 17 9 18 10 8 11 7 12
REMARK SMILES IDX 6 13 5 14 4 15 3 16 2 17 1 18
REMARK H PARENT
REMARK Flexibility Score: inf
ROOT
ATOM      1  C   UNL     1     -27.755   6.230  31.514  1.00  0.00     0.000 C 
ENDROOT
BRANCH   1   2
ATOM      2  C   UNL     1     -27.943   4.810  32.071  1.00  0.00     0.000 C 
BRANCH   2   3
ATOM      3  C   UNL     1     -28.348   4.804  33.552  1.00  0.00     0.000 C 
BRANCH   3   4
ATOM      4  C   UNL     1     -27.738   6.000  34.294  1.00  0.00     0.000 C 
BRANCH   4   5
ATOM      5  C   UNL     1     -27.375   5.628  35.736  1.00  0.00     0.000 C 
BRANCH   5   6
ATOM      6  C   UNL     1     -26.550   6.735  36.400  1.00  0.00     0.006 C 
BRANCH   6   7
ATOM      7  C   UNL     1     -25.214   6.193  36.917  1.00  0.00     0.053 C 
BRANCH   7   8
ATOM      8  C   UNL     1     -25.191   6.191  38.412  1.00  0.00     0.041 C 
ATOM      9  O   UNL     1     -26.220   6.518  39.062  1.00  0.00    -0.550 OA
ATOM     10  O   UNL     1     -24.051   5.782  39.090  1.00  0.00    -0.550 OA
ENDBRANCH   7   8
ENDBRANCH   6   7
ENDBRANCH   5   6
ENDBRANCH   4   5
ENDBRANCH   3   4
ENDBRANCH   2   3
ENDBRANCH   1   2
BRANCH   1  11
ATOM     11  C   UNL     1     -28.303   6.384  30.087  1.00  0.00     0.000 C 
BRANCH  11  12
ATOM     12  C   UNL     1     -27.940   5.169  29.226  1.00  0.00    -0.000 C 
BRANCH  12  13
ATOM     13  C   UNL     1     -26.529   5.312  28.634  1.00  0.00    -0.000 C 
BRANCH  13  14
ATOM     14  C   UNL     1     -25.541   4.284  29.226  1.00  0.00    -0.000 C 
BRANCH  14  15
ATOM     15  C   UNL     1     -24.201   4.897  29.664  1.00  0.00    -0.000 C 
BRANCH  15  16
ATOM     16  C   UNL     1     -24.020   4.906  31.191  1.00  0.00    -0.000 C 
BRANCH  16  17
ATOM     17  C   UNL     1     -24.322   6.279  31.811  1.00  0.00    -0.003 C 
ATOM     18  C   UNL     1     -24.243   6.269  33.338  1.00  0.00     0.004 C 
ENDBRANCH  16  17
ENDBRANCH  15  16
ENDBRANCH  14  15
ENDBRANCH  13  14
ENDBRANCH  12  13
ENDBRANCH  11  12
ENDBRANCH   1  11
TORSDOF 14
ENDMDL
MODEL 9
REMARK VINA RESULT:    -4.101     10.044     13.902
REMARK INTER + INTRA:          -9.037
REMARK INTER:                  -7.206
REMARK INTRA:                  -1.832
REMARK UNBOUND:                -1.581
REMARK SMILES CCCCCCCCCCCCCCCC(=O)[O-]
REMARK SMILES IDX 9 1 10 2 11 3 12 4 13 5 14 6 15 7 16 8 17 9 18 10 8 11 7 12
REMARK SMILES IDX 6 13 5 14 4 15 3 16 2 17 1 18
REMARK H PARENT
REMARK Flexibility Score: inf
ROOT
ATOM      1  C   UNL     1     -38.273   4.905  24.977  1.00  0.00     0.000 C 
ENDROOT
BRANCH   1   2
ATOM      2  C   UNL     1     -37.186   5.233  23.941  1.00  0.00     0.000 C 
BRANCH   2   3
ATOM      3  C   UNL     1     -37.181   6.714  23.537  1.00  0.00     0.000 C 
BRANCH   3   4
ATOM      4  C   UNL     1     -35.891   7.405  23.994  1.00  0.00     0.000 C 
BRANCH   4   5
ATOM      5  C   UNL     1     -34.857   6.380  24.477  1.00  0.00     0.000 C 
BRANCH   5   6
ATOM      6  C   UNL     1     -33.470   7.017  24.612  1.00  0.00     0.006 C 
BRANCH   6   7
ATOM      7  C   UNL     1     -32.683   6.385  25.764  1.00  0.00     0.053 C 
BRANCH   7   8
ATOM      8  C   UNL     1     -31.992   7.439  26.567  1.00  0.00     0.041 C 
ATOM      9  O   UNL     1     -32.375   8.637  26.504  1.00  0.00    -0.550 OA
ATOM     10  O   UNL     1     -30.955   7.093  27.425  1.00  0.00    -0.550 OA
ENDBRANCH   7   8
ENDBRANCH   6   7
ENDBRANCH   5   6
ENDBRANCH   4   5
ENDBRANCH   3   4
ENDBRANCH   2   3
ENDBRANCH   1   2
BRANCH   1  11
ATOM     11  C   UNL     1     -37.702   4.691  26.387  1.00  0.00     0.000 C 
BRANCH  11  12
ATOM     12  C   UNL     1     -38.180   5.789  27.344  1.00  0.00    -0.000 C 
BRANCH  12  13
ATOM     13  C   UNL     1     -37.220   6.989  27.330  1.00  0.00    -0.000 C 
BRANCH  13  14
ATOM     14  C   UNL     1     -37.972   8.337  27.367  1.00  0.00    -0.000 C 
BRANCH  14  15
ATOM     15  C   UNL     1     -39.210   8.377  26.456  1.00  0.00    -0.000 C 
BRANCH  15  16
ATOM     16  C   UNL     1     -40.359   9.211  27.047  1.00  0.00    -0.000 C 
BRANCH  16  17
ATOM     17  C   UNL     1     -40.296   9.295  28.581  1.00  0.00    -0.003 C 
ATOM     18  C   UNL     1     -41.186   8.259  29.268  1.00  0.00     0.004 C 
ENDBRANCH  16  17
ENDBRANCH  15  16
ENDBRANCH  14  15
ENDBRANCH  13  14
ENDBRANCH  12  13
ENDBRANCH  11  12
ENDBRANCH   1  11
TORSDOF 14
ENDMDL
