MODEL 1
REMARK VINA RESULT:    -3.038      0.000      0.000
REMARK INTER + INTRA:          -3.398
REMARK INTER:                  -3.393
REMARK INTRA:                  -0.005
REMARK UNBOUND:                -0.005
REMARK SMILES CCCC(=O)[O-]
REMARK SMILES IDX 3 1 4 2 5 3 6 4 2 5 1 6
REMARK H PARENT
REMARK Flexibility Score: inf
ROOT
ATOM      1  C   UNL     1      14.904  30.001  11.992  1.00  0.00     0.052 C 
ENDROOT
BRANCH   1   2
ATOM      2  C   UNL     1      13.776  29.104  12.399  1.00  0.00     0.041 C 
ATOM      3  O   UNL     1      13.174  28.411  11.536  1.00  0.00    -0.550 OA
ATOM      4  O   UNL     1      13.410  29.009  13.735  1.00  0.00    -0.550 OA
ENDBRANCH   1   2
BRANCH   1   5
ATOM      5  C   UNL     1      14.410  31.412  11.648  1.00  0.00     0.003 C 
ATOM      6  C   UNL     1      15.560  32.409  11.495  1.00  0.00     0.004 C 
ENDBRANCH   1   5
TORSDOF 2
ENDMDL
MODEL 2
REMARK VINA RESULT:    -2.951      2.837      3.637
REMARK INTER + INTRA:          -3.301
REMARK INTER:                  -3.289
REMARK INTRA:                  -0.012
REMARK UNBOUND:                -0.005
REMARK SMILES CCCC(=O)[O-]
REMARK SMILES IDX 3 1 4 2 5 3 6 4 2 5 1 6
REMARK H PARENT
REMARK Flexibility Score: inf
ROOT
ATOM      1  C   UNL     1      14.759  30.707  11.763  1.00  0.00     0.052 C 
ENDROOT
BRANCH   1   2
ATOM      2  C   UNL     1      14.833  32.203  11.731  1.00  0.00     0.041 C 
ATOM      3  O   UNL     1      13.777  32.890  11.732  1.00  0.00    -0.550 OA
ATOM      4  O   UNL     1      16.068  32.838  11.731  1.00  0.00    -0.550 OA
ENDBRANCH   1   2
BRANCH   1   5
ATOM      5  C   UNL     1      13.442  30.218  12.379  1.00  0.00     0.003 C 
ATOM      6  C   UNL     1      13.637  28.988  13.266  1.00  0.00     0.004 C 
ENDBRANCH   1   5
TORSDOF 2
ENDMDL
MODEL 3
REMARK VINA RESULT:    -2.860     17.072     17.955
REMARK INTER + INTRA:          -3.200
REMARK INTER:                  -3.183
REMARK INTRA:                  -0.017
REMARK UNBOUND:                -0.005
REMARK SMILES CCCC(=O)[O-]
REMARK SMILES IDX 3 1 4 2 5 3 6 4 2 5 1 6
REMARK H PARENT
REMARK Flexibility Score: inf
ROOT
ATOM      1  C   UNL     1      24.549  37.852  23.951  1.00  0.00     0.052 C 
ENDROOT
BRANCH   1   2
ATOM      2  C   UNL     1      24.991  37.899  22.520  1.00  0.00     0.041 C 
ATOM      3  O   UNL     1      24.370  37.242  21.643  1.00  0.00    -0.550 OA
ATOM      4  O   UNL     1      26.068  38.693  22.151  1.00  0.00    -0.550 OA
ENDBRANCH   1   2
BRANCH   1   5
ATOM      5  C   UNL     1      25.448  38.711  24.850  1.00  0.00     0.003 C 
ATOM      6  C   UNL     1      25.755  38.032  26.185  1.00  0.00     0.004 C 
ENDBRANCH   1   5
TORSDOF 2
ENDMDL
MODEL 4
REMARK VINA RESULT:    -2.843     21.123     21.642
REMARK INTER + INTRA:          -3.180
REMARK INTER:                  -3.174
REMARK INTRA:                  -0.006
REMARK UNBOUND:                -0.005
REMARK SMILES CCCC(=O)[O-]
REMARK SMILES IDX 3 1 4 2 5 3 6 4 2 5 1 6
REMARK H PARENT
REMARK Flexibility Score: inf
ROOT
ATOM      1  C   UNL     1      28.617  20.221  23.553  1.00  0.00     0.052 C 
ENDROOT
BRANCH   1   2
ATOM      2  C   UNL     1      30.032  20.019  23.104  1.00  0.00     0.041 C 
ATOM      3  O   UNL     1      30.504  20.712  22.164  1.00  0.00    -0.550 OA
ATOM      4  O   UNL     1      30.839  19.087  23.745  1.00  0.00    -0.550 OA
ENDBRANCH   1   2
BRANCH   1   5
ATOM      5  C   UNL     1      28.551  20.849  24.952  1.00  0.00     0.003 C 
ATOM      6  C   UNL     1      27.152  20.761  25.562  1.00  0.00     0.004 C 
ENDBRANCH   1   5
TORSDOF 2
ENDMDL
MODEL 5
REMARK VINA RESULT:    -2.736     20.466     21.093
REMARK INTER + INTRA:          -3.061
REMARK INTER:                  -3.022
REMARK INTRA:                  -0.038
REMARK UNBOUND:                -0.005
REMARK SMILES CCCC(=O)[O-]
REMARK SMILES IDX 3 1 4 2 5 3 6 4 2 5 1 6
REMARK H PARENT
REMARK Flexibility Score: inf
ROOT
ATOM      1  C   UNL     1      28.899  20.948  24.890  1.00  0.00     0.052 C 
ENDROOT
BRANCH   1   2
ATOM      2  C   UNL     1      27.431  20.679  25.012  1.00  0.00     0.041 C 
ATOM      3  O   UNL     1      26.877  20.679  26.144  1.00  0.00    -0.550 OA
ATOM      4  O   UNL     1      26.667  20.460  23.872  1.00  0.00    -0.550 OA
ENDBRANCH   1   2
BRANCH   1   5
ATOM      5  C   UNL     1      29.598  19.892  24.024  1.00  0.00     0.003 C 
ATOM      6  C   UNL     1      30.098  20.466  22.698  1.00  0.00     0.004 C 
ENDBRANCH   1   5
TORSDOF 2
ENDMDL
MODEL 6
REMARK VINA RESULT:    -2.718     20.452     20.863
REMARK INTER + INTRA:          -3.041
REMARK INTER:                  -3.034
REMARK INTRA:                  -0.007
REMARK UNBOUND:                -0.005
REMARK SMILES CCCC(=O)[O-]
REMARK SMILES IDX 3 1 4 2 5 3 6 4 2 5 1 6
REMARK H PARENT
REMARK Flexibility Score: inf
ROOT
ATOM      1  C   UNL     1      27.770  20.745  25.564  1.00  0.00     0.052 C 
ENDROOT
BRANCH   1   2
ATOM      2  C   UNL     1      26.296  20.529  25.719  1.00  0.00     0.041 C 
ATOM      3  O   UNL     1      25.568  21.439  26.196  1.00  0.00    -0.550 OA
ATOM      4  O   UNL     1      25.722  19.333  25.307  1.00  0.00    -0.550 OA
ENDBRANCH   1   2
BRANCH   1   5
ATOM      5  C   UNL     1      28.250  20.388  24.151  1.00  0.00     0.003 C 
ATOM      6  C   UNL     1      29.773  20.424  24.028  1.00  0.00     0.004 C 
ENDBRANCH   1   5
TORSDOF 2
ENDMDL
MODEL 7
REMARK VINA RESULT:    -2.676     18.925     19.170
REMARK INTER + INTRA:          -2.994
REMARK INTER:                  -2.988
REMARK INTRA:                  -0.006
REMARK UNBOUND:                -0.005
REMARK SMILES CCCC(=O)[O-]
REMARK SMILES IDX 3 1 4 2 5 3 6 4 2 5 1 6
REMARK H PARENT
REMARK Flexibility Score: inf
ROOT
ATOM      1  C   UNL     1      22.620  22.432  26.751  1.00  0.00     0.052 C 
ENDROOT
BRANCH   1   2
ATOM      2  C   UNL     1      22.546  20.962  27.025  1.00  0.00     0.041 C 
ATOM      3  O   UNL     1      21.735  20.516  27.879  1.00  0.00    -0.550 OA
ATOM      4  O   UNL     1      23.350  20.080  26.313  1.00  0.00    -0.550 OA
ENDBRANCH   1   2
BRANCH   1   5
ATOM      5  C   UNL     1      24.072  22.928  26.710  1.00  0.00     0.003 C 
ATOM      6  C   UNL     1      24.191  24.407  27.081  1.00  0.00     0.004 C 
ENDBRANCH   1   5
TORSDOF 2
ENDMDL
MODEL 8
REMARK VINA RESULT:    -2.627     17.719     18.653
REMARK INTER + INTRA:          -2.940
REMARK INTER:                  -2.931
REMARK INTRA:                  -0.009
REMARK UNBOUND:                -0.005
REMARK SMILES CCCC(=O)[O-]
REMARK SMILES IDX 3 1 4 2 5 3 6 4 2 5 1 6
REMARK H PARENT
REMARK Flexibility Score: inf
ROOT
ATOM      1  C   UNL     1      25.202  38.022  24.837  1.00  0.00     0.052 C 
ENDROOT
BRANCH   1   2
ATOM      2  C   UNL     1      24.654  38.358  26.190  1.00  0.00     0.041 C 
ATOM      3  O   UNL     1      25.408  38.349  27.200  1.00  0.00    -0.550 OA
ATOM      4  O   UNL     1      23.318  38.711  26.331  1.00  0.00    -0.550 OA
ENDBRANCH   1   2
BRANCH   1   5
ATOM      5  C   UNL     1      24.104  38.019  23.766  1.00  0.00     0.003 C 
ATOM      6  C   UNL     1      24.646  37.674  22.378  1.00  0.00     0.004 C 
ENDBRANCH   1   5
TORSDOF 2
ENDMDL
MODEL 9
REMARK VINA RESULT:    -2.538     20.462     21.086
REMARK INTER + INTRA:          -2.839
REMARK INTER:                  -2.811
REMARK INTRA:                  -0.029
REMARK UNBOUND:                -0.005
REMARK SMILES CCCC(=O)[O-]
REMARK SMILES IDX 3 1 4 2 5 3 6 4 2 5 1 6
REMARK H PARENT
REMARK Flexibility Score: inf
ROOT
ATOM      1  C   UNL     1      27.922  20.740  25.336  1.00  0.00     0.052 C 
ENDROOT
BRANCH   1   2
ATOM      2  C   UNL     1      28.739  20.355  24.141  1.00  0.00     0.041 C 
ATOM      3  O   UNL     1      28.176  19.926  23.099  1.00  0.00    -0.550 OA
ATOM      4  O   UNL     1      30.121  20.500  24.167  1.00  0.00    -0.550 OA
ENDBRANCH   1   2
BRANCH   1   5
ATOM      5  C   UNL     1      26.421  20.744  25.019  1.00  0.00     0.003 C 
ATOM      6  C   UNL     1      25.611  19.934  26.031  1.00  0.00     0.004 C 
ENDBRANCH   1   5
TORSDOF 2
ENDMDL
