MODEL 1
REMARK VINA RESULT:    -4.493      0.000      0.000
REMARK INTER + INTRA:         -15.426
REMARK INTER:                 -11.322
REMARK INTRA:                  -4.105
REMARK UNBOUND:                -4.105
REMARK SMILES CCCCCCCCCCCCCCCCCCCCCCCCCCCC(=O)[O-]
REMARK SMILES IDX 15 1 16 2 17 3 18 4 19 5 20 6 21 7 22 8 23 9 24 10 25 11
REMARK SMILES IDX 26 12 27 13 28 14 29 15 30 16 14 17 13 18 12 19 11 20 10 21
REMARK SMILES IDX 9 22 8 23 7 24 6 25 5 26 4 27 3 28 2 29 1 30
REMARK H PARENT
REMARK Flexibility Score: inf
ROOT
ATOM      1  C   UNL     1      72.355 -38.231  11.513  1.00  0.00     0.000 C 
ENDROOT
BRANCH   1   2
ATOM      2  C   UNL     1      70.825 -38.258  11.656  1.00  0.00     0.000 C 
BRANCH   2   3
ATOM      3  C   UNL     1      70.101 -37.861  10.360  1.00  0.00     0.000 C 
BRANCH   3   4
ATOM      4  C   UNL     1      69.758 -39.104   9.525  1.00  0.00     0.000 C 
BRANCH   4   5
ATOM      5  C   UNL     1      68.348 -39.040   8.917  1.00  0.00     0.000 C 
BRANCH   5   6
ATOM      6  C   UNL     1      67.368 -38.246   9.800  1.00  0.00     0.000 C 
BRANCH   6   7
ATOM      7  C   UNL     1      66.972 -36.889   9.189  1.00  0.00     0.000 C 
BRANCH   7   8
ATOM      8  C   UNL     1      65.521 -36.797   8.674  1.00  0.00     0.000 C 
BRANCH   8   9
ATOM      9  C   UNL     1      64.495 -37.648   9.449  1.00  0.00     0.000 C 
BRANCH   9  10
ATOM     10  C   UNL     1      63.685 -36.878  10.510  1.00  0.00     0.000 C 
BRANCH  10  11
ATOM     11  C   UNL     1      63.796 -37.432  11.945  1.00  0.00     0.000 C 
BRANCH  11  12
ATOM     12  C   UNL     1      65.129 -37.132  12.656  1.00  0.00     0.006 C 
BRANCH  12  13
ATOM     13  C   UNL     1      65.447 -35.632  12.716  1.00  0.00     0.053 C 
BRANCH  13  14
ATOM     14  C   UNL     1      64.372 -34.893  13.451  1.00  0.00     0.041 C 
ATOM     15  O   UNL     1      64.162 -35.124  14.671  1.00  0.00    -0.550 OA
ATOM     16  O   UNL     1      63.594 -33.955  12.785  1.00  0.00    -0.550 OA
ENDBRANCH  13  14
ENDBRANCH  12  13
ENDBRANCH  11  12
ENDBRANCH  10  11
ENDBRANCH   9  10
ENDBRANCH   8   9
ENDBRANCH   7   8
ENDBRANCH   6   7
ENDBRANCH   5   6
ENDBRANCH   4   5
ENDBRANCH   3   4
ENDBRANCH   2   3
ENDBRANCH   1   2
BRANCH   1  17
ATOM     17  C   UNL     1      72.835 -37.121  10.562  1.00  0.00     0.000 C 
BRANCH  17  18
ATOM     18  C   UNL     1      74.318 -37.261  10.172  1.00  0.00     0.000 C 
BRANCH  18  19
ATOM     19  C   UNL     1      74.674 -36.768   8.757  1.00  0.00     0.000 C 
BRANCH  19  20
ATOM     20  C   UNL     1      73.452 -36.265   7.970  1.00  0.00     0.000 C 
BRANCH  20  21
ATOM     21  C   UNL     1      73.582 -36.511   6.458  1.00  0.00     0.000 C 
BRANCH  21  22
ATOM     22  C   UNL     1      73.642 -35.205   5.646  1.00  0.00    -0.000 C 
BRANCH  22  23
ATOM     23  C   UNL     1      72.832 -34.066   6.305  1.00  0.00    -0.000 C 
BRANCH  23  24
ATOM     24  C   UNL     1      72.043 -33.206   5.300  1.00  0.00    -0.000 C 
BRANCH  24  25
ATOM     25  C   UNL     1      70.522 -33.169   5.534  1.00  0.00    -0.000 C 
BRANCH  25  26
ATOM     26  C   UNL     1      70.087 -33.260   7.011  1.00  0.00    -0.000 C 
BRANCH  26  27
ATOM     27  C   UNL     1      69.148 -34.435   7.346  1.00  0.00    -0.000 C 
BRANCH  27  28
ATOM     28  C   UNL     1      69.811 -35.827   7.338  1.00  0.00    -0.000 C 
BRANCH  28  29
ATOM     29  C   UNL     1      69.318 -36.772   6.228  1.00  0.00    -0.003 C 
ATOM     30  C   UNL     1      70.260 -36.819   5.025  1.00  0.00     0.004 C 
ENDBRANCH  28  29
ENDBRANCH  27  28
ENDBRANCH  26  27
ENDBRANCH  25  26
ENDBRANCH  24  25
ENDBRANCH  23  24
ENDBRANCH  22  23
ENDBRANCH  21  22
ENDBRANCH  20  21
ENDBRANCH  19  20
ENDBRANCH  18  19
ENDBRANCH  17  18
ENDBRANCH   1  17
TORSDOF 26
ENDMDL
MODEL 2
REMARK VINA RESULT:    -4.433      1.161      3.402
REMARK INTER + INTRA:         -15.276
REMARK INTER:                 -10.866
REMARK INTRA:                  -4.410
REMARK UNBOUND:                -4.105
REMARK SMILES CCCCCCCCCCCCCCCCCCCCCCCCCCCC(=O)[O-]
REMARK SMILES IDX 15 1 16 2 17 3 18 4 19 5 20 6 21 7 22 8 23 9 24 10 25 11
REMARK SMILES IDX 26 12 27 13 28 14 29 15 30 16 14 17 13 18 12 19 11 20 10 21
REMARK SMILES IDX 9 22 8 23 7 24 6 25 5 26 4 27 3 28 2 29 1 30
REMARK H PARENT
REMARK Flexibility Score: inf
ROOT
ATOM      1  C   UNL     1      74.634 -36.684   8.681  1.00  0.00     0.000 C 
ENDROOT
BRANCH   1   2
ATOM      2  C   UNL     1      74.310 -37.207  10.090  1.00  0.00     0.000 C 
BRANCH   2   3
ATOM      3  C   UNL     1      72.811 -37.134  10.420  1.00  0.00     0.000 C 
BRANCH   3   4
ATOM      4  C   UNL     1      72.455 -38.109  11.552  1.00  0.00     0.000 C 
BRANCH   4   5
ATOM      5  C   UNL     1      70.954 -38.437  11.602  1.00  0.00     0.000 C 
BRANCH   5   6
ATOM      6  C   UNL     1      70.618 -39.743  10.860  1.00  0.00     0.000 C 
BRANCH   6   7
ATOM      7  C   UNL     1      69.669 -39.530   9.667  1.00  0.00     0.000 C 
BRANCH   7   8
ATOM      8  C   UNL     1      68.511 -38.541   9.915  1.00  0.00     0.000 C 
BRANCH   8   9
ATOM      9  C   UNL     1      67.137 -39.191  10.170  1.00  0.00     0.000 C 
BRANCH   9  10
ATOM     10  C   UNL     1      65.963 -38.200  10.285  1.00  0.00     0.000 C 
BRANCH  10  11
ATOM     11  C   UNL     1      66.349 -36.781  10.749  1.00  0.00     0.000 C 
BRANCH  11  12
ATOM     12  C   UNL     1      66.296 -36.557  12.272  1.00  0.00     0.006 C 
BRANCH  12  13
ATOM     13  C   UNL     1      65.722 -35.185  12.652  1.00  0.00     0.053 C 
BRANCH  13  14
ATOM     14  C   UNL     1      64.274 -35.300  13.013  1.00  0.00     0.041 C 
ATOM     15  O   UNL     1      63.786 -36.416  13.336  1.00  0.00    -0.550 OA
ATOM     16  O   UNL     1      63.458 -34.176  12.980  1.00  0.00    -0.550 OA
ENDBRANCH  13  14
ENDBRANCH  12  13
ENDBRANCH  11  12
ENDBRANCH  10  11
ENDBRANCH   9  10
ENDBRANCH   8   9
ENDBRANCH   7   8
ENDBRANCH   6   7
ENDBRANCH   5   6
ENDBRANCH   4   5
ENDBRANCH   3   4
ENDBRANCH   2   3
ENDBRANCH   1   2
BRANCH   1  17
ATOM     17  C   UNL     1      73.367 -36.360   7.871  1.00  0.00     0.000 C 
BRANCH  17  18
ATOM     18  C   UNL     1      73.633 -36.231   6.361  1.00  0.00     0.000 C 
BRANCH  18  19
ATOM     19  C   UNL     1      73.297 -34.859   5.748  1.00  0.00     0.000 C 
BRANCH  19  20
ATOM     20  C   UNL     1      72.506 -33.951   6.706  1.00  0.00     0.000 C 
BRANCH  20  21
ATOM     21  C   UNL     1      71.184 -33.459   6.095  1.00  0.00     0.000 C 
BRANCH  21  22
ATOM     22  C   UNL     1      70.048 -33.367   7.130  1.00  0.00    -0.000 C 
BRANCH  22  23
ATOM     23  C   UNL     1      69.104 -34.588   7.076  1.00  0.00    -0.000 C 
BRANCH  23  24
ATOM     24  C   UNL     1      69.631 -35.811   7.850  1.00  0.00    -0.000 C 
BRANCH  24  25
ATOM     25  C   UNL     1      70.078 -36.992   6.968  1.00  0.00    -0.000 C 
BRANCH  25  26
ATOM     26  C   UNL     1      69.639 -36.904   5.491  1.00  0.00    -0.000 C 
BRANCH  26  27
ATOM     27  C   UNL     1      68.476 -37.835   5.098  1.00  0.00    -0.000 C 
BRANCH  27  28
ATOM     28  C   UNL     1      67.853 -38.633   6.260  1.00  0.00    -0.000 C 
BRANCH  28  29
ATOM     29  C   UNL     1      66.382 -38.298   6.560  1.00  0.00    -0.003 C 
ATOM     30  C   UNL     1      66.152 -36.810   6.824  1.00  0.00     0.004 C 
ENDBRANCH  28  29
ENDBRANCH  27  28
ENDBRANCH  26  27
ENDBRANCH  25  26
ENDBRANCH  24  25
ENDBRANCH  23  24
ENDBRANCH  22  23
ENDBRANCH  21  22
ENDBRANCH  20  21
ENDBRANCH  19  20
ENDBRANCH  18  19
ENDBRANCH  17  18
ENDBRANCH   1  17
TORSDOF 26
ENDMDL
MODEL 3
REMARK VINA RESULT:    -4.388      1.041      3.999
REMARK INTER + INTRA:         -15.162
REMARK INTER:                 -11.649
REMARK INTRA:                  -3.513
REMARK UNBOUND:                -4.105
REMARK SMILES CCCCCCCCCCCCCCCCCCCCCCCCCCCC(=O)[O-]
REMARK SMILES IDX 15 1 16 2 17 3 18 4 19 5 20 6 21 7 22 8 23 9 24 10 25 11
REMARK SMILES IDX 26 12 27 13 28 14 29 15 30 16 14 17 13 18 12 19 11 20 10 21
REMARK SMILES IDX 9 22 8 23 7 24 6 25 5 26 4 27 3 28 2 29 1 30
REMARK H PARENT
REMARK Flexibility Score: inf
ROOT
ATOM      1  C   UNL     1      70.182 -36.352   8.122  1.00  0.00     0.000 C 
ENDROOT
BRANCH   1   2
ATOM      2  C   UNL     1      69.432 -37.681   8.305  1.00  0.00     0.000 C 
BRANCH   2   3
ATOM      3  C   UNL     1      68.245 -37.565   9.274  1.00  0.00     0.000 C 
BRANCH   3   4
ATOM      4  C   UNL     1      66.914 -37.733   8.527  1.00  0.00     0.000 C 
BRANCH   4   5
ATOM      5  C   UNL     1      66.271 -36.389   8.148  1.00  0.00     0.000 C 
BRANCH   5   6
ATOM      6  C   UNL     1      65.026 -36.567   7.261  1.00  0.00     0.000 C 
BRANCH   6   7
ATOM      7  C   UNL     1      63.719 -36.169   7.972  1.00  0.00     0.000 C 
BRANCH   7   8
ATOM      8  C   UNL     1      63.893 -35.589   9.391  1.00  0.00     0.000 C 
BRANCH   8   9
ATOM      9  C   UNL     1      63.311 -36.452  10.528  1.00  0.00     0.000 C 
BRANCH   9  10
ATOM     10  C   UNL     1      64.103 -37.738  10.835  1.00  0.00     0.000 C 
BRANCH  10  11
ATOM     11  C   UNL     1      65.061 -37.642  12.039  1.00  0.00     0.000 C 
BRANCH  11  12
ATOM     12  C   UNL     1      65.515 -36.215  12.397  1.00  0.00     0.006 C 
BRANCH  12  13
ATOM     13  C   UNL     1      65.221 -35.845  13.857  1.00  0.00     0.053 C 
BRANCH  13  14
ATOM     14  C   UNL     1      64.144 -34.809  13.933  1.00  0.00     0.041 C 
ATOM     15  O   UNL     1      63.517 -34.620  15.010  1.00  0.00    -0.550 OA
ATOM     16  O   UNL     1      63.821 -34.057  12.810  1.00  0.00    -0.550 OA
ENDBRANCH  13  14
ENDBRANCH  12  13
ENDBRANCH  11  12
ENDBRANCH  10  11
ENDBRANCH   9  10
ENDBRANCH   8   9
ENDBRANCH   7   8
ENDBRANCH   6   7
ENDBRANCH   5   6
ENDBRANCH   4   5
ENDBRANCH   3   4
ENDBRANCH   2   3
ENDBRANCH   1   2
BRANCH   1  17
ATOM     17  C   UNL     1      69.708 -35.580   6.879  1.00  0.00     0.000 C 
BRANCH  17  18
ATOM     18  C   UNL     1      69.350 -34.113   7.180  1.00  0.00     0.000 C 
BRANCH  18  19
ATOM     19  C   UNL     1      70.247 -33.064   6.498  1.00  0.00     0.000 C 
BRANCH  19  20
ATOM     20  C   UNL     1      71.748 -33.346   6.683  1.00  0.00     0.000 C 
BRANCH  20  21
ATOM     21  C   UNL     1      72.527 -33.282   5.359  1.00  0.00     0.000 C 
BRANCH  21  22
ATOM     22  C   UNL     1      73.642 -34.341   5.274  1.00  0.00    -0.000 C 
BRANCH  22  23
ATOM     23  C   UNL     1      73.170 -35.730   5.758  1.00  0.00    -0.000 C 
BRANCH  23  24
ATOM     24  C   UNL     1      74.164 -36.423   6.710  1.00  0.00    -0.000 C 
BRANCH  24  25
ATOM     25  C   UNL     1      73.770 -36.382   8.198  1.00  0.00    -0.000 C 
BRANCH  25  26
ATOM     26  C   UNL     1      74.812 -36.981   9.165  1.00  0.00    -0.000 C 
BRANCH  26  27
ATOM     27  C   UNL     1      74.293 -37.280  10.584  1.00  0.00    -0.000 C 
BRANCH  27  28
ATOM     28  C   UNL     1      72.759 -37.255  10.740  1.00  0.00    -0.000 C 
BRANCH  28  29
ATOM     29  C   UNL     1      72.201 -38.224  11.797  1.00  0.00    -0.003 C 
ATOM     30  C   UNL     1      71.081 -39.114  11.258  1.00  0.00     0.004 C 
ENDBRANCH  28  29
ENDBRANCH  27  28
ENDBRANCH  26  27
ENDBRANCH  25  26
ENDBRANCH  24  25
ENDBRANCH  23  24
ENDBRANCH  22  23
ENDBRANCH  21  22
ENDBRANCH  20  21
ENDBRANCH  19  20
ENDBRANCH  18  19
ENDBRANCH  17  18
ENDBRANCH   1  17
TORSDOF 26
ENDMDL
MODEL 4
REMARK VINA RESULT:    -4.367      3.423      7.994
REMARK INTER + INTRA:         -15.108
REMARK INTER:                 -10.477
REMARK INTRA:                  -4.631
REMARK UNBOUND:                -4.105
REMARK SMILES CCCCCCCCCCCCCCCCCCCCCCCCCCCC(=O)[O-]
REMARK SMILES IDX 15 1 16 2 17 3 18 4 19 5 20 6 21 7 22 8 23 9 24 10 25 11
REMARK SMILES IDX 26 12 27 13 28 14 29 15 30 16 14 17 13 18 12 19 11 20 10 21
REMARK SMILES IDX 9 22 8 23 7 24 6 25 5 26 4 27 3 28 2 29 1 30
REMARK H PARENT
REMARK Flexibility Score: inf
ROOT
ATOM      1  C   UNL     1      68.768 -38.114   6.559  1.00  0.00     0.000 C 
ENDROOT
BRANCH   1   2
ATOM      2  C   UNL     1      68.658 -36.588   6.408  1.00  0.00     0.000 C 
BRANCH   2   3
ATOM      3  C   UNL     1      68.992 -35.838   7.707  1.00  0.00     0.000 C 
BRANCH   3   4
ATOM      4  C   UNL     1      68.912 -34.319   7.494  1.00  0.00     0.000 C 
BRANCH   4   5
ATOM      5  C   UNL     1      69.833 -33.829   6.364  1.00  0.00     0.000 C 
BRANCH   5   6
ATOM      6  C   UNL     1      70.984 -32.952   6.889  1.00  0.00     0.000 C 
BRANCH   6   7
ATOM      7  C   UNL     1      72.284 -33.743   7.121  1.00  0.00     0.000 C 
BRANCH   7   8
ATOM      8  C   UNL     1      72.529 -34.909   6.142  1.00  0.00     0.000 C 
BRANCH   8   9
ATOM      9  C   UNL     1      72.596 -36.306   6.790  1.00  0.00     0.000 C 
BRANCH   9  10
ATOM     10  C   UNL     1      73.228 -36.339   8.194  1.00  0.00     0.000 C 
BRANCH  10  11
ATOM     11  C   UNL     1      72.241 -36.604   9.349  1.00  0.00     0.000 C 
BRANCH  11  12
ATOM     12  C   UNL     1      72.761 -37.555  10.443  1.00  0.00     0.006 C 
BRANCH  12  13
ATOM     13  C   UNL     1      73.642 -36.846  11.481  1.00  0.00     0.053 C 
BRANCH  13  14
ATOM     14  C   UNL     1      75.072 -37.264  11.332  1.00  0.00     0.041 C 
ATOM     15  O   UNL     1      75.529 -38.218  12.016  1.00  0.00    -0.550 OA
ATOM     16  O   UNL     1      75.905 -36.591  10.447  1.00  0.00    -0.550 OA
ENDBRANCH  13  14
ENDBRANCH  12  13
ENDBRANCH  11  12
ENDBRANCH  10  11
ENDBRANCH   9  10
ENDBRANCH   8   9
ENDBRANCH   7   8
ENDBRANCH   6   7
ENDBRANCH   5   6
ENDBRANCH   4   5
ENDBRANCH   3   4
ENDBRANCH   2   3
ENDBRANCH   1   2
BRANCH   1  17
ATOM     17  C   UNL     1      69.859 -38.526   7.562  1.00  0.00     0.000 C 
BRANCH  17  18
ATOM     18  C   UNL     1      69.313 -39.350   8.742  1.00  0.00     0.000 C 
BRANCH  18  19
ATOM     19  C   UNL     1      69.089 -38.562  10.046  1.00  0.00     0.000 C 
BRANCH  19  20
ATOM     20  C   UNL     1      67.648 -38.044  10.195  1.00  0.00     0.000 C 
BRANCH  20  21
ATOM     21  C   UNL     1      66.600 -39.094   9.791  1.00  0.00     0.000 C 
BRANCH  21  22
ATOM     22  C   UNL     1      65.250 -38.465   9.401  1.00  0.00    -0.000 C 
BRANCH  22  23
ATOM     23  C   UNL     1      65.420 -37.113   8.674  1.00  0.00    -0.000 C 
BRANCH  23  24
ATOM     24  C   UNL     1      64.147 -36.247   8.674  1.00  0.00    -0.000 C 
BRANCH  24  25
ATOM     25  C   UNL     1      64.071 -35.208   9.809  1.00  0.00    -0.000 C 
BRANCH  25  26
ATOM     26  C   UNL     1      65.409 -34.923  10.522  1.00  0.00    -0.000 C 
BRANCH  26  27
ATOM     27  C   UNL     1      65.291 -34.569  12.017  1.00  0.00    -0.000 C 
BRANCH  27  28
ATOM     28  C   UNL     1      65.872 -35.617  12.986  1.00  0.00    -0.000 C 
BRANCH  28  29
ATOM     29  C   UNL     1      64.826 -36.519  13.666  1.00  0.00    -0.003 C 
ATOM     30  C   UNL     1      64.442 -37.730  12.816  1.00  0.00     0.004 C 
ENDBRANCH  28  29
ENDBRANCH  27  28
ENDBRANCH  26  27
ENDBRANCH  25  26
ENDBRANCH  24  25
ENDBRANCH  23  24
ENDBRANCH  22  23
ENDBRANCH  21  22
ENDBRANCH  20  21
ENDBRANCH  19  20
ENDBRANCH  18  19
ENDBRANCH  17  18
ENDBRANCH   1  17
TORSDOF 26
ENDMDL
MODEL 5
REMARK VINA RESULT:    -4.341      1.024      1.946
REMARK INTER + INTRA:         -15.043
REMARK INTER:                 -11.076
REMARK INTRA:                  -3.967
REMARK UNBOUND:                -4.105
REMARK SMILES CCCCCCCCCCCCCCCCCCCCCCCCCCCC(=O)[O-]
REMARK SMILES IDX 15 1 16 2 17 3 18 4 19 5 20 6 21 7 22 8 23 9 24 10 25 11
REMARK SMILES IDX 26 12 27 13 28 14 29 15 30 16 14 17 13 18 12 19 11 20 10 21
REMARK SMILES IDX 9 22 8 23 7 24 6 25 5 26 4 27 3 28 2 29 1 30
REMARK H PARENT
REMARK Flexibility Score: inf
ROOT
ATOM      1  C   UNL     1      70.608 -39.836  11.379  1.00  0.00     0.000 C 
ENDROOT
BRANCH   1   2
ATOM      2  C   UNL     1      70.122 -40.508  10.084  1.00  0.00     0.000 C 
BRANCH   2   3
ATOM      3  C   UNL     1      69.417 -39.528   9.134  1.00  0.00     0.000 C 
BRANCH   3   4
ATOM      4  C   UNL     1      67.936 -39.901   8.969  1.00  0.00     0.000 C 
BRANCH   4   5
ATOM      5  C   UNL     1      67.014 -39.097   9.900  1.00  0.00     0.000 C 
BRANCH   5   6
ATOM      6  C   UNL     1      67.530 -37.667  10.138  1.00  0.00     0.000 C 
BRANCH   6   7
ATOM      7  C   UNL     1      66.601 -36.587   9.554  1.00  0.00     0.000 C 
BRANCH   7   8
ATOM      8  C   UNL     1      65.462 -37.115   8.657  1.00  0.00     0.000 C 
BRANCH   8   9
ATOM      9  C   UNL     1      64.040 -36.711   9.098  1.00  0.00     0.000 C 
BRANCH   9  10
ATOM     10  C   UNL     1      63.208 -37.849   9.719  1.00  0.00     0.000 C 
BRANCH  10  11
ATOM     11  C   UNL     1      63.612 -38.246  11.153  1.00  0.00     0.000 C 
BRANCH  11  12
ATOM     12  C   UNL     1      63.409 -37.148  12.214  1.00  0.00     0.006 C 
BRANCH  12  13
ATOM     13  C   UNL     1      64.601 -37.020  13.173  1.00  0.00     0.053 C 
BRANCH  13  14
ATOM     14  C   UNL     1      65.405 -35.798  12.855  1.00  0.00     0.041 C 
ATOM     15  O   UNL     1      66.550 -35.642  13.356  1.00  0.00    -0.550 OA
ATOM     16  O   UNL     1      64.885 -34.823  12.013  1.00  0.00    -0.550 OA
ENDBRANCH  13  14
ENDBRANCH  12  13
ENDBRANCH  11  12
ENDBRANCH  10  11
ENDBRANCH   9  10
ENDBRANCH   8   9
ENDBRANCH   7   8
ENDBRANCH   6   7
ENDBRANCH   5   6
ENDBRANCH   4   5
ENDBRANCH   3   4
ENDBRANCH   2   3
ENDBRANCH   1   2
BRANCH   1  17
ATOM     17  C   UNL     1      71.045 -38.379  11.153  1.00  0.00     0.000 C 
BRANCH  17  18
ATOM     18  C   UNL     1      72.485 -38.102  11.622  1.00  0.00     0.000 C 
BRANCH  18  19
ATOM     19  C   UNL     1      73.213 -36.967  10.877  1.00  0.00     0.000 C 
BRANCH  19  20
ATOM     20  C   UNL     1      74.548 -37.414  10.259  1.00  0.00     0.000 C 
BRANCH  20  21
ATOM     21  C   UNL     1      74.757 -36.858   8.840  1.00  0.00     0.000 C 
BRANCH  21  22
ATOM     22  C   UNL     1      73.464 -36.288   8.230  1.00  0.00    -0.000 C 
BRANCH  22  23
ATOM     23  C   UNL     1      73.610 -35.987   6.722  1.00  0.00    -0.000 C 
BRANCH  23  24
ATOM     24  C   UNL     1      72.997 -34.639   6.298  1.00  0.00    -0.000 C 
BRANCH  24  25
ATOM     25  C   UNL     1      72.273 -33.875   7.423  1.00  0.00    -0.000 C 
BRANCH  25  26
ATOM     26  C   UNL     1      71.137 -32.944   6.952  1.00  0.00    -0.000 C 
BRANCH  26  27
ATOM     27  C   UNL     1      69.896 -33.661   6.384  1.00  0.00    -0.000 C 
BRANCH  27  28
ATOM     28  C   UNL     1      69.130 -34.541   7.391  1.00  0.00    -0.000 C 
BRANCH  28  29
ATOM     29  C   UNL     1      69.086 -36.038   7.039  1.00  0.00    -0.003 C 
ATOM     30  C   UNL     1      69.917 -36.384   5.804  1.00  0.00     0.004 C 
ENDBRANCH  28  29
ENDBRANCH  27  28
ENDBRANCH  26  27
ENDBRANCH  25  26
ENDBRANCH  24  25
ENDBRANCH  23  24
ENDBRANCH  22  23
ENDBRANCH  21  22
ENDBRANCH  20  21
ENDBRANCH  19  20
ENDBRANCH  18  19
ENDBRANCH  17  18
ENDBRANCH   1  17
TORSDOF 26
ENDMDL
MODEL 6
REMARK VINA RESULT:    -4.314      1.315      2.178
REMARK INTER + INTRA:         -14.975
REMARK INTER:                 -10.976
REMARK INTRA:                  -3.999
REMARK UNBOUND:                -4.105
REMARK SMILES CCCCCCCCCCCCCCCCCCCCCCCCCCCC(=O)[O-]
REMARK SMILES IDX 15 1 16 2 17 3 18 4 19 5 20 6 21 7 22 8 23 9 24 10 25 11
REMARK SMILES IDX 26 12 27 13 28 14 29 15 30 16 14 17 13 18 12 19 11 20 10 21
REMARK SMILES IDX 9 22 8 23 7 24 6 25 5 26 4 27 3 28 2 29 1 30
REMARK H PARENT
REMARK Flexibility Score: inf
ROOT
ATOM      1  C   UNL     1      72.591 -38.228  11.628  1.00  0.00     0.000 C 
ENDROOT
BRANCH   1   2
ATOM      2  C   UNL     1      71.081 -38.502  11.544  1.00  0.00     0.000 C 
BRANCH   2   3
ATOM      3  C   UNL     1      70.395 -37.708  10.421  1.00  0.00     0.000 C 
BRANCH   3   4
ATOM      4  C   UNL     1      69.720 -38.656   9.419  1.00  0.00     0.000 C 
BRANCH   4   5
ATOM      5  C   UNL     1      69.607 -40.095   9.947  1.00  0.00     0.000 C 
BRANCH   5   6
ATOM      6  C   UNL     1      68.147 -40.577  10.019  1.00  0.00     0.000 C 
BRANCH   6   7
ATOM      7  C   UNL     1      67.151 -39.569   9.418  1.00  0.00     0.000 C 
BRANCH   7   8
ATOM      8  C   UNL     1      65.720 -39.637   9.990  1.00  0.00     0.000 C 
BRANCH   8   9
ATOM      9  C   UNL     1      65.237 -38.359  10.706  1.00  0.00     0.000 C 
BRANCH   9  10
ATOM     10  C   UNL     1      66.345 -37.334  11.016  1.00  0.00     0.000 C 
BRANCH  10  11
ATOM     11  C   UNL     1      65.910 -36.153  11.907  1.00  0.00     0.000 C 
BRANCH  11  12
ATOM     12  C   UNL     1      65.392 -34.919  11.145  1.00  0.00     0.006 C 
BRANCH  12  13
ATOM     13  C   UNL     1      63.931 -35.065  10.699  1.00  0.00     0.053 C 
BRANCH  13  14
ATOM     14  C   UNL     1      63.010 -34.429  11.693  1.00  0.00     0.041 C 
ATOM     15  O   UNL     1      61.771 -34.652  11.645  1.00  0.00    -0.550 OA
ATOM     16  O   UNL     1      63.518 -33.579  12.667  1.00  0.00    -0.550 OA
ENDBRANCH  13  14
ENDBRANCH  12  13
ENDBRANCH  11  12
ENDBRANCH  10  11
ENDBRANCH   9  10
ENDBRANCH   8   9
ENDBRANCH   7   8
ENDBRANCH   6   7
ENDBRANCH   5   6
ENDBRANCH   4   5
ENDBRANCH   3   4
ENDBRANCH   2   3
ENDBRANCH   1   2
BRANCH   1  17
ATOM     17  C   UNL     1      73.023 -37.050  10.739  1.00  0.00     0.000 C 
BRANCH  17  18
ATOM     18  C   UNL     1      74.374 -37.286  10.039  1.00  0.00     0.000 C 
BRANCH  18  19
ATOM     19  C   UNL     1      74.478 -36.731   8.606  1.00  0.00     0.000 C 
BRANCH  19  20
ATOM     20  C   UNL     1      73.162 -36.113   8.104  1.00  0.00     0.000 C 
BRANCH  20  21
ATOM     21  C   UNL     1      73.177 -35.840   6.591  1.00  0.00     0.000 C 
BRANCH  21  22
ATOM     22  C   UNL     1      72.885 -34.367   6.250  1.00  0.00    -0.000 C 
BRANCH  22  23
ATOM     23  C   UNL     1      71.495 -34.179   5.604  1.00  0.00    -0.000 C 
BRANCH  23  24
ATOM     24  C   UNL     1      70.590 -33.188   6.360  1.00  0.00    -0.000 C 
BRANCH  24  25
ATOM     25  C   UNL     1      69.425 -33.836   7.131  1.00  0.00    -0.000 C 
BRANCH  25  26
ATOM     26  C   UNL     1      69.585 -35.346   7.406  1.00  0.00    -0.000 C 
BRANCH  26  27
ATOM     27  C   UNL     1      68.320 -36.192   7.165  1.00  0.00    -0.000 C 
BRANCH  27  28
ATOM     28  C   UNL     1      67.056 -35.707   7.901  1.00  0.00    -0.000 C 
BRANCH  28  29
ATOM     29  C   UNL     1      65.768 -36.472   7.548  1.00  0.00    -0.003 C 
ATOM     30  C   UNL     1      65.999 -37.589   6.531  1.00  0.00     0.004 C 
ENDBRANCH  28  29
ENDBRANCH  27  28
ENDBRANCH  26  27
ENDBRANCH  25  26
ENDBRANCH  24  25
ENDBRANCH  23  24
ENDBRANCH  22  23
ENDBRANCH  21  22
ENDBRANCH  20  21
ENDBRANCH  19  20
ENDBRANCH  18  19
ENDBRANCH  17  18
ENDBRANCH   1  17
TORSDOF 26
ENDMDL
MODEL 7
REMARK VINA RESULT:    -4.306      1.232      2.881
REMARK INTER + INTRA:         -14.955
REMARK INTER:                 -11.072
REMARK INTRA:                  -3.883
REMARK UNBOUND:                -4.105
REMARK SMILES CCCCCCCCCCCCCCCCCCCCCCCCCCCC(=O)[O-]
REMARK SMILES IDX 15 1 16 2 17 3 18 4 19 5 20 6 21 7 22 8 23 9 24 10 25 11
REMARK SMILES IDX 26 12 27 13 28 14 29 15 30 16 14 17 13 18 12 19 11 20 10 21
REMARK SMILES IDX 9 22 8 23 7 24 6 25 5 26 4 27 3 28 2 29 1 30
REMARK H PARENT
REMARK Flexibility Score: inf
ROOT
ATOM      1  C   UNL     1      75.128 -36.748   9.828  1.00  0.00     0.000 C 
ENDROOT
BRANCH   1   2
ATOM      2  C   UNL     1      74.430 -37.593  10.906  1.00  0.00     0.000 C 
BRANCH   2   3
ATOM      3  C   UNL     1      73.004 -37.106  11.210  1.00  0.00     0.000 C 
BRANCH   3   4
ATOM      4  C   UNL     1      72.100 -38.284  11.603  1.00  0.00     0.000 C 
BRANCH   4   5
ATOM      5  C   UNL     1      70.607 -37.977  11.403  1.00  0.00     0.000 C 
BRANCH   5   6
ATOM      6  C   UNL     1      70.225 -37.881   9.915  1.00  0.00     0.000 C 
BRANCH   6   7
ATOM      7  C   UNL     1      69.777 -39.229   9.322  1.00  0.00     0.000 C 
BRANCH   7   8
ATOM      8  C   UNL     1      68.639 -39.939  10.085  1.00  0.00     0.000 C 
BRANCH   8   9
ATOM      9  C   UNL     1      67.267 -39.919   9.383  1.00  0.00     0.000 C 
BRANCH   9  10
ATOM     10  C   UNL     1      66.116 -39.338  10.227  1.00  0.00     0.000 C 
BRANCH  10  11
ATOM     11  C   UNL     1      65.868 -37.828  10.041  1.00  0.00     0.000 C 
BRANCH  11  12
ATOM     12  C   UNL     1      66.648 -36.917  11.007  1.00  0.00     0.006 C 
BRANCH  12  13
ATOM     13  C   UNL     1      65.814 -36.482  12.220  1.00  0.00     0.053 C 
BRANCH  13  14
ATOM     14  C   UNL     1      65.209 -35.133  11.989  1.00  0.00     0.041 C 
ATOM     15  O   UNL     1      64.546 -34.569  12.900  1.00  0.00    -0.550 OA
ATOM     16  O   UNL     1      65.368 -34.500  10.763  1.00  0.00    -0.550 OA
ENDBRANCH  13  14
ENDBRANCH  12  13
ENDBRANCH  11  12
ENDBRANCH  10  11
ENDBRANCH   9  10
ENDBRANCH   8   9
ENDBRANCH   7   8
ENDBRANCH   6   7
ENDBRANCH   5   6
ENDBRANCH   4   5
ENDBRANCH   3   4
ENDBRANCH   2   3
ENDBRANCH   1   2
BRANCH   1  17
ATOM     17  C   UNL     1      74.776 -37.210   8.403  1.00  0.00     0.000 C 
BRANCH  17  18
ATOM     18  C   UNL     1      73.781 -36.272   7.695  1.00  0.00     0.000 C 
BRANCH  18  19
ATOM     19  C   UNL     1      74.016 -36.086   6.184  1.00  0.00     0.000 C 
BRANCH  19  20
ATOM     20  C   UNL     1      72.868 -35.336   5.486  1.00  0.00     0.000 C 
BRANCH  20  21
ATOM     21  C   UNL     1      73.158 -33.835   5.321  1.00  0.00     0.000 C 
BRANCH  21  22
ATOM     22  C   UNL     1      71.893 -32.967   5.451  1.00  0.00    -0.000 C 
BRANCH  22  23
ATOM     23  C   UNL     1      71.307 -32.996   6.880  1.00  0.00    -0.000 C 
BRANCH  23  24
ATOM     24  C   UNL     1      69.834 -33.446   6.935  1.00  0.00    -0.000 C 
BRANCH  24  25
ATOM     25  C   UNL     1      69.627 -34.950   7.191  1.00  0.00    -0.000 C 
BRANCH  25  26
ATOM     26  C   UNL     1      68.230 -35.334   7.722  1.00  0.00    -0.000 C 
BRANCH  26  27
ATOM     27  C   UNL     1      67.693 -36.692   7.229  1.00  0.00    -0.000 C 
BRANCH  27  28
ATOM     28  C   UNL     1      68.313 -37.203   5.913  1.00  0.00    -0.000 C 
BRANCH  28  29
ATOM     29  C   UNL     1      69.127 -38.502   6.044  1.00  0.00    -0.003 C 
ATOM     30  C   UNL     1      70.625 -38.291   5.822  1.00  0.00     0.004 C 
ENDBRANCH  28  29
ENDBRANCH  27  28
ENDBRANCH  26  27
ENDBRANCH  25  26
ENDBRANCH  24  25
ENDBRANCH  23  24
ENDBRANCH  22  23
ENDBRANCH  21  22
ENDBRANCH  20  21
ENDBRANCH  19  20
ENDBRANCH  18  19
ENDBRANCH  17  18
ENDBRANCH   1  17
TORSDOF 26
ENDMDL
MODEL 8
REMARK VINA RESULT:    -4.287      1.325      2.067
REMARK INTER + INTRA:         -14.908
REMARK INTER:                 -10.830
REMARK INTRA:                  -4.077
REMARK UNBOUND:                -4.105
REMARK SMILES CCCCCCCCCCCCCCCCCCCCCCCCCCCC(=O)[O-]
REMARK SMILES IDX 15 1 16 2 17 3 18 4 19 5 20 6 21 7 22 8 23 9 24 10 25 11
REMARK SMILES IDX 26 12 27 13 28 14 29 15 30 16 14 17 13 18 12 19 11 20 10 21
REMARK SMILES IDX 9 22 8 23 7 24 6 25 5 26 4 27 3 28 2 29 1 30
REMARK H PARENT
REMARK Flexibility Score: inf
ROOT
ATOM      1  C   UNL     1      72.122 -38.178  11.576  1.00  0.00     0.000 C 
ENDROOT
BRANCH   1   2
ATOM      2  C   UNL     1      70.898 -38.821  10.903  1.00  0.00     0.000 C 
BRANCH   2   3
ATOM      3  C   UNL     1      70.591 -40.225  11.445  1.00  0.00     0.000 C 
BRANCH   3   4
ATOM      4  C   UNL     1      70.023 -41.124  10.338  1.00  0.00     0.000 C 
BRANCH   4   5
ATOM      5  C   UNL     1      69.578 -40.330   9.099  1.00  0.00     0.000 C 
BRANCH   5   6
ATOM      6  C   UNL     1      68.315 -40.923   8.449  1.00  0.00     0.000 C 
BRANCH   6   7
ATOM      7  C   UNL     1      67.012 -40.395   9.078  1.00  0.00     0.000 C 
BRANCH   7   8
ATOM      8  C   UNL     1      66.860 -38.860   9.086  1.00  0.00     0.000 C 
BRANCH   8   9
ATOM      9  C   UNL     1      66.521 -38.227   7.722  1.00  0.00     0.000 C 
BRANCH   9  10
ATOM     10  C   UNL     1      66.289 -36.704   7.754  1.00  0.00     0.000 C 
BRANCH  10  11
ATOM     11  C   UNL     1      66.477 -36.044   9.134  1.00  0.00     0.000 C 
BRANCH  11  12
ATOM     12  C   UNL     1      65.171 -35.668   9.859  1.00  0.00     0.006 C 
BRANCH  12  13
ATOM     13  C   UNL     1      64.931 -36.504  11.124  1.00  0.00     0.053 C 
BRANCH  13  14
ATOM     14  C   UNL     1      65.448 -35.790  12.334  1.00  0.00     0.041 C 
ATOM     15  O   UNL     1      66.616 -36.012  12.753  1.00  0.00    -0.550 OA
ATOM     16  O   UNL     1      64.637 -34.886  13.008  1.00  0.00    -0.550 OA
ENDBRANCH  13  14
ENDBRANCH  12  13
ENDBRANCH  11  12
ENDBRANCH  10  11
ENDBRANCH   9  10
ENDBRANCH   8   9
ENDBRANCH   7   8
ENDBRANCH   6   7
ENDBRANCH   5   6
ENDBRANCH   4   5
ENDBRANCH   3   4
ENDBRANCH   2   3
ENDBRANCH   1   2
BRANCH   1  17
ATOM     17  C   UNL     1      72.793 -37.121  10.683  1.00  0.00     0.000 C 
BRANCH  17  18
ATOM     18  C   UNL     1      74.254 -37.462  10.338  1.00  0.00     0.000 C 
BRANCH  18  19
ATOM     19  C   UNL     1      74.819 -36.753   9.093  1.00  0.00     0.000 C 
BRANCH  19  20
ATOM     20  C   UNL     1      73.729 -36.345   8.087  1.00  0.00     0.000 C 
BRANCH  20  21
ATOM     21  C   UNL     1      74.184 -36.505   6.628  1.00  0.00     0.000 C 
BRANCH  21  22
ATOM     22  C   UNL     1      73.229 -35.825   5.630  1.00  0.00    -0.000 C 
BRANCH  22  23
ATOM     23  C   UNL     1      73.641 -34.368   5.322  1.00  0.00    -0.000 C 
BRANCH  23  24
ATOM     24  C   UNL     1      72.488 -33.357   5.464  1.00  0.00    -0.000 C 
BRANCH  24  25
ATOM     25  C   UNL     1      71.821 -33.326   6.852  1.00  0.00    -0.000 C 
BRANCH  25  26
ATOM     26  C   UNL     1      70.336 -32.907   6.851  1.00  0.00    -0.000 C 
BRANCH  26  27
ATOM     27  C   UNL     1      69.344 -34.011   7.266  1.00  0.00    -0.000 C 
BRANCH  27  28
ATOM     28  C   UNL     1      69.628 -35.404   6.671  1.00  0.00    -0.000 C 
BRANCH  28  29
ATOM     29  C   UNL     1      70.025 -36.478   7.699  1.00  0.00    -0.003 C 
ATOM     30  C   UNL     1      70.371 -37.820   7.055  1.00  0.00     0.004 C 
ENDBRANCH  28  29
ENDBRANCH  27  28
ENDBRANCH  26  27
ENDBRANCH  25  26
ENDBRANCH  24  25
ENDBRANCH  23  24
ENDBRANCH  22  23
ENDBRANCH  21  22
ENDBRANCH  20  21
ENDBRANCH  19  20
ENDBRANCH  18  19
ENDBRANCH  17  18
ENDBRANCH   1  17
TORSDOF 26
ENDMDL
MODEL 9
REMARK VINA RESULT:    -4.258      1.401      4.214
REMARK INTER + INTRA:         -14.834
REMARK INTER:                 -11.492
REMARK INTRA:                  -3.342
REMARK UNBOUND:                -4.105
REMARK SMILES CCCCCCCCCCCCCCCCCCCCCCCCCCCC(=O)[O-]
REMARK SMILES IDX 15 1 16 2 17 3 18 4 19 5 20 6 21 7 22 8 23 9 24 10 25 11
REMARK SMILES IDX 26 12 27 13 28 14 29 15 30 16 14 17 13 18 12 19 11 20 10 21
REMARK SMILES IDX 9 22 8 23 7 24 6 25 5 26 4 27 3 28 2 29 1 30
REMARK H PARENT
REMARK Flexibility Score: inf
ROOT
ATOM      1  C   UNL     1      70.137 -36.458   7.967  1.00  0.00     0.000 C 
ENDROOT
BRANCH   1   2
ATOM      2  C   UNL     1      69.172 -37.616   8.268  1.00  0.00     0.000 C 
BRANCH   2   3
ATOM      3  C   UNL     1      68.122 -37.254   9.330  1.00  0.00     0.000 C 
BRANCH   3   4
ATOM      4  C   UNL     1      67.657 -38.508  10.085  1.00  0.00     0.000 C 
BRANCH   4   5
ATOM      5  C   UNL     1      66.279 -39.003   9.618  1.00  0.00     0.000 C 
BRANCH   5   6
ATOM      6  C   UNL     1      65.806 -40.239  10.405  1.00  0.00     0.000 C 
BRANCH   6   7
ATOM      7  C   UNL     1      65.116 -39.879  11.734  1.00  0.00     0.000 C 
BRANCH   7   8
ATOM      8  C   UNL     1      64.253 -38.601  11.701  1.00  0.00     0.000 C 
BRANCH   8   9
ATOM      9  C   UNL     1      64.612 -37.539  12.759  1.00  0.00     0.000 C 
BRANCH   9  10
ATOM     10  C   UNL     1      65.754 -36.585  12.358  1.00  0.00     0.000 C 
BRANCH  10  11
ATOM     11  C   UNL     1      65.383 -35.535  11.290  1.00  0.00     0.000 C 
BRANCH  11  12
ATOM     12  C   UNL     1      64.805 -34.220  11.845  1.00  0.00     0.006 C 
BRANCH  12  13
ATOM     13  C   UNL     1      63.386 -33.932  11.335  1.00  0.00     0.053 C 
BRANCH  13  14
ATOM     14  C   UNL     1      62.370 -34.656  12.164  1.00  0.00     0.041 C 
ATOM     15  O   UNL     1      61.411 -35.258  11.611  1.00  0.00    -0.550 OA
ATOM     16  O   UNL     1      62.476 -34.657  13.549  1.00  0.00    -0.550 OA
ENDBRANCH  13  14
ENDBRANCH  12  13
ENDBRANCH  11  12
ENDBRANCH  10  11
ENDBRANCH   9  10
ENDBRANCH   8   9
ENDBRANCH   7   8
ENDBRANCH   6   7
ENDBRANCH   5   6
ENDBRANCH   4   5
ENDBRANCH   3   4
ENDBRANCH   2   3
ENDBRANCH   1   2
BRANCH   1  17
ATOM     17  C   UNL     1      69.668 -35.598   6.781  1.00  0.00     0.000 C 
BRANCH  17  18
ATOM     18  C   UNL     1      69.388 -34.135   7.171  1.00  0.00     0.000 C 
BRANCH  18  19
ATOM     19  C   UNL     1      70.300 -33.090   6.501  1.00  0.00     0.000 C 
BRANCH  19  20
ATOM     20  C   UNL     1      71.796 -33.402   6.671  1.00  0.00     0.000 C 
BRANCH  20  21
ATOM     21  C   UNL     1      72.579 -33.274   5.353  1.00  0.00     0.000 C 
BRANCH  21  22
ATOM     22  C   UNL     1      73.626 -34.388   5.173  1.00  0.00    -0.000 C 
BRANCH  22  23
ATOM     23  C   UNL     1      73.150 -35.740   5.748  1.00  0.00    -0.000 C 
BRANCH  23  24
ATOM     24  C   UNL     1      74.161 -36.396   6.707  1.00  0.00    -0.000 C 
BRANCH  24  25
ATOM     25  C   UNL     1      73.768 -36.345   8.195  1.00  0.00    -0.000 C 
BRANCH  25  26
ATOM     26  C   UNL     1      74.805 -36.951   9.164  1.00  0.00    -0.000 C 
BRANCH  26  27
ATOM     27  C   UNL     1      74.243 -37.399  10.527  1.00  0.00    -0.000 C 
BRANCH  27  28
ATOM     28  C   UNL     1      72.714 -37.274  10.679  1.00  0.00    -0.000 C 
BRANCH  28  29
ATOM     29  C   UNL     1      72.102 -38.146  11.789  1.00  0.00    -0.003 C 
ATOM     30  C   UNL     1      71.109 -39.178  11.256  1.00  0.00     0.004 C 
ENDBRANCH  28  29
ENDBRANCH  27  28
ENDBRANCH  26  27
ENDBRANCH  25  26
ENDBRANCH  24  25
ENDBRANCH  23  24
ENDBRANCH  22  23
ENDBRANCH  21  22
ENDBRANCH  20  21
ENDBRANCH  19  20
ENDBRANCH  18  19
ENDBRANCH  17  18
ENDBRANCH   1  17
TORSDOF 26
ENDMDL
