MODEL 1
REMARK VINA RESULT:    -3.183      0.000      0.000
REMARK INTER + INTRA:          -7.873
REMARK INTER:                  -5.973
REMARK INTRA:                  -1.900
REMARK UNBOUND:                -1.900
REMARK SMILES O=C([O-])CCCCCCCCCCCCCCC(=O)[O-]
REMARK SMILES IDX 10 1 9 2 8 3 7 4 6 5 5 6 4 7 2 8 1 9 3 10 11 11 12 12 13 13
REMARK SMILES IDX 14 14 15 15 16 16 17 17 18 18 19 19 20 20
REMARK H PARENT
REMARK Flexibility Score: inf
ROOT
ATOM      1  C   UNL     1      -4.717   8.397  -5.573  1.00  0.00     0.000 C 
ENDROOT
BRANCH   1   2
ATOM      2  C   UNL     1      -4.552   9.652  -4.699  1.00  0.00     0.000 C 
BRANCH   2   3
ATOM      3  C   UNL     1      -4.757  10.953  -5.491  1.00  0.00     0.000 C 
BRANCH   3   4
ATOM      4  C   UNL     1      -5.051  12.157  -4.582  1.00  0.00     0.000 C 
BRANCH   4   5
ATOM      5  C   UNL     1      -4.400  11.977  -3.205  1.00  0.00     0.000 C 
BRANCH   5   6
ATOM      6  C   UNL     1      -4.510  13.264  -2.373  1.00  0.00     0.006 C 
BRANCH   6   7
ATOM      7  C   UNL     1      -4.901  12.980  -0.916  1.00  0.00     0.053 C 
BRANCH   7   8
ATOM      8  C   UNL     1      -3.804  13.351   0.034  1.00  0.00     0.041 C 
ATOM      9  O   UNL     1      -2.659  12.842  -0.088  1.00  0.00    -0.550 OA
ATOM     10  O   UNL     1      -4.056  14.234   1.077  1.00  0.00    -0.550 OA
ENDBRANCH   7   8
ENDBRANCH   6   7
ENDBRANCH   5   6
ENDBRANCH   4   5
ENDBRANCH   3   4
ENDBRANCH   2   3
ENDBRANCH   1   2
BRANCH   1  11
ATOM     11  C   UNL     1      -3.412   7.596  -5.712  1.00  0.00     0.000 C 
BRANCH  11  12
ATOM     12  C   UNL     1      -3.027   7.344  -7.180  1.00  0.00     0.000 C 
BRANCH  12  13
ATOM     13  C   UNL     1      -1.819   8.186  -7.622  1.00  0.00     0.000 C 
BRANCH  13  14
ATOM     14  C   UNL     1      -2.229   9.575  -8.144  1.00  0.00     0.000 C 
BRANCH  14  15
ATOM     15  C   UNL     1      -1.601  10.726  -7.339  1.00  0.00     0.000 C 
BRANCH  15  16
ATOM     16  C   UNL     1      -1.030  10.327  -5.966  1.00  0.00     0.006 C 
BRANCH  16  17
ATOM     17  C   UNL     1      -0.952  11.505  -4.985  1.00  0.00     0.053 C 
BRANCH  17  18
ATOM     18  C   UNL     1       0.353  12.221  -5.133  1.00  0.00     0.041 C 
ATOM     19  O   UNL     1       1.420  11.682  -4.739  1.00  0.00    -0.550 OA
ATOM     20  O   UNL     1       0.398  13.461  -5.756  1.00  0.00    -0.550 OA
ENDBRANCH  17  18
ENDBRANCH  16  17
ENDBRANCH  15  16
ENDBRANCH  14  15
ENDBRANCH  13  14
ENDBRANCH  12  13
ENDBRANCH  11  12
ENDBRANCH   1  11
TORSDOF 15
ENDMDL
MODEL 2
REMARK VINA RESULT:    -3.164      2.275      6.334
REMARK INTER + INTRA:          -7.838
REMARK INTER:                  -6.282
REMARK INTRA:                  -1.556
REMARK UNBOUND:                -1.900
REMARK SMILES O=C([O-])CCCCCCCCCCCCCCC(=O)[O-]
REMARK SMILES IDX 10 1 9 2 8 3 7 4 6 5 5 6 4 7 2 8 1 9 3 10 11 11 12 12 13 13
REMARK SMILES IDX 14 14 15 15 16 16 17 17 18 18 19 19 20 20
REMARK H PARENT
REMARK Flexibility Score: inf
ROOT
ATOM      1  C   UNL     1      -3.104   7.691  -7.215  1.00  0.00     0.000 C 
ENDROOT
BRANCH   1   2
ATOM      2  C   UNL     1      -1.843   8.502  -7.561  1.00  0.00     0.000 C 
BRANCH   2   3
ATOM      3  C   UNL     1      -2.040  10.013  -7.366  1.00  0.00     0.000 C 
BRANCH   3   4
ATOM      4  C   UNL     1      -0.710  10.779  -7.304  1.00  0.00     0.000 C 
BRANCH   4   5
ATOM      5  C   UNL     1       0.122  10.337  -6.093  1.00  0.00     0.000 C 
BRANCH   5   6
ATOM      6  C   UNL     1       1.499   9.818  -6.532  1.00  0.00     0.006 C 
BRANCH   6   7
ATOM      7  C   UNL     1       2.405   9.496  -5.335  1.00  0.00     0.053 C 
BRANCH   7   8
ATOM      8  C   UNL     1       3.395   8.421  -5.663  1.00  0.00     0.041 C 
ATOM      9  O   UNL     1       4.415   8.258  -4.944  1.00  0.00    -0.550 OA
ATOM     10  O   UNL     1       3.208   7.621  -6.784  1.00  0.00    -0.550 OA
ENDBRANCH   7   8
ENDBRANCH   6   7
ENDBRANCH   5   6
ENDBRANCH   4   5
ENDBRANCH   3   4
ENDBRANCH   2   3
ENDBRANCH   1   2
BRANCH   1  11
ATOM     11  C   UNL     1      -3.462   7.760  -5.722  1.00  0.00     0.000 C 
BRANCH  11  12
ATOM     12  C   UNL     1      -4.853   8.369  -5.475  1.00  0.00     0.000 C 
BRANCH  12  13
ATOM     13  C   UNL     1      -4.779   9.724  -4.751  1.00  0.00     0.000 C 
BRANCH  13  14
ATOM     14  C   UNL     1      -3.464   9.904  -3.972  1.00  0.00     0.000 C 
BRANCH  14  15
ATOM     15  C   UNL     1      -2.954  11.356  -3.985  1.00  0.00     0.000 C 
BRANCH  15  16
ATOM     16  C   UNL     1      -3.980  12.413  -3.536  1.00  0.00     0.006 C 
BRANCH  16  17
ATOM     17  C   UNL     1      -4.187  12.438  -2.016  1.00  0.00     0.053 C 
BRANCH  17  18
ATOM     18  C   UNL     1      -3.054  13.150  -1.348  1.00  0.00     0.041 C 
ATOM     19  O   UNL     1      -2.497  14.127  -1.915  1.00  0.00    -0.550 OA
ATOM     20  O   UNL     1      -2.649  12.770  -0.075  1.00  0.00    -0.550 OA
ENDBRANCH  17  18
ENDBRANCH  16  17
ENDBRANCH  15  16
ENDBRANCH  14  15
ENDBRANCH  13  14
ENDBRANCH  12  13
ENDBRANCH  11  12
ENDBRANCH   1  11
TORSDOF 15
ENDMDL
MODEL 3
REMARK VINA RESULT:    -3.159      1.087      5.543
REMARK INTER + INTRA:          -7.830
REMARK INTER:                  -5.876
REMARK INTRA:                  -1.953
REMARK UNBOUND:                -1.900
REMARK SMILES O=C([O-])CCCCCCCCCCCCCCC(=O)[O-]
REMARK SMILES IDX 10 1 9 2 8 3 7 4 6 5 5 6 4 7 2 8 1 9 3 10 11 11 12 12 13 13
REMARK SMILES IDX 14 14 15 15 16 16 17 17 18 18 19 19 20 20
REMARK H PARENT
REMARK Flexibility Score: inf
ROOT
ATOM      1  C   UNL     1      -5.809   8.604  -4.918  1.00  0.00     0.000 C 
ENDROOT
BRANCH   1   2
ATOM      2  C   UNL     1      -4.305   8.916  -5.016  1.00  0.00     0.000 C 
BRANCH   2   3
ATOM      3  C   UNL     1      -3.503   7.762  -5.637  1.00  0.00     0.000 C 
BRANCH   3   4
ATOM      4  C   UNL     1      -2.608   8.223  -6.798  1.00  0.00     0.000 C 
BRANCH   4   5
ATOM      5  C   UNL     1      -2.740   9.734  -7.025  1.00  0.00     0.000 C 
BRANCH   5   6
ATOM      6  C   UNL     1      -1.377  10.430  -6.896  1.00  0.00     0.006 C 
BRANCH   6   7
ATOM      7  C   UNL     1      -0.914  10.534  -5.437  1.00  0.00     0.053 C 
BRANCH   7   8
ATOM      8  C   UNL     1      -0.113  11.776  -5.196  1.00  0.00     0.041 C 
ATOM      9  O   UNL     1       1.064  11.697  -4.758  1.00  0.00    -0.550 OA
ATOM     10  O   UNL     1      -0.679  13.025  -5.424  1.00  0.00    -0.550 OA
ENDBRANCH   7   8
ENDBRANCH   6   7
ENDBRANCH   5   6
ENDBRANCH   4   5
ENDBRANCH   3   4
ENDBRANCH   2   3
ENDBRANCH   1   2
BRANCH   1  11
ATOM     11  C   UNL     1      -6.679   9.648  -5.637  1.00  0.00     0.000 C 
BRANCH  11  12
ATOM     12  C   UNL     1      -5.919  10.954  -5.924  1.00  0.00     0.000 C 
BRANCH  12  13
ATOM     13  C   UNL     1      -6.486  12.147  -5.137  1.00  0.00     0.000 C 
BRANCH  13  14
ATOM     14  C   UNL     1      -5.392  13.137  -4.700  1.00  0.00     0.000 C 
BRANCH  14  15
ATOM     15  C   UNL     1      -4.085  12.439  -4.282  1.00  0.00     0.000 C 
BRANCH  15  16
ATOM     16  C   UNL     1      -4.028  11.986  -2.812  1.00  0.00     0.006 C 
BRANCH  16  17
ATOM     17  C   UNL     1      -4.762  12.942  -1.862  1.00  0.00     0.053 C 
BRANCH  17  18
ATOM     18  C   UNL     1      -4.192  12.844  -0.482  1.00  0.00     0.041 C 
ATOM     19  O   UNL     1      -2.949  12.735  -0.316  1.00  0.00    -0.550 OA
ATOM     20  O   UNL     1      -5.029  12.928   0.623  1.00  0.00    -0.550 OA
ENDBRANCH  17  18
ENDBRANCH  16  17
ENDBRANCH  15  16
ENDBRANCH  14  15
ENDBRANCH  13  14
ENDBRANCH  12  13
ENDBRANCH  11  12
ENDBRANCH   1  11
TORSDOF 15
ENDMDL
MODEL 4
REMARK VINA RESULT:    -3.104     10.325     13.169
REMARK INTER + INTRA:          -7.727
REMARK INTER:                  -6.557
REMARK INTRA:                  -1.170
REMARK UNBOUND:                -1.900
REMARK SMILES O=C([O-])CCCCCCCCCCCCCCC(=O)[O-]
REMARK SMILES IDX 10 1 9 2 8 3 7 4 6 5 5 6 4 7 2 8 1 9 3 10 11 11 12 12 13 13
REMARK SMILES IDX 14 14 15 15 16 16 17 17 18 18 19 19 20 20
REMARK H PARENT
REMARK Flexibility Score: inf
ROOT
ATOM      1  C   UNL     1       6.824   8.401   2.099  1.00  0.00     0.000 C 
ENDROOT
BRANCH   1   2
ATOM      2  C   UNL     1       7.777   7.370   1.471  1.00  0.00     0.000 C 
BRANCH   2   3
ATOM      3  C   UNL     1       9.248   7.629   1.833  1.00  0.00     0.000 C 
BRANCH   3   4
ATOM      4  C   UNL     1      10.216   7.171   0.731  1.00  0.00     0.000 C 
BRANCH   4   5
ATOM      5  C   UNL     1       9.496   6.296  -0.303  1.00  0.00     0.000 C 
BRANCH   5   6
ATOM      6  C   UNL     1      10.224   4.957  -0.493  1.00  0.00     0.006 C 
BRANCH   6   7
ATOM      7  C   UNL     1      10.385   4.193   0.828  1.00  0.00     0.053 C 
BRANCH   7   8
ATOM      8  C   UNL     1       9.643   2.893   0.810  1.00  0.00     0.041 C 
ATOM      9  O   UNL     1       9.459   2.282  -0.275  1.00  0.00    -0.550 OA
ATOM     10  O   UNL     1       9.123   2.371   1.990  1.00  0.00    -0.550 OA
ENDBRANCH   7   8
ENDBRANCH   6   7
ENDBRANCH   5   6
ENDBRANCH   4   5
ENDBRANCH   3   4
ENDBRANCH   2   3
ENDBRANCH   1   2
BRANCH   1  11
ATOM     11  C   UNL     1       6.797   9.731   1.329  1.00  0.00     0.000 C 
BRANCH  11  12
ATOM     12  C   UNL     1       6.234   9.578  -0.095  1.00  0.00     0.000 C 
BRANCH  12  13
ATOM     13  C   UNL     1       7.330   9.648  -1.170  1.00  0.00     0.000 C 
BRANCH  13  14
ATOM     14  C   UNL     1       7.083   8.663  -2.327  1.00  0.00     0.000 C 
BRANCH  14  15
ATOM     15  C   UNL     1       6.500   9.343  -3.578  1.00  0.00     0.000 C 
BRANCH  15  16
ATOM     16  C   UNL     1       5.903   8.384  -4.624  1.00  0.00     0.006 C 
BRANCH  16  17
ATOM     17  C   UNL     1       4.624   8.929  -5.274  1.00  0.00     0.053 C 
BRANCH  17  18
ATOM     18  C   UNL     1       4.285   8.139  -6.498  1.00  0.00     0.041 C 
ATOM     19  O   UNL     1       5.170   7.895  -7.360  1.00  0.00    -0.550 OA
ATOM     20  O   UNL     1       3.005   7.627  -6.662  1.00  0.00    -0.550 OA
ENDBRANCH  17  18
ENDBRANCH  16  17
ENDBRANCH  15  16
ENDBRANCH  14  15
ENDBRANCH  13  14
ENDBRANCH  12  13
ENDBRANCH  11  12
ENDBRANCH   1  11
TORSDOF 15
ENDMDL
MODEL 5
REMARK VINA RESULT:    -3.103      1.321      6.131
REMARK INTER + INTRA:          -7.724
REMARK INTER:                  -6.428
REMARK INTRA:                  -1.296
REMARK UNBOUND:                -1.900
REMARK SMILES O=C([O-])CCCCCCCCCCCCCCC(=O)[O-]
REMARK SMILES IDX 10 1 9 2 8 3 7 4 6 5 5 6 4 7 2 8 1 9 3 10 11 11 12 12 13 13
REMARK SMILES IDX 14 14 15 15 16 16 17 17 18 18 19 19 20 20
REMARK H PARENT
REMARK Flexibility Score: inf
ROOT
ATOM      1  C   UNL     1      -3.523   7.972  -5.405  1.00  0.00     0.000 C 
ENDROOT
BRANCH   1   2
ATOM      2  C   UNL     1      -2.894   7.777  -6.796  1.00  0.00     0.000 C 
BRANCH   2   3
ATOM      3  C   UNL     1      -2.113   9.013  -7.269  1.00  0.00     0.000 C 
BRANCH   3   4
ATOM      4  C   UNL     1      -0.840   8.644  -8.048  1.00  0.00     0.000 C 
BRANCH   4   5
ATOM      5  C   UNL     1       0.340   9.525  -7.620  1.00  0.00     0.000 C 
BRANCH   5   6
ATOM      6  C   UNL     1       0.291   9.815  -6.113  1.00  0.00     0.006 C 
BRANCH   6   7
ATOM      7  C   UNL     1       0.937  11.162  -5.761  1.00  0.00     0.053 C 
BRANCH   7   8
ATOM      8  C   UNL     1       2.226  10.982  -5.021  1.00  0.00     0.041 C 
ATOM      9  O   UNL     1       2.620  11.859  -4.209  1.00  0.00    -0.550 OA
ATOM     10  O   UNL     1       3.011   9.859  -5.254  1.00  0.00    -0.550 OA
ENDBRANCH   7   8
ENDBRANCH   6   7
ENDBRANCH   5   6
ENDBRANCH   4   5
ENDBRANCH   3   4
ENDBRANCH   2   3
ENDBRANCH   1   2
BRANCH   1  11
ATOM     11  C   UNL     1      -4.825   8.787  -5.452  1.00  0.00     0.000 C 
BRANCH  11  12
ATOM     12  C   UNL     1      -4.761  10.053  -4.580  1.00  0.00     0.000 C 
BRANCH  12  13
ATOM     13  C   UNL     1      -3.352  10.309  -4.019  1.00  0.00     0.000 C 
BRANCH  13  14
ATOM     14  C   UNL     1      -3.238  11.672  -3.315  1.00  0.00     0.000 C 
BRANCH  14  15
ATOM     15  C   UNL     1      -4.595  12.381  -3.159  1.00  0.00     0.000 C 
BRANCH  15  16
ATOM     16  C   UNL     1      -4.849  13.008  -1.775  1.00  0.00     0.006 C 
BRANCH  16  17
ATOM     17  C   UNL     1      -3.845  12.539  -0.713  1.00  0.00     0.053 C 
BRANCH  17  18
ATOM     18  C   UNL     1      -3.184  13.715  -0.067  1.00  0.00     0.041 C 
ATOM     19  O   UNL     1      -3.609  14.154   1.035  1.00  0.00    -0.550 OA
ATOM     20  O   UNL     1      -2.066  14.293  -0.653  1.00  0.00    -0.550 OA
ENDBRANCH  17  18
ENDBRANCH  16  17
ENDBRANCH  15  16
ENDBRANCH  14  15
ENDBRANCH  13  14
ENDBRANCH  12  13
ENDBRANCH  11  12
ENDBRANCH   1  11
TORSDOF 15
ENDMDL
MODEL 6
REMARK VINA RESULT:    -3.089      9.974     12.475
REMARK INTER + INTRA:          -7.698
REMARK INTER:                  -5.151
REMARK INTRA:                  -2.547
REMARK UNBOUND:                -1.900
REMARK SMILES O=C([O-])CCCCCCCCCCCCCCC(=O)[O-]
REMARK SMILES IDX 10 1 9 2 8 3 7 4 6 5 5 6 4 7 2 8 1 9 3 10 11 11 12 12 13 13
REMARK SMILES IDX 14 14 15 15 16 16 17 17 18 18 19 19 20 20
REMARK H PARENT
REMARK Flexibility Score: inf
ROOT
ATOM      1  C   UNL     1       7.750  10.533   2.853  1.00  0.00     0.000 C 
ENDROOT
BRANCH   1   2
ATOM      2  C   UNL     1       9.272  10.717   2.717  1.00  0.00     0.000 C 
BRANCH   2   3
ATOM      3  C   UNL     1       9.645  11.879   1.783  1.00  0.00     0.000 C 
BRANCH   3   4
ATOM      4  C   UNL     1       8.445  12.782   1.456  1.00  0.00     0.000 C 
BRANCH   4   5
ATOM      5  C   UNL     1       8.319  13.001  -0.056  1.00  0.00     0.000 C 
BRANCH   5   6
ATOM      6  C   UNL     1       7.052  13.801  -0.392  1.00  0.00     0.006 C 
BRANCH   6   7
ATOM      7  C   UNL     1       5.844  13.350   0.440  1.00  0.00     0.053 C 
BRANCH   7   8
ATOM      8  C   UNL     1       4.803  14.423   0.534  1.00  0.00     0.041 C 
ATOM      9  O   UNL     1       4.707  15.125   1.574  1.00  0.00    -0.550 OA
ATOM     10  O   UNL     1       3.916  14.626  -0.517  1.00  0.00    -0.550 OA
ENDBRANCH   7   8
ENDBRANCH   6   7
ENDBRANCH   5   6
ENDBRANCH   4   5
ENDBRANCH   3   4
ENDBRANCH   2   3
ENDBRANCH   1   2
BRANCH   1  11
ATOM     11  C   UNL     1       7.334   9.054   2.895  1.00  0.00     0.000 C 
BRANCH  11  12
ATOM     12  C   UNL     1       6.414   8.665   1.725  1.00  0.00     0.000 C 
BRANCH  12  13
ATOM     13  C   UNL     1       6.384   9.736   0.622  1.00  0.00     0.000 C 
BRANCH  13  14
ATOM     14  C   UNL     1       6.793   9.177  -0.752  1.00  0.00     0.000 C 
BRANCH  14  15
ATOM     15  C   UNL     1       8.238   9.537  -1.139  1.00  0.00     0.000 C 
BRANCH  15  16
ATOM     16  C   UNL     1       9.330   8.782  -0.358  1.00  0.00     0.006 C 
BRANCH  16  17
ATOM     17  C   UNL     1       9.216   7.258  -0.493  1.00  0.00     0.053 C 
BRANCH  17  18
ATOM     18  C   UNL     1       9.365   6.605   0.844  1.00  0.00     0.041 C 
ATOM     19  O   UNL     1       8.835   5.484   1.065  1.00  0.00    -0.550 OA
ATOM     20  O   UNL     1      10.134   7.208   1.831  1.00  0.00    -0.550 OA
ENDBRANCH  17  18
ENDBRANCH  16  17
ENDBRANCH  15  16
ENDBRANCH  14  15
ENDBRANCH  13  14
ENDBRANCH  12  13
ENDBRANCH  11  12
ENDBRANCH   1  11
TORSDOF 15
ENDMDL
MODEL 7
REMARK VINA RESULT:    -3.083      1.481      2.000
REMARK INTER + INTRA:          -7.687
REMARK INTER:                  -6.383
REMARK INTRA:                  -1.304
REMARK UNBOUND:                -1.900
REMARK SMILES O=C([O-])CCCCCCCCCCCCCCC(=O)[O-]
REMARK SMILES IDX 10 1 9 2 8 3 7 4 6 5 5 6 4 7 2 8 1 9 3 10 11 11 12 12 13 13
REMARK SMILES IDX 14 14 15 15 16 16 17 17 18 18 19 19 20 20
REMARK H PARENT
REMARK Flexibility Score: inf
ROOT
ATOM      1  C   UNL     1      -4.960   8.718  -5.184  1.00  0.00     0.000 C 
ENDROOT
BRANCH   1   2
ATOM      2  C   UNL     1      -4.757  10.146  -4.646  1.00  0.00     0.000 C 
BRANCH   2   3
ATOM      3  C   UNL     1      -3.353  10.361  -4.059  1.00  0.00     0.000 C 
BRANCH   3   4
ATOM      4  C   UNL     1      -3.238  11.677  -3.274  1.00  0.00     0.000 C 
BRANCH   4   5
ATOM      5  C   UNL     1      -4.595  12.385  -3.187  1.00  0.00     0.000 C 
BRANCH   5   6
ATOM      6  C   UNL     1      -4.841  12.930  -1.772  1.00  0.00     0.006 C 
BRANCH   6   7
ATOM      7  C   UNL     1      -3.731  12.524  -0.794  1.00  0.00     0.053 C 
BRANCH   7   8
ATOM      8  C   UNL     1      -3.116  13.717  -0.128  1.00  0.00     0.041 C 
ATOM      9  O   UNL     1      -3.536  14.105   0.993  1.00  0.00    -0.550 OA
ATOM     10  O   UNL     1      -2.099  14.421  -0.763  1.00  0.00    -0.550 OA
ENDBRANCH   7   8
ENDBRANCH   6   7
ENDBRANCH   5   6
ENDBRANCH   4   5
ENDBRANCH   3   4
ENDBRANCH   2   3
ENDBRANCH   1   2
BRANCH   1  11
ATOM     11  C   UNL     1      -3.634   7.975  -5.410  1.00  0.00     0.000 C 
BRANCH  11  12
ATOM     12  C   UNL     1      -3.431   7.563  -6.878  1.00  0.00     0.000 C 
BRANCH  12  13
ATOM     13  C   UNL     1      -2.118   8.108  -7.464  1.00  0.00     0.000 C 
BRANCH  13  14
ATOM     14  C   UNL     1      -2.117   9.643  -7.579  1.00  0.00     0.000 C 
BRANCH  14  15
ATOM     15  C   UNL     1      -0.723  10.219  -7.883  1.00  0.00     0.000 C 
BRANCH  15  16
ATOM     16  C   UNL     1       0.167  10.462  -6.650  1.00  0.00     0.006 C 
BRANCH  16  17
ATOM     17  C   UNL     1       1.533   9.771  -6.753  1.00  0.00     0.053 C 
BRANCH  17  18
ATOM     18  C   UNL     1       2.270   9.879  -5.457  1.00  0.00     0.041 C 
ATOM     19  O   UNL     1       2.027  10.830  -4.667  1.00  0.00    -0.550 OA
ATOM     20  O   UNL     1       3.187   8.902  -5.095  1.00  0.00    -0.550 OA
ENDBRANCH  17  18
ENDBRANCH  16  17
ENDBRANCH  15  16
ENDBRANCH  14  15
ENDBRANCH  13  14
ENDBRANCH  12  13
ENDBRANCH  11  12
ENDBRANCH   1  11
TORSDOF 15
ENDMDL
MODEL 8
REMARK VINA RESULT:    -3.039      1.349      2.158
REMARK INTER + INTRA:          -7.603
REMARK INTER:                  -5.176
REMARK INTRA:                  -2.427
REMARK UNBOUND:                -1.900
REMARK SMILES O=C([O-])CCCCCCCCCCCCCCC(=O)[O-]
REMARK SMILES IDX 10 1 9 2 8 3 7 4 6 5 5 6 4 7 2 8 1 9 3 10 11 11 12 12 13 13
REMARK SMILES IDX 14 14 15 15 16 16 17 17 18 18 19 19 20 20
REMARK H PARENT
REMARK Flexibility Score: inf
ROOT
ATOM      1  C   UNL     1      -6.685  10.321  -6.738  1.00  0.00     0.000 C 
ENDROOT
BRANCH   1   2
ATOM      2  C   UNL     1      -6.445  11.409  -5.676  1.00  0.00     0.000 C 
BRANCH   2   3
ATOM      3  C   UNL     1      -5.387  12.435  -6.111  1.00  0.00     0.000 C 
BRANCH   3   4
ATOM      4  C   UNL     1      -4.474  12.868  -4.953  1.00  0.00     0.000 C 
BRANCH   4   5
ATOM      5  C   UNL     1      -4.824  12.110  -3.666  1.00  0.00     0.000 C 
BRANCH   5   6
ATOM      6  C   UNL     1      -3.557  11.774  -2.865  1.00  0.00     0.006 C 
BRANCH   6   7
ATOM      7  C   UNL     1      -2.995  12.998  -2.130  1.00  0.00     0.053 C 
BRANCH   7   8
ATOM      8  C   UNL     1      -3.244  12.923  -0.655  1.00  0.00     0.041 C 
ATOM      9  O   UNL     1      -4.238  12.290  -0.212  1.00  0.00    -0.550 OA
ATOM     10  O   UNL     1      -2.397  13.580   0.229  1.00  0.00    -0.550 OA
ENDBRANCH   7   8
ENDBRANCH   6   7
ENDBRANCH   5   6
ENDBRANCH   4   5
ENDBRANCH   3   4
ENDBRANCH   2   3
ENDBRANCH   1   2
BRANCH   1  11
ATOM     11  C   UNL     1      -6.639   8.900  -6.153  1.00  0.00     0.000 C 
BRANCH  11  12
ATOM     12  C   UNL     1      -5.670   8.782  -4.964  1.00  0.00     0.000 C 
BRANCH  12  13
ATOM     13  C   UNL     1      -4.349   8.095  -5.350  1.00  0.00     0.000 C 
BRANCH  13  14
ATOM     14  C   UNL     1      -3.152   9.062  -5.320  1.00  0.00     0.000 C 
BRANCH  14  15
ATOM     15  C   UNL     1      -2.934   9.786  -6.661  1.00  0.00     0.000 C 
BRANCH  15  16
ATOM     16  C   UNL     1      -1.618  10.578  -6.769  1.00  0.00     0.006 C 
BRANCH  16  17
ATOM     17  C   UNL     1      -0.678  10.340  -5.580  1.00  0.00     0.053 C 
BRANCH  17  18
ATOM     18  C   UNL     1      -0.094  11.635  -5.112  1.00  0.00     0.041 C 
ATOM     19  O   UNL     1       1.121  11.702  -4.787  1.00  0.00    -0.550 OA
ATOM     20  O   UNL     1      -0.877  12.782  -5.085  1.00  0.00    -0.550 OA
ENDBRANCH  17  18
ENDBRANCH  16  17
ENDBRANCH  15  16
ENDBRANCH  14  15
ENDBRANCH  13  14
ENDBRANCH  12  13
ENDBRANCH  11  12
ENDBRANCH   1  11
TORSDOF 15
ENDMDL
MODEL 9
REMARK VINA RESULT:    -2.965      8.729     12.141
REMARK INTER + INTRA:          -7.465
REMARK INTER:                  -5.400
REMARK INTRA:                  -2.065
REMARK UNBOUND:                -1.900
REMARK SMILES O=C([O-])CCCCCCCCCCCCCCC(=O)[O-]
REMARK SMILES IDX 10 1 9 2 8 3 7 4 6 5 5 6 4 7 2 8 1 9 3 10 11 11 12 12 13 13
REMARK SMILES IDX 14 14 15 15 16 16 17 17 18 18 19 19 20 20
REMARK H PARENT
REMARK Flexibility Score: inf
ROOT
ATOM      1  C   UNL     1       8.488   8.601   2.797  1.00  0.00     0.000 C 
ENDROOT
BRANCH   1   2
ATOM      2  C   UNL     1       7.584   7.978   1.720  1.00  0.00     0.000 C 
BRANCH   2   3
ATOM      3  C   UNL     1       6.258   8.736   1.552  1.00  0.00     0.000 C 
BRANCH   3   4
ATOM      4  C   UNL     1       6.164   9.469   0.205  1.00  0.00     0.000 C 
BRANCH   4   5
ATOM      5  C   UNL     1       7.481   9.356  -0.574  1.00  0.00     0.000 C 
BRANCH   5   6
ATOM      6  C   UNL     1       7.245   8.750  -1.966  1.00  0.00     0.006 C 
BRANCH   6   7
ATOM      7  C   UNL     1       6.880   9.816  -3.008  1.00  0.00     0.053 C 
BRANCH   7   8
ATOM      8  C   UNL     1       5.856   9.315  -3.978  1.00  0.00     0.041 C 
ATOM      9  O   UNL     1       5.058  10.118  -4.530  1.00  0.00    -0.550 OA
ATOM     10  O   UNL     1       5.759   7.955  -4.248  1.00  0.00    -0.550 OA
ENDBRANCH   7   8
ENDBRANCH   6   7
ENDBRANCH   5   6
ENDBRANCH   4   5
ENDBRANCH   3   4
ENDBRANCH   2   3
ENDBRANCH   1   2
BRANCH   1  11
ATOM     11  C   UNL     1       7.725   9.547   3.738  1.00  0.00     0.000 C 
BRANCH  11  12
ATOM     12  C   UNL     1       8.198  11.006   3.622  1.00  0.00     0.000 C 
BRANCH  12  13
ATOM     13  C   UNL     1       8.990  11.264   2.329  1.00  0.00     0.000 C 
BRANCH  13  14
ATOM     14  C   UNL     1       8.516  12.528   1.591  1.00  0.00     0.000 C 
BRANCH  14  15
ATOM     15  C   UNL     1       6.984  12.605   1.459  1.00  0.00     0.000 C 
BRANCH  15  16
ATOM     16  C   UNL     1       6.468  13.622   0.424  1.00  0.00     0.006 C 
BRANCH  16  17
ATOM     17  C   UNL     1       6.110  12.978  -0.921  1.00  0.00     0.053 C 
BRANCH  17  18
ATOM     18  C   UNL     1       4.638  13.075  -1.169  1.00  0.00     0.041 C 
ATOM     19  O   UNL     1       3.994  12.066  -1.563  1.00  0.00    -0.550 OA
ATOM     20  O   UNL     1       3.967  14.263  -0.914  1.00  0.00    -0.550 OA
ENDBRANCH  17  18
ENDBRANCH  16  17
ENDBRANCH  15  16
ENDBRANCH  14  15
ENDBRANCH  13  14
ENDBRANCH  12  13
ENDBRANCH  11  12
ENDBRANCH   1  11
TORSDOF 15
ENDMDL
