MODEL 1
REMARK VINA RESULT:    -2.859      0.000      0.000
REMARK INTER + INTRA:          -3.110
REMARK INTER:                  -3.110
REMARK INTRA:                   0.000
REMARK UNBOUND:                 0.000
REMARK SMILES [NH3+]CC(=O)[O-]
REMARK SMILES IDX 2 1 1 2 3 6 4 7 5 8
REMARK H PARENT 1 3 1 4 1 5
REMARK Flexibility Score: inf
ROOT
ATOM      1  C   UNL     1       7.146  67.313  32.919  1.00  0.00     0.312 C 
ENDROOT
BRANCH   1   2
ATOM      2  N   UNL     1       5.928  68.046  32.575  1.00  0.00    -0.353 N 
ATOM      3  H   UNL     1       5.859  68.917  33.150  1.00  0.00     0.344 HD
ATOM      4  H   UNL     1       5.089  67.444  32.740  1.00  0.00     0.344 HD
ATOM      5  H   UNL     1       5.963  68.310  31.563  1.00  0.00     0.344 HD
ENDBRANCH   1   2
BRANCH   1   6
ATOM      6  C   UNL     1       7.231  66.037  32.141  1.00  0.00     0.096 C 
ATOM      7  O   UNL     1       6.906  64.945  32.679  1.00  0.00    -0.544 OA
ATOM      8  O   UNL     1       7.716  66.046  30.840  1.00  0.00    -0.544 OA
ENDBRANCH   1   6
TORSDOF 2
ENDMDL
MODEL 2
REMARK VINA RESULT:    -2.804     10.989     11.429
REMARK INTER + INTRA:          -3.050
REMARK INTER:                  -3.050
REMARK INTRA:                   0.000
REMARK UNBOUND:                 0.000
REMARK SMILES [NH3+]CC(=O)[O-]
REMARK SMILES IDX 2 1 1 2 3 6 4 7 5 8
REMARK H PARENT 1 3 1 4 1 5
REMARK Flexibility Score: inf
ROOT
ATOM      1  C   UNL     1      -1.548  61.916  38.327  1.00  0.00     0.312 C 
ENDROOT
BRANCH   1   2
ATOM      2  N   UNL     1      -0.445  61.687  39.258  1.00  0.00    -0.353 N 
ATOM      3  H   UNL     1       0.088  60.831  38.979  1.00  0.00     0.344 HD
ATOM      4  H   UNL     1      -0.813  61.575  40.230  1.00  0.00     0.344 HD
ATOM      5  H   UNL     1       0.201  62.511  39.232  1.00  0.00     0.344 HD
ENDBRANCH   1   2
BRANCH   1   6
ATOM      6  C   UNL     1      -1.495  60.936  37.195  1.00  0.00     0.096 C 
ATOM      7  O   UNL     1      -1.123  61.310  36.051  1.00  0.00    -0.544 OA
ATOM      8  O   UNL     1      -1.903  59.624  37.392  1.00  0.00    -0.544 OA
ENDBRANCH   1   6
TORSDOF 2
ENDMDL
MODEL 3
REMARK VINA RESULT:    -2.778      2.050      2.253
REMARK INTER + INTRA:          -3.022
REMARK INTER:                  -3.022
REMARK INTRA:                   0.000
REMARK UNBOUND:                 0.000
REMARK SMILES [NH3+]CC(=O)[O-]
REMARK SMILES IDX 2 1 1 2 3 6 4 7 5 8
REMARK H PARENT 1 3 1 4 1 5
REMARK Flexibility Score: inf
ROOT
ATOM      1  C   UNL     1       6.975  66.970  32.504  1.00  0.00     0.312 C 
ENDROOT
BRANCH   1   2
ATOM      2  N   UNL     1       5.963  68.022  32.582  1.00  0.00    -0.353 N 
ATOM      3  H   UNL     1       6.043  68.530  33.493  1.00  0.00     0.344 HD
ATOM      4  H   UNL     1       5.007  67.608  32.490  1.00  0.00     0.344 HD
ATOM      5  H   UNL     1       6.115  68.701  31.801  1.00  0.00     0.344 HD
ENDBRANCH   1   2
BRANCH   1   6
ATOM      6  C   UNL     1       7.800  66.939  33.755  1.00  0.00     0.096 C 
ATOM      7  O   UNL     1       8.000  65.849  34.353  1.00  0.00    -0.544 OA
ATOM      8  O   UNL     1       8.304  68.119  34.285  1.00  0.00    -0.544 OA
ENDBRANCH   1   6
TORSDOF 2
ENDMDL
MODEL 4
REMARK VINA RESULT:    -2.775      9.737      9.957
REMARK INTER + INTRA:          -3.019
REMARK INTER:                  -3.019
REMARK INTRA:                   0.000
REMARK UNBOUND:                 0.000
REMARK SMILES [NH3+]CC(=O)[O-]
REMARK SMILES IDX 2 1 1 2 3 6 4 7 5 8
REMARK H PARENT 1 3 1 4 1 5
REMARK Flexibility Score: inf
ROOT
ATOM      1  C   UNL     1      -0.999  63.659  29.458  1.00  0.00     0.312 C 
ENDROOT
BRANCH   1   2
ATOM      2  N   UNL     1       0.029  63.425  28.444  1.00  0.00    -0.353 N 
ATOM      3  H   UNL     1       0.337  64.335  28.030  1.00  0.00     0.344 HD
ATOM      4  H   UNL     1      -0.344  62.801  27.692  1.00  0.00     0.344 HD
ATOM      5  H   UNL     1       0.853  62.961  28.893  1.00  0.00     0.344 HD
ENDBRANCH   1   2
BRANCH   1   6
ATOM      6  C   UNL     1      -2.006  62.550  29.453  1.00  0.00     0.096 C 
ATOM      7  O   UNL     1      -2.425  62.071  30.540  1.00  0.00    -0.544 OA
ATOM      8  O   UNL     1      -2.443  62.013  28.249  1.00  0.00    -0.544 OA
ENDBRANCH   1   6
TORSDOF 2
ENDMDL
MODEL 5
REMARK VINA RESULT:    -2.755      9.335      9.660
REMARK INTER + INTRA:          -2.997
REMARK INTER:                  -2.997
REMARK INTRA:                   0.000
REMARK UNBOUND:                 0.000
REMARK SMILES [NH3+]CC(=O)[O-]
REMARK SMILES IDX 2 1 1 2 3 6 4 7 5 8
REMARK H PARENT 1 3 1 4 1 5
REMARK Flexibility Score: inf
ROOT
ATOM      1  C   UNL     1      -0.961  63.721  29.455  1.00  0.00     0.312 C 
ENDROOT
BRANCH   1   2
ATOM      2  N   UNL     1       0.052  63.437  28.439  1.00  0.00    -0.353 N 
ATOM      3  H   UNL     1       0.444  64.331  28.064  1.00  0.00     0.344 HD
ATOM      4  H   UNL     1      -0.368  62.879  27.660  1.00  0.00     0.344 HD
ATOM      5  H   UNL     1       0.826  62.883  28.874  1.00  0.00     0.344 HD
ENDBRANCH   1   2
BRANCH   1   6
ATOM      6  C   UNL     1      -1.596  62.452  29.935  1.00  0.00     0.096 C 
ATOM      7  O   UNL     1      -2.318  61.772  29.157  1.00  0.00    -0.544 OA
ATOM      8  O   UNL     1      -1.433  62.047  31.253  1.00  0.00    -0.544 OA
ENDBRANCH   1   6
TORSDOF 2
ENDMDL
MODEL 6
REMARK VINA RESULT:    -2.754     11.385     11.793
REMARK INTER + INTRA:          -2.996
REMARK INTER:                  -2.996
REMARK INTRA:                   0.000
REMARK UNBOUND:                 0.000
REMARK SMILES [NH3+]CC(=O)[O-]
REMARK SMILES IDX 2 1 1 2 3 6 4 7 5 8
REMARK H PARENT 1 3 1 4 1 5
REMARK Flexibility Score: inf
ROOT
ATOM      1  C   UNL     1      -1.282  61.282  38.159  1.00  0.00     0.312 C 
ENDROOT
BRANCH   1   2
ATOM      2  N   UNL     1      -0.368  61.663  39.235  1.00  0.00    -0.353 N 
ATOM      3  H   UNL     1       0.600  61.782  38.857  1.00  0.00     0.344 HD
ATOM      4  H   UNL     1      -0.370  60.932  39.983  1.00  0.00     0.344 HD
ATOM      5  H   UNL     1      -0.686  62.571  39.647  1.00  0.00     0.344 HD
ENDBRANCH   1   2
BRANCH   1   6
ATOM      6  C   UNL     1      -2.279  62.371  37.904  1.00  0.00     0.096 C 
ATOM      7  O   UNL     1      -2.450  62.811  36.736  1.00  0.00    -0.544 OA
ATOM      8  O   UNL     1      -2.981  62.932  38.962  1.00  0.00    -0.544 OA
ENDBRANCH   1   6
TORSDOF 2
ENDMDL
MODEL 7
REMARK VINA RESULT:    -2.725      7.871      8.262
REMARK INTER + INTRA:          -2.964
REMARK INTER:                  -2.964
REMARK INTRA:                   0.000
REMARK UNBOUND:                 0.000
REMARK SMILES [NH3+]CC(=O)[O-]
REMARK SMILES IDX 2 1 1 2 3 6 4 7 5 8
REMARK H PARENT 1 3 1 4 1 5
REMARK Flexibility Score: inf
ROOT
ATOM      1  C   UNL     1       6.910  58.643  36.340  1.00  0.00     0.312 C 
ENDROOT
BRANCH   1   2
ATOM      2  N   UNL     1       6.291  57.486  35.694  1.00  0.00    -0.353 N 
ATOM      3  H   UNL     1       6.793  56.611  35.969  1.00  0.00     0.344 HD
ATOM      4  H   UNL     1       6.317  57.599  34.654  1.00  0.00     0.344 HD
ATOM      5  H   UNL     1       5.294  57.416  36.002  1.00  0.00     0.344 HD
ENDBRANCH   1   2
BRANCH   1   6
ATOM      6  C   UNL     1       7.344  59.648  35.317  1.00  0.00     0.096 C 
ATOM      7  O   UNL     1       7.021  60.859  35.444  1.00  0.00    -0.544 OA
ATOM      8  O   UNL     1       8.060  59.239  34.201  1.00  0.00    -0.544 OA
ENDBRANCH   1   6
TORSDOF 2
ENDMDL
MODEL 8
REMARK VINA RESULT:    -2.707      8.443      8.849
REMARK INTER + INTRA:          -2.945
REMARK INTER:                  -2.945
REMARK INTRA:                   0.000
REMARK UNBOUND:                 0.000
REMARK SMILES [NH3+]CC(=O)[O-]
REMARK SMILES IDX 2 1 1 2 3 6 4 7 5 8
REMARK H PARENT 1 3 1 4 1 5
REMARK Flexibility Score: inf
ROOT
ATOM      1  C   UNL     1       7.109  58.489  35.925  1.00  0.00     0.312 C 
ENDROOT
BRANCH   1   2
ATOM      2  N   UNL     1       6.131  57.414  35.762  1.00  0.00    -0.353 N 
ATOM      3  H   UNL     1       6.369  56.837  34.923  1.00  0.00     0.344 HD
ATOM      4  H   UNL     1       5.171  57.814  35.657  1.00  0.00     0.344 HD
ATOM      5  H   UNL     1       6.153  56.802  36.611  1.00  0.00     0.344 HD
ENDBRANCH   1   2
BRANCH   1   6
ATOM      6  C   UNL     1       8.111  58.463  34.812  1.00  0.00     0.096 C 
ATOM      7  O   UNL     1       8.710  57.392  34.525  1.00  0.00    -0.544 OA
ATOM      8  O   UNL     1       8.421  59.630  34.127  1.00  0.00    -0.544 OA
ENDBRANCH   1   6
TORSDOF 2
ENDMDL
MODEL 9
REMARK VINA RESULT:    -2.654     18.815     19.151
REMARK INTER + INTRA:          -2.887
REMARK INTER:                  -2.887
REMARK INTRA:                   0.000
REMARK UNBOUND:                 0.000
REMARK SMILES [NH3+]CC(=O)[O-]
REMARK SMILES IDX 2 1 1 2 3 6 4 7 5 8
REMARK H PARENT 1 3 1 4 1 5
REMARK Flexibility Score: inf
ROOT
ATOM      1  C   UNL     1      -6.170  55.573  41.855  1.00  0.00     0.312 C 
ENDROOT
BRANCH   1   2
ATOM      2  N   UNL     1      -6.631  54.414  42.618  1.00  0.00    -0.353 N 
ATOM      3  H   UNL     1      -7.072  53.715  41.978  1.00  0.00     0.344 HD
ATOM      4  H   UNL     1      -7.321  54.713  43.345  1.00  0.00     0.344 HD
ATOM      5  H   UNL     1      -5.811  53.969  43.092  1.00  0.00     0.344 HD
ENDBRANCH   1   2
BRANCH   1   6
ATOM      6  C   UNL     1      -4.676  55.576  41.753  1.00  0.00     0.096 C 
ATOM      7  O   UNL     1      -3.975  55.929  42.738  1.00  0.00    -0.544 OA
ATOM      8  O   UNL     1      -4.060  55.238  40.556  1.00  0.00    -0.544 OA
ENDBRANCH   1   6
TORSDOF 2
ENDMDL
