MODEL 1
REMARK VINA RESULT:    -4.671      0.000      0.000
REMARK INTER + INTRA:          -7.321
REMARK INTER:                  -7.129
REMARK INTRA:                  -0.192
REMARK UNBOUND:                -0.192
REMARK SMILES CCCCCCCCCCC(=O)[O-]
REMARK SMILES IDX 7 1 8 2 9 3 10 4 11 5 12 6 13 7 6 8 5 9 4 10 3 11 2 12 1 13
REMARK H PARENT
REMARK Flexibility Score: inf
ROOT
ATOM      1  C   UNL     1      42.156  12.768 -36.201  1.00  0.00     0.000 C 
ENDROOT
BRANCH   1   2
ATOM      2  C   UNL     1      40.665  12.951 -35.880  1.00  0.00     0.000 C 
BRANCH   2   3
ATOM      3  C   UNL     1      40.242  14.428 -35.843  1.00  0.00     0.006 C 
BRANCH   3   4
ATOM      4  C   UNL     1      38.780  14.568 -35.408  1.00  0.00     0.053 C 
BRANCH   4   5
ATOM      5  C   UNL     1      37.921  13.575 -36.126  1.00  0.00     0.041 C 
ATOM      6  O   UNL     1      37.413  12.608 -35.500  1.00  0.00    -0.550 OA
ATOM      7  O   UNL     1      37.642  13.745 -37.475  1.00  0.00    -0.550 OA
ENDBRANCH   4   5
ENDBRANCH   3   4
ENDBRANCH   2   3
ENDBRANCH   1   2
BRANCH   1   8
ATOM      8  C   UNL     1      42.877  11.875 -35.177  1.00  0.00     0.000 C 
BRANCH   8   9
ATOM      9  C   UNL     1      44.236  12.449 -34.737  1.00  0.00    -0.000 C 
BRANCH   9  10
ATOM     10  C   UNL     1      44.444  12.541 -33.211  1.00  0.00    -0.000 C 
BRANCH  10  11
ATOM     11  C   UNL     1      45.888  12.837 -32.762  1.00  0.00    -0.000 C 
BRANCH  11  12
ATOM     12  C   UNL     1      46.360  12.036 -31.535  1.00  0.00    -0.003 C 
ATOM     13  C   UNL     1      45.870  12.629 -30.214  1.00  0.00     0.004 C 
ENDBRANCH  11  12
ENDBRANCH  10  11
ENDBRANCH   9  10
ENDBRANCH   8   9
ENDBRANCH   1   8
TORSDOF 9
ENDMDL
MODEL 2
REMARK VINA RESULT:    -4.362      4.136      7.545
REMARK INTER + INTRA:          -6.849
REMARK INTER:                  -6.539
REMARK INTRA:                  -0.310
REMARK UNBOUND:                -0.192
REMARK SMILES CCCCCCCCCCC(=O)[O-]
REMARK SMILES IDX 7 1 8 2 9 3 10 4 11 5 12 6 13 7 6 8 5 9 4 10 3 11 2 12 1 13
REMARK H PARENT
REMARK Flexibility Score: inf
ROOT
ATOM      1  C   UNL     1      44.172  12.285 -34.764  1.00  0.00     0.000 C 
ENDROOT
BRANCH   1   2
ATOM      2  C   UNL     1      44.176  12.463 -33.238  1.00  0.00     0.000 C 
BRANCH   2   3
ATOM      3  C   UNL     1      45.526  12.961 -32.701  1.00  0.00     0.006 C 
BRANCH   3   4
ATOM      4  C   UNL     1      46.126  11.958 -31.711  1.00  0.00     0.053 C 
BRANCH   4   5
ATOM      5  C   UNL     1      46.079  12.503 -30.318  1.00  0.00     0.041 C 
ATOM      6  O   UNL     1      46.638  11.883 -29.376  1.00  0.00    -0.550 OA
ATOM      7  O   UNL     1      45.460  13.721 -30.070  1.00  0.00    -0.550 OA
ENDBRANCH   4   5
ENDBRANCH   3   4
ENDBRANCH   2   3
ENDBRANCH   1   2
BRANCH   1   8
ATOM      8  C   UNL     1      42.778  11.944 -35.317  1.00  0.00     0.000 C 
BRANCH   8   9
ATOM      9  C   UNL     1      42.369  12.840 -36.500  1.00  0.00    -0.000 C 
BRANCH   9  10
ATOM     10  C   UNL     1      41.330  13.931 -36.166  1.00  0.00    -0.000 C 
BRANCH  10  11
ATOM     11  C   UNL     1      39.993  13.414 -35.601  1.00  0.00    -0.000 C 
BRANCH  11  12
ATOM     12  C   UNL     1      38.744  14.136 -36.138  1.00  0.00    -0.003 C 
ATOM     13  C   UNL     1      37.495  13.257 -36.117  1.00  0.00     0.004 C 
ENDBRANCH  11  12
ENDBRANCH  10  11
ENDBRANCH   9  10
ENDBRANCH   8   9
ENDBRANCH   1   8
TORSDOF 9
ENDMDL
MODEL 3
REMARK VINA RESULT:    -3.820     20.444     22.066
REMARK INTER + INTRA:          -6.022
REMARK INTER:                  -5.129
REMARK INTRA:                  -0.893
REMARK UNBOUND:                -0.192
REMARK SMILES CCCCCCCCCCC(=O)[O-]
REMARK SMILES IDX 7 1 8 2 9 3 10 4 11 5 12 6 13 7 6 8 5 9 4 10 3 11 2 12 1 13
REMARK H PARENT
REMARK Flexibility Score: inf
ROOT
ATOM      1  C   UNL     1      55.333  31.360 -33.136  1.00  0.00     0.000 C 
ENDROOT
BRANCH   1   2
ATOM      2  C   UNL     1      56.345  31.183 -34.279  1.00  0.00     0.000 C 
BRANCH   2   3
ATOM      3  C   UNL     1      55.763  31.560 -35.651  1.00  0.00     0.006 C 
BRANCH   3   4
ATOM      4  C   UNL     1      55.604  30.322 -36.538  1.00  0.00     0.053 C 
BRANCH   4   5
ATOM      5  C   UNL     1      54.769  30.639 -37.738  1.00  0.00     0.041 C 
ATOM      6  O   UNL     1      53.702  31.295 -37.611  1.00  0.00    -0.550 OA
ATOM      7  O   UNL     1      55.194  30.253 -39.002  1.00  0.00    -0.550 OA
ENDBRANCH   4   5
ENDBRANCH   3   4
ENDBRANCH   2   3
ENDBRANCH   1   2
BRANCH   1   8
ATOM      8  C   UNL     1      55.642  30.458 -31.929  1.00  0.00     0.000 C 
BRANCH   8   9
ATOM      9  C   UNL     1      57.008  29.757 -32.041  1.00  0.00    -0.000 C 
BRANCH   9  10
ATOM     10  C   UNL     1      56.950  28.217 -32.097  1.00  0.00    -0.000 C 
BRANCH  10  11
ATOM     11  C   UNL     1      57.023  27.608 -33.511  1.00  0.00    -0.000 C 
BRANCH  11  12
ATOM     12  C   UNL     1      55.660  27.414 -34.200  1.00  0.00    -0.003 C 
ATOM     13  C   UNL     1      55.681  26.312 -35.259  1.00  0.00     0.004 C 
ENDBRANCH  11  12
ENDBRANCH  10  11
ENDBRANCH   9  10
ENDBRANCH   8   9
ENDBRANCH   1   8
TORSDOF 9
ENDMDL
MODEL 4
REMARK VINA RESULT:    -3.794     20.457     21.622
REMARK INTER + INTRA:          -5.982
REMARK INTER:                  -5.419
REMARK INTRA:                  -0.563
REMARK UNBOUND:                -0.192
REMARK SMILES CCCCCCCCCCC(=O)[O-]
REMARK SMILES IDX 7 1 8 2 9 3 10 4 11 5 12 6 13 7 6 8 5 9 4 10 3 11 2 12 1 13
REMARK H PARENT
REMARK Flexibility Score: inf
ROOT
ATOM      1  C   UNL     1      56.687  26.906 -34.707  1.00  0.00     0.000 C 
ENDROOT
BRANCH   1   2
ATOM      2  C   UNL     1      55.725  27.724 -35.582  1.00  0.00     0.000 C 
BRANCH   2   3
ATOM      3  C   UNL     1      56.445  28.804 -36.405  1.00  0.00     0.006 C 
BRANCH   3   4
ATOM      4  C   UNL     1      55.517  29.993 -36.677  1.00  0.00     0.053 C 
BRANCH   4   5
ATOM      5  C   UNL     1      54.944  29.905 -38.057  1.00  0.00     0.041 C 
ATOM      6  O   UNL     1      55.113  30.849 -38.874  1.00  0.00    -0.550 OA
ATOM      7  O   UNL     1      54.267  28.761 -38.457  1.00  0.00    -0.550 OA
ENDBRANCH   4   5
ENDBRANCH   3   4
ENDBRANCH   2   3
ENDBRANCH   1   2
BRANCH   1   8
ATOM      8  C   UNL     1      57.125  27.663 -33.441  1.00  0.00     0.000 C 
BRANCH   8   9
ATOM      9  C   UNL     1      55.942  28.287 -32.680  1.00  0.00    -0.000 C 
BRANCH   9  10
ATOM     10  C   UNL     1      55.909  29.829 -32.671  1.00  0.00    -0.000 C 
BRANCH  10  11
ATOM     11  C   UNL     1      55.730  30.475 -31.283  1.00  0.00    -0.000 C 
BRANCH  11  12
ATOM     12  C   UNL     1      55.948  29.520 -30.096  1.00  0.00    -0.003 C 
ATOM     13  C   UNL     1      56.335  30.250 -28.810  1.00  0.00     0.004 C 
ENDBRANCH  11  12
ENDBRANCH  10  11
ENDBRANCH   9  10
ENDBRANCH   8   9
ENDBRANCH   1   8
TORSDOF 9
ENDMDL
MODEL 5
REMARK VINA RESULT:    -3.768     20.894     22.130
REMARK INTER + INTRA:          -5.942
REMARK INTER:                  -4.897
REMARK INTRA:                  -1.045
REMARK UNBOUND:                -0.192
REMARK SMILES CCCCCCCCCCC(=O)[O-]
REMARK SMILES IDX 7 1 8 2 9 3 10 4 11 5 12 6 13 7 6 8 5 9 4 10 3 11 2 12 1 13
REMARK H PARENT
REMARK Flexibility Score: inf
ROOT
ATOM      1  C   UNL     1      56.113  27.814 -33.435  1.00  0.00     0.000 C 
ENDROOT
BRANCH   1   2
ATOM      2  C   UNL     1      57.123  27.693 -34.587  1.00  0.00     0.000 C 
BRANCH   2   3
ATOM      3  C   UNL     1      56.917  28.762 -35.672  1.00  0.00     0.006 C 
BRANCH   3   4
ATOM      4  C   UNL     1      55.584  28.555 -36.398  1.00  0.00     0.053 C 
BRANCH   4   5
ATOM      5  C   UNL     1      55.220  29.775 -37.183  1.00  0.00     0.041 C 
ATOM      6  O   UNL     1      54.459  29.682 -38.182  1.00  0.00    -0.550 OA
ATOM      7  O   UNL     1      55.682  31.022 -36.783  1.00  0.00    -0.550 OA
ENDBRANCH   4   5
ENDBRANCH   3   4
ENDBRANCH   2   3
ENDBRANCH   1   2
BRANCH   1   8
ATOM      8  C   UNL     1      56.793  28.061 -32.077  1.00  0.00     0.000 C 
BRANCH   8   9
ATOM      9  C   UNL     1      55.882  28.801 -31.080  1.00  0.00    -0.000 C 
BRANCH   9  10
ATOM     10  C   UNL     1      55.980  30.340 -31.121  1.00  0.00    -0.000 C 
BRANCH  10  11
ATOM     11  C   UNL     1      54.893  31.045 -31.955  1.00  0.00    -0.000 C 
BRANCH  11  12
ATOM     12  C   UNL     1      55.377  31.605 -33.305  1.00  0.00    -0.003 C 
ATOM     13  C   UNL     1      56.899  31.607 -33.436  1.00  0.00     0.004 C 
ENDBRANCH  11  12
ENDBRANCH  10  11
ENDBRANCH   9  10
ENDBRANCH   8   9
ENDBRANCH   1   8
TORSDOF 9
ENDMDL
MODEL 6
REMARK VINA RESULT:    -3.746     20.457     22.119
REMARK INTER + INTRA:          -5.909
REMARK INTER:                  -5.362
REMARK INTRA:                  -0.546
REMARK UNBOUND:                -0.192
REMARK SMILES CCCCCCCCCCC(=O)[O-]
REMARK SMILES IDX 7 1 8 2 9 3 10 4 11 5 12 6 13 7 6 8 5 9 4 10 3 11 2 12 1 13
REMARK H PARENT
REMARK Flexibility Score: inf
ROOT
ATOM      1  C   UNL     1      56.229  27.711 -33.436  1.00  0.00     0.000 C 
ENDROOT
BRANCH   1   2
ATOM      2  C   UNL     1      57.125  28.011 -32.224  1.00  0.00     0.000 C 
BRANCH   2   3
ATOM      3  C   UNL     1      57.058  29.483 -31.786  1.00  0.00     0.006 C 
BRANCH   3   4
ATOM      4  C   UNL     1      55.614  29.903 -31.498  1.00  0.00     0.053 C 
BRANCH   4   5
ATOM      5  C   UNL     1      55.218  31.053 -32.370  1.00  0.00     0.041 C 
ATOM      6  O   UNL     1      55.811  31.252 -33.462  1.00  0.00    -0.550 OA
ATOM      7  O   UNL     1      54.161  31.874 -31.999  1.00  0.00    -0.550 OA
ENDBRANCH   4   5
ENDBRANCH   3   4
ENDBRANCH   2   3
ENDBRANCH   1   2
BRANCH   1   8
ATOM      8  C   UNL     1      57.039  27.374 -34.700  1.00  0.00     0.000 C 
BRANCH   8   9
ATOM      9  C   UNL     1      57.006  28.501 -35.748  1.00  0.00    -0.000 C 
BRANCH   9  10
ATOM     10  C   UNL     1      55.608  28.833 -36.309  1.00  0.00    -0.000 C 
BRANCH  10  11
ATOM     11  C   UNL     1      55.575  29.233 -37.796  1.00  0.00    -0.000 C 
BRANCH  11  12
ATOM     12  C   UNL     1      54.220  29.015 -38.493  1.00  0.00    -0.003 C 
ATOM     13  C   UNL     1      54.079  27.619 -39.096  1.00  0.00     0.004 C 
ENDBRANCH  11  12
ENDBRANCH  10  11
ENDBRANCH   9  10
ENDBRANCH   8   9
ENDBRANCH   1   8
TORSDOF 9
ENDMDL
MODEL 7
REMARK VINA RESULT:    -3.742     20.672     22.034
REMARK INTER + INTRA:          -5.903
REMARK INTER:                  -4.970
REMARK INTRA:                  -0.933
REMARK UNBOUND:                -0.192
REMARK SMILES CCCCCCCCCCC(=O)[O-]
REMARK SMILES IDX 7 1 8 2 9 3 10 4 11 5 12 6 13 7 6 8 5 9 4 10 3 11 2 12 1 13
REMARK H PARENT
REMARK Flexibility Score: inf
ROOT
ATOM      1  C   UNL     1      56.616  28.776 -35.690  1.00  0.00     0.000 C 
ENDROOT
BRANCH   1   2
ATOM      2  C   UNL     1      56.907  30.279 -35.556  1.00  0.00     0.000 C 
BRANCH   2   3
ATOM      3  C   UNL     1      55.629  31.130 -35.509  1.00  0.00     0.006 C 
BRANCH   3   4
ATOM      4  C   UNL     1      55.373  31.808 -36.858  1.00  0.00     0.053 C 
BRANCH   4   5
ATOM      5  C   UNL     1      54.195  31.188 -37.542  1.00  0.00     0.041 C 
ATOM      6  O   UNL     1      54.276  30.023 -38.010  1.00  0.00    -0.550 OA
ATOM      7  O   UNL     1      52.993  31.880 -37.618  1.00  0.00    -0.550 OA
ENDBRANCH   4   5
ENDBRANCH   3   4
ENDBRANCH   2   3
ENDBRANCH   1   2
BRANCH   1   8
ATOM      8  C   UNL     1      57.038  27.978 -34.444  1.00  0.00     0.000 C 
BRANCH   8   9
ATOM      9  C   UNL     1      55.852  27.637 -33.525  1.00  0.00    -0.000 C 
BRANCH   9  10
ATOM     10  C   UNL     1      56.028  28.049 -32.049  1.00  0.00    -0.000 C 
BRANCH  10  11
ATOM     11  C   UNL     1      56.840  29.338 -31.819  1.00  0.00    -0.000 C 
BRANCH  11  12
ATOM     12  C   UNL     1      56.086  30.450 -31.069  1.00  0.00    -0.003 C 
ATOM     13  C   UNL     1      54.958  31.066 -31.896  1.00  0.00     0.004 C 
ENDBRANCH  11  12
ENDBRANCH  10  11
ENDBRANCH   9  10
ENDBRANCH   8   9
ENDBRANCH   1   8
TORSDOF 9
ENDMDL
MODEL 8
REMARK VINA RESULT:    -3.474     20.571     22.215
REMARK INTER + INTRA:          -5.494
REMARK INTER:                  -4.955
REMARK INTRA:                  -0.538
REMARK UNBOUND:                -0.192
REMARK SMILES CCCCCCCCCCC(=O)[O-]
REMARK SMILES IDX 7 1 8 2 9 3 10 4 11 5 12 6 13 7 6 8 5 9 4 10 3 11 2 12 1 13
REMARK H PARENT
REMARK Flexibility Score: inf
ROOT
ATOM      1  C   UNL     1      56.367  31.453 -35.083  1.00  0.00     0.000 C 
ENDROOT
BRANCH   1   2
ATOM      2  C   UNL     1      55.454  31.760 -33.886  1.00  0.00     0.000 C 
BRANCH   2   3
ATOM      3  C   UNL     1      56.136  31.493 -32.535  1.00  0.00     0.006 C 
BRANCH   3   4
ATOM      4  C   UNL     1      55.237  30.649 -31.626  1.00  0.00     0.053 C 
BRANCH   4   5
ATOM      5  C   UNL     1      55.954  29.413 -31.181  1.00  0.00     0.041 C 
ATOM      6  O   UNL     1      56.866  29.486 -30.317  1.00  0.00    -0.550 OA
ATOM      7  O   UNL     1      55.581  28.174 -31.686  1.00  0.00    -0.550 OA
ENDBRANCH   4   5
ENDBRANCH   3   4
ENDBRANCH   2   3
ENDBRANCH   1   2
BRANCH   1   8
ATOM      8  C   UNL     1      55.580  31.230 -36.386  1.00  0.00     0.000 C 
BRANCH   8   9
ATOM      9  C   UNL     1      55.714  29.795 -36.926  1.00  0.00    -0.000 C 
BRANCH   9  10
ATOM     10  C   UNL     1      56.584  28.851 -36.069  1.00  0.00    -0.000 C 
BRANCH  10  11
ATOM     11  C   UNL     1      55.817  28.014 -35.028  1.00  0.00    -0.000 C 
BRANCH  11  12
ATOM     12  C   UNL     1      56.159  26.514 -35.028  1.00  0.00    -0.003 C 
ATOM     13  C   UNL     1      55.114  25.666 -35.753  1.00  0.00     0.004 C 
ENDBRANCH  11  12
ENDBRANCH  10  11
ENDBRANCH   9  10
ENDBRANCH   8   9
ENDBRANCH   1   8
TORSDOF 9
ENDMDL
MODEL 9
REMARK VINA RESULT:    -3.392     20.692     22.288
REMARK INTER + INTRA:          -5.369
REMARK INTER:                  -4.624
REMARK INTRA:                  -0.744
REMARK UNBOUND:                -0.192
REMARK SMILES CCCCCCCCCCC(=O)[O-]
REMARK SMILES IDX 7 1 8 2 9 3 10 4 11 5 12 6 13 7 6 8 5 9 4 10 3 11 2 12 1 13
REMARK H PARENT
REMARK Flexibility Score: inf
ROOT
ATOM      1  C   UNL     1      56.332  28.644 -32.514  1.00  0.00     0.000 C 
ENDROOT
BRANCH   1   2
ATOM      2  C   UNL     1      55.929  27.647 -33.612  1.00  0.00     0.000 C 
BRANCH   2   3
ATOM      3  C   UNL     1      56.615  27.935 -34.957  1.00  0.00     0.006 C 
BRANCH   3   4
ATOM      4  C   UNL     1      55.602  27.913 -36.104  1.00  0.00     0.053 C 
BRANCH   4   5
ATOM      5  C   UNL     1      55.668  29.188 -36.887  1.00  0.00     0.041 C 
ATOM      6  O   UNL     1      55.958  30.269 -36.311  1.00  0.00    -0.550 OA
ATOM      7  O   UNL     1      55.457  29.172 -38.259  1.00  0.00    -0.550 OA
ENDBRANCH   4   5
ENDBRANCH   3   4
ENDBRANCH   2   3
ENDBRANCH   1   2
BRANCH   1   8
ATOM      8  C   UNL     1      57.125  29.841 -33.064  1.00  0.00     0.000 C 
BRANCH   8   9
ATOM      9  C   UNL     1      56.670  31.184 -32.466  1.00  0.00    -0.000 C 
BRANCH   9  10
ATOM     10  C   UNL     1      55.651  31.075 -31.312  1.00  0.00    -0.000 C 
BRANCH  10  11
ATOM     11  C   UNL     1      55.992  31.899 -30.055  1.00  0.00    -0.000 C 
BRANCH  11  12
ATOM     12  C   UNL     1      56.434  31.067 -28.838  1.00  0.00    -0.003 C 
ATOM     13  C   UNL     1      56.187  29.570 -29.020  1.00  0.00     0.004 C 
ENDBRANCH  11  12
ENDBRANCH  10  11
ENDBRANCH   9  10
ENDBRANCH   8   9
ENDBRANCH   1   8
TORSDOF 9
ENDMDL
