MODEL 1
REMARK VINA RESULT:    -4.889      0.000      0.000
REMARK INTER + INTRA:          -7.342
REMARK INTER:                  -6.604
REMARK INTRA:                  -0.737
REMARK UNBOUND:                -0.737
REMARK SMILES CCCCCCC=CC(=O)[O-]
REMARK SMILES IDX 5 1 6 2 7 3 8 4 9 5 10 6 11 7 4 8 3 9 2 10 1 11
REMARK H PARENT
REMARK Flexibility Score: inf
ROOT
ATOM      1  C   UNL     1      21.096 -22.393  -9.137  1.00  0.00     0.004 C 
ENDROOT
BRANCH   1   2
ATOM      2  C   UNL     1      21.638 -21.546 -10.296  1.00  0.00     0.027 C 
BRANCH   2   3
ATOM      3  C   UNL     1      23.079 -21.172 -10.073  1.00  0.00    -0.025 C 
ATOM      4  C   UNL     1      24.147 -21.837 -10.544  1.00  0.00     0.020 C 
BRANCH   4   5
ATOM      5  C   UNL     1      24.132 -23.039 -11.404  1.00  0.00     0.064 C 
ATOM      6  O   UNL     1      24.300 -24.196 -10.940  1.00  0.00    -0.545 OA
ATOM      7  O   UNL     1      23.903 -22.886 -12.765  1.00  0.00    -0.545 OA
ENDBRANCH   4   5
ENDBRANCH   2   3
ENDBRANCH   1   2
BRANCH   1   8
ATOM      8  C   UNL     1      20.632 -23.769  -9.634  1.00  0.00     0.000 C 
BRANCH   8   9
ATOM      9  C   UNL     1      20.578 -23.857 -11.167  1.00  0.00    -0.000 C 
BRANCH   9  10
ATOM     10  C   UNL     1      20.992 -25.238 -11.696  1.00  0.00    -0.003 C 
ATOM     11  C   UNL     1      20.668 -26.334 -10.685  1.00  0.00     0.004 C 
ENDBRANCH   9  10
ENDBRANCH   8   9
ENDBRANCH   1   8
TORSDOF 6
ENDMDL
MODEL 2
REMARK VINA RESULT:    -4.851      1.333      1.944
REMARK INTER + INTRA:          -7.290
REMARK INTER:                  -6.424
REMARK INTRA:                  -0.866
REMARK UNBOUND:                -0.737
REMARK SMILES CCCCCCC=CC(=O)[O-]
REMARK SMILES IDX 5 1 6 2 7 3 8 4 9 5 10 6 11 7 4 8 3 9 2 10 1 11
REMARK H PARENT
REMARK Flexibility Score: inf
ROOT
ATOM      1  C   UNL     1      21.555 -21.754 -10.406  1.00  0.00     0.004 C 
ENDROOT
BRANCH   1   2
ATOM      2  C   UNL     1      23.043 -21.397 -10.285  1.00  0.00     0.027 C 
BRANCH   2   3
ATOM      3  C   UNL     1      23.868 -22.136 -11.304  1.00  0.00    -0.025 C 
ATOM      4  C   UNL     1      24.507 -23.301 -11.107  1.00  0.00     0.020 C 
BRANCH   4   5
ATOM      5  C   UNL     1      24.502 -24.113  -9.872  1.00  0.00     0.064 C 
ATOM      6  O   UNL     1      23.890 -25.210  -9.794  1.00  0.00    -0.545 OA
ATOM      7  O   UNL     1      25.213 -23.660  -8.769  1.00  0.00    -0.545 OA
ENDBRANCH   4   5
ENDBRANCH   2   3
ENDBRANCH   1   2
BRANCH   1   8
ATOM      8  C   UNL     1      21.088 -22.575  -9.196  1.00  0.00     0.000 C 
BRANCH   8   9
ATOM      9  C   UNL     1      20.623 -23.987  -9.583  1.00  0.00    -0.000 C 
BRANCH   9  10
ATOM     10  C   UNL     1      20.525 -24.183 -11.103  1.00  0.00    -0.003 C 
ATOM     11  C   UNL     1      20.861 -25.618 -11.496  1.00  0.00     0.004 C 
ENDBRANCH   9  10
ENDBRANCH   8   9
ENDBRANCH   1   8
TORSDOF 6
ENDMDL
MODEL 3
REMARK VINA RESULT:    -4.778      1.900      4.055
REMARK INTER + INTRA:          -7.191
REMARK INTER:                  -6.400
REMARK INTRA:                  -0.791
REMARK UNBOUND:                -0.737
REMARK SMILES CCCCCCC=CC(=O)[O-]
REMARK SMILES IDX 5 1 6 2 7 3 8 4 9 5 10 6 11 7 4 8 3 9 2 10 1 11
REMARK H PARENT
REMARK Flexibility Score: inf
ROOT
ATOM      1  C   UNL     1      22.968 -22.561  -8.061  1.00  0.00     0.004 C 
ENDROOT
BRANCH   1   2
ATOM      2  C   UNL     1      21.605 -21.939  -8.390  1.00  0.00     0.027 C 
BRANCH   2   3
ATOM      3  C   UNL     1      21.525 -21.528  -9.836  1.00  0.00    -0.025 C 
ATOM      4  C   UNL     1      21.358 -22.353 -10.882  1.00  0.00     0.020 C 
BRANCH   4   5
ATOM      5  C   UNL     1      21.179 -23.820 -10.830  1.00  0.00     0.064 C 
ATOM      6  O   UNL     1      20.043 -24.353 -10.735  1.00  0.00    -0.545 OA
ATOM      7  O   UNL     1      22.300 -24.635 -10.909  1.00  0.00    -0.545 OA
ENDBRANCH   4   5
ENDBRANCH   2   3
ENDBRANCH   1   2
BRANCH   1   8
ATOM      8  C   UNL     1      24.112 -21.670  -8.564  1.00  0.00     0.000 C 
BRANCH   8   9
ATOM      9  C   UNL     1      25.095 -22.424  -9.473  1.00  0.00    -0.000 C 
BRANCH   9  10
ATOM     10  C   UNL     1      25.079 -21.908 -10.919  1.00  0.00    -0.003 C 
ATOM     11  C   UNL     1      24.903 -20.393 -10.960  1.00  0.00     0.004 C 
ENDBRANCH   9  10
ENDBRANCH   8   9
ENDBRANCH   1   8
TORSDOF 6
ENDMDL
MODEL 4
REMARK VINA RESULT:    -4.771      1.983      4.362
REMARK INTER + INTRA:          -7.182
REMARK INTER:                  -6.430
REMARK INTRA:                  -0.752
REMARK UNBOUND:                -0.737
REMARK SMILES CCCCCCC=CC(=O)[O-]
REMARK SMILES IDX 5 1 6 2 7 3 8 4 9 5 10 6 11 7 4 8 3 9 2 10 1 11
REMARK H PARENT
REMARK Flexibility Score: inf
ROOT
ATOM      1  C   UNL     1      23.994 -24.346  -9.010  1.00  0.00     0.004 C 
ENDROOT
BRANCH   1   2
ATOM      2  C   UNL     1      23.710 -25.192 -10.259  1.00  0.00     0.027 C 
BRANCH   2   3
ATOM      3  C   UNL     1      22.257 -25.576 -10.340  1.00  0.00    -0.025 C 
ATOM      4  C   UNL     1      21.285 -24.865 -10.936  1.00  0.00     0.020 C 
BRANCH   4   5
ATOM      5  C   UNL     1      21.444 -23.589 -11.664  1.00  0.00     0.064 C 
ATOM      6  O   UNL     1      21.181 -22.478 -11.134  1.00  0.00    -0.545 OA
ATOM      7  O   UNL     1      21.919 -23.616 -12.968  1.00  0.00    -0.545 OA
ENDBRANCH   4   5
ENDBRANCH   2   3
ENDBRANCH   1   2
BRANCH   1   8
ATOM      8  C   UNL     1      24.537 -22.963  -9.397  1.00  0.00     0.000 C 
BRANCH   8   9
ATOM      9  C   UNL     1      24.969 -22.888 -10.870  1.00  0.00    -0.000 C 
BRANCH   9  10
ATOM     10  C   UNL     1      24.588 -21.555 -11.530  1.00  0.00    -0.003 C 
ATOM     11  C   UNL     1      24.993 -20.372 -10.656  1.00  0.00     0.004 C 
ENDBRANCH   9  10
ENDBRANCH   8   9
ENDBRANCH   1   8
TORSDOF 6
ENDMDL
MODEL 5
REMARK VINA RESULT:    -4.698      2.308      4.489
REMARK INTER + INTRA:          -7.082
REMARK INTER:                  -6.571
REMARK INTRA:                  -0.511
REMARK UNBOUND:                -0.737
REMARK SMILES CCCCCCC=CC(=O)[O-]
REMARK SMILES IDX 5 1 6 2 7 3 8 4 9 5 10 6 11 7 4 8 3 9 2 10 1 11
REMARK H PARENT
REMARK Flexibility Score: inf
ROOT
ATOM      1  C   UNL     1      24.627 -24.660  -8.796  1.00  0.00     0.004 C 
ENDROOT
BRANCH   1   2
ATOM      2  C   UNL     1      23.438 -25.230  -9.580  1.00  0.00     0.027 C 
BRANCH   2   3
ATOM      3  C   UNL     1      22.128 -24.783  -8.989  1.00  0.00    -0.025 C 
ATOM      4  C   UNL     1      21.009 -24.500  -9.676  1.00  0.00     0.020 C 
BRANCH   4   5
ATOM      5  C   UNL     1      20.819 -24.607 -11.139  1.00  0.00     0.064 C 
ATOM      6  O   UNL     1      20.739 -25.718 -11.724  1.00  0.00    -0.545 OA
ATOM      7  O   UNL     1      20.707 -23.442 -11.887  1.00  0.00    -0.545 OA
ENDBRANCH   4   5
ENDBRANCH   2   3
ENDBRANCH   1   2
BRANCH   1   8
ATOM      8  C   UNL     1      24.864 -23.186  -9.154  1.00  0.00     0.000 C 
BRANCH   8   9
ATOM      9  C   UNL     1      24.874 -22.940 -10.670  1.00  0.00    -0.000 C 
BRANCH   9  10
ATOM     10  C   UNL     1      24.071 -21.694 -11.073  1.00  0.00    -0.003 C 
ATOM     11  C   UNL     1      24.914 -20.430 -10.939  1.00  0.00     0.004 C 
ENDBRANCH   9  10
ENDBRANCH   8   9
ENDBRANCH   1   8
TORSDOF 6
ENDMDL
MODEL 6
REMARK VINA RESULT:    -4.688      1.714      4.034
REMARK INTER + INTRA:          -7.070
REMARK INTER:                  -6.563
REMARK INTRA:                  -0.507
REMARK UNBOUND:                -0.737
REMARK SMILES CCCCCCC=CC(=O)[O-]
REMARK SMILES IDX 5 1 6 2 7 3 8 4 9 5 10 6 11 7 4 8 3 9 2 10 1 11
REMARK H PARENT
REMARK Flexibility Score: inf
ROOT
ATOM      1  C   UNL     1      21.059 -23.000 -11.425  1.00  0.00     0.004 C 
ENDROOT
BRANCH   1   2
ATOM      2  C   UNL     1      20.353 -24.199 -10.777  1.00  0.00     0.027 C 
BRANCH   2   3
ATOM      3  C   UNL     1      20.978 -25.499 -11.208  1.00  0.00    -0.025 C 
ATOM      4  C   UNL     1      22.186 -25.954 -10.838  1.00  0.00     0.020 C 
BRANCH   4   5
ATOM      5  C   UNL     1      23.130 -25.299  -9.908  1.00  0.00     0.064 C 
ATOM      6  O   UNL     1      24.153 -24.687 -10.313  1.00  0.00    -0.545 OA
ATOM      7  O   UNL     1      22.869 -25.343  -8.546  1.00  0.00    -0.545 OA
ENDBRANCH   4   5
ENDBRANCH   2   3
ENDBRANCH   1   2
BRANCH   1   8
ATOM      8  C   UNL     1      21.507 -21.988 -10.361  1.00  0.00     0.000 C 
BRANCH   8   9
ATOM      9  C   UNL     1      20.960 -22.318  -8.963  1.00  0.00    -0.000 C 
BRANCH   9  10
ATOM     10  C   UNL     1      21.028 -21.120  -8.004  1.00  0.00    -0.003 C 
ATOM     11  C   UNL     1      19.630 -20.641  -7.623  1.00  0.00     0.004 C 
ENDBRANCH   9  10
ENDBRANCH   8   9
ENDBRANCH   1   8
TORSDOF 6
ENDMDL
MODEL 7
REMARK VINA RESULT:    -4.660      1.901      2.297
REMARK INTER + INTRA:          -7.032
REMARK INTER:                  -6.162
REMARK INTRA:                  -0.870
REMARK UNBOUND:                -0.737
REMARK SMILES CCCCCCC=CC(=O)[O-]
REMARK SMILES IDX 5 1 6 2 7 3 8 4 9 5 10 6 11 7 4 8 3 9 2 10 1 11
REMARK H PARENT
REMARK Flexibility Score: inf
ROOT
ATOM      1  C   UNL     1      21.429 -22.915 -10.674  1.00  0.00     0.004 C 
ENDROOT
BRANCH   1   2
ATOM      2  C   UNL     1      21.777 -21.504 -10.183  1.00  0.00     0.027 C 
BRANCH   2   3
ATOM      3  C   UNL     1      22.787 -21.547  -9.067  1.00  0.00    -0.025 C 
ATOM      4  C   UNL     1      24.122 -21.493  -9.210  1.00  0.00     0.020 C 
BRANCH   4   5
ATOM      5  C   UNL     1      24.869 -21.343 -10.476  1.00  0.00     0.064 C 
ATOM      6  O   UNL     1      25.214 -20.217 -10.921  1.00  0.00    -0.545 OA
ATOM      7  O   UNL     1      25.221 -22.482 -11.187  1.00  0.00    -0.545 OA
ENDBRANCH   4   5
ENDBRANCH   2   3
ENDBRANCH   1   2
BRANCH   1   8
ATOM      8  C   UNL     1      20.748 -23.729  -9.565  1.00  0.00     0.000 C 
BRANCH   8   9
ATOM      9  C   UNL     1      21.539 -24.990  -9.184  1.00  0.00    -0.000 C 
BRANCH   9  10
ATOM     10  C   UNL     1      22.776 -25.202 -10.070  1.00  0.00    -0.003 C 
ATOM     11  C   UNL     1      24.052 -25.229  -9.236  1.00  0.00     0.004 C 
ENDBRANCH   9  10
ENDBRANCH   8   9
ENDBRANCH   1   8
TORSDOF 6
ENDMDL
MODEL 8
REMARK VINA RESULT:    -4.655      1.823      2.335
REMARK INTER + INTRA:          -7.025
REMARK INTER:                  -6.308
REMARK INTRA:                  -0.718
REMARK UNBOUND:                -0.737
REMARK SMILES CCCCCCC=CC(=O)[O-]
REMARK SMILES IDX 5 1 6 2 7 3 8 4 9 5 10 6 11 7 4 8 3 9 2 10 1 11
REMARK H PARENT
REMARK Flexibility Score: inf
ROOT
ATOM      1  C   UNL     1      22.837 -24.849  -8.200  1.00  0.00     0.004 C 
ENDROOT
BRANCH   1   2
ATOM      2  C   UNL     1      23.938 -24.849  -9.268  1.00  0.00     0.027 C 
BRANCH   2   3
ATOM      3  C   UNL     1      24.906 -23.716  -9.057  1.00  0.00    -0.025 C 
ATOM      4  C   UNL     1      24.924 -22.558  -9.738  1.00  0.00     0.020 C 
BRANCH   4   5
ATOM      5  C   UNL     1      23.983 -22.142 -10.800  1.00  0.00     0.064 C 
ATOM      6  O   UNL     1      23.049 -21.326 -10.585  1.00  0.00    -0.545 OA
ATOM      7  O   UNL     1      24.147 -22.654 -12.080  1.00  0.00    -0.545 OA
ENDBRANCH   4   5
ENDBRANCH   2   3
ENDBRANCH   1   2
BRANCH   1   8
ATOM      8  C   UNL     1      21.467 -25.145  -8.825  1.00  0.00     0.000 C 
BRANCH   8   9
ATOM      9  C   UNL     1      20.873 -23.931  -9.555  1.00  0.00    -0.000 C 
BRANCH   9  10
ATOM     10  C   UNL     1      20.664 -24.185 -11.055  1.00  0.00    -0.003 C 
ATOM     11  C   UNL     1      20.743 -25.674 -11.376  1.00  0.00     0.004 C 
ENDBRANCH   9  10
ENDBRANCH   8   9
ENDBRANCH   1   8
TORSDOF 6
ENDMDL
MODEL 9
REMARK VINA RESULT:    -4.635      2.068      3.243
REMARK INTER + INTRA:          -6.998
REMARK INTER:                  -6.217
REMARK INTRA:                  -0.781
REMARK UNBOUND:                -0.737
REMARK SMILES CCCCCCC=CC(=O)[O-]
REMARK SMILES IDX 5 1 6 2 7 3 8 4 9 5 10 6 11 7 4 8 3 9 2 10 1 11
REMARK H PARENT
REMARK Flexibility Score: inf
ROOT
ATOM      1  C   UNL     1      21.502 -25.214  -9.677  1.00  0.00     0.004 C 
ENDROOT
BRANCH   1   2
ATOM      2  C   UNL     1      22.912 -25.102 -10.272  1.00  0.00     0.027 C 
BRANCH   2   3
ATOM      3  C   UNL     1      23.967 -25.223  -9.205  1.00  0.00    -0.025 C 
ATOM      4  C   UNL     1      24.801 -24.248  -8.807  1.00  0.00     0.020 C 
BRANCH   4   5
ATOM      5  C   UNL     1      24.830 -22.855  -9.300  1.00  0.00     0.064 C 
ATOM      6  O   UNL     1      24.508 -21.880  -8.572  1.00  0.00    -0.545 OA
ATOM      7  O   UNL     1      25.247 -22.613 -10.602  1.00  0.00    -0.545 OA
ENDBRANCH   4   5
ENDBRANCH   2   3
ENDBRANCH   1   2
BRANCH   1   8
ATOM      8  C   UNL     1      20.644 -24.004 -10.072  1.00  0.00     0.000 C 
BRANCH   8   9
ATOM      9  C   UNL     1      21.426 -22.966 -10.892  1.00  0.00    -0.000 C 
BRANCH   9  10
ATOM     10  C   UNL     1      21.406 -21.570 -10.251  1.00  0.00    -0.003 C 
ATOM     11  C   UNL     1      20.957 -21.639  -8.796  1.00  0.00     0.004 C 
ENDBRANCH   9  10
ENDBRANCH   8   9
ENDBRANCH   1   8
TORSDOF 6
ENDMDL
