MODEL 1
REMARK VINA RESULT:     2.241      0.000      0.000
REMARK INTER + INTRA:           2.344
REMARK INTER:                   3.027
REMARK INTRA:                  -0.683
REMARK UNBOUND:                -0.683
REMARK SMILES COc1ccc(-c2cc(=O)c3c(OC)c(OC)c(OC)c(OC)c3o2)cc1
REMARK SMILES IDX 7 1 8 2 9 3 10 4 11 5 24 6 25 7 21 8 18 9 15 10 12 11 6 12
REMARK SMILES IDX 3 13 4 14 27 15 5 16 26 17 2 18 1 19 22 20 23 21 13 22 14 23
REMARK SMILES IDX 19 24 20 25 16 26 17 27
REMARK H PARENT
REMARK Flexibility Score: inf
ROOT
ATOM      1  C   UNL     1       2.556   7.894  17.562  1.00  0.00     0.138 A 
ATOM      2  C   UNL     1       2.470   8.995  18.427  1.00  0.00     0.100 A 
ATOM      3  C   UNL     1       2.789  10.266  17.952  1.00  0.00     0.197 A 
ATOM      4  O   UNL     1       2.708  11.244  18.744  1.00  0.00    -0.289 OA
ATOM      5  C   UNL     1       3.190  10.434  16.606  1.00  0.00     0.115 A 
ATOM      6  C   UNL     1       3.231   9.279  15.792  1.00  0.00     0.188 A 
ATOM      7  O   UNL     1       2.920   8.088  16.299  1.00  0.00    -0.452 OA
ATOM      8  C   UNL     1       3.586   9.359  14.443  1.00  0.00     0.209 A 
ATOM      9  C   UNL     1       3.903  10.615  13.882  1.00  0.00     0.211 A 
ATOM     10  C   UNL     1       3.959  11.762  14.705  1.00  0.00     0.208 A 
ATOM     11  C   UNL     1       3.553  11.691  16.061  1.00  0.00     0.179 A 
ENDROOT
BRANCH   1  12
ATOM     12  C   UNL     1       2.235   6.515  18.010  1.00  0.00     0.018 A 
ATOM     13  C   UNL     1       1.690   3.872  18.848  1.00  0.00     0.118 A 
ATOM     14  C   UNL     1       0.882   4.938  19.285  1.00  0.00     0.047 A 
ATOM     15  C   UNL     1       2.771   4.140  18.003  1.00  0.00     0.047 A 
ATOM     16  C   UNL     1       1.155   6.245  18.873  1.00  0.00     0.016 A 
ATOM     17  C   UNL     1       3.045   5.446  17.589  1.00  0.00     0.016 A 
BRANCH  13  18
ATOM     18  O   UNL     1       1.456   2.544  19.232  1.00  0.00    -0.497 OA
ATOM     19  C   UNL     1       2.417   1.497  19.138  1.00  0.00     0.278 C 
ENDBRANCH  13  18
ENDBRANCH   1  12
BRANCH   8  20
ATOM     20  O   UNL     1       3.587   8.153  13.713  1.00  0.00    -0.490 OA
ATOM     21  C   UNL     1       2.517   7.631  12.934  1.00  0.00     0.278 C 
ENDBRANCH   8  20
BRANCH  11  22
ATOM     22  O   UNL     1       3.506  12.820  16.904  1.00  0.00    -0.492 OA
ATOM     23  C   UNL     1       2.730  13.999  16.720  1.00  0.00     0.278 C 
ENDBRANCH  11  22
BRANCH   9  24
ATOM     24  O   UNL     1       4.149  10.725  12.511  1.00  0.00    -0.490 OA
ATOM     25  C   UNL     1       5.396  10.364  11.926  1.00  0.00     0.279 C 
ENDBRANCH   9  24
BRANCH  10  26
ATOM     26  O   UNL     1       4.433  12.970  14.182  1.00  0.00    -0.490 OA
ATOM     27  C   UNL     1       5.796  13.371  14.293  1.00  0.00     0.278 C 
ENDBRANCH  10  26
TORSDOF 6
ENDMDL
MODEL 2
REMARK VINA RESULT:     3.042      1.201      3.626
REMARK INTER + INTRA:           3.425
REMARK INTER:                   3.910
REMARK INTRA:                  -0.485
REMARK UNBOUND:                -0.683
REMARK SMILES COc1ccc(-c2cc(=O)c3c(OC)c(OC)c(OC)c(OC)c3o2)cc1
REMARK SMILES IDX 7 1 8 2 9 3 10 4 11 5 24 6 25 7 21 8 18 9 15 10 12 11 6 12
REMARK SMILES IDX 3 13 4 14 27 15 5 16 26 17 2 18 1 19 22 20 23 21 13 22 14 23
REMARK SMILES IDX 19 24 20 25 16 26 17 27
REMARK H PARENT
REMARK Flexibility Score: inf
ROOT
ATOM      1  C   UNL     1       2.744   7.216  16.833  1.00  0.00     0.138 A 
ATOM      2  C   UNL     1       2.867   7.272  15.437  1.00  0.00     0.100 A 
ATOM      3  C   UNL     1       3.116   8.497  14.820  1.00  0.00     0.197 A 
ATOM      4  O   UNL     1       3.222   8.530  13.564  1.00  0.00    -0.289 OA
ATOM      5  C   UNL     1       3.247   9.667  15.605  1.00  0.00     0.115 A 
ATOM      6  C   UNL     1       3.131   9.524  17.006  1.00  0.00     0.188 A 
ATOM      7  O   UNL     1       2.888   8.331  17.543  1.00  0.00    -0.452 OA
ATOM      8  C   UNL     1       3.278  10.622  17.858  1.00  0.00     0.209 A 
ATOM      9  C   UNL     1       3.552  11.894  17.309  1.00  0.00     0.211 A 
ATOM     10  C   UNL     1       3.576  12.069  15.908  1.00  0.00     0.208 A 
ATOM     11  C   UNL     1       3.475  10.949  15.045  1.00  0.00     0.179 A 
ENDROOT
BRANCH   1  12
ATOM     12  C   UNL     1       2.473   5.943  17.549  1.00  0.00     0.018 A 
ATOM     13  C   UNL     1       2.017   3.495  18.884  1.00  0.00     0.118 A 
ATOM     14  C   UNL     1       1.407   4.679  19.339  1.00  0.00     0.047 A 
ATOM     15  C   UNL     1       2.859   3.549  17.769  1.00  0.00     0.047 A 
ATOM     16  C   UNL     1       1.637   5.890  18.681  1.00  0.00     0.016 A 
ATOM     17  C   UNL     1       3.089   4.759  17.109  1.00  0.00     0.016 A 
BRANCH  13  18
ATOM     18  O   UNL     1       1.817   2.256  19.510  1.00  0.00    -0.497 OA
ATOM     19  C   UNL     1       2.631   1.106  19.299  1.00  0.00     0.278 C 
ENDBRANCH  13  18
ENDBRANCH   1  12
BRANCH   8  20
ATOM     20  O   UNL     1       3.156  10.376  19.240  1.00  0.00    -0.490 OA
ATOM     21  C   UNL     1       4.191  10.457  20.212  1.00  0.00     0.278 C 
ENDBRANCH   8  20
BRANCH  11  22
ATOM     22  O   UNL     1       3.579  11.054  13.643  1.00  0.00    -0.492 OA
ATOM     23  C   UNL     1       4.772  11.061  12.867  1.00  0.00     0.278 C 
ENDBRANCH  11  22
BRANCH   9  24
ATOM     24  O   UNL     1       3.813  12.976  18.154  1.00  0.00    -0.490 OA
ATOM     25  C   UNL     1       2.776  13.766  18.729  1.00  0.00     0.279 C 
ENDBRANCH   9  24
BRANCH  10  26
ATOM     26  O   UNL     1       3.683  13.356  15.370  1.00  0.00    -0.490 OA
ATOM     27  C   UNL     1       2.547  14.113  14.962  1.00  0.00     0.278 C 
ENDBRANCH  10  26
TORSDOF 6
ENDMDL
MODEL 3
REMARK VINA RESULT:     3.101      4.541      8.102
REMARK INTER + INTRA:           3.505
REMARK INTER:                   3.593
REMARK INTRA:                  -0.088
REMARK UNBOUND:                -0.683
REMARK SMILES COc1ccc(-c2cc(=O)c3c(OC)c(OC)c(OC)c(OC)c3o2)cc1
REMARK SMILES IDX 7 1 8 2 9 3 10 4 11 5 24 6 25 7 21 8 18 9 15 10 12 11 6 12
REMARK SMILES IDX 3 13 4 14 27 15 5 16 26 17 2 18 1 19 22 20 23 21 13 22 14 23
REMARK SMILES IDX 19 24 20 25 16 26 17 27
REMARK H PARENT
REMARK Flexibility Score: inf
ROOT
ATOM      1  C   UNL     1       2.104  14.516  18.105  1.00  0.00     0.138 A 
ATOM      2  C   UNL     1       2.762  13.996  19.229  1.00  0.00     0.100 A 
ATOM      3  C   UNL     1       3.654  12.936  19.072  1.00  0.00     0.197 A 
ATOM      4  O   UNL     1       4.235  12.480  20.094  1.00  0.00    -0.289 OA
ATOM      5  C   UNL     1       3.889  12.400  17.784  1.00  0.00     0.115 A 
ATOM      6  C   UNL     1       3.203  12.992  16.699  1.00  0.00     0.188 A 
ATOM      7  O   UNL     1       2.360  14.001  16.906  1.00  0.00    -0.452 OA
ATOM      8  C   UNL     1       3.401  12.545  15.390  1.00  0.00     0.209 A 
ATOM      9  C   UNL     1       4.305  11.488  15.147  1.00  0.00     0.211 A 
ATOM     10  C   UNL     1       4.924  10.824  16.229  1.00  0.00     0.208 A 
ATOM     11  C   UNL     1       4.761  11.308  17.552  1.00  0.00     0.179 A 
ENDROOT
BRANCH   1  12
ATOM     12  C   UNL     1       1.139  15.641  18.208  1.00  0.00     0.018 A 
ATOM     13  C   UNL     1      -0.743  17.736  18.433  1.00  0.00     0.118 A 
ATOM     14  C   UNL     1       0.630  18.022  18.312  1.00  0.00     0.047 A 
ATOM     15  C   UNL     1      -1.161  16.402  18.450  1.00  0.00     0.047 A 
ATOM     16  C   UNL     1       1.560  16.985  18.206  1.00  0.00     0.016 A 
ATOM     17  C   UNL     1      -0.233  15.364  18.342  1.00  0.00     0.016 A 
BRANCH  13  18
ATOM     18  O   UNL     1      -1.714  18.742  18.542  1.00  0.00    -0.497 OA
ATOM     19  C   UNL     1      -1.924  19.766  17.574  1.00  0.00     0.278 C 
ENDBRANCH  13  18
ENDBRANCH   1  12
BRANCH   8  20
ATOM     20  O   UNL     1       2.680  13.207  14.377  1.00  0.00    -0.490 OA
ATOM     21  C   UNL     1       1.534  12.717  13.690  1.00  0.00     0.278 C 
ENDBRANCH   8  20
BRANCH  11  22
ATOM     22  O   UNL     1       5.424  10.738  18.659  1.00  0.00    -0.492 OA
ATOM     23  C   UNL     1       6.680  11.126  19.203  1.00  0.00     0.278 C 
ENDBRANCH  11  22
BRANCH   9  24
ATOM     24  O   UNL     1       4.596  11.108  13.834  1.00  0.00    -0.490 OA
ATOM     25  C   UNL     1       4.054   9.932  13.240  1.00  0.00     0.279 C 
ENDBRANCH   9  24
BRANCH  10  26
ATOM     26  O   UNL     1       5.687   9.675  15.996  1.00  0.00    -0.490 OA
ATOM     27  C   UNL     1       7.110   9.674  16.054  1.00  0.00     0.278 C 
ENDBRANCH  10  26
TORSDOF 6
ENDMDL
MODEL 4
REMARK VINA RESULT:     3.391      1.058      3.656
REMARK INTER + INTRA:           3.898
REMARK INTER:                   4.315
REMARK INTRA:                  -0.417
REMARK UNBOUND:                -0.683
REMARK SMILES COc1ccc(-c2cc(=O)c3c(OC)c(OC)c(OC)c(OC)c3o2)cc1
REMARK SMILES IDX 7 1 8 2 9 3 10 4 11 5 24 6 25 7 21 8 18 9 15 10 12 11 6 12
REMARK SMILES IDX 3 13 4 14 27 15 5 16 26 17 2 18 1 19 22 20 23 21 13 22 14 23
REMARK SMILES IDX 19 24 20 25 16 26 17 27
REMARK H PARENT
REMARK Flexibility Score: inf
ROOT
ATOM      1  C   UNL     1       2.563   7.313  16.711  1.00  0.00     0.138 A 
ATOM      2  C   UNL     1       2.806   7.060  15.353  1.00  0.00     0.100 A 
ATOM      3  C   UNL     1       3.215   8.104  14.525  1.00  0.00     0.197 A 
ATOM      4  O   UNL     1       3.427   7.859  13.306  1.00  0.00    -0.289 OA
ATOM      5  C   UNL     1       3.385   9.402  15.060  1.00  0.00     0.115 A 
ATOM      6  C   UNL     1       3.140   9.571  16.442  1.00  0.00     0.188 A 
ATOM      7  O   UNL     1       2.747   8.541  17.187  1.00  0.00    -0.452 OA
ATOM      8  C   UNL     1       3.314  10.813  17.059  1.00  0.00     0.209 A 
ATOM      9  C   UNL     1       3.746  11.915  16.289  1.00  0.00     0.211 A 
ATOM     10  C   UNL     1       3.902  11.784  14.892  1.00  0.00     0.208 A 
ATOM     11  C   UNL     1       3.773  10.515  14.274  1.00  0.00     0.179 A 
ENDROOT
BRANCH   1  12
ATOM     12  C   UNL     1       2.120   6.245  17.644  1.00  0.00     0.018 A 
ATOM     13  C   UNL     1       1.210   4.232  19.406  1.00  0.00     0.118 A 
ATOM     14  C   UNL     1       2.474   4.126  18.796  1.00  0.00     0.047 A 
ATOM     15  C   UNL     1       0.408   5.341  19.121  1.00  0.00     0.047 A 
ATOM     16  C   UNL     1       2.921   5.120  17.920  1.00  0.00     0.016 A 
ATOM     17  C   UNL     1       0.853   6.336  18.248  1.00  0.00     0.016 A 
BRANCH  13  18
ATOM     18  O   UNL     1       0.719   3.262  20.292  1.00  0.00    -0.497 OA
ATOM     19  C   UNL     1      -0.606   2.741  20.260  1.00  0.00     0.278 C 
ENDBRANCH  13  18
ENDBRANCH   1  12
BRANCH   8  20
ATOM     20  O   UNL     1       3.055  10.877  18.442  1.00  0.00    -0.490 OA
ATOM     21  C   UNL     1       4.017  10.831  19.490  1.00  0.00     0.278 C 
ENDBRANCH   8  20
BRANCH  11  22
ATOM     22  O   UNL     1       4.003  10.311  12.897  1.00  0.00    -0.492 OA
ATOM     23  C   UNL     1       5.249  10.046  12.263  1.00  0.00     0.278 C 
ENDBRANCH  11  22
BRANCH   9  24
ATOM     24  O   UNL     1       4.032  13.132  16.915  1.00  0.00    -0.490 OA
ATOM     25  C   UNL     1       3.012  14.019  17.366  1.00  0.00     0.279 C 
ENDBRANCH   9  24
BRANCH  10  26
ATOM     26  O   UNL     1       4.169  12.916  14.113  1.00  0.00    -0.490 OA
ATOM     27  C   UNL     1       5.493  13.359  13.832  1.00  0.00     0.278 C 
ENDBRANCH  10  26
TORSDOF 6
ENDMDL
