MODEL 1
REMARK VINA RESULT:    -2.745      0.000      0.000
REMARK INTER + INTRA:          -4.206
REMARK INTER:                  -3.788
REMARK INTRA:                  -0.418
REMARK UNBOUND:                -0.418
REMARK SMILES CCCCCCCCO
REMARK SMILES IDX 5 1 4 2 3 3 2 4 1 5 6 6 7 7 8 8 9 9
REMARK H PARENT 9 10
REMARK Flexibility Score: inf
ROOT
ATOM      1  C   UNL     1     149.088 143.264 137.886  1.00  0.00     0.000 C 
ENDROOT
BRANCH   1   2
ATOM      2  C   UNL     1     148.641 141.793 137.918  1.00  0.00    -0.000 C 
BRANCH   2   3
ATOM      3  C   UNL     1     147.550 141.485 136.879  1.00  0.00    -0.000 C 
BRANCH   3   4
ATOM      4  C   UNL     1     146.150 141.911 137.345  1.00  0.00    -0.003 C 
ATOM      5  C   UNL     1     145.812 141.298 138.701  1.00  0.00     0.004 C 
ENDBRANCH   3   4
ENDBRANCH   2   3
ENDBRANCH   1   2
BRANCH   1   6
ATOM      6  C   UNL     1     148.674 144.034 139.151  1.00  0.00     0.002 C 
BRANCH   6   7
ATOM      7  C   UNL     1     147.844 145.289 138.836  1.00  0.00     0.028 C 
BRANCH   7   8
ATOM      8  C   UNL     1     148.704 146.396 138.216  1.00  0.00     0.156 C 
BRANCH   8   9
ATOM      9  O   UNL     1     148.348 146.616 136.877  1.00  0.00    -0.396 OA
ATOM     10  H   UNL     1     148.278 145.721 136.452  1.00  0.00     0.210 HD
ENDBRANCH   8   9
ENDBRANCH   7   8
ENDBRANCH   6   7
ENDBRANCH   1   6
TORSDOF 7
ENDMDL
MODEL 2
REMARK VINA RESULT:    -2.667      1.194      2.342
REMARK INTER + INTRA:          -4.098
REMARK INTER:                  -3.648
REMARK INTRA:                  -0.450
REMARK UNBOUND:                -0.418
REMARK SMILES CCCCCCCCO
REMARK SMILES IDX 5 1 4 2 3 3 2 4 1 5 6 6 7 7 8 8 9 9
REMARK H PARENT 9 10
REMARK Flexibility Score: inf
ROOT
ATOM      1  C   UNL     1     146.136 144.506 139.659  1.00  0.00     0.000 C 
ENDROOT
BRANCH   1   2
ATOM      2  C   UNL     1     145.674 143.404 138.690  1.00  0.00    -0.000 C 
BRANCH   2   3
ATOM      3  C   UNL     1     146.622 142.194 138.678  1.00  0.00    -0.000 C 
BRANCH   3   4
ATOM      4  C   UNL     1     147.394 142.058 137.357  1.00  0.00    -0.003 C 
ATOM      5  C   UNL     1     148.881 141.833 137.610  1.00  0.00     0.004 C 
ENDBRANCH   3   4
ENDBRANCH   2   3
ENDBRANCH   1   2
BRANCH   1   6
ATOM      6  C   UNL     1     146.904 145.633 138.948  1.00  0.00     0.002 C 
BRANCH   6   7
ATOM      7  C   UNL     1     148.427 145.495 139.090  1.00  0.00     0.028 C 
BRANCH   7   8
ATOM      8  C   UNL     1     149.152 145.839 137.784  1.00  0.00     0.156 C 
BRANCH   8   9
ATOM      9  O   UNL     1     148.306 146.540 136.911  1.00  0.00    -0.396 OA
ATOM     10  H   UNL     1     148.894 147.058 136.303  1.00  0.00     0.210 HD
ENDBRANCH   8   9
ENDBRANCH   7   8
ENDBRANCH   6   7
ENDBRANCH   1   6
TORSDOF 7
ENDMDL
MODEL 3
REMARK VINA RESULT:    -2.656     13.907     15.388
REMARK INTER + INTRA:          -4.084
REMARK INTER:                  -3.841
REMARK INTRA:                  -0.243
REMARK UNBOUND:                -0.418
REMARK SMILES CCCCCCCCO
REMARK SMILES IDX 5 1 4 2 3 3 2 4 1 5 6 6 7 7 8 8 9 9
REMARK H PARENT 9 10
REMARK Flexibility Score: inf
ROOT
ATOM      1  C   UNL     1     135.046 137.613 139.475  1.00  0.00     0.000 C 
ENDROOT
BRANCH   1   2
ATOM      2  C   UNL     1     135.751 138.535 138.466  1.00  0.00    -0.000 C 
BRANCH   2   3
ATOM      3  C   UNL     1     135.066 139.906 138.343  1.00  0.00    -0.000 C 
BRANCH   3   4
ATOM      4  C   UNL     1     134.108 139.986 137.145  1.00  0.00    -0.003 C 
ATOM      5  C   UNL     1     132.677 139.661 137.563  1.00  0.00     0.004 C 
ENDBRANCH   3   4
ENDBRANCH   2   3
ENDBRANCH   1   2
BRANCH   1   6
ATOM      6  C   UNL     1     135.471 136.142 139.326  1.00  0.00     0.002 C 
BRANCH   6   7
ATOM      7  C   UNL     1     134.280 135.204 139.071  1.00  0.00     0.028 C 
BRANCH   7   8
ATOM      8  C   UNL     1     133.321 135.779 138.024  1.00  0.00     0.156 C 
BRANCH   8   9
ATOM      9  O   UNL     1     133.235 134.935 136.906  1.00  0.00    -0.396 OA
ATOM     10  H   UNL     1     133.936 134.242 137.020  1.00  0.00     0.210 HD
ENDBRANCH   8   9
ENDBRANCH   7   8
ENDBRANCH   6   7
ENDBRANCH   1   6
TORSDOF 7
ENDMDL
MODEL 4
REMARK VINA RESULT:    -2.654     10.385     11.154
REMARK INTER + INTRA:          -4.080
REMARK INTER:                  -3.811
REMARK INTRA:                  -0.270
REMARK UNBOUND:                -0.418
REMARK SMILES CCCCCCCCO
REMARK SMILES IDX 5 1 4 2 3 3 2 4 1 5 6 6 7 7 8 8 9 9
REMARK H PARENT 9 10
REMARK Flexibility Score: inf
ROOT
ATOM      1  C   UNL     1     138.835 148.704 137.878  1.00  0.00     0.000 C 
ENDROOT
BRANCH   1   2
ATOM      2  C   UNL     1     139.659 147.639 137.133  1.00  0.00    -0.000 C 
BRANCH   2   3
ATOM      3  C   UNL     1     140.017 146.441 138.027  1.00  0.00    -0.000 C 
BRANCH   3   4
ATOM      4  C   UNL     1     139.525 145.104 137.453  1.00  0.00    -0.003 C 
ATOM      5  C   UNL     1     138.457 144.481 138.347  1.00  0.00     0.004 C 
ENDBRANCH   3   4
ENDBRANCH   2   3
ENDBRANCH   1   2
BRANCH   1   6
ATOM      6  C   UNL     1     137.364 148.293 138.057  1.00  0.00     0.002 C 
BRANCH   6   7
ATOM      7  C   UNL     1     136.466 149.470 138.471  1.00  0.00     0.028 C 
BRANCH   7   8
ATOM      8  C   UNL     1     135.177 149.517 137.644  1.00  0.00     0.156 C 
BRANCH   8   9
ATOM      9  O   UNL     1     135.004 148.329 136.918  1.00  0.00    -0.396 OA
ATOM     10  H   UNL     1     134.641 147.659 137.554  1.00  0.00     0.210 HD
ENDBRANCH   8   9
ENDBRANCH   7   8
ENDBRANCH   6   7
ENDBRANCH   1   6
TORSDOF 7
ENDMDL
MODEL 5
REMARK VINA RESULT:    -2.653     10.851     11.831
REMARK INTER + INTRA:          -4.079
REMARK INTER:                  -3.738
REMARK INTRA:                  -0.341
REMARK UNBOUND:                -0.418
REMARK SMILES CCCCCCCCO
REMARK SMILES IDX 5 1 4 2 3 3 2 4 1 5 6 6 7 7 8 8 9 9
REMARK H PARENT 9 10
REMARK Flexibility Score: inf
ROOT
ATOM      1  C   UNL     1     137.639 148.311 139.263  1.00  0.00     0.000 C 
ENDROOT
BRANCH   1   2
ATOM      2  C   UNL     1     138.361 148.890 138.034  1.00  0.00    -0.000 C 
BRANCH   2   3
ATOM      3  C   UNL     1     139.715 148.211 137.772  1.00  0.00    -0.000 C 
BRANCH   3   4
ATOM      4  C   UNL     1     139.591 146.970 136.875  1.00  0.00    -0.003 C 
ATOM      5  C   UNL     1     139.758 145.687 137.685  1.00  0.00     0.004 C 
ENDBRANCH   3   4
ENDBRANCH   2   3
ENDBRANCH   1   2
BRANCH   1   6
ATOM      6  C   UNL     1     136.533 147.313 138.880  1.00  0.00     0.002 C 
BRANCH   6   7
ATOM      7  C   UNL     1     135.124 147.837 139.203  1.00  0.00     0.028 C 
BRANCH   7   8
ATOM      8  C   UNL     1     134.659 148.878 138.180  1.00  0.00     0.156 C 
BRANCH   8   9
ATOM      9  O   UNL     1     134.986 148.480 136.875  1.00  0.00    -0.396 OA
ATOM     10  H   UNL     1     134.240 148.780 136.293  1.00  0.00     0.210 HD
ENDBRANCH   8   9
ENDBRANCH   7   8
ENDBRANCH   6   7
ENDBRANCH   1   6
TORSDOF 7
ENDMDL
MODEL 6
REMARK VINA RESULT:    -2.650     13.119     15.304
REMARK INTER + INTRA:          -4.074
REMARK INTER:                  -3.653
REMARK INTRA:                  -0.421
REMARK UNBOUND:                -0.418
REMARK SMILES CCCCCCCCO
REMARK SMILES IDX 5 1 4 2 3 3 2 4 1 5 6 6 7 7 8 8 9 9
REMARK H PARENT 9 10
REMARK Flexibility Score: inf
ROOT
ATOM      1  C   UNL     1     133.660 139.272 138.571  1.00  0.00     0.000 C 
ENDROOT
BRANCH   1   2
ATOM      2  C   UNL     1     134.408 139.807 137.338  1.00  0.00    -0.000 C 
BRANCH   2   3
ATOM      3  C   UNL     1     135.927 139.596 137.432  1.00  0.00    -0.000 C 
BRANCH   3   4
ATOM      4  C   UNL     1     136.373 139.100 138.816  1.00  0.00    -0.003 C 
ATOM      5  C   UNL     1     137.147 137.790 138.708  1.00  0.00     0.004 C 
ENDBRANCH   3   4
ENDBRANCH   2   3
ENDBRANCH   1   2
BRANCH   1   6
ATOM      6  C   UNL     1     132.748 138.080 138.236  1.00  0.00     0.002 C 
BRANCH   6   7
ATOM      7  C   UNL     1     133.459 136.726 138.395  1.00  0.00     0.028 C 
BRANCH   7   8
ATOM      8  C   UNL     1     132.586 135.567 137.906  1.00  0.00     0.156 C 
BRANCH   8   9
ATOM      9  O   UNL     1     133.224 134.857 136.878  1.00  0.00    -0.396 OA
ATOM     10  H   UNL     1     132.506 134.481 136.305  1.00  0.00     0.210 HD
ENDBRANCH   8   9
ENDBRANCH   7   8
ENDBRANCH   6   7
ENDBRANCH   1   6
TORSDOF 7
ENDMDL
MODEL 7
REMARK VINA RESULT:    -2.617     12.932     14.492
REMARK INTER + INTRA:          -4.029
REMARK INTER:                  -3.644
REMARK INTRA:                  -0.385
REMARK UNBOUND:                -0.418
REMARK SMILES CCCCCCCCO
REMARK SMILES IDX 5 1 4 2 3 3 2 4 1 5 6 6 7 7 8 8 9 9
REMARK H PARENT 9 10
REMARK Flexibility Score: inf
ROOT
ATOM      1  C   UNL     1     135.547 139.533 137.215  1.00  0.00     0.000 C 
ENDROOT
BRANCH   1   2
ATOM      2  C   UNL     1     136.829 138.949 137.832  1.00  0.00    -0.000 C 
BRANCH   2   3
ATOM      3  C   UNL     1     136.575 138.275 139.190  1.00  0.00    -0.000 C 
BRANCH   3   4
ATOM      4  C   UNL     1     136.694 136.745 139.125  1.00  0.00    -0.003 C 
ATOM      5  C   UNL     1     135.322 136.083 139.215  1.00  0.00     0.004 C 
ENDBRANCH   3   4
ENDBRANCH   2   3
ENDBRANCH   1   2
BRANCH   1   6
ATOM      6  C   UNL     1     134.491 139.889 138.275  1.00  0.00     0.002 C 
BRANCH   6   7
ATOM      7  C   UNL     1     133.056 139.828 137.728  1.00  0.00     0.028 C 
BRANCH   7   8
ATOM      8  C   UNL     1     132.498 138.401 137.760  1.00  0.00     0.156 C 
BRANCH   8   9
ATOM      9  O   UNL     1     131.418 138.266 136.875  1.00  0.00    -0.396 OA
ATOM     10  H   UNL     1     131.123 137.320 136.932  1.00  0.00     0.210 HD
ENDBRANCH   8   9
ENDBRANCH   7   8
ENDBRANCH   6   7
ENDBRANCH   1   6
TORSDOF 7
ENDMDL
MODEL 8
REMARK VINA RESULT:    -1.943     10.049     11.005
REMARK INTER + INTRA:          -3.099
REMARK INTER:                  -2.700
REMARK INTRA:                  -0.399
REMARK UNBOUND:                -0.418
REMARK SMILES CCCCCCCCO
REMARK SMILES IDX 5 1 4 2 3 3 2 4 1 5 6 6 7 7 8 8 9 9
REMARK H PARENT 9 10
REMARK Flexibility Score: inf
ROOT
ATOM      1  C   UNL     1     143.964 134.925 139.916  1.00  0.00     0.000 C 
ENDROOT
BRANCH   1   2
ATOM      2  C   UNL     1     142.695 134.119 139.591  1.00  0.00    -0.000 C 
BRANCH   2   3
ATOM      3  C   UNL     1     141.668 134.934 138.789  1.00  0.00    -0.000 C 
BRANCH   3   4
ATOM      4  C   UNL     1     141.808 134.737 137.272  1.00  0.00    -0.003 C 
ATOM      5  C   UNL     1     141.510 133.294 136.875  1.00  0.00     0.004 C 
ENDBRANCH   3   4
ENDBRANCH   2   3
ENDBRANCH   1   2
BRANCH   1   6
ATOM      6  C   UNL     1     145.239 134.263 139.369  1.00  0.00     0.002 C 
BRANCH   6   7
ATOM      7  C   UNL     1     144.953 132.949 138.626  1.00  0.00     0.028 C 
BRANCH   7   8
ATOM      8  C   UNL     1     146.223 132.369 137.992  1.00  0.00     0.156 C 
BRANCH   8   9
ATOM      9  O   UNL     1     146.628 133.136 136.890  1.00  0.00    -0.396 OA
ATOM     10  H   UNL     1     147.278 132.582 136.384  1.00  0.00     0.210 HD
ENDBRANCH   8   9
ENDBRANCH   7   8
ENDBRANCH   6   7
ENDBRANCH   1   6
TORSDOF 7
ENDMDL
