MODEL 1
REMARK VINA RESULT:    -4.075      0.000      0.000
REMARK INTER + INTRA:          -4.679
REMARK INTER:                  -4.552
REMARK INTRA:                  -0.128
REMARK UNBOUND:                -0.128
REMARK SMILES O=C([O-])C=Cc1ccccc1
REMARK SMILES IDX 4 1 5 2 2 3 1 4 3 5 6 6 7 7 11 8 8 9 10 10 9 11
REMARK H PARENT
REMARK Flexibility Score: inf
ROOT
ATOM      1  C   UNL     1       9.890   9.850   5.832  1.00  0.00     0.025 C 
ATOM      2  C   UNL     1       9.221   9.865   6.995  1.00  0.00     0.010 C 
ENDROOT
BRANCH   1   3
ATOM      3  C   UNL     1      10.934   8.854   5.540  1.00  0.00     0.064 C 
ATOM      4  O   UNL     1      10.825   7.660   5.931  1.00  0.00    -0.545 OA
ATOM      5  O   UNL     1      12.059   9.234   4.820  1.00  0.00    -0.545 OA
ENDBRANCH   1   3
BRANCH   2   6
ATOM      6  C   UNL     1       8.158  10.843   7.353  1.00  0.00    -0.026 A 
ATOM      7  C   UNL     1       8.407  12.218   7.561  1.00  0.00     0.008 A 
ATOM      8  C   UNL     1       6.840  10.370   7.488  1.00  0.00     0.008 A 
ATOM      9  C   UNL     1       7.359  13.084   7.895  1.00  0.00     0.001 A 
ATOM     10  C   UNL     1       5.799  11.241   7.822  1.00  0.00     0.001 A 
ATOM     11  C   UNL     1       6.059  12.598   8.025  1.00  0.00     0.000 A 
ENDBRANCH   2   6
TORSDOF 2
ENDMDL
MODEL 2
REMARK VINA RESULT:    -4.068      0.136      1.465
REMARK INTER + INTRA:          -4.671
REMARK INTER:                  -4.541
REMARK INTRA:                  -0.130
REMARK UNBOUND:                -0.128
REMARK SMILES O=C([O-])C=Cc1ccccc1
REMARK SMILES IDX 4 1 5 2 2 3 1 4 3 5 6 6 7 7 11 8 8 9 10 10 9 11
REMARK H PARENT
REMARK Flexibility Score: inf
ROOT
ATOM      1  C   UNL     1       9.795   9.752   5.901  1.00  0.00     0.025 C 
ATOM      2  C   UNL     1       9.191   9.881   7.092  1.00  0.00     0.010 C 
ENDROOT
BRANCH   1   3
ATOM      3  C   UNL     1      10.897   8.800   5.678  1.00  0.00     0.064 C 
ATOM      4  O   UNL     1      10.868   7.641   6.173  1.00  0.00    -0.545 OA
ATOM      5  O   UNL     1      11.987   9.186   4.909  1.00  0.00    -0.545 OA
ENDBRANCH   1   3
BRANCH   2   6
ATOM      6  C   UNL     1       8.075  10.822   7.382  1.00  0.00    -0.026 A 
ATOM      7  C   UNL     1       6.726  10.416   7.485  1.00  0.00     0.008 A 
ATOM      8  C   UNL     1       8.384  12.181   7.564  1.00  0.00     0.008 A 
ATOM      9  C   UNL     1       5.724  11.354   7.762  1.00  0.00     0.001 A 
ATOM     10  C   UNL     1       7.379  13.113   7.840  1.00  0.00     0.001 A 
ATOM     11  C   UNL     1       6.049  12.699   7.938  1.00  0.00     0.000 A 
ENDBRANCH   2   6
TORSDOF 2
ENDMDL
MODEL 3
REMARK VINA RESULT:    -3.858      2.853      4.028
REMARK INTER + INTRA:          -4.437
REMARK INTER:                  -4.292
REMARK INTRA:                  -0.145
REMARK UNBOUND:                -0.128
REMARK SMILES O=C([O-])C=Cc1ccccc1
REMARK SMILES IDX 4 1 5 2 2 3 1 4 3 5 6 6 7 7 11 8 8 9 10 10 9 11
REMARK H PARENT
REMARK Flexibility Score: inf
ROOT
ATOM      1  C   UNL     1       7.421  11.329   7.833  1.00  0.00     0.025 C 
ATOM      2  C   UNL     1       6.394  12.190   7.891  1.00  0.00     0.010 C 
ENDROOT
BRANCH   1   3
ATOM      3  C   UNL     1       8.821  11.765   7.972  1.00  0.00     0.064 C 
ATOM      4  O   UNL     1       9.514  11.425   8.969  1.00  0.00    -0.545 OA
ATOM      5  O   UNL     1       9.388  12.564   6.988  1.00  0.00    -0.545 OA
ENDBRANCH   1   3
BRANCH   2   6
ATOM      6  C   UNL     1       4.960  11.816   7.757  1.00  0.00    -0.026 A 
ATOM      7  C   UNL     1       3.912  12.762   7.714  1.00  0.00     0.008 A 
ATOM      8  C   UNL     1       4.637  10.449   7.670  1.00  0.00     0.008 A 
ATOM      9  C   UNL     1       2.584  12.340   7.586  1.00  0.00     0.001 A 
ATOM     10  C   UNL     1       3.308  10.036   7.543  1.00  0.00     0.001 A 
ATOM     11  C   UNL     1       2.282  10.981   7.501  1.00  0.00     0.000 A 
ENDBRANCH   2   6
TORSDOF 2
ENDMDL
MODEL 4
REMARK VINA RESULT:    -3.833      2.868      4.178
REMARK INTER + INTRA:          -4.409
REMARK INTER:                  -4.277
REMARK INTRA:                  -0.131
REMARK UNBOUND:                -0.128
REMARK SMILES O=C([O-])C=Cc1ccccc1
REMARK SMILES IDX 4 1 5 2 2 3 1 4 3 5 6 6 7 7 11 8 8 9 10 10 9 11
REMARK H PARENT
REMARK Flexibility Score: inf
ROOT
ATOM      1  C   UNL     1       7.419  11.311   7.830  1.00  0.00     0.025 C 
ATOM      2  C   UNL     1       6.388  12.166   7.899  1.00  0.00     0.010 C 
ENDROOT
BRANCH   1   3
ATOM      3  C   UNL     1       8.816  11.751   7.980  1.00  0.00     0.064 C 
ATOM      4  O   UNL     1       9.496  11.432   8.993  1.00  0.00    -0.545 OA
ATOM      5  O   UNL     1       9.395  12.532   6.989  1.00  0.00    -0.545 OA
ENDBRANCH   1   3
BRANCH   2   6
ATOM      6  C   UNL     1       4.956  11.786   7.756  1.00  0.00    -0.026 A 
ATOM      7  C   UNL     1       4.516  10.449   7.644  1.00  0.00     0.008 A 
ATOM      8  C   UNL     1       3.996  12.815   7.734  1.00  0.00     0.008 A 
ATOM      9  C   UNL     1       3.153  10.162   7.512  1.00  0.00     0.001 A 
ATOM     10  C   UNL     1       2.636  12.520   7.602  1.00  0.00     0.001 A 
ATOM     11  C   UNL     1       2.215  11.194   7.491  1.00  0.00     0.000 A 
ENDBRANCH   2   6
TORSDOF 2
ENDMDL
MODEL 5
REMARK VINA RESULT:    -3.773      5.299      6.749
REMARK INTER + INTRA:          -4.342
REMARK INTER:                  -4.209
REMARK INTRA:                  -0.133
REMARK UNBOUND:                -0.128
REMARK SMILES O=C([O-])C=Cc1ccccc1
REMARK SMILES IDX 4 1 5 2 2 3 1 4 3 5 6 6 7 7 11 8 8 9 10 10 9 11
REMARK H PARENT
REMARK Flexibility Score: inf
ROOT
ATOM      1  C   UNL     1       4.312  14.748   6.880  1.00  0.00     0.025 C 
ATOM      2  C   UNL     1       5.158  14.367   7.849  1.00  0.00     0.010 C 
ENDROOT
BRANCH   1   3
ATOM      3  C   UNL     1       3.495  15.969   6.986  1.00  0.00     0.064 C 
ATOM      4  O   UNL     1       2.809  16.206   8.016  1.00  0.00    -0.545 OA
ATOM      5  O   UNL     1       3.481  16.874   5.934  1.00  0.00    -0.545 OA
ENDBRANCH   1   3
BRANCH   2   6
ATOM      6  C   UNL     1       6.010  13.147   7.803  1.00  0.00    -0.026 A 
ATOM      7  C   UNL     1       7.422  13.187   7.797  1.00  0.00     0.008 A 
ATOM      8  C   UNL     1       5.372  11.894   7.766  1.00  0.00     0.008 A 
ATOM      9  C   UNL     1       8.163  12.000   7.754  1.00  0.00     0.001 A 
ATOM     10  C   UNL     1       6.119  10.713   7.723  1.00  0.00     0.001 A 
ATOM     11  C   UNL     1       7.513  10.766   7.717  1.00  0.00     0.000 A 
ENDBRANCH   2   6
TORSDOF 2
ENDMDL
MODEL 6
REMARK VINA RESULT:    -3.734     10.669     11.657
REMARK INTER + INTRA:          -4.299
REMARK INTER:                  -4.156
REMARK INTRA:                  -0.143
REMARK UNBOUND:                -0.128
REMARK SMILES O=C([O-])C=Cc1ccccc1
REMARK SMILES IDX 4 1 5 2 2 3 1 4 3 5 6 6 7 7 11 8 8 9 10 10 9 11
REMARK H PARENT
REMARK Flexibility Score: inf
ROOT
ATOM      1  C   UNL     1      12.697  13.879  -2.152  1.00  0.00     0.025 C 
ATOM      2  C   UNL     1      14.026  14.003  -2.285  1.00  0.00     0.010 C 
ENDROOT
BRANCH   1   3
ATOM      3  C   UNL     1      11.751  14.706  -2.920  1.00  0.00     0.064 C 
ATOM      4  O   UNL     1      12.046  15.881  -3.268  1.00  0.00    -0.545 OA
ATOM      5  O   UNL     1      10.512  14.183  -3.266  1.00  0.00    -0.545 OA
ENDBRANCH   1   3
BRANCH   2   6
ATOM      6  C   UNL     1      15.034  13.199  -1.541  1.00  0.00    -0.026 A 
ATOM      7  C   UNL     1      16.333  13.669  -1.243  1.00  0.00     0.008 A 
ATOM      8  C   UNL     1      14.671  11.909  -1.114  1.00  0.00     0.008 A 
ATOM      9  C   UNL     1      17.233  12.861  -0.538  1.00  0.00     0.001 A 
ATOM     10  C   UNL     1      15.575  11.108  -0.411  1.00  0.00     0.001 A 
ATOM     11  C   UNL     1      16.855  11.584  -0.123  1.00  0.00     0.000 A 
ENDBRANCH   2   6
TORSDOF 2
ENDMDL
MODEL 7
REMARK VINA RESULT:    -3.710      3.306      5.370
REMARK INTER + INTRA:          -4.272
REMARK INTER:                  -4.130
REMARK INTRA:                  -0.142
REMARK UNBOUND:                -0.128
REMARK SMILES O=C([O-])C=Cc1ccccc1
REMARK SMILES IDX 4 1 5 2 2 3 1 4 3 5 6 6 7 7 11 8 8 9 10 10 9 11
REMARK H PARENT
REMARK Flexibility Score: inf
ROOT
ATOM      1  C   UNL     1       8.499  11.953   7.530  1.00  0.00     0.025 C 
ATOM      2  C   UNL     1       8.562  10.648   7.837  1.00  0.00     0.010 C 
ENDROOT
BRANCH   1   3
ATOM      3  C   UNL     1       7.572  12.875   8.207  1.00  0.00     0.064 C 
ATOM      4  O   UNL     1       7.724  13.179   9.421  1.00  0.00    -0.545 OA
ATOM      5  O   UNL     1       6.511  13.419   7.496  1.00  0.00    -0.545 OA
ENDBRANCH   1   3
BRANCH   2   6
ATOM      6  C   UNL     1       9.474   9.665   7.192  1.00  0.00    -0.026 A 
ATOM      7  C   UNL     1       9.888   8.466   7.815  1.00  0.00     0.008 A 
ATOM      8  C   UNL     1       9.944   9.947   5.896  1.00  0.00     0.008 A 
ATOM      9  C   UNL     1      10.749   7.585   7.151  1.00  0.00     0.001 A 
ATOM     10  C   UNL     1      10.803   9.061   5.239  1.00  0.00     0.001 A 
ATOM     11  C   UNL     1      11.205   7.881   5.867  1.00  0.00     0.000 A 
ENDBRANCH   2   6
TORSDOF 2
ENDMDL
MODEL 8
REMARK VINA RESULT:    -3.620      2.726      4.063
REMARK INTER + INTRA:          -4.171
REMARK INTER:                  -4.029
REMARK INTRA:                  -0.143
REMARK UNBOUND:                -0.128
REMARK SMILES O=C([O-])C=Cc1ccccc1
REMARK SMILES IDX 4 1 5 2 2 3 1 4 3 5 6 6 7 7 11 8 8 9 10 10 9 11
REMARK H PARENT
REMARK Flexibility Score: inf
ROOT
ATOM      1  C   UNL     1       7.744  12.107   7.854  1.00  0.00     0.025 C 
ATOM      2  C   UNL     1       6.483  11.771   8.169  1.00  0.00     0.010 C 
ENDROOT
BRANCH   1   3
ATOM      3  C   UNL     1       8.897  11.277   8.239  1.00  0.00     0.064 C 
ATOM      4  O   UNL     1       9.318  10.356   7.488  1.00  0.00    -0.545 OA
ATOM      5  O   UNL     1       9.534  11.513   9.450  1.00  0.00    -0.545 OA
ENDBRANCH   1   3
BRANCH   2   6
ATOM      6  C   UNL     1       5.276  12.564   7.812  1.00  0.00    -0.026 A 
ATOM      7  C   UNL     1       3.971  12.023   7.790  1.00  0.00     0.008 A 
ATOM      8  C   UNL     1       5.448  13.920   7.480  1.00  0.00     0.008 A 
ATOM      9  C   UNL     1       2.878  12.826   7.444  1.00  0.00     0.001 A 
ATOM     10  C   UNL     1       4.351  14.716   7.135  1.00  0.00     0.001 A 
ATOM     11  C   UNL     1       3.067  14.169   7.118  1.00  0.00     0.000 A 
ENDBRANCH   2   6
TORSDOF 2
ENDMDL
