MODEL 1
REMARK VINA RESULT:    -4.815      0.000      0.000
REMARK INTER + INTRA:          -5.914
REMARK INTER:                  -5.800
REMARK INTRA:                  -0.115
REMARK UNBOUND:                -0.115
REMARK SMILES NC(=O)C[C@H]([NH3+])C(=O)[O-]
REMARK SMILES IDX 4 1 5 2 6 3 7 7 8 8 9 9 2 10 3 11 1 12
REMARK H PARENT 6 4 6 5 6 6 1 13 1 14
REMARK Flexibility Score: inf
ROOT
ATOM      1  C   UNL     1     -21.790  69.452   1.111  1.00  0.00     0.171 C 
ENDROOT
BRANCH   1   2
ATOM      2  C   UNL     1     -21.841  68.823  -0.297  1.00  0.00     0.237 C 
BRANCH   2   3
ATOM      3  N   UNL     1     -23.084  68.062  -0.474  1.00  0.00    -0.350 N 
ATOM      4  H   UNL     1     -23.890  68.606  -0.093  1.00  0.00     0.345 HD
ATOM      5  H   UNL     1     -23.028  67.142   0.021  1.00  0.00     0.345 HD
ATOM      6  H   UNL     1     -23.255  67.894  -1.492  1.00  0.00     0.345 HD
ENDBRANCH   2   3
BRANCH   2   7
ATOM      7  C   UNL     1     -20.646  67.938  -0.538  1.00  0.00     0.100 C 
ATOM      8  O   UNL     1     -19.802  67.740   0.376  1.00  0.00    -0.544 OA
ATOM      9  O   UNL     1     -20.462  67.345  -1.781  1.00  0.00    -0.544 OA
ENDBRANCH   2   7
ENDBRANCH   1   2
BRANCH   1  10
ATOM     10  C   UNL     1     -21.466  70.917   1.050  1.00  0.00     0.223 C 
ATOM     11  O   UNL     1     -20.986  71.408  -0.006  1.00  0.00    -0.275 OA
ATOM     12  N   UNL     1     -21.662  71.751   2.192  1.00  0.00    -0.369 N 
ATOM     13  H   UNL     1     -22.041  71.358   3.082  1.00  0.00     0.159 HD
ATOM     14  H   UNL     1     -21.422  72.767   2.150  1.00  0.00     0.159 HD
ENDBRANCH   1  10
TORSDOF 4
ENDMDL
MODEL 2
REMARK VINA RESULT:    -4.746      2.047      3.420
REMARK INTER + INTRA:          -5.831
REMARK INTER:                  -5.635
REMARK INTRA:                  -0.196
REMARK UNBOUND:                -0.115
REMARK SMILES NC(=O)C[C@H]([NH3+])C(=O)[O-]
REMARK SMILES IDX 4 1 5 2 6 3 7 7 8 8 9 9 2 10 3 11 1 12
REMARK H PARENT 6 4 6 5 6 6 1 13 1 14
REMARK Flexibility Score: inf
ROOT
ATOM      1  C   UNL     1     -20.731  68.355  -1.431  1.00  0.00     0.171 C 
ENDROOT
BRANCH   1   2
ATOM      2  C   UNL     1     -21.719  68.080  -0.278  1.00  0.00     0.237 C 
BRANCH   2   3
ATOM      3  N   UNL     1     -23.104  68.236  -0.741  1.00  0.00    -0.350 N 
ATOM      4  H   UNL     1     -23.654  67.378  -0.509  1.00  0.00     0.345 HD
ATOM      5  H   UNL     1     -23.133  68.392  -1.775  1.00  0.00     0.345 HD
ATOM      6  H   UNL     1     -23.550  69.050  -0.258  1.00  0.00     0.345 HD
ENDBRANCH   2   3
BRANCH   2   7
ATOM      7  C   UNL     1     -21.453  68.992   0.892  1.00  0.00     0.100 C 
ATOM      8  O   UNL     1     -21.267  68.517   2.043  1.00  0.00    -0.544 OA
ATOM      9  O   UNL     1     -21.428  70.368   0.706  1.00  0.00    -0.544 OA
ENDBRANCH   2   7
ENDBRANCH   1   2
BRANCH   1  10
ATOM     10  C   UNL     1     -19.315  68.058  -1.028  1.00  0.00     0.223 C 
ATOM     11  O   UNL     1     -18.995  66.888  -0.686  1.00  0.00    -0.275 OA
ATOM     12  N   UNL     1     -18.338  69.097  -0.992  1.00  0.00    -0.369 N 
ATOM     13  H   UNL     1     -18.590  70.076  -1.255  1.00  0.00     0.159 HD
ATOM     14  H   UNL     1     -17.357  68.889  -0.698  1.00  0.00     0.159 HD
ENDBRANCH   1  10
TORSDOF 4
ENDMDL
MODEL 3
REMARK VINA RESULT:    -4.638      2.231      2.944
REMARK INTER + INTRA:          -5.701
REMARK INTER:                  -5.517
REMARK INTRA:                  -0.185
REMARK UNBOUND:                -0.115
REMARK SMILES NC(=O)C[C@H]([NH3+])C(=O)[O-]
REMARK SMILES IDX 4 1 5 2 6 3 7 7 8 8 9 9 2 10 3 11 1 12
REMARK H PARENT 6 4 6 5 6 6 1 13 1 14
REMARK Flexibility Score: inf
ROOT
ATOM      1  C   UNL     1     -20.570  69.332  -0.245  1.00  0.00     0.171 C 
ENDROOT
BRANCH   1   2
ATOM      2  C   UNL     1     -19.306  68.466  -0.428  1.00  0.00     0.237 C 
BRANCH   2   3
ATOM      3  N   UNL     1     -18.255  69.230  -1.112  1.00  0.00    -0.350 N 
ATOM      4  H   UNL     1     -18.672  70.072  -1.572  1.00  0.00     0.345 HD
ATOM      5  H   UNL     1     -17.784  68.642  -1.838  1.00  0.00     0.345 HD
ATOM      6  H   UNL     1     -17.544  69.555  -0.417  1.00  0.00     0.345 HD
ENDBRANCH   2   3
BRANCH   2   7
ATOM      7  C   UNL     1     -19.619  67.206  -1.194  1.00  0.00     0.100 C 
ATOM      8  O   UNL     1     -18.883  66.190  -1.081  1.00  0.00    -0.544 OA
ATOM      9  O   UNL     1     -20.718  67.166  -2.043  1.00  0.00    -0.544 OA
ENDBRANCH   2   7
ENDBRANCH   1   2
BRANCH   1  10
ATOM     10  C   UNL     1     -21.568  68.669   0.660  1.00  0.00     0.223 C 
ATOM     11  O   UNL     1     -21.287  68.487   1.874  1.00  0.00    -0.275 OA
ATOM     12  N   UNL     1     -22.818  68.208   0.147  1.00  0.00    -0.369 N 
ATOM     13  H   UNL     1     -23.060  68.333  -0.861  1.00  0.00     0.159 HD
ATOM     14  H   UNL     1     -23.504  67.734   0.777  1.00  0.00     0.159 HD
ENDBRANCH   1  10
TORSDOF 4
ENDMDL
MODEL 4
REMARK VINA RESULT:    -4.398      2.532      3.624
REMARK INTER + INTRA:          -5.413
REMARK INTER:                  -5.247
REMARK INTRA:                  -0.166
REMARK UNBOUND:                -0.115
REMARK SMILES NC(=O)C[C@H]([NH3+])C(=O)[O-]
REMARK SMILES IDX 4 1 5 2 6 3 7 7 8 8 9 9 2 10 3 11 1 12
REMARK H PARENT 6 4 6 5 6 6 1 13 1 14
REMARK Flexibility Score: inf
ROOT
ATOM      1  C   UNL     1     -20.355  68.200  -1.487  1.00  0.00     0.171 C 
ENDROOT
BRANCH   1   2
ATOM      2  C   UNL     1     -21.464  69.100  -0.903  1.00  0.00     0.237 C 
BRANCH   2   3
ATOM      3  N   UNL     1     -20.903  70.029   0.086  1.00  0.00    -0.350 N 
ATOM      4  H   UNL     1     -19.891  69.814   0.240  1.00  0.00     0.345 HD
ATOM      5  H   UNL     1     -21.412  69.953   0.997  1.00  0.00     0.345 HD
ATOM      6  H   UNL     1     -20.978  71.011  -0.268  1.00  0.00     0.345 HD
ENDBRANCH   2   3
BRANCH   2   7
ATOM      7  C   UNL     1     -22.559  68.273  -0.280  1.00  0.00     0.100 C 
ATOM      8  O   UNL     1     -23.331  67.587  -1.001  1.00  0.00    -0.544 OA
ATOM      9  O   UNL     1     -22.733  68.277   1.098  1.00  0.00    -0.544 OA
ENDBRANCH   2   7
ENDBRANCH   1   2
BRANCH   1  10
ATOM     10  C   UNL     1     -19.185  68.089  -0.553  1.00  0.00     0.223 C 
ATOM     11  O   UNL     1     -19.230  67.281   0.412  1.00  0.00    -0.275 OA
ATOM     12  N   UNL     1     -18.036  68.918  -0.727  1.00  0.00    -0.369 N 
ATOM     13  H   UNL     1     -17.989  69.607  -1.511  1.00  0.00     0.159 HD
ATOM     14  H   UNL     1     -17.230  68.848  -0.067  1.00  0.00     0.159 HD
ENDBRANCH   1  10
TORSDOF 4
ENDMDL
MODEL 5
REMARK VINA RESULT:    -4.382      2.119      2.456
REMARK INTER + INTRA:          -5.394
REMARK INTER:                  -5.329
REMARK INTRA:                  -0.065
REMARK UNBOUND:                -0.115
REMARK SMILES NC(=O)C[C@H]([NH3+])C(=O)[O-]
REMARK SMILES IDX 4 1 5 2 6 3 7 7 8 8 9 9 2 10 3 11 1 12
REMARK H PARENT 6 4 6 5 6 6 1 13 1 14
REMARK Flexibility Score: inf
ROOT
ATOM      1  C   UNL     1     -21.679  68.039  -0.658  1.00  0.00     0.171 C 
ENDROOT
BRANCH   1   2
ATOM      2  C   UNL     1     -20.412  67.770  -1.496  1.00  0.00     0.237 C 
BRANCH   2   3
ATOM      3  N   UNL     1     -20.506  66.467  -2.166  1.00  0.00    -0.350 N 
ATOM      4  H   UNL     1     -20.387  65.700  -1.467  1.00  0.00     0.345 HD
ATOM      5  H   UNL     1     -19.769  66.376  -2.903  1.00  0.00     0.345 HD
ATOM      6  H   UNL     1     -21.449  66.364  -2.608  1.00  0.00     0.345 HD
ENDBRANCH   2   3
BRANCH   2   7
ATOM      7  C   UNL     1     -19.174  67.829  -0.639  1.00  0.00     0.100 C 
ATOM      8  O   UNL     1     -18.859  66.856   0.097  1.00  0.00    -0.544 OA
ATOM      9  O   UNL     1     -18.378  68.967  -0.646  1.00  0.00    -0.544 OA
ENDBRANCH   2   7
ENDBRANCH   1   2
BRANCH   1  10
ATOM     10  C   UNL     1     -21.435  69.080   0.395  1.00  0.00     0.223 C 
ATOM     11  O   UNL     1     -21.490  68.763   1.614  1.00  0.00    -0.275 OA
ATOM     12  N   UNL     1     -21.179  70.436   0.029  1.00  0.00    -0.369 N 
ATOM     13  H   UNL     1     -21.148  70.721  -0.975  1.00  0.00     0.159 HD
ATOM     14  H   UNL     1     -21.023  71.161   0.766  1.00  0.00     0.159 HD
ENDBRANCH   1  10
TORSDOF 4
ENDMDL
MODEL 6
REMARK VINA RESULT:    -3.970      2.612      4.197
REMARK INTER + INTRA:          -4.897
REMARK INTER:                  -4.555
REMARK INTRA:                  -0.341
REMARK UNBOUND:                -0.115
REMARK SMILES NC(=O)C[C@H]([NH3+])C(=O)[O-]
REMARK SMILES IDX 4 1 5 2 6 3 7 7 8 8 9 9 2 10 3 11 1 12
REMARK H PARENT 6 4 6 5 6 6 1 13 1 14
REMARK Flexibility Score: inf
ROOT
ATOM      1  C   UNL     1     -20.033  68.308  -1.503  1.00  0.00     0.171 C 
ENDROOT
BRANCH   1   2
ATOM      2  C   UNL     1     -20.497  68.615  -0.064  1.00  0.00     0.237 C 
BRANCH   2   3
ATOM      3  N   UNL     1     -19.922  67.646   0.878  1.00  0.00    -0.350 N 
ATOM      4  H   UNL     1     -19.723  66.747   0.383  1.00  0.00     0.345 HD
ATOM      5  H   UNL     1     -20.582  67.463   1.668  1.00  0.00     0.345 HD
ATOM      6  H   UNL     1     -19.021  68.016   1.261  1.00  0.00     0.345 HD
ENDBRANCH   2   3
BRANCH   2   7
ATOM      7  C   UNL     1     -22.001  68.610   0.033  1.00  0.00     0.100 C 
ATOM      8  O   UNL     1     -22.582  69.184   0.992  1.00  0.00    -0.544 OA
ATOM      9  O   UNL     1     -22.756  67.955  -0.932  1.00  0.00    -0.544 OA
ENDBRANCH   2   7
ENDBRANCH   1   2
BRANCH   1  10
ATOM     10  C   UNL     1     -19.894  66.831  -1.736  1.00  0.00     0.223 C 
ATOM     11  O   UNL     1     -18.894  66.217  -1.275  1.00  0.00    -0.275 OA
ATOM     12  N   UNL     1     -20.864  66.124  -2.506  1.00  0.00    -0.369 N 
ATOM     13  H   UNL     1     -21.689  66.620  -2.911  1.00  0.00     0.159 HD
ATOM     14  H   UNL     1     -20.756  65.099  -2.678  1.00  0.00     0.159 HD
ENDBRANCH   1  10
TORSDOF 4
ENDMDL
MODEL 7
REMARK VINA RESULT:    -3.681      2.524      3.449
REMARK INTER + INTRA:          -4.549
REMARK INTER:                  -4.380
REMARK INTRA:                  -0.169
REMARK UNBOUND:                -0.115
REMARK SMILES NC(=O)C[C@H]([NH3+])C(=O)[O-]
REMARK SMILES IDX 4 1 5 2 6 3 7 7 8 8 9 9 2 10 3 11 1 12
REMARK H PARENT 6 4 6 5 6 6 1 13 1 14
REMARK Flexibility Score: inf
ROOT
ATOM      1  C   UNL     1     -21.075  69.210  -0.917  1.00  0.00     0.171 C 
ENDROOT
BRANCH   1   2
ATOM      2  C   UNL     1     -19.680  68.892  -0.340  1.00  0.00     0.237 C 
BRANCH   2   3
ATOM      3  N   UNL     1     -18.766  68.469  -1.409  1.00  0.00    -0.350 N 
ATOM      4  H   UNL     1     -18.983  67.486  -1.691  1.00  0.00     0.345 HD
ATOM      5  H   UNL     1     -17.772  68.522  -1.088  1.00  0.00     0.345 HD
ATOM      6  H   UNL     1     -18.890  69.084  -2.246  1.00  0.00     0.345 HD
ENDBRANCH   2   3
BRANCH   2   7
ATOM      7  C   UNL     1     -19.764  67.831   0.727  1.00  0.00     0.100 C 
ATOM      8  O   UNL     1     -19.006  66.826   0.689  1.00  0.00    -0.544 OA
ATOM      9  O   UNL     1     -20.693  67.950   1.752  1.00  0.00    -0.544 OA
ENDBRANCH   2   7
ENDBRANCH   1   2
BRANCH   1  10
ATOM     10  C   UNL     1     -21.888  67.963  -1.114  1.00  0.00     0.223 C 
ATOM     11  O   UNL     1     -21.453  67.042  -1.856  1.00  0.00    -0.275 OA
ATOM     12  N   UNL     1     -23.169  67.829  -0.498  1.00  0.00    -0.369 N 
ATOM     13  H   UNL     1     -23.554  68.589   0.105  1.00  0.00     0.159 HD
ATOM     14  H   UNL     1     -23.738  66.965  -0.649  1.00  0.00     0.159 HD
ENDBRANCH   1  10
TORSDOF 4
ENDMDL
MODEL 8
REMARK VINA RESULT:    -3.474      3.101      3.596
REMARK INTER + INTRA:          -4.299
REMARK INTER:                  -4.201
REMARK INTRA:                  -0.099
REMARK UNBOUND:                -0.115
REMARK SMILES NC(=O)C[C@H]([NH3+])C(=O)[O-]
REMARK SMILES IDX 4 1 5 2 6 3 7 7 8 8 9 9 2 10 3 11 1 12
REMARK H PARENT 6 4 6 5 6 6 1 13 1 14
REMARK Flexibility Score: inf
ROOT
ATOM      1  C   UNL     1     -19.716  68.378  -1.889  1.00  0.00     0.171 C 
ENDROOT
BRANCH   1   2
ATOM      2  C   UNL     1     -20.707  67.351  -1.303  1.00  0.00     0.237 C 
BRANCH   2   3
ATOM      3  N   UNL     1     -21.021  66.316  -2.295  1.00  0.00    -0.350 N 
ATOM      4  H   UNL     1     -21.333  65.444  -1.811  1.00  0.00     0.345 HD
ATOM      5  H   UNL     1     -20.182  66.100  -2.883  1.00  0.00     0.345 HD
ATOM      6  H   UNL     1     -21.799  66.642  -2.914  1.00  0.00     0.345 HD
ENDBRANCH   2   3
BRANCH   2   7
ATOM      7  C   UNL     1     -21.970  68.025  -0.832  1.00  0.00     0.100 C 
ATOM      8  O   UNL     1     -23.097  67.545  -1.124  1.00  0.00    -0.544 OA
ATOM      9  O   UNL     1     -21.896  69.193  -0.085  1.00  0.00    -0.544 OA
ENDBRANCH   2   7
ENDBRANCH   1   2
BRANCH   1  10
ATOM     10  C   UNL     1     -18.615  68.699  -0.920  1.00  0.00     0.223 C 
ATOM     11  O   UNL     1     -18.245  69.894  -0.768  1.00  0.00    -0.275 OA
ATOM     12  N   UNL     1     -17.957  67.658  -0.199  1.00  0.00    -0.369 N 
ATOM     13  H   UNL     1     -18.238  66.660  -0.327  1.00  0.00     0.159 HD
ATOM     14  H   UNL     1     -17.182  67.884   0.464  1.00  0.00     0.159 HD
ENDBRANCH   1  10
TORSDOF 4
ENDMDL
MODEL 9
REMARK VINA RESULT:    -3.302     11.987     12.938
REMARK INTER + INTRA:          -4.092
REMARK INTER:                  -3.959
REMARK INTRA:                  -0.133
REMARK UNBOUND:                -0.115
REMARK SMILES NC(=O)C[C@H]([NH3+])C(=O)[O-]
REMARK SMILES IDX 4 1 5 2 6 3 7 7 8 8 9 9 2 10 3 11 1 12
REMARK H PARENT 6 4 6 5 6 6 1 13 1 14
REMARK Flexibility Score: inf
ROOT
ATOM      1  C   UNL     1     -17.869  63.025  11.507  1.00  0.00     0.171 C 
ENDROOT
BRANCH   1   2
ATOM      2  C   UNL     1     -16.981  64.048  10.767  1.00  0.00     0.237 C 
BRANCH   2   3
ATOM      3  N   UNL     1     -15.944  64.571  11.665  1.00  0.00    -0.350 N 
ATOM      4  H   UNL     1     -15.086  64.807  11.117  1.00  0.00     0.345 HD
ATOM      5  H   UNL     1     -15.699  63.866  12.398  1.00  0.00     0.345 HD
ATOM      6  H   UNL     1     -16.285  65.444  12.130  1.00  0.00     0.345 HD
ENDBRANCH   2   3
BRANCH   2   7
ATOM      7  C   UNL     1     -17.807  65.177  10.207  1.00  0.00     0.100 C 
ATOM      8  O   UNL     1     -18.039  66.203  10.900  1.00  0.00    -0.544 OA
ATOM      9  O   UNL     1     -18.330  65.083   8.924  1.00  0.00    -0.544 OA
ENDBRANCH   2   7
ENDBRANCH   1   2
BRANCH   1  10
ATOM     10  C   UNL     1     -18.125  61.807  10.667  1.00  0.00     0.223 C 
ATOM     11  O   UNL     1     -17.661  61.744   9.497  1.00  0.00    -0.275 OA
ATOM     12  N   UNL     1     -18.924  60.736  11.168  1.00  0.00    -0.369 N 
ATOM     13  H   UNL     1     -19.333  60.778  12.128  1.00  0.00     0.159 HD
ATOM     14  H   UNL     1     -19.112  59.896  10.575  1.00  0.00     0.159 HD
ENDBRANCH   1  10
TORSDOF 4
ENDMDL
