MODEL 1
REMARK VINA RESULT:    -4.627      0.000      0.000
REMARK INTER + INTRA:          -9.091
REMARK INTER:                  -7.874
REMARK INTRA:                  -1.217
REMARK UNBOUND:                -1.217
REMARK SMILES CCCCCCCCCCCCCC(=O)[O-]
REMARK SMILES IDX 8 1 9 2 10 3 11 4 12 5 13 6 14 7 15 8 16 9 7 10 6 11 5 12
REMARK SMILES IDX 4 13 3 14 2 15 1 16
REMARK H PARENT
REMARK Flexibility Score: inf
ROOT
ATOM      1  C   UNL     1       3.381  57.490  24.445  1.00  0.00     0.000 C 
ENDROOT
BRANCH   1   2
ATOM      2  C   UNL     1       2.174  57.349  25.390  1.00  0.00     0.000 C 
BRANCH   2   3
ATOM      3  C   UNL     1       0.844  57.685  24.699  1.00  0.00     0.000 C 
BRANCH   3   4
ATOM      4  C   UNL     1      -0.078  58.551  25.576  1.00  0.00     0.000 C 
BRANCH   4   5
ATOM      5  C   UNL     1       0.096  60.059  25.315  1.00  0.00     0.006 C 
BRANCH   5   6
ATOM      6  C   UNL     1       0.288  60.422  23.834  1.00  0.00     0.053 C 
BRANCH   6   7
ATOM      7  C   UNL     1      -0.663  61.492  23.391  1.00  0.00     0.041 C 
ATOM      8  O   UNL     1      -0.501  62.681  23.772  1.00  0.00    -0.550 OA
ATOM      9  O   UNL     1      -1.708  61.181  22.530  1.00  0.00    -0.550 OA
ENDBRANCH   6   7
ENDBRANCH   5   6
ENDBRANCH   4   5
ENDBRANCH   3   4
ENDBRANCH   2   3
ENDBRANCH   1   2
BRANCH   1  10
ATOM     10  C   UNL     1       3.176  58.587  23.388  1.00  0.00     0.000 C 
BRANCH  10  11
ATOM     11  C   UNL     1       3.128  58.025  21.957  1.00  0.00    -0.000 C 
BRANCH  11  12
ATOM     12  C   UNL     1       2.032  56.962  21.771  1.00  0.00    -0.000 C 
BRANCH  12  13
ATOM     13  C   UNL     1       2.382  55.890  20.717  1.00  0.00    -0.000 C 
BRANCH  13  14
ATOM     14  C   UNL     1       2.492  54.484  21.334  1.00  0.00    -0.000 C 
BRANCH  14  15
ATOM     15  C   UNL     1       2.155  54.468  22.832  1.00  0.00    -0.003 C 
ATOM     16  C   UNL     1       3.336  54.033  23.700  1.00  0.00     0.004 C 
ENDBRANCH  14  15
ENDBRANCH  13  14
ENDBRANCH  12  13
ENDBRANCH  11  12
ENDBRANCH  10  11
ENDBRANCH   1  10
TORSDOF 12
ENDMDL
MODEL 2
REMARK VINA RESULT:    -4.479      3.279      6.094
REMARK INTER + INTRA:          -8.838
REMARK INTER:                  -7.315
REMARK INTRA:                  -1.523
REMARK UNBOUND:                -1.217
REMARK SMILES CCCCCCCCCCCCCC(=O)[O-]
REMARK SMILES IDX 8 1 9 2 10 3 11 4 12 5 13 6 14 7 15 8 16 9 7 10 6 11 5 12
REMARK SMILES IDX 4 13 3 14 2 15 1 16
REMARK H PARENT
REMARK Flexibility Score: inf
ROOT
ATOM      1  C   UNL     1       2.703  56.848  24.611  1.00  0.00     0.000 C 
ENDROOT
BRANCH   1   2
ATOM      2  C   UNL     1       3.432  57.796  23.641  1.00  0.00     0.000 C 
BRANCH   2   3
ATOM      3  C   UNL     1       2.897  57.690  22.204  1.00  0.00     0.000 C 
BRANCH   3   4
ATOM      4  C   UNL     1       1.804  56.618  22.055  1.00  0.00     0.000 C 
BRANCH   4   5
ATOM      5  C   UNL     1       2.014  55.721  20.820  1.00  0.00     0.006 C 
BRANCH   5   6
ATOM      6  C   UNL     1       2.738  54.398  21.119  1.00  0.00     0.053 C 
BRANCH   6   7
ATOM      7  C   UNL     1       2.317  53.814  22.433  1.00  0.00     0.041 C 
ATOM      8  O   UNL     1       3.079  53.885  23.432  1.00  0.00    -0.550 OA
ATOM      9  O   UNL     1       1.067  53.220  22.562  1.00  0.00    -0.550 OA
ENDBRANCH   6   7
ENDBRANCH   5   6
ENDBRANCH   4   5
ENDBRANCH   3   4
ENDBRANCH   2   3
ENDBRANCH   1   2
BRANCH   1  10
ATOM     10  C   UNL     1       1.887  57.606  25.672  1.00  0.00     0.000 C 
BRANCH  10  11
ATOM     11  C   UNL     1       0.452  57.908  25.206  1.00  0.00    -0.000 C 
BRANCH  11  12
ATOM     12  C   UNL     1       0.151  59.415  25.144  1.00  0.00    -0.000 C 
BRANCH  12  13
ATOM     13  C   UNL     1       0.301  60.018  23.731  1.00  0.00    -0.000 C 
BRANCH  13  14
ATOM     14  C   UNL     1       1.023  61.377  23.754  1.00  0.00    -0.000 C 
BRANCH  14  15
ATOM     15  C   UNL     1       2.551  61.237  23.691  1.00  0.00    -0.003 C 
ATOM     16  C   UNL     1       3.105  61.424  22.279  1.00  0.00     0.004 C 
ENDBRANCH  14  15
ENDBRANCH  13  14
ENDBRANCH  12  13
ENDBRANCH  11  12
ENDBRANCH  10  11
ENDBRANCH   1  10
TORSDOF 12
ENDMDL
MODEL 3
REMARK VINA RESULT:    -4.447      1.338      3.149
REMARK INTER + INTRA:          -8.784
REMARK INTER:                  -7.103
REMARK INTRA:                  -1.681
REMARK UNBOUND:                -1.217
REMARK SMILES CCCCCCCCCCCCCC(=O)[O-]
REMARK SMILES IDX 8 1 9 2 10 3 11 4 12 5 13 6 14 7 15 8 16 9 7 10 6 11 5 12
REMARK SMILES IDX 4 13 3 14 2 15 1 16
REMARK H PARENT
REMARK Flexibility Score: inf
ROOT
ATOM      1  C   UNL     1       0.991  57.797  22.441  1.00  0.00     0.000 C 
ENDROOT
BRANCH   1   2
ATOM      2  C   UNL     1       2.347  57.449  21.800  1.00  0.00     0.000 C 
BRANCH   2   3
ATOM      3  C   UNL     1       3.476  58.377  22.271  1.00  0.00     0.000 C 
BRANCH   3   4
ATOM      4  C   UNL     1       3.095  59.866  22.186  1.00  0.00     0.000 C 
BRANCH   4   5
ATOM      5  C   UNL     1       2.802  60.485  23.566  1.00  0.00     0.006 C 
BRANCH   5   6
ATOM      6  C   UNL     1       1.765  61.620  23.539  1.00  0.00     0.053 C 
BRANCH   6   7
ATOM      7  C   UNL     1       0.428  61.169  24.044  1.00  0.00     0.041 C 
ATOM      8  O   UNL     1       0.234  61.024  25.278  1.00  0.00    -0.550 OA
ATOM      9  O   UNL     1      -0.612  60.944  23.151  1.00  0.00    -0.550 OA
ENDBRANCH   6   7
ENDBRANCH   5   6
ENDBRANCH   4   5
ENDBRANCH   3   4
ENDBRANCH   2   3
ENDBRANCH   1   2
BRANCH   1  10
ATOM     10  C   UNL     1       0.685  56.933  23.676  1.00  0.00     0.000 C 
BRANCH  10  11
ATOM     11  C   UNL     1       1.064  57.632  24.992  1.00  0.00    -0.000 C 
BRANCH  11  12
ATOM     12  C   UNL     1       2.466  57.243  25.492  1.00  0.00    -0.000 C 
BRANCH  12  13
ATOM     13  C   UNL     1       2.705  55.719  25.543  1.00  0.00    -0.000 C 
BRANCH  13  14
ATOM     14  C   UNL     1       3.605  55.234  24.392  1.00  0.00    -0.000 C 
BRANCH  14  15
ATOM     15  C   UNL     1       3.211  53.841  23.880  1.00  0.00    -0.003 C 
ATOM     16  C   UNL     1       2.371  53.896  22.604  1.00  0.00     0.004 C 
ENDBRANCH  14  15
ENDBRANCH  13  14
ENDBRANCH  12  13
ENDBRANCH  11  12
ENDBRANCH  10  11
ENDBRANCH   1  10
TORSDOF 12
ENDMDL
MODEL 4
REMARK VINA RESULT:    -4.404      3.523      5.762
REMARK INTER + INTRA:          -8.711
REMARK INTER:                  -7.007
REMARK INTRA:                  -1.704
REMARK UNBOUND:                -1.217
REMARK SMILES CCCCCCCCCCCCCC(=O)[O-]
REMARK SMILES IDX 8 1 9 2 10 3 11 4 12 5 13 6 14 7 15 8 16 9 7 10 6 11 5 12
REMARK SMILES IDX 4 13 3 14 2 15 1 16
REMARK H PARENT
REMARK Flexibility Score: inf
ROOT
ATOM      1  C   UNL     1       1.697  57.031  21.897  1.00  0.00     0.000 C 
ENDROOT
BRANCH   1   2
ATOM      2  C   UNL     1       0.821  57.790  22.910  1.00  0.00     0.000 C 
BRANCH   2   3
ATOM      3  C   UNL     1       0.658  57.027  24.234  1.00  0.00     0.000 C 
BRANCH   3   4
ATOM      4  C   UNL     1       1.620  57.523  25.327  1.00  0.00     0.000 C 
BRANCH   4   5
ATOM      5  C   UNL     1       2.941  56.731  25.361  1.00  0.00     0.006 C 
BRANCH   5   6
ATOM      6  C   UNL     1       2.759  55.211  25.504  1.00  0.00     0.053 C 
BRANCH   6   7
ATOM      7  C   UNL     1       3.505  54.455  24.447  1.00  0.00     0.041 C 
ATOM      8  O   UNL     1       4.674  54.044  24.667  1.00  0.00    -0.550 OA
ATOM      9  O   UNL     1       2.895  54.176  23.230  1.00  0.00    -0.550 OA
ENDBRANCH   6   7
ENDBRANCH   5   6
ENDBRANCH   4   5
ENDBRANCH   3   4
ENDBRANCH   2   3
ENDBRANCH   1   2
BRANCH   1  10
ATOM     10  C   UNL     1       3.049  57.723  21.653  1.00  0.00     0.000 C 
BRANCH  10  11
ATOM     11  C   UNL     1       3.274  58.922  22.589  1.00  0.00    -0.000 C 
BRANCH  11  12
ATOM     12  C   UNL     1       3.424  60.251  21.829  1.00  0.00    -0.000 C 
BRANCH  12  13
ATOM     13  C   UNL     1       2.851  61.467  22.588  1.00  0.00    -0.000 C 
BRANCH  13  14
ATOM     14  C   UNL     1       2.151  61.056  23.896  1.00  0.00    -0.000 C 
BRANCH  14  15
ATOM     15  C   UNL     1       0.643  61.342  23.875  1.00  0.00    -0.003 C 
ATOM     16  C   UNL     1      -0.078  60.808  25.113  1.00  0.00     0.004 C 
ENDBRANCH  14  15
ENDBRANCH  13  14
ENDBRANCH  12  13
ENDBRANCH  11  12
ENDBRANCH  10  11
ENDBRANCH   1  10
TORSDOF 12
ENDMDL
MODEL 5
REMARK VINA RESULT:    -4.305      3.101      5.945
REMARK INTER + INTRA:          -8.542
REMARK INTER:                  -7.327
REMARK INTRA:                  -1.215
REMARK UNBOUND:                -1.217
REMARK SMILES CCCCCCCCCCCCCC(=O)[O-]
REMARK SMILES IDX 8 1 9 2 10 3 11 4 12 5 13 6 14 7 15 8 16 9 7 10 6 11 5 12
REMARK SMILES IDX 4 13 3 14 2 15 1 16
REMARK H PARENT
REMARK Flexibility Score: inf
ROOT
ATOM      1  C   UNL     1       3.100  58.154  21.894  1.00  0.00     0.000 C 
ENDROOT
BRANCH   1   2
ATOM      2  C   UNL     1       2.006  57.070  21.880  1.00  0.00     0.000 C 
BRANCH   2   3
ATOM      3  C   UNL     1       2.215  56.038  20.761  1.00  0.00     0.000 C 
BRANCH   3   4
ATOM      4  C   UNL     1       2.488  54.624  21.302  1.00  0.00     0.000 C 
BRANCH   4   5
ATOM      5  C   UNL     1       2.110  54.472  22.788  1.00  0.00     0.006 C 
BRANCH   5   6
ATOM      6  C   UNL     1       3.273  54.034  23.691  1.00  0.00     0.053 C 
BRANCH   6   7
ATOM      7  C   UNL     1       3.305  54.804  24.977  1.00  0.00     0.041 C 
ATOM      8  O   UNL     1       3.723  54.259  26.031  1.00  0.00    -0.550 OA
ATOM      9  O   UNL     1       2.903  56.134  25.001  1.00  0.00    -0.550 OA
ENDBRANCH   6   7
ENDBRANCH   5   6
ENDBRANCH   4   5
ENDBRANCH   3   4
ENDBRANCH   2   3
ENDBRANCH   1   2
BRANCH   1  10
ATOM     10  C   UNL     1       2.995  59.080  23.117  1.00  0.00     0.000 C 
BRANCH  10  11
ATOM     11  C   UNL     1       2.654  60.529  22.731  1.00  0.00    -0.000 C 
BRANCH  11  12
ATOM     12  C   UNL     1       1.673  61.192  23.713  1.00  0.00    -0.000 C 
BRANCH  12  13
ATOM     13  C   UNL     1       0.244  60.613  23.647  1.00  0.00    -0.000 C 
BRANCH  13  14
ATOM     14  C   UNL     1      -0.382  60.451  25.043  1.00  0.00    -0.000 C 
BRANCH  14  15
ATOM     15  C   UNL     1      -0.015  59.115  25.705  1.00  0.00    -0.003 C 
ATOM     16  C   UNL     1      -0.018  57.947  24.719  1.00  0.00     0.004 C 
ENDBRANCH  14  15
ENDBRANCH  13  14
ENDBRANCH  12  13
ENDBRANCH  11  12
ENDBRANCH  10  11
ENDBRANCH   1  10
TORSDOF 12
ENDMDL
MODEL 6
REMARK VINA RESULT:    -4.269      3.731      8.023
REMARK INTER + INTRA:          -8.481
REMARK INTER:                  -7.661
REMARK INTRA:                  -0.820
REMARK UNBOUND:                -1.217
REMARK SMILES CCCCCCCCCCCCCC(=O)[O-]
REMARK SMILES IDX 8 1 9 2 10 3 11 4 12 5 13 6 14 7 15 8 16 9 7 10 6 11 5 12
REMARK SMILES IDX 4 13 3 14 2 15 1 16
REMARK H PARENT
REMARK Flexibility Score: inf
ROOT
ATOM      1  C   UNL     1      -1.318  61.355  22.927  1.00  0.00     0.000 C 
ENDROOT
BRANCH   1   2
ATOM      2  C   UNL     1      -0.005  61.168  23.708  1.00  0.00     0.000 C 
BRANCH   2   3
ATOM      3  C   UNL     1      -0.226  60.525  25.086  1.00  0.00     0.000 C 
BRANCH   3   4
ATOM      4  C   UNL     1       0.164  59.036  25.114  1.00  0.00     0.000 C 
BRANCH   4   5
ATOM      5  C   UNL     1       1.295  58.699  24.124  1.00  0.00     0.006 C 
BRANCH   5   6
ATOM      6  C   UNL     1       0.888  57.716  23.015  1.00  0.00     0.053 C 
BRANCH   6   7
ATOM      7  C   UNL     1       2.040  57.370  22.122  1.00  0.00     0.041 C 
ATOM      8  O   UNL     1       2.070  56.262  21.527  1.00  0.00    -0.550 OA
ATOM      9  O   UNL     1       3.063  58.288  21.921  1.00  0.00    -0.550 OA
ENDBRANCH   6   7
ENDBRANCH   5   6
ENDBRANCH   4   5
ENDBRANCH   3   4
ENDBRANCH   2   3
ENDBRANCH   1   2
BRANCH   1  10
ATOM     10  C   UNL     1      -1.818  62.809  22.953  1.00  0.00     0.000 C 
BRANCH  10  11
ATOM     11  C   UNL     1      -0.722  63.801  23.379  1.00  0.00    -0.000 C 
BRANCH  11  12
ATOM     12  C   UNL     1      -1.225  65.253  23.445  1.00  0.00    -0.000 C 
BRANCH  12  13
ATOM     13  C   UNL     1      -1.175  65.988  22.088  1.00  0.00    -0.000 C 
BRANCH  13  14
ATOM     14  C   UNL     1      -2.565  66.476  21.642  1.00  0.00    -0.000 C 
BRANCH  14  15
ATOM     15  C   UNL     1      -3.689  65.988  22.568  1.00  0.00    -0.003 C 
ATOM     16  C   UNL     1      -4.966  65.629  21.810  1.00  0.00     0.004 C 
ENDBRANCH  14  15
ENDBRANCH  13  14
ENDBRANCH  12  13
ENDBRANCH  11  12
ENDBRANCH  10  11
ENDBRANCH   1  10
TORSDOF 12
ENDMDL
MODEL 7
REMARK VINA RESULT:    -4.255      2.920      5.044
REMARK INTER + INTRA:          -8.457
REMARK INTER:                  -7.597
REMARK INTRA:                  -0.860
REMARK UNBOUND:                -1.217
REMARK SMILES CCCCCCCCCCCCCC(=O)[O-]
REMARK SMILES IDX 8 1 9 2 10 3 11 4 12 5 13 6 14 7 15 8 16 9 7 10 6 11 5 12
REMARK SMILES IDX 4 13 3 14 2 15 1 16
REMARK H PARENT
REMARK Flexibility Score: inf
ROOT
ATOM      1  C   UNL     1       0.425  60.461  23.929  1.00  0.00     0.000 C 
ENDROOT
BRANCH   1   2
ATOM      2  C   UNL     1      -0.646  61.318  23.229  1.00  0.00     0.000 C 
BRANCH   2   3
ATOM      3  C   UNL     1      -0.644  62.775  23.716  1.00  0.00     0.000 C 
BRANCH   3   4
ATOM      4  C   UNL     1      -1.568  63.680  22.882  1.00  0.00     0.000 C 
BRANCH   4   5
ATOM      5  C   UNL     1      -1.405  65.173  23.226  1.00  0.00     0.006 C 
BRANCH   5   6
ATOM      6  C   UNL     1      -2.148  66.123  22.272  1.00  0.00     0.053 C 
BRANCH   6   7
ATOM      7  C   UNL     1      -3.635  66.024  22.429  1.00  0.00     0.041 C 
ATOM      8  O   UNL     1      -4.376  65.966  21.413  1.00  0.00    -0.550 OA
ATOM      9  O   UNL     1      -4.198  65.961  23.697  1.00  0.00    -0.550 OA
ENDBRANCH   6   7
ENDBRANCH   5   6
ENDBRANCH   4   5
ENDBRANCH   3   4
ENDBRANCH   2   3
ENDBRANCH   1   2
BRANCH   1  10
ATOM     10  C   UNL     1      -0.026  59.973  25.316  1.00  0.00     0.000 C 
BRANCH  10  11
ATOM     11  C   UNL     1       0.158  58.457  25.496  1.00  0.00    -0.000 C 
BRANCH  11  12
ATOM     12  C   UNL     1       0.877  57.799  24.306  1.00  0.00    -0.000 C 
BRANCH  12  13
ATOM     13  C   UNL     1       2.268  57.232  24.660  1.00  0.00    -0.000 C 
BRANCH  13  14
ATOM     14  C   UNL     1       3.402  57.997  23.954  1.00  0.00    -0.000 C 
BRANCH  14  15
ATOM     15  C   UNL     1       3.217  58.057  22.431  1.00  0.00    -0.003 C 
ATOM     16  C   UNL     1       3.443  59.458  21.863  1.00  0.00     0.004 C 
ENDBRANCH  14  15
ENDBRANCH  13  14
ENDBRANCH  12  13
ENDBRANCH  11  12
ENDBRANCH  10  11
ENDBRANCH   1  10
TORSDOF 12
ENDMDL
MODEL 8
REMARK VINA RESULT:    -4.245      3.120      5.632
REMARK INTER + INTRA:          -8.440
REMARK INTER:                  -7.246
REMARK INTRA:                  -1.194
REMARK UNBOUND:                -1.217
REMARK SMILES CCCCCCCCCCCCCC(=O)[O-]
REMARK SMILES IDX 8 1 9 2 10 3 11 4 12 5 13 6 14 7 15 8 16 9 7 10 6 11 5 12
REMARK SMILES IDX 4 13 3 14 2 15 1 16
REMARK H PARENT
REMARK Flexibility Score: inf
ROOT
ATOM      1  C   UNL     1      -0.261  58.688  25.494  1.00  0.00     0.000 C 
ENDROOT
BRANCH   1   2
ATOM      2  C   UNL     1       0.669  57.807  24.640  1.00  0.00     0.000 C 
BRANCH   2   3
ATOM      3  C   UNL     1       2.113  57.796  25.164  1.00  0.00     0.000 C 
BRANCH   3   4
ATOM      4  C   UNL     1       2.571  56.396  25.611  1.00  0.00     0.000 C 
BRANCH   4   5
ATOM      5  C   UNL     1       3.552  55.746  24.616  1.00  0.00     0.006 C 
BRANCH   5   6
ATOM      6  C   UNL     1       3.198  54.299  24.238  1.00  0.00     0.053 C 
BRANCH   6   7
ATOM      7  C   UNL     1       2.413  54.228  22.964  1.00  0.00     0.041 C 
ATOM      8  O   UNL     1       1.961  55.279  22.439  1.00  0.00    -0.550 OA
ATOM      9  O   UNL     1       2.210  53.004  22.339  1.00  0.00    -0.550 OA
ENDBRANCH   6   7
ENDBRANCH   5   6
ENDBRANCH   4   5
ENDBRANCH   3   4
ENDBRANCH   2   3
ENDBRANCH   1   2
BRANCH   1  10
ATOM     10  C   UNL     1       0.045  60.188  25.341  1.00  0.00     0.000 C 
BRANCH  10  11
ATOM     11  C   UNL     1       0.203  60.610  23.870  1.00  0.00    -0.000 C 
BRANCH  11  12
ATOM     12  C   UNL     1       1.368  61.590  23.653  1.00  0.00    -0.000 C 
BRANCH  12  13
ATOM     13  C   UNL     1       2.720  60.895  23.384  1.00  0.00    -0.000 C 
BRANCH  13  14
ATOM     14  C   UNL     1       3.134  60.988  21.904  1.00  0.00    -0.000 C 
BRANCH  14  15
ATOM     15  C   UNL     1       3.875  59.734  21.418  1.00  0.00    -0.003 C 
ATOM     16  C   UNL     1       3.337  58.448  22.046  1.00  0.00     0.004 C 
ENDBRANCH  14  15
ENDBRANCH  13  14
ENDBRANCH  12  13
ENDBRANCH  11  12
ENDBRANCH  10  11
ENDBRANCH   1  10
TORSDOF 12
ENDMDL
