MODEL 1
REMARK VINA RESULT:    -3.824      0.000      0.000
REMARK INTER + INTRA:          -6.035
REMARK INTER:                  -5.836
REMARK INTRA:                  -0.199
REMARK UNBOUND:                -0.199
REMARK SMILES CC1=CCC[C@@H](C)C(=O)C[C@@H](C(C)C)C(=O)C1
REMARK SMILES IDX 8 1 9 2 6 3 7 4 5 5 4 6 3 7 2 8 1 9 10 11 11 12 15 13 16 14
REMARK SMILES IDX 17 15 12 17 13 18 14 19
REMARK H PARENT
REMARK Flexibility Score: 70.00
ROOT
ATOM      1  C   UNL     1     -16.460  14.098 -29.651  1.00  0.00     0.136 C 
ATOM      2  O   UNL     1     -16.993  14.504 -28.628  1.00  0.00    -0.299 OA
ENDROOT
BRANCH   1   3
ATOM      3  C   UNL     1     -16.871  12.770 -30.247  1.00  0.00     0.053 C 
ATOM      4  C   UNL     1     -18.339  12.841 -30.682  1.00  0.00     0.016 C 
BRANCH   3   5
ATOM      5  C   UNL     1     -16.659  11.588 -29.273  1.00  0.00     0.015 C 
BRANCH   5   6
ATOM      6  C   UNL     1     -15.213  11.057 -29.258  1.00  0.00     0.028 C 
BRANCH   6   7
ATOM      7  C   UNL     1     -14.436  11.599 -28.077  1.00  0.00    -0.028 C 
ATOM      8  C   UNL     1     -13.278  12.298 -28.134  1.00  0.00    -0.070 CG0
ATOM      9  C   UNL     1     -12.652  12.730 -26.832  1.00  0.00     0.039 C 
ATOM     10  G   UNL     1     -12.615  12.722 -29.427  1.00  0.00     0.000 G0
ENDBRANCH   6   7
ENDBRANCH   5   6
ENDBRANCH   3   5
ENDBRANCH   1   3
BRANCH   1  11
ATOM     11  C   UNL     1     -15.416  14.951 -30.333  1.00  0.00     0.087 C 
BRANCH  11  12
ATOM     12  C   UNL     1     -14.255  14.111 -30.921  1.00  0.00     0.066 C 
BRANCH  12  13
ATOM     13  C   UNL     1     -13.122  14.034 -29.914  1.00  0.00     0.140 C 
ATOM     14  O   UNL     1     -12.611  15.066 -29.501  1.00  0.00    -0.299 OA
BRANCH  13  15
ATOM     15  C   UNL     1     -12.594  12.712 -29.425  1.00  0.00     0.106 CG0
ATOM     16  G   UNL     1     -13.298  12.308 -28.147  1.00  0.00     0.000 G0
ENDBRANCH  13  15
ENDBRANCH  12  13
BRANCH  12  17
ATOM     17  C   UNL     1     -13.736  14.684 -32.277  1.00  0.00    -0.006 C 
ATOM     18  C   UNL     1     -14.605  14.199 -33.454  1.00  0.00     0.008 C 
ATOM     19  C   UNL     1     -13.702  16.223 -32.288  1.00  0.00     0.008 C 
ENDBRANCH  12  17
ENDBRANCH  11  12
ENDBRANCH   1  11
TORSDOF 1
ENDMDL
MODEL 2
REMARK VINA RESULT:    -3.755      1.924      4.155
REMARK INTER + INTRA:          -5.930
REMARK INTER:                  -5.819
REMARK INTRA:                  -0.112
REMARK UNBOUND:                -0.199
REMARK SMILES CC1=CCC[C@@H](C)C(=O)C[C@@H](C(C)C)C(=O)C1
REMARK SMILES IDX 8 1 9 2 6 3 7 4 5 5 4 6 3 7 2 8 1 9 10 11 11 12 15 13 16 14
REMARK SMILES IDX 17 15 12 17 13 18 14 19
REMARK H PARENT
REMARK Flexibility Score: 70.00
ROOT
ATOM      1  C   UNL     1     -13.880  14.178 -32.606  1.00  0.00     0.136 C 
ATOM      2  O   UNL     1     -13.607  14.010 -33.786  1.00  0.00    -0.299 OA
ENDROOT
BRANCH   1   3
ATOM      3  C   UNL     1     -13.147  15.226 -31.798  1.00  0.00     0.053 C 
ATOM      4  C   UNL     1     -13.419  16.611 -32.396  1.00  0.00     0.016 C 
BRANCH   3   5
ATOM      5  C   UNL     1     -11.625  14.965 -31.724  1.00  0.00     0.015 C 
BRANCH   5   6
ATOM      6  C   UNL     1     -11.117  14.697 -30.294  1.00  0.00     0.028 C 
BRANCH   6   7
ATOM      7  C   UNL     1     -10.795  13.233 -30.086  1.00  0.00    -0.028 C 
ATOM      8  C   UNL     1     -11.567  12.327 -29.442  1.00  0.00    -0.070 CG0
ATOM      9  C   UNL     1     -11.049  10.916 -29.325  1.00  0.00     0.039 C 
ATOM     10  G   UNL     1     -12.942  12.637 -28.891  1.00  0.00     0.000 G0
ENDBRANCH   6   7
ENDBRANCH   5   6
ENDBRANCH   3   5
ENDBRANCH   1   3
BRANCH   1  11
ATOM     11  C   UNL     1     -14.980  13.357 -31.974  1.00  0.00     0.087 C 
BRANCH  11  12
ATOM     12  C   UNL     1     -14.947  13.413 -30.426  1.00  0.00     0.066 C 
BRANCH  12  13
ATOM     13  C   UNL     1     -14.030  12.326 -29.897  1.00  0.00     0.140 C 
ATOM     14  O   UNL     1     -14.173  11.175 -30.284  1.00  0.00    -0.299 OA
BRANCH  13  15
ATOM     15  C   UNL     1     -12.957  12.628 -28.886  1.00  0.00     0.106 CG0
ATOM     16  G   UNL     1     -11.592  12.317 -29.461  1.00  0.00     0.000 G0
ENDBRANCH  13  15
ENDBRANCH  12  13
BRANCH  12  17
ATOM     17  C   UNL     1     -16.369  13.275 -29.798  1.00  0.00    -0.006 C 
ATOM     18  C   UNL     1     -16.799  14.581 -29.104  1.00  0.00     0.008 C 
ATOM     19  C   UNL     1     -17.436  12.893 -30.841  1.00  0.00     0.008 C 
ENDBRANCH  12  17
ENDBRANCH  11  12
ENDBRANCH   1  11
TORSDOF 1
ENDMDL
MODEL 3
REMARK VINA RESULT:    -3.707      1.866      3.666
REMARK INTER + INTRA:          -5.856
REMARK INTER:                  -5.552
REMARK INTRA:                  -0.305
REMARK UNBOUND:                -0.199
REMARK SMILES CC1=CCC[C@@H](C)C(=O)C[C@@H](C(C)C)C(=O)C1
REMARK SMILES IDX 8 1 9 2 6 3 7 4 5 5 4 6 3 7 2 8 1 9 10 11 11 12 15 13 16 14
REMARK SMILES IDX 17 15 12 17 13 18 14 19
REMARK H PARENT
REMARK Flexibility Score: 70.00
ROOT
ATOM      1  C   UNL     1     -12.482  13.357 -28.260  1.00  0.00     0.136 C 
ATOM      2  O   UNL     1     -12.276  14.470 -27.797  1.00  0.00    -0.299 OA
ENDROOT
BRANCH   1   3
ATOM      3  C   UNL     1     -12.807  12.200 -27.341  1.00  0.00     0.053 C 
ATOM      4  C   UNL     1     -12.602  10.880 -28.092  1.00  0.00     0.016 C 
BRANCH   3   5
ATOM      5  C   UNL     1     -14.243  12.274 -26.773  1.00  0.00     0.015 C 
BRANCH   5   6
ATOM      6  C   UNL     1     -15.231  11.323 -27.474  1.00  0.00     0.028 C 
BRANCH   6   7
ATOM      7  C   UNL     1     -16.270  12.089 -28.265  1.00  0.00    -0.028 C 
ATOM      8  C   UNL     1     -16.221  12.372 -29.587  1.00  0.00    -0.070 CG0
ATOM      9  C   UNL     1     -17.355  13.171 -30.178  1.00  0.00     0.039 C 
ATOM     10  G   UNL     1     -15.128  11.881 -30.511  1.00  0.00     0.000 G0
ENDBRANCH   6   7
ENDBRANCH   5   6
ENDBRANCH   3   5
ENDBRANCH   1   3
BRANCH   1  11
ATOM     11  C   UNL     1     -12.448  13.157 -29.757  1.00  0.00     0.087 C 
BRANCH  11  12
ATOM     12  C   UNL     1     -13.538  13.978 -30.491  1.00  0.00     0.066 C 
BRANCH  12  13
ATOM     13  C   UNL     1     -14.481  13.036 -31.217  1.00  0.00     0.140 C 
ATOM     14  O   UNL     1     -14.734  13.228 -32.398  1.00  0.00    -0.299 OA
BRANCH  13  15
ATOM     15  C   UNL     1     -15.133  11.878 -30.509  1.00  0.00     0.106 CG0
ATOM     16  G   UNL     1     -16.225  12.377 -29.587  1.00  0.00     0.000 G0
ENDBRANCH  13  15
ENDBRANCH  12  13
BRANCH  12  17
ATOM     17  C   UNL     1     -12.930  15.011 -31.490  1.00  0.00    -0.006 C 
ATOM     18  C   UNL     1     -13.417  16.439 -31.177  1.00  0.00     0.008 C 
ATOM     19  C   UNL     1     -11.390  15.000 -31.479  1.00  0.00     0.008 C 
ENDBRANCH  12  17
ENDBRANCH  11  12
ENDBRANCH   1  11
TORSDOF 1
ENDMDL
MODEL 4
REMARK VINA RESULT:    -3.690      2.028      4.332
REMARK INTER + INTRA:          -5.831
REMARK INTER:                  -5.696
REMARK INTRA:                  -0.135
REMARK UNBOUND:                -0.199
REMARK SMILES CC1=CCC[C@@H](C)C(=O)C[C@@H](C(C)C)C(=O)C1
REMARK SMILES IDX 8 1 9 2 6 3 7 4 5 5 4 6 3 7 2 8 1 9 10 11 11 12 15 13 16 14
REMARK SMILES IDX 17 15 12 17 13 18 14 19
REMARK H PARENT
REMARK Flexibility Score: 70.00
ROOT
ATOM      1  C   UNL     1     -15.451  12.818 -27.956  1.00  0.00     0.136 C 
ATOM      2  O   UNL     1     -16.072  12.685 -26.912  1.00  0.00    -0.299 OA
ENDROOT
BRANCH   1   3
ATOM      3  C   UNL     1     -14.116  12.130 -28.138  1.00  0.00     0.053 C 
ATOM      4  C   UNL     1     -13.812  11.275 -26.904  1.00  0.00     0.016 C 
BRANCH   3   5
ATOM      5  C   UNL     1     -12.962  13.126 -28.397  1.00  0.00     0.015 C 
BRANCH   5   6
ATOM      6  C   UNL     1     -12.500  13.162 -29.866  1.00  0.00     0.028 C 
BRANCH   6   7
ATOM      7  C   UNL     1     -12.858  14.477 -30.526  1.00  0.00    -0.028 C 
ATOM      8  C   UNL     1     -13.740  14.650 -31.538  1.00  0.00    -0.070 CG0
ATOM      9  C   UNL     1     -13.936  16.047 -32.070  1.00  0.00     0.039 C 
ATOM     10  G   UNL     1     -14.581  13.534 -32.119  1.00  0.00     0.000 G0
ENDBRANCH   6   7
ENDBRANCH   5   6
ENDBRANCH   3   5
ENDBRANCH   1   3
BRANCH   1  11
ATOM     11  C   UNL     1     -16.044  13.643 -29.074  1.00  0.00     0.087 C 
BRANCH  11  12
ATOM     12  C   UNL     1     -16.364  12.796 -30.331  1.00  0.00     0.066 C 
BRANCH  12  13
ATOM     13  C   UNL     1     -15.998  13.579 -31.578  1.00  0.00     0.140 C 
ATOM     14  O   UNL     1     -16.854  14.239 -32.149  1.00  0.00    -0.299 OA
BRANCH  13  15
ATOM     15  C   UNL     1     -14.604  13.545 -32.146  1.00  0.00     0.106 CG0
ATOM     16  G   UNL     1     -13.764  14.647 -31.536  1.00  0.00     0.000 G0
ENDBRANCH  13  15
ENDBRANCH  12  13
BRANCH  12  17
ATOM     17  C   UNL     1     -17.861  12.359 -30.386  1.00  0.00    -0.006 C 
ATOM     18  C   UNL     1     -18.061  10.978 -29.732  1.00  0.00     0.008 C 
ATOM     19  C   UNL     1     -18.793  13.373 -29.697  1.00  0.00     0.008 C 
ENDBRANCH  12  17
ENDBRANCH  11  12
ENDBRANCH   1  11
TORSDOF 1
ENDMDL
MODEL 5
REMARK VINA RESULT:    -3.608      2.077      4.773
REMARK INTER + INTRA:          -5.705
REMARK INTER:                  -6.271
REMARK INTRA:                   0.566
REMARK UNBOUND:                -0.199
REMARK SMILES CC1=CCC[C@@H](C)C(=O)C[C@@H](C(C)C)C(=O)C1
REMARK SMILES IDX 8 1 9 2 6 3 7 4 5 5 4 6 3 7 2 8 1 9 10 11 11 12 15 13 16 14
REMARK SMILES IDX 17 15 12 17 13 18 14 19
REMARK H PARENT
REMARK Flexibility Score: 70.00
ROOT
ATOM      1  C   UNL     1     -13.498  11.949 -29.252  1.00  0.00     0.136 C 
ATOM      2  O   UNL     1     -13.350  11.108 -30.127  1.00  0.00    -0.299 OA
ENDROOT
BRANCH   1   3
ATOM      3  C   UNL     1     -12.296  12.503 -28.520  1.00  0.00     0.053 C 
ATOM      4  C   UNL     1     -12.749  13.124 -27.194  1.00  0.00     0.016 C 
BRANCH   3   5
ATOM      5  C   UNL     1     -11.513  13.540 -29.357  1.00  0.00     0.015 C 
BRANCH   5   6
ATOM      6  C   UNL     1     -12.124  14.953 -29.312  1.00  0.00     0.028 C 
BRANCH   6   7
ATOM      7  C   UNL     1     -12.505  15.436 -30.695  1.00  0.00    -0.028 C 
ATOM      8  C   UNL     1     -13.741  15.397 -31.245  1.00  0.00    -0.070 CG0
ATOM      9  C   UNL     1     -13.903  15.912 -32.653  1.00  0.00     0.039 C 
ATOM     10  G   UNL     1     -14.974  14.924 -30.506  1.00  0.00     0.000 G0
ENDBRANCH   6   7
ENDBRANCH   5   6
ENDBRANCH   3   5
ENDBRANCH   1   3
BRANCH   1  11
ATOM     11  C   UNL     1     -14.885  12.457 -28.936  1.00  0.00     0.087 C 
BRANCH  11  12
ATOM     12  C   UNL     1     -15.816  12.450 -30.174  1.00  0.00     0.066 C 
BRANCH  12  13
ATOM     13  C   UNL     1     -15.477  13.626 -31.071  1.00  0.00     0.140 C 
ATOM     14  O   UNL     1     -15.591  13.512 -32.284  1.00  0.00    -0.299 OA
BRANCH  13  15
ATOM     15  C   UNL     1     -14.978  14.929 -30.505  1.00  0.00     0.106 CG0
ATOM     16  G   UNL     1     -13.753  15.394 -31.261  1.00  0.00     0.000 G0
ENDBRANCH  13  15
ENDBRANCH  12  13
BRANCH  12  17
ATOM     17  C   UNL     1     -17.326  12.488 -29.780  1.00  0.00    -0.006 C 
ATOM     18  C   UNL     1     -17.773  11.149 -29.162  1.00  0.00     0.008 C 
ATOM     19  C   UNL     1     -17.645  13.623 -28.789  1.00  0.00     0.008 C 
ENDBRANCH  12  17
ENDBRANCH  11  12
ENDBRANCH   1  11
TORSDOF 1
ENDMDL
MODEL 6
REMARK VINA RESULT:    -3.530      1.968      4.067
REMARK INTER + INTRA:          -5.586
REMARK INTER:                  -5.282
REMARK INTRA:                  -0.304
REMARK UNBOUND:                -0.199
REMARK SMILES CC1=CCC[C@@H](C)C(=O)C[C@@H](C(C)C)C(=O)C1
REMARK SMILES IDX 8 1 9 2 6 3 7 4 5 5 4 6 3 7 2 8 1 9 10 11 11 12 15 13 16 14
REMARK SMILES IDX 17 15 12 17 13 18 14 19
REMARK H PARENT
REMARK Flexibility Score: 70.00
ROOT
ATOM      1  C   UNL     1     -16.154  14.226 -32.372  1.00  0.00     0.136 C 
ATOM      2  O   UNL     1     -17.327  14.565 -32.304  1.00  0.00    -0.299 OA
ENDROOT
BRANCH   1   3
ATOM      3  C   UNL     1     -15.176  15.035 -33.196  1.00  0.00     0.053 C 
ATOM      4  C   UNL     1     -14.318  14.088 -34.041  1.00  0.00     0.016 C 
BRANCH   3   5
ATOM      5  C   UNL     1     -14.275  15.944 -32.328  1.00  0.00     0.015 C 
BRANCH   5   6
ATOM      6  C   UNL     1     -12.772  15.644 -32.482  1.00  0.00     0.028 C 
BRANCH   6   7
ATOM      7  C   UNL     1     -12.093  15.516 -31.135  1.00  0.00    -0.028 C 
ATOM      8  C   UNL     1     -12.114  14.429 -30.328  1.00  0.00    -0.070 CG0
ATOM      9  C   UNL     1     -11.387  14.516 -29.010  1.00  0.00     0.039 C 
ATOM     10  G   UNL     1     -12.773  13.118 -30.702  1.00  0.00     0.000 G0
ENDBRANCH   6   7
ENDBRANCH   5   6
ENDBRANCH   3   5
ENDBRANCH   1   3
BRANCH   1  11
ATOM     11  C   UNL     1     -15.684  13.017 -31.598  1.00  0.00     0.087 C 
BRANCH  11  12
ATOM     12  C   UNL     1     -15.340  13.351 -30.126  1.00  0.00     0.066 C 
BRANCH  12  13
ATOM     13  C   UNL     1     -13.955  12.824 -29.795  1.00  0.00     0.140 C 
ATOM     14  O   UNL     1     -13.783  12.185 -28.767  1.00  0.00    -0.299 OA
BRANCH  13  15
ATOM     15  C   UNL     1     -12.778  13.090 -30.696  1.00  0.00     0.106 CG0
ATOM     16  G   UNL     1     -12.130  14.410 -30.334  1.00  0.00     0.000 G0
ENDBRANCH  13  15
ENDBRANCH  12  13
BRANCH  12  17
ATOM     17  C   UNL     1     -16.391  12.777 -29.125  1.00  0.00    -0.006 C 
ATOM     18  C   UNL     1     -17.440  13.840 -28.751  1.00  0.00     0.008 C 
ATOM     19  C   UNL     1     -17.117  11.540 -29.686  1.00  0.00     0.008 C 
ENDBRANCH  12  17
ENDBRANCH  11  12
ENDBRANCH   1  11
TORSDOF 1
ENDMDL
MODEL 7
REMARK VINA RESULT:    -3.399      1.564      2.275
REMARK INTER + INTRA:          -5.387
REMARK INTER:                  -5.092
REMARK INTRA:                  -0.295
REMARK UNBOUND:                -0.199
REMARK SMILES CC1=CCC[C@@H](C)C(=O)C[C@@H](C(C)C)C(=O)C1
REMARK SMILES IDX 8 1 9 2 6 3 7 4 5 5 4 6 3 7 2 8 1 9 10 11 11 12 15 13 16 14
REMARK SMILES IDX 17 15 12 17 13 18 14 19
REMARK H PARENT
REMARK Flexibility Score: 70.00
ROOT
ATOM      1  C   UNL     1     -14.934  13.875 -29.676  1.00  0.00     0.136 C 
ATOM      2  O   UNL     1     -15.994  14.444 -29.462  1.00  0.00    -0.299 OA
ENDROOT
BRANCH   1   3
ATOM      3  C   UNL     1     -14.817  12.381 -29.464  1.00  0.00     0.053 C 
ATOM      4  C   UNL     1     -16.139  11.709 -29.847  1.00  0.00     0.016 C 
BRANCH   3   5
ATOM      5  C   UNL     1     -14.429  12.013 -28.014  1.00  0.00     0.015 C 
BRANCH   5   6
ATOM      6  C   UNL     1     -12.922  12.158 -27.726  1.00  0.00     0.028 C 
BRANCH   6   7
ATOM      7  C   UNL     1     -12.090  11.382 -28.723  1.00  0.00    -0.028 C 
ATOM      8  C   UNL     1     -11.323  11.907 -29.706  1.00  0.00    -0.070 CG0
ATOM      9  C   UNL     1     -10.587  10.952 -30.612  1.00  0.00     0.039 C 
ATOM     10  G   UNL     1     -11.115  13.393 -29.906  1.00  0.00     0.000 G0
ENDBRANCH   6   7
ENDBRANCH   5   6
ENDBRANCH   3   5
ENDBRANCH   1   3
BRANCH   1  11
ATOM     11  C   UNL     1     -13.755  14.668 -30.189  1.00  0.00     0.087 C 
BRANCH  11  12
ATOM     12  C   UNL     1     -13.134  14.050 -31.466  1.00  0.00     0.066 C 
BRANCH  12  13
ATOM     13  C   UNL     1     -11.647  13.831 -31.253  1.00  0.00     0.140 C 
ATOM     14  O   UNL     1     -10.874  13.990 -32.188  1.00  0.00    -0.299 OA
BRANCH  13  15
ATOM     15  C   UNL     1     -11.100  13.400 -29.919  1.00  0.00     0.106 CG0
ATOM     16  G   UNL     1     -11.312  11.915 -29.721  1.00  0.00     0.000 G0
ENDBRANCH  13  15
ENDBRANCH  12  13
BRANCH  12  17
ATOM     17  C   UNL     1     -13.376  14.933 -32.730  1.00  0.00    -0.006 C 
ATOM     18  C   UNL     1     -14.553  14.395 -33.566  1.00  0.00     0.008 C 
ATOM     19  C   UNL     1     -13.653  16.405 -32.372  1.00  0.00     0.008 C 
ENDBRANCH  12  17
ENDBRANCH  11  12
ENDBRANCH   1  11
TORSDOF 1
ENDMDL
MODEL 8
REMARK VINA RESULT:    -3.363      1.885      3.064
REMARK INTER + INTRA:          -5.332
REMARK INTER:                  -5.667
REMARK INTRA:                   0.335
REMARK UNBOUND:                -0.199
REMARK SMILES CC1=CCC[C@@H](C)C(=O)C[C@@H](C(C)C)C(=O)C1
REMARK SMILES IDX 8 1 9 2 6 3 7 4 5 5 4 6 3 7 2 8 1 9 10 11 11 12 15 13 16 14
REMARK SMILES IDX 17 15 12 17 13 18 14 19
REMARK H PARENT
REMARK Flexibility Score: 70.00
ROOT
ATOM      1  C   UNL     1     -13.642  15.404 -30.778  1.00  0.00     0.136 C 
ATOM      2  O   UNL     1     -13.998  16.573 -30.830  1.00  0.00    -0.299 OA
ENDROOT
BRANCH   1   3
ATOM      3  C   UNL     1     -14.312  14.367 -31.652  1.00  0.00     0.053 C 
ATOM      4  C   UNL     1     -15.211  15.068 -32.676  1.00  0.00     0.016 C 
BRANCH   3   5
ATOM      5  C   UNL     1     -15.130  13.339 -30.837  1.00  0.00     0.015 C 
BRANCH   5   6
ATOM      6  C   UNL     1     -15.510  13.834 -29.428  1.00  0.00     0.028 C 
BRANCH   6   7
ATOM      7  C   UNL     1     -15.394  12.727 -28.403  1.00  0.00    -0.028 C 
ATOM      8  C   UNL     1     -14.284  12.399 -27.701  1.00  0.00    -0.070 CG0
ATOM      9  C   UNL     1     -14.375  11.242 -26.738  1.00  0.00     0.039 C 
ATOM     10  G   UNL     1     -12.981  13.166 -27.783  1.00  0.00     0.000 G0
ENDBRANCH   6   7
ENDBRANCH   5   6
ENDBRANCH   3   5
ENDBRANCH   1   3
BRANCH   1  11
ATOM     11  C   UNL     1     -12.504  15.014 -29.864  1.00  0.00     0.087 C 
BRANCH  11  12
ATOM     12  C   UNL     1     -11.962  13.594 -30.164  1.00  0.00     0.066 C 
BRANCH  12  13
ATOM     13  C   UNL     1     -12.151  12.710 -28.945  1.00  0.00     0.140 C 
ATOM     14  O   UNL     1     -11.642  11.598 -28.922  1.00  0.00    -0.299 OA
BRANCH  13  15
ATOM     15  C   UNL     1     -12.972  13.161 -27.767  1.00  0.00     0.106 CG0
ATOM     16  G   UNL     1     -14.273  12.391 -27.709  1.00  0.00     0.000 G0
ENDBRANCH  13  15
ENDBRANCH  12  13
BRANCH  12  17
ATOM     17  C   UNL     1     -10.462  13.611 -30.594  1.00  0.00    -0.006 C 
ATOM     18  C   UNL     1     -10.216  12.672 -31.791  1.00  0.00     0.008 C 
ATOM     19  C   UNL     1      -9.975  15.024 -30.964  1.00  0.00     0.008 C 
ENDBRANCH  12  17
ENDBRANCH  11  12
ENDBRANCH   1  11
TORSDOF 1
ENDMDL
MODEL 9
REMARK VINA RESULT:    -3.217      2.055      2.820
REMARK INTER + INTRA:          -5.109
REMARK INTER:                  -5.441
REMARK INTRA:                   0.332
REMARK UNBOUND:                -0.199
REMARK SMILES CC1=CCC[C@@H](C)C(=O)C[C@@H](C(C)C)C(=O)C1
REMARK SMILES IDX 8 1 9 2 6 3 7 4 5 5 4 6 3 7 2 8 1 9 10 11 11 12 15 13 16 14
REMARK SMILES IDX 17 15 12 17 13 18 14 19
REMARK H PARENT
REMARK Flexibility Score: 70.00
ROOT
ATOM      1  C   UNL     1     -14.434  15.323 -32.283  1.00  0.00     0.136 C 
ATOM      2  O   UNL     1     -14.915  15.716 -33.336  1.00  0.00    -0.299 OA
ENDROOT
BRANCH   1   3
ATOM      3  C   UNL     1     -15.166  14.292 -31.452  1.00  0.00     0.053 C 
ATOM      4  C   UNL     1     -16.563  14.064 -32.040  1.00  0.00     0.016 C 
BRANCH   3   5
ATOM      5  C   UNL     1     -15.272  14.691 -29.962  1.00  0.00     0.015 C 
BRANCH   5   6
ATOM      6  C   UNL     1     -15.171  13.495 -28.997  1.00  0.00     0.028 C 
BRANCH   6   7
ATOM      7  C   UNL     1     -14.084  12.530 -29.422  1.00  0.00    -0.028 C 
ATOM      8  C   UNL     1     -12.766  12.812 -29.541  1.00  0.00    -0.070 CG0
ATOM      9  C   UNL     1     -11.849  11.708 -30.004  1.00  0.00     0.039 C 
ATOM     10  G   UNL     1     -12.156  14.149 -29.177  1.00  0.00     0.000 G0
ENDBRANCH   6   7
ENDBRANCH   5   6
ENDBRANCH   3   5
ENDBRANCH   1   3
BRANCH   1  11
ATOM     11  C   UNL     1     -13.088  15.846 -31.839  1.00  0.00     0.087 C 
BRANCH  11  12
ATOM     12  C   UNL     1     -12.014  14.734 -31.766  1.00  0.00     0.066 C 
BRANCH  12  13
ATOM     13  C   UNL     1     -11.401  14.708 -30.378  1.00  0.00     0.140 C 
ATOM     14  O   UNL     1     -10.267  15.133 -30.211  1.00  0.00    -0.299 OA
BRANCH  13  15
ATOM     15  C   UNL     1     -12.151  14.149 -29.199  1.00  0.00     0.106 CG0
ATOM     16  G   UNL     1     -12.761  12.810 -29.553  1.00  0.00     0.000 G0
ENDBRANCH  13  15
ENDBRANCH  12  13
BRANCH  12  17
ATOM     17  C   UNL     1     -10.900  14.913 -32.846  1.00  0.00    -0.006 C 
ATOM     18  C   UNL     1     -10.962  13.790 -33.899  1.00  0.00     0.008 C 
ATOM     19  C   UNL     1     -10.995  16.272 -33.564  1.00  0.00     0.008 C 
ENDBRANCH  12  17
ENDBRANCH  11  12
ENDBRANCH   1  11
TORSDOF 1
ENDMDL
