MODEL 1
REMARK VINA RESULT:    -3.684      0.000      0.000
REMARK INTER + INTRA:          -4.007
REMARK INTER:                  -4.007
REMARK INTRA:                   0.000
REMARK UNBOUND:                 0.000
REMARK SMILES [NH3+]CC(=O)[O-]
REMARK SMILES IDX 2 1 1 2 3 6 4 7 5 8
REMARK H PARENT 1 3 1 4 1 5
REMARK Flexibility Score: inf
ROOT
ATOM      1  C   UNL     1      24.383  22.581  11.731  1.00  0.00     0.312 C 
ENDROOT
BRANCH   1   2
ATOM      2  N   UNL     1      24.300  21.228  12.276  1.00  0.00    -0.353 N 
ATOM      3  H   UNL     1      24.057  20.550  11.517  1.00  0.00     0.344 HD
ATOM      4  H   UNL     1      23.552  21.199  13.007  1.00  0.00     0.344 HD
ATOM      5  H   UNL     1      25.212  20.959  12.713  1.00  0.00     0.344 HD
ENDBRANCH   1   2
BRANCH   1   6
ATOM      6  C   UNL     1      25.299  22.618  10.546  1.00  0.00     0.096 C 
ATOM      7  O   UNL     1      24.828  22.756   9.387  1.00  0.00    -0.544 OA
ATOM      8  O   UNL     1      26.666  22.447  10.718  1.00  0.00    -0.544 OA
ENDBRANCH   1   6
TORSDOF 2
ENDMDL
MODEL 2
REMARK VINA RESULT:    -3.611      0.311      1.482
REMARK INTER + INTRA:          -3.927
REMARK INTER:                  -3.927
REMARK INTRA:                   0.000
REMARK UNBOUND:                 0.000
REMARK SMILES [NH3+]CC(=O)[O-]
REMARK SMILES IDX 2 1 1 2 3 6 4 7 5 8
REMARK H PARENT 1 3 1 4 1 5
REMARK Flexibility Score: inf
ROOT
ATOM      1  C   UNL     1      24.569  22.709  11.893  1.00  0.00     0.312 C 
ENDROOT
BRANCH   1   2
ATOM      2  N   UNL     1      24.687  21.487  12.685  1.00  0.00    -0.353 N 
ATOM      3  H   UNL     1      23.845  20.883  12.538  1.00  0.00     0.344 HD
ATOM      4  H   UNL     1      24.748  21.741  13.698  1.00  0.00     0.344 HD
ATOM      5  H   UNL     1      25.551  20.964  12.413  1.00  0.00     0.344 HD
ENDBRANCH   1   2
BRANCH   1   6
ATOM      6  C   UNL     1      25.399  22.616  10.649  1.00  0.00     0.096 C 
ATOM      7  O   UNL     1      26.646  22.472  10.731  1.00  0.00    -0.544 OA
ATOM      8  O   UNL     1      24.800  22.742   9.402  1.00  0.00    -0.544 OA
ENDBRANCH   1   6
TORSDOF 2
ENDMDL
MODEL 3
REMARK VINA RESULT:    -3.508      1.547      1.984
REMARK INTER + INTRA:          -3.815
REMARK INTER:                  -3.815
REMARK INTRA:                   0.000
REMARK UNBOUND:                 0.000
REMARK SMILES [NH3+]CC(=O)[O-]
REMARK SMILES IDX 2 1 1 2 3 6 4 7 5 8
REMARK H PARENT 1 3 1 4 1 5
REMARK Flexibility Score: inf
ROOT
ATOM      1  C   UNL     1      24.960  22.682  11.909  1.00  0.00     0.312 C 
ENDROOT
BRANCH   1   2
ATOM      2  N   UNL     1      26.397  22.419  11.917  1.00  0.00    -0.353 N 
ATOM      3  H   UNL     1      26.580  21.419  11.669  1.00  0.00     0.344 HD
ATOM      4  H   UNL     1      26.774  22.603  12.876  1.00  0.00     0.344 HD
ATOM      5  H   UNL     1      26.883  23.047  11.236  1.00  0.00     0.344 HD
ENDBRANCH   1   2
BRANCH   1   6
ATOM      6  C   UNL     1      24.516  23.150  10.557  1.00  0.00     0.096 C 
ATOM      7  O   UNL     1      24.976  22.611   9.518  1.00  0.00    -0.544 OA
ATOM      8  O   UNL     1      23.634  24.218  10.447  1.00  0.00    -0.544 OA
ENDBRANCH   1   6
TORSDOF 2
ENDMDL
MODEL 4
REMARK VINA RESULT:    -3.462      1.465      1.465
REMARK INTER + INTRA:          -3.765
REMARK INTER:                  -3.765
REMARK INTRA:                   0.000
REMARK UNBOUND:                 0.000
REMARK SMILES [NH3+]CC(=O)[O-]
REMARK SMILES IDX 2 1 1 2 3 6 4 7 5 8
REMARK H PARENT 1 3 1 4 1 5
REMARK Flexibility Score: inf
ROOT
ATOM      1  C   UNL     1      24.682  23.007  11.813  1.00  0.00     0.312 C 
ENDROOT
BRANCH   1   2
ATOM      2  N   UNL     1      24.361  24.429  11.904  1.00  0.00    -0.353 N 
ATOM      3  H   UNL     1      23.332  24.573  11.778  1.00  0.00     0.344 HD
ATOM      4  H   UNL     1      24.869  24.944  11.149  1.00  0.00     0.344 HD
ATOM      5  H   UNL     1      24.660  24.808  12.833  1.00  0.00     0.344 HD
ENDBRANCH   1   2
BRANCH   1   6
ATOM      6  C   UNL     1      25.418  22.710  10.544  1.00  0.00     0.096 C 
ATOM      7  O   UNL     1      24.808  22.713   9.443  1.00  0.00    -0.544 OA
ATOM      8  O   UNL     1      26.766  22.377  10.583  1.00  0.00    -0.544 OA
ENDBRANCH   1   6
TORSDOF 2
ENDMDL
MODEL 5
REMARK VINA RESULT:    -3.122      6.624      7.057
REMARK INTER + INTRA:          -3.395
REMARK INTER:                  -3.395
REMARK INTRA:                   0.000
REMARK UNBOUND:                 0.000
REMARK SMILES [NH3+]CC(=O)[O-]
REMARK SMILES IDX 2 1 1 2 3 6 4 7 5 8
REMARK H PARENT 1 3 1 4 1 5
REMARK Flexibility Score: inf
ROOT
ATOM      1  C   UNL     1      23.003  19.743  17.767  1.00  0.00     0.312 C 
ENDROOT
BRANCH   1   2
ATOM      2  N   UNL     1      22.895  18.801  16.655  1.00  0.00    -0.353 N 
ATOM      3  H   UNL     1      23.407  17.918  16.884  1.00  0.00     0.344 HD
ATOM      4  H   UNL     1      23.322  19.228  15.801  1.00  0.00     0.344 HD
ATOM      5  H   UNL     1      21.889  18.588  16.461  1.00  0.00     0.344 HD
ENDBRANCH   1   2
BRANCH   1   6
ATOM      6  C   UNL     1      22.941  21.155  17.272  1.00  0.00     0.096 C 
ATOM      7  O   UNL     1      22.981  22.114  18.086  1.00  0.00    -0.544 OA
ATOM      8  O   UNL     1      22.787  21.410  15.915  1.00  0.00    -0.544 OA
ENDBRANCH   1   6
TORSDOF 2
ENDMDL
MODEL 6
REMARK VINA RESULT:    -3.091      4.161      4.472
REMARK INTER + INTRA:          -3.362
REMARK INTER:                  -3.362
REMARK INTRA:                   0.000
REMARK UNBOUND:                 0.000
REMARK SMILES [NH3+]CC(=O)[O-]
REMARK SMILES IDX 2 1 1 2 3 6 4 7 5 8
REMARK H PARENT 1 3 1 4 1 5
REMARK Flexibility Score: inf
ROOT
ATOM      1  C   UNL     1      22.938  19.633  14.294  1.00  0.00     0.312 C 
ENDROOT
BRANCH   1   2
ATOM      2  N   UNL     1      23.345  19.167  15.617  1.00  0.00    -0.353 N 
ATOM      3  H   UNL     1      22.553  19.272  16.293  1.00  0.00     0.344 HD
ATOM      4  H   UNL     1      24.152  19.742  15.951  1.00  0.00     0.344 HD
ATOM      5  H   UNL     1      23.639  18.164  15.571  1.00  0.00     0.344 HD
ENDBRANCH   1   2
BRANCH   1   6
ATOM      6  C   UNL     1      24.072  19.520  13.322  1.00  0.00     0.096 C 
ATOM      7  O   UNL     1      25.187  20.041  13.586  1.00  0.00    -0.544 OA
ATOM      8  O   UNL     1      23.880  18.886  12.101  1.00  0.00    -0.544 OA
ENDBRANCH   1   6
TORSDOF 2
ENDMDL
MODEL 7
REMARK VINA RESULT:    -3.067      6.782      7.205
REMARK INTER + INTRA:          -3.336
REMARK INTER:                  -3.336
REMARK INTRA:                   0.000
REMARK UNBOUND:                 0.000
REMARK SMILES [NH3+]CC(=O)[O-]
REMARK SMILES IDX 2 1 1 2 3 6 4 7 5 8
REMARK H PARENT 1 3 1 4 1 5
REMARK Flexibility Score: inf
ROOT
ATOM      1  C   UNL     1      23.114  20.592  16.108  1.00  0.00     0.312 C 
ENDROOT
BRANCH   1   2
ATOM      2  N   UNL     1      23.052  19.156  15.852  1.00  0.00    -0.353 N 
ATOM      3  H   UNL     1      23.357  18.627  16.702  1.00  0.00     0.344 HD
ATOM      4  H   UNL     1      23.693  18.920  15.060  1.00  0.00     0.344 HD
ATOM      5  H   UNL     1      22.076  18.878  15.594  1.00  0.00     0.344 HD
ENDBRANCH   1   2
BRANCH   1   6
ATOM      6  C   UNL     1      22.988  20.875  17.574  1.00  0.00     0.096 C 
ATOM      7  O   UNL     1      22.855  22.059  17.980  1.00  0.00    -0.544 OA
ATOM      8  O   UNL     1      23.072  19.836  18.492  1.00  0.00    -0.544 OA
ENDBRANCH   1   6
TORSDOF 2
ENDMDL
MODEL 8
REMARK VINA RESULT:    -3.064      6.723      7.176
REMARK INTER + INTRA:          -3.333
REMARK INTER:                  -3.333
REMARK INTRA:                   0.000
REMARK UNBOUND:                 0.000
REMARK SMILES [NH3+]CC(=O)[O-]
REMARK SMILES IDX 2 1 1 2 3 6 4 7 5 8
REMARK H PARENT 1 3 1 4 1 5
REMARK Flexibility Score: inf
ROOT
ATOM      1  C   UNL     1      23.139  20.649  16.056  1.00  0.00     0.312 C 
ENDROOT
BRANCH   1   2
ATOM      2  N   UNL     1      23.057  19.217  15.782  1.00  0.00    -0.353 N 
ATOM      3  H   UNL     1      22.240  18.801  16.288  1.00  0.00     0.344 HD
ATOM      4  H   UNL     1      23.933  18.753  16.115  1.00  0.00     0.344 HD
ATOM      5  H   UNL     1      22.956  19.052  14.753  1.00  0.00     0.344 HD
ENDBRANCH   1   2
BRANCH   1   6
ATOM      6  C   UNL     1      22.960  20.920  17.518  1.00  0.00     0.096 C 
ATOM      7  O   UNL     1      22.804  19.965  18.324  1.00  0.00    -0.544 OA
ATOM      8  O   UNL     1      22.911  22.228  17.982  1.00  0.00    -0.544 OA
ENDBRANCH   1   6
TORSDOF 2
ENDMDL
MODEL 9
REMARK VINA RESULT:    -2.915      4.433      4.652
REMARK INTER + INTRA:          -3.170
REMARK INTER:                  -3.170
REMARK INTRA:                   0.000
REMARK UNBOUND:                 0.000
REMARK SMILES [NH3+]CC(=O)[O-]
REMARK SMILES IDX 2 1 1 2 3 6 4 7 5 8
REMARK H PARENT 1 3 1 4 1 5
REMARK Flexibility Score: inf
ROOT
ATOM      1  C   UNL     1      23.314  20.155  15.196  1.00  0.00     0.312 C 
ENDROOT
BRANCH   1   2
ATOM      2  N   UNL     1      22.980  19.003  16.030  1.00  0.00    -0.353 N 
ATOM      3  H   UNL     1      23.838  18.432  16.213  1.00  0.00     0.344 HD
ATOM      4  H   UNL     1      22.280  18.409  15.530  1.00  0.00     0.344 HD
ATOM      5  H   UNL     1      22.567  19.322  16.937  1.00  0.00     0.344 HD
ENDBRANCH   1   2
BRANCH   1   6
ATOM      6  C   UNL     1      23.909  19.712  13.895  1.00  0.00     0.096 C 
ATOM      7  O   UNL     1      23.288  18.903  13.158  1.00  0.00    -0.544 OA
ATOM      8  O   UNL     1      25.173  20.152  13.524  1.00  0.00    -0.544 OA
ENDBRANCH   1   6
TORSDOF 2
ENDMDL
