MODEL 1
REMARK VINA RESULT:    -4.841      0.000      0.000
REMARK INTER + INTRA:          -7.663
REMARK INTER:                  -6.822
REMARK INTRA:                  -0.842
REMARK UNBOUND:                -0.842
REMARK SMILES COc1ccc(-c2cc(=O)c3c(OC)c(OC)c(OC)c(OC)c3o2)cc1OC
REMARK SMILES IDX 7 1 8 2 9 3 10 4 11 5 24 6 25 7 21 8 18 9 15 10 12 11 6 12
REMARK SMILES IDX 3 13 27 14 4 15 26 16 5 17 2 18 1 19 28 20 29 21 22 22 23 23
REMARK SMILES IDX 13 24 14 25 19 26 20 27 16 28 17 29
REMARK H PARENT
REMARK Flexibility Score: inf
ROOT
ATOM      1  C   UNL     1      15.353  51.009  30.502  1.00  0.00     0.138 A 
ATOM      2  C   UNL     1      15.641  51.429  29.196  1.00  0.00     0.100 A 
ATOM      3  C   UNL     1      15.641  52.792  28.901  1.00  0.00     0.197 A 
ATOM      4  O   UNL     1      15.928  53.158  27.729  1.00  0.00    -0.289 OA
ATOM      5  C   UNL     1      15.346  53.729  29.916  1.00  0.00     0.115 A 
ATOM      6  C   UNL     1      15.090  53.231  31.209  1.00  0.00     0.188 A 
ATOM      7  O   UNL     1      15.103  51.920  31.439  1.00  0.00    -0.452 OA
ATOM      8  C   UNL     1      14.814  54.096  32.274  1.00  0.00     0.209 A 
ATOM      9  C   UNL     1      14.817  55.499  32.066  1.00  0.00     0.211 A 
ATOM     10  C   UNL     1      15.103  56.013  30.772  1.00  0.00     0.208 A 
ATOM     11  C   UNL     1      15.299  55.122  29.690  1.00  0.00     0.179 A 
ENDROOT
BRANCH   1  12
ATOM     12  C   UNL     1      15.336  49.574  30.881  1.00  0.00     0.021 A 
ATOM     13  C   UNL     1      15.366  46.843  31.601  1.00  0.00     0.160 A 
ATOM     14  C   UNL     1      16.413  47.376  30.835  1.00  0.00     0.161 A 
ATOM     15  C   UNL     1      14.312  47.678  32.011  1.00  0.00     0.051 A 
ATOM     16  C   UNL     1      16.395  48.740  30.483  1.00  0.00     0.062 A 
ATOM     17  C   UNL     1      14.299  49.028  31.659  1.00  0.00     0.016 A 
BRANCH  13  18
ATOM     18  O   UNL     1      15.411  45.480  31.936  1.00  0.00    -0.493 OA
ATOM     19  C   UNL     1      14.641  44.467  31.299  1.00  0.00     0.278 C 
ENDBRANCH  13  18
BRANCH  14  20
ATOM     20  O   UNL     1      17.455  46.519  30.443  1.00  0.00    -0.493 OA
ATOM     21  C   UNL     1      17.560  45.910  29.161  1.00  0.00     0.278 C 
ENDBRANCH  14  20
ENDBRANCH   1  12
BRANCH   8  22
ATOM     22  O   UNL     1      14.551  53.485  33.518  1.00  0.00    -0.490 OA
ATOM     23  C   UNL     1      15.441  53.363  34.622  1.00  0.00     0.278 C 
ENDBRANCH   8  22
BRANCH  11  24
ATOM     24  O   UNL     1      15.411  55.619  28.390  1.00  0.00    -0.492 OA
ATOM     25  C   UNL     1      14.269  56.096  27.687  1.00  0.00     0.278 C 
ENDBRANCH  11  24
BRANCH   9  26
ATOM     26  O   UNL     1      14.545  56.332  33.169  1.00  0.00    -0.490 OA
ATOM     27  C   UNL     1      13.287  56.867  33.564  1.00  0.00     0.279 C 
ENDBRANCH   9  26
BRANCH  10  28
ATOM     28  O   UNL     1      15.184  57.405  30.595  1.00  0.00    -0.490 OA
ATOM     29  C   UNL     1      16.351  58.202  30.771  1.00  0.00     0.278 C 
ENDBRANCH  10  28
TORSDOF 7
ENDMDL
MODEL 2
REMARK VINA RESULT:    -4.787      5.069     10.088
REMARK INTER + INTRA:          -7.587
REMARK INTER:                  -6.771
REMARK INTRA:                  -0.815
REMARK UNBOUND:                -0.842
REMARK SMILES COc1ccc(-c2cc(=O)c3c(OC)c(OC)c(OC)c(OC)c3o2)cc1OC
REMARK SMILES IDX 7 1 8 2 9 3 10 4 11 5 24 6 25 7 21 8 18 9 15 10 12 11 6 12
REMARK SMILES IDX 3 13 27 14 4 15 26 16 5 17 2 18 1 19 28 20 29 21 22 22 23 23
REMARK SMILES IDX 13 24 14 25 19 26 20 27 16 28 17 29
REMARK H PARENT
REMARK Flexibility Score: inf
ROOT
ATOM      1  C   UNL     1      15.750  46.985  30.439  1.00  0.00     0.138 A 
ATOM      2  C   UNL     1      15.394  47.405  31.728  1.00  0.00     0.100 A 
ATOM      3  C   UNL     1      14.867  46.478  32.628  1.00  0.00     0.197 A 
ATOM      4  O   UNL     1      14.576  46.862  33.792  1.00  0.00    -0.289 OA
ATOM      5  C   UNL     1      14.694  45.134  32.228  1.00  0.00     0.115 A 
ATOM      6  C   UNL     1      15.097  44.784  30.924  1.00  0.00     0.188 A 
ATOM      7  O   UNL     1      15.595  45.707  30.104  1.00  0.00    -0.452 OA
ATOM      8  C   UNL     1      14.982  43.468  30.461  1.00  0.00     0.209 A 
ATOM      9  C   UNL     1      14.477  42.458  31.319  1.00  0.00     0.211 A 
ATOM     10  C   UNL     1      14.095  42.794  32.646  1.00  0.00     0.208 A 
ATOM     11  C   UNL     1      14.143  44.144  33.070  1.00  0.00     0.179 A 
ENDROOT
BRANCH   1  12
ATOM     12  C   UNL     1      16.314  47.922  29.435  1.00  0.00     0.021 A 
ATOM     13  C   UNL     1      17.364  49.666  27.478  1.00  0.00     0.160 A 
ATOM     14  C   UNL     1      17.205  48.303  27.187  1.00  0.00     0.161 A 
ATOM     15  C   UNL     1      16.991  50.154  28.743  1.00  0.00     0.051 A 
ATOM     16  C   UNL     1      16.676  47.439  28.165  1.00  0.00     0.062 A 
ATOM     17  C   UNL     1      16.468  49.292  29.708  1.00  0.00     0.016 A 
BRANCH  13  18
ATOM     18  O   UNL     1      17.894  50.504  26.482  1.00  0.00    -0.493 OA
ATOM     19  C   UNL     1      19.202  51.066  26.513  1.00  0.00     0.278 C 
ENDBRANCH  13  18
BRANCH  14  20
ATOM     20  O   UNL     1      17.582  47.846  25.913  1.00  0.00    -0.493 OA
ATOM     21  C   UNL     1      17.214  46.584  25.367  1.00  0.00     0.278 C 
ENDBRANCH  14  20
ENDBRANCH   1  12
BRANCH   8  22
ATOM     22  O   UNL     1      15.395  43.238  29.132  1.00  0.00    -0.490 OA
ATOM     23  C   UNL     1      16.681  42.816  28.693  1.00  0.00     0.278 C 
ENDBRANCH   8  22
BRANCH  11  24
ATOM     24  O   UNL     1      13.610  44.504  34.310  1.00  0.00    -0.492 OA
ATOM     25  C   UNL     1      12.208  44.675  34.484  1.00  0.00     0.278 C 
ENDBRANCH  11  24
BRANCH   9  26
ATOM     26  O   UNL     1      14.389  41.145  30.816  1.00  0.00    -0.490 OA
ATOM     27  C   UNL     1      15.371  40.117  30.894  1.00  0.00     0.279 C 
ENDBRANCH   9  26
BRANCH  10  28
ATOM     28  O   UNL     1      13.674  41.771  33.513  1.00  0.00    -0.490 OA
ATOM     29  C   UNL     1      12.401  41.134  33.497  1.00  0.00     0.278 C 
ENDBRANCH  10  28
TORSDOF 7
ENDMDL
MODEL 3
REMARK VINA RESULT:    -4.777      2.621      8.502
REMARK INTER + INTRA:          -7.574
REMARK INTER:                  -6.974
REMARK INTRA:                  -0.600
REMARK UNBOUND:                -0.842
REMARK SMILES COc1ccc(-c2cc(=O)c3c(OC)c(OC)c(OC)c(OC)c3o2)cc1OC
REMARK SMILES IDX 7 1 8 2 9 3 10 4 11 5 24 6 25 7 21 8 18 9 15 10 12 11 6 12
REMARK SMILES IDX 3 13 27 14 4 15 26 16 5 17 2 18 1 19 28 20 29 21 22 22 23 23
REMARK SMILES IDX 13 24 14 25 19 26 20 27 16 28 17 29
REMARK H PARENT
REMARK Flexibility Score: inf
ROOT
ATOM      1  C   UNL     1      14.901  50.396  31.309  1.00  0.00     0.138 A 
ATOM      2  C   UNL     1      16.058  50.295  30.524  1.00  0.00     0.100 A 
ATOM      3  C   UNL     1      16.546  49.033  30.185  1.00  0.00     0.197 A 
ATOM      4  O   UNL     1      17.572  48.956  29.457  1.00  0.00    -0.289 OA
ATOM      5  C   UNL     1      15.874  47.877  30.640  1.00  0.00     0.115 A 
ATOM      6  C   UNL     1      14.705  48.060  31.404  1.00  0.00     0.188 A 
ATOM      7  O   UNL     1      14.280  49.286  31.700  1.00  0.00    -0.452 OA
ATOM      8  C   UNL     1      13.968  46.965  31.871  1.00  0.00     0.209 A 
ATOM      9  C   UNL     1      14.382  45.646  31.552  1.00  0.00     0.211 A 
ATOM     10  C   UNL     1      15.544  45.451  30.757  1.00  0.00     0.208 A 
ATOM     11  C   UNL     1      16.321  46.567  30.362  1.00  0.00     0.179 A 
ENDROOT
BRANCH   1  12
ATOM     12  C   UNL     1      14.331  51.709  31.705  1.00  0.00     0.021 A 
ATOM     13  C   UNL     1      13.307  54.227  32.469  1.00  0.00     0.160 A 
ATOM     14  C   UNL     1      14.520  53.773  33.007  1.00  0.00     0.161 A 
ATOM     15  C   UNL     1      12.614  53.424  31.546  1.00  0.00     0.051 A 
ATOM     16  C   UNL     1      15.029  52.518  32.618  1.00  0.00     0.062 A 
ATOM     17  C   UNL     1      13.123  52.182  31.165  1.00  0.00     0.016 A 
BRANCH  13  18
ATOM     18  O   UNL     1      12.825  55.482  32.876  1.00  0.00    -0.493 OA
ATOM     19  C   UNL     1      11.762  55.676  33.803  1.00  0.00     0.278 C 
ENDBRANCH  13  18
BRANCH  14  20
ATOM     20  O   UNL     1      15.192  54.598  33.924  1.00  0.00    -0.493 OA
ATOM     21  C   UNL     1      15.125  54.455  35.339  1.00  0.00     0.278 C 
ENDBRANCH  14  20
ENDBRANCH   1  12
BRANCH   8  22
ATOM     22  O   UNL     1      12.828  47.267  32.645  1.00  0.00    -0.490 OA
ATOM     23  C   UNL     1      11.472  47.263  32.215  1.00  0.00     0.278 C 
ENDBRANCH   8  22
BRANCH  11  24
ATOM     24  O   UNL     1      17.549  46.371  29.729  1.00  0.00    -0.492 OA
ATOM     25  C   UNL     1      17.616  45.967  28.366  1.00  0.00     0.278 C 
ENDBRANCH  11  24
BRANCH   9  26
ATOM     26  O   UNL     1      13.604  44.574  32.033  1.00  0.00    -0.490 OA
ATOM     27  C   UNL     1      13.742  43.890  33.274  1.00  0.00     0.279 C 
ENDBRANCH   9  26
BRANCH  10  28
ATOM     28  O   UNL     1      15.897  44.144  30.378  1.00  0.00    -0.490 OA
ATOM     29  C   UNL     1      15.274  43.375  29.355  1.00  0.00     0.278 C 
ENDBRANCH  10  28
TORSDOF 7
ENDMDL
MODEL 4
REMARK VINA RESULT:    -4.759      2.996     10.095
REMARK INTER + INTRA:          -7.548
REMARK INTER:                  -6.801
REMARK INTRA:                  -0.747
REMARK UNBOUND:                -0.842
REMARK SMILES COc1ccc(-c2cc(=O)c3c(OC)c(OC)c(OC)c(OC)c3o2)cc1OC
REMARK SMILES IDX 7 1 8 2 9 3 10 4 11 5 24 6 25 7 21 8 18 9 15 10 12 11 6 12
REMARK SMILES IDX 3 13 27 14 4 15 26 16 5 17 2 18 1 19 28 20 29 21 22 22 23 23
REMARK SMILES IDX 13 24 14 25 19 26 20 27 16 28 17 29
REMARK H PARENT
REMARK Flexibility Score: inf
ROOT
ATOM      1  C   UNL     1      15.501  47.391  30.743  1.00  0.00     0.138 A 
ATOM      2  C   UNL     1      15.060  47.647  32.048  1.00  0.00     0.100 A 
ATOM      3  C   UNL     1      14.618  46.587  32.840  1.00  0.00     0.197 A 
ATOM      4  O   UNL     1      14.249  46.826  34.021  1.00  0.00    -0.289 OA
ATOM      5  C   UNL     1      14.615  45.275  32.316  1.00  0.00     0.115 A 
ATOM      6  C   UNL     1      15.095  45.095  31.004  1.00  0.00     0.188 A 
ATOM      7  O   UNL     1      15.507  46.140  30.290  1.00  0.00    -0.452 OA
ATOM      8  C   UNL     1      15.147  43.823  30.422  1.00  0.00     0.209 A 
ATOM      9  C   UNL     1      14.738  42.687  31.167  1.00  0.00     0.211 A 
ATOM     10  C   UNL     1      14.280  42.854  32.501  1.00  0.00     0.208 A 
ATOM     11  C   UNL     1      14.157  44.156  33.045  1.00  0.00     0.179 A 
ENDROOT
BRANCH   1  12
ATOM     12  C   UNL     1      15.982  48.475  29.849  1.00  0.00     0.021 A 
ATOM     13  C   UNL     1      16.885  50.578  28.194  1.00  0.00     0.160 A 
ATOM     14  C   UNL     1      15.914  50.827  29.175  1.00  0.00     0.161 A 
ATOM     15  C   UNL     1      17.407  49.280  28.049  1.00  0.00     0.051 A 
ATOM     16  C   UNL     1      15.471  49.775  30.001  1.00  0.00     0.062 A 
ATOM     17  C   UNL     1      16.964  48.242  28.870  1.00  0.00     0.016 A 
BRANCH  13  18
ATOM     18  O   UNL     1      17.308  51.646  27.386  1.00  0.00    -0.493 OA
ATOM     19  C   UNL     1      18.567  51.709  26.726  1.00  0.00     0.278 C 
ENDBRANCH  13  18
BRANCH  14  20
ATOM     20  O   UNL     1      15.414  52.134  29.300  1.00  0.00    -0.493 OA
ATOM     21  C   UNL     1      15.165  52.788  30.539  1.00  0.00     0.278 C 
ENDBRANCH  14  20
ENDBRANCH   1  12
BRANCH   8  22
ATOM     22  O   UNL     1      15.625  43.766  29.096  1.00  0.00    -0.490 OA
ATOM     23  C   UNL     1      16.951  43.473  28.672  1.00  0.00     0.278 C 
ENDBRANCH   8  22
BRANCH  11  24
ATOM     24  O   UNL     1      13.550  44.337  34.289  1.00  0.00    -0.492 OA
ATOM     25  C   UNL     1      12.134  44.415  34.408  1.00  0.00     0.278 C 
ENDBRANCH  11  24
BRANCH   9  26
ATOM     26  O   UNL     1      14.819  41.425  30.545  1.00  0.00    -0.490 OA
ATOM     27  C   UNL     1      15.872  40.473  30.647  1.00  0.00     0.279 C 
ENDBRANCH   9  26
BRANCH  10  28
ATOM     28  O   UNL     1      13.955  41.714  33.257  1.00  0.00    -0.490 OA
ATOM     29  C   UNL     1      12.716  41.013  33.220  1.00  0.00     0.278 C 
ENDBRANCH  10  28
TORSDOF 7
ENDMDL
MODEL 5
REMARK VINA RESULT:    -4.674      1.286      2.016
REMARK INTER + INTRA:          -7.428
REMARK INTER:                  -6.587
REMARK INTRA:                  -0.840
REMARK UNBOUND:                -0.842
REMARK SMILES COc1ccc(-c2cc(=O)c3c(OC)c(OC)c(OC)c(OC)c3o2)cc1OC
REMARK SMILES IDX 7 1 8 2 9 3 10 4 11 5 24 6 25 7 21 8 18 9 15 10 12 11 6 12
REMARK SMILES IDX 3 13 27 14 4 15 26 16 5 17 2 18 1 19 28 20 29 21 22 22 23 23
REMARK SMILES IDX 13 24 14 25 19 26 20 27 16 28 17 29
REMARK H PARENT
REMARK Flexibility Score: inf
ROOT
ATOM      1  C   UNL     1      15.375  51.592  30.444  1.00  0.00     0.138 A 
ATOM      2  C   UNL     1      15.414  52.326  29.250  1.00  0.00     0.100 A 
ATOM      3  C   UNL     1      15.044  53.670  29.261  1.00  0.00     0.197 A 
ATOM      4  O   UNL     1      15.108  54.325  28.186  1.00  0.00    -0.289 OA
ATOM      5  C   UNL     1      14.629  54.273  30.470  1.00  0.00     0.115 A 
ATOM      6  C   UNL     1      14.639  53.477  31.632  1.00  0.00     0.188 A 
ATOM      7  O   UNL     1      15.003  52.198  31.568  1.00  0.00    -0.452 OA
ATOM      8  C   UNL     1      14.267  54.007  32.873  1.00  0.00     0.209 A 
ATOM      9  C   UNL     1      13.898  55.373  32.977  1.00  0.00     0.211 A 
ATOM     10  C   UNL     1      13.912  56.191  31.816  1.00  0.00     0.208 A 
ATOM     11  C   UNL     1      14.213  55.619  30.556  1.00  0.00     0.179 A 
ENDROOT
BRANCH   1  12
ATOM     12  C   UNL     1      15.756  50.158  30.499  1.00  0.00     0.021 A 
ATOM     13  C   UNL     1      16.419  47.416  30.617  1.00  0.00     0.160 A 
ATOM     14  C   UNL     1      15.335  47.906  31.361  1.00  0.00     0.161 A 
ATOM     15  C   UNL     1      17.162  48.296  29.811  1.00  0.00     0.051 A 
ATOM     16  C   UNL     1      15.007  49.274  31.295  1.00  0.00     0.062 A 
ATOM     17  C   UNL     1      16.831  49.650  29.750  1.00  0.00     0.016 A 
BRANCH  13  18
ATOM     18  O   UNL     1      16.723  46.047  30.703  1.00  0.00    -0.493 OA
ATOM     19  C   UNL     1      16.465  45.097  29.674  1.00  0.00     0.278 C 
ENDBRANCH  13  18
BRANCH  14  20
ATOM     20  O   UNL     1      14.609  47.002  32.154  1.00  0.00    -0.493 OA
ATOM     21  C   UNL     1      14.774  46.848  33.559  1.00  0.00     0.278 C 
ENDBRANCH  14  20
ENDBRANCH   1  12
BRANCH   8  22
ATOM     22  O   UNL     1      14.293  53.113  33.964  1.00  0.00    -0.490 OA
ATOM     23  C   UNL     1      15.238  53.082  35.027  1.00  0.00     0.278 C 
ENDBRANCH   8  22
BRANCH  11  24
ATOM     24  O   UNL     1      14.064  56.377  29.393  1.00  0.00    -0.492 OA
ATOM     25  C   UNL     1      12.773  56.666  28.868  1.00  0.00     0.278 C 
ENDBRANCH  11  24
BRANCH   9  26
ATOM     26  O   UNL     1      13.541  55.866  34.248  1.00  0.00    -0.490 OA
ATOM     27  C   UNL     1      12.255  55.847  34.857  1.00  0.00     0.279 C 
ENDBRANCH   9  26
BRANCH  10  28
ATOM     28  O   UNL     1      13.625  57.561  31.945  1.00  0.00    -0.490 OA
ATOM     29  C   UNL     1      14.575  58.594  32.182  1.00  0.00     0.278 C 
ENDBRANCH  10  28
TORSDOF 7
ENDMDL
MODEL 6
REMARK VINA RESULT:    -4.657      2.977      5.815
REMARK INTER + INTRA:          -7.405
REMARK INTER:                  -6.789
REMARK INTRA:                  -0.616
REMARK UNBOUND:                -0.842
REMARK SMILES COc1ccc(-c2cc(=O)c3c(OC)c(OC)c(OC)c(OC)c3o2)cc1OC
REMARK SMILES IDX 7 1 8 2 9 3 10 4 11 5 24 6 25 7 21 8 18 9 15 10 12 11 6 12
REMARK SMILES IDX 3 13 27 14 4 15 26 16 5 17 2 18 1 19 28 20 29 21 22 22 23 23
REMARK SMILES IDX 13 24 14 25 19 26 20 27 16 28 17 29
REMARK H PARENT
REMARK Flexibility Score: inf
ROOT
ATOM      1  C   UNL     1      14.891  47.989  31.105  1.00  0.00     0.138 A 
ATOM      2  C   UNL     1      14.285  49.187  31.507  1.00  0.00     0.100 A 
ATOM      3  C   UNL     1      14.576  50.365  30.817  1.00  0.00     0.197 A 
ATOM      4  O   UNL     1      14.005  51.431  31.172  1.00  0.00    -0.289 OA
ATOM      5  C   UNL     1      15.479  50.336  29.731  1.00  0.00     0.115 A 
ATOM      6  C   UNL     1      16.028  49.090  29.372  1.00  0.00     0.188 A 
ATOM      7  O   UNL     1      15.718  47.994  30.062  1.00  0.00    -0.452 OA
ATOM      8  C   UNL     1      16.911  48.974  28.292  1.00  0.00     0.209 A 
ATOM      9  C   UNL     1      17.242  50.118  27.523  1.00  0.00     0.211 A 
ATOM     10  C   UNL     1      16.671  51.375  27.858  1.00  0.00     0.208 A 
ATOM     11  C   UNL     1      15.844  51.489  29.002  1.00  0.00     0.179 A 
ENDROOT
BRANCH   1  12
ATOM     12  C   UNL     1      14.625  46.702  31.796  1.00  0.00     0.021 A 
ATOM     13  C   UNL     1      14.070  44.282  33.142  1.00  0.00     0.160 A 
ATOM     14  C   UNL     1      13.737  45.507  33.739  1.00  0.00     0.161 A 
ATOM     15  C   UNL     1      14.671  44.271  31.871  1.00  0.00     0.051 A 
ATOM     16  C   UNL     1      14.012  46.711  33.061  1.00  0.00     0.062 A 
ATOM     17  C   UNL     1      14.941  45.467  31.204  1.00  0.00     0.016 A 
BRANCH  13  18
ATOM     18  O   UNL     1      13.784  43.099  33.842  1.00  0.00    -0.493 OA
ATOM     19  C   UNL     1      14.390  41.838  33.577  1.00  0.00     0.278 C 
ENDBRANCH  13  18
BRANCH  14  20
ATOM     20  O   UNL     1      13.133  45.487  35.007  1.00  0.00    -0.493 OA
ATOM     21  C   UNL     1      11.733  45.601  35.237  1.00  0.00     0.278 C 
ENDBRANCH  14  20
ENDBRANCH   1  12
BRANCH   8  22
ATOM     22  O   UNL     1      17.416  47.681  28.039  1.00  0.00    -0.490 OA
ATOM     23  C   UNL     1      16.957  46.755  27.061  1.00  0.00     0.278 C 
ENDBRANCH   8  22
BRANCH  11  24
ATOM     24  O   UNL     1      15.419  52.747  29.433  1.00  0.00    -0.492 OA
ATOM     25  C   UNL     1      14.455  53.488  28.694  1.00  0.00     0.278 C 
ENDBRANCH  11  24
BRANCH   9  26
ATOM     26  O   UNL     1      18.125  49.953  26.438  1.00  0.00    -0.490 OA
ATOM     27  C   UNL     1      17.792  49.795  25.063  1.00  0.00     0.279 C 
ENDBRANCH   9  26
BRANCH  10  28
ATOM     28  O   UNL     1      16.941  52.486  27.040  1.00  0.00    -0.490 OA
ATOM     29  C   UNL     1      18.097  53.314  27.112  1.00  0.00     0.278 C 
ENDBRANCH  10  28
TORSDOF 7
ENDMDL
MODEL 7
REMARK VINA RESULT:    -4.649      2.553     10.138
REMARK INTER + INTRA:          -7.393
REMARK INTER:                  -6.580
REMARK INTRA:                  -0.812
REMARK UNBOUND:                -0.842
REMARK SMILES COc1ccc(-c2cc(=O)c3c(OC)c(OC)c(OC)c(OC)c3o2)cc1OC
REMARK SMILES IDX 7 1 8 2 9 3 10 4 11 5 24 6 25 7 21 8 18 9 15 10 12 11 6 12
REMARK SMILES IDX 3 13 27 14 4 15 26 16 5 17 2 18 1 19 28 20 29 21 22 22 23 23
REMARK SMILES IDX 13 24 14 25 19 26 20 27 16 28 17 29
REMARK H PARENT
REMARK Flexibility Score: inf
ROOT
ATOM      1  C   UNL     1      14.886  47.361  31.283  1.00  0.00     0.138 A 
ATOM      2  C   UNL     1      14.331  46.974  32.511  1.00  0.00     0.100 A 
ATOM      3  C   UNL     1      14.209  45.617  32.808  1.00  0.00     0.197 A 
ATOM      4  O   UNL     1      13.733  45.282  33.926  1.00  0.00    -0.289 OA
ATOM      5  C   UNL     1      14.639  44.652  31.869  1.00  0.00     0.115 A 
ATOM      6  C   UNL     1      15.207  45.119  30.668  1.00  0.00     0.188 A 
ATOM      7  O   UNL     1      15.302  46.426  30.433  1.00  0.00    -0.452 OA
ATOM      8  C   UNL     1      15.680  44.228  29.698  1.00  0.00     0.209 A 
ATOM      9  C   UNL     1      15.615  42.830  29.931  1.00  0.00     0.211 A 
ATOM     10  C   UNL     1      15.069  42.349  31.152  1.00  0.00     0.208 A 
ATOM     11  C   UNL     1      14.523  43.262  32.085  1.00  0.00     0.179 A 
ENDROOT
BRANCH   1  12
ATOM     12  C   UNL     1      15.043  48.788  30.906  1.00  0.00     0.021 A 
ATOM     13  C   UNL     1      15.350  51.485  30.127  1.00  0.00     0.160 A 
ATOM     14  C   UNL     1      15.991  50.470  29.402  1.00  0.00     0.161 A 
ATOM     15  C   UNL     1      14.551  51.148  31.234  1.00  0.00     0.051 A 
ATOM     16  C   UNL     1      15.831  49.127  29.792  1.00  0.00     0.062 A 
ATOM     17  C   UNL     1      14.396  49.815  31.616  1.00  0.00     0.016 A 
BRANCH  13  18
ATOM     18  O   UNL     1      15.529  52.816  29.715  1.00  0.00    -0.493 OA
ATOM     19  C   UNL     1      15.209  53.956  30.506  1.00  0.00     0.278 C 
ENDBRANCH  13  18
BRANCH  14  20
ATOM     20  O   UNL     1      16.779  50.837  28.298  1.00  0.00    -0.493 OA
ATOM     21  C   UNL     1      17.648  49.954  27.598  1.00  0.00     0.278 C 
ENDBRANCH  14  20
ENDBRANCH   1  12
BRANCH   8  22
ATOM     22  O   UNL     1      16.208  44.807  28.526  1.00  0.00    -0.490 OA
ATOM     23  C   UNL     1      17.579  45.040  28.224  1.00  0.00     0.278 C 
ENDBRANCH   8  22
BRANCH  11  24
ATOM     24  O   UNL     1      13.836  42.787  33.204  1.00  0.00    -0.492 OA
ATOM     25  C   UNL     1      12.527  42.240  33.083  1.00  0.00     0.278 C 
ENDBRANCH  11  24
BRANCH   9  26
ATOM     26  O   UNL     1      16.112  41.969  28.932  1.00  0.00    -0.490 OA
ATOM     27  C   UNL     1      15.436  41.510  27.766  1.00  0.00     0.279 C 
ENDBRANCH   9  26
BRANCH  10  28
ATOM     28  O   UNL     1      15.085  40.966  31.406  1.00  0.00    -0.490 OA
ATOM     29  C   UNL     1      16.194  40.221  31.899  1.00  0.00     0.278 C 
ENDBRANCH  10  28
TORSDOF 7
ENDMDL
MODEL 8
REMARK VINA RESULT:    -4.599      2.219      8.348
REMARK INTER + INTRA:          -7.323
REMARK INTER:                  -6.496
REMARK INTRA:                  -0.827
REMARK UNBOUND:                -0.842
REMARK SMILES COc1ccc(-c2cc(=O)c3c(OC)c(OC)c(OC)c(OC)c3o2)cc1OC
REMARK SMILES IDX 7 1 8 2 9 3 10 4 11 5 24 6 25 7 21 8 18 9 15 10 12 11 6 12
REMARK SMILES IDX 3 13 27 14 4 15 26 16 5 17 2 18 1 19 28 20 29 21 22 22 23 23
REMARK SMILES IDX 13 24 14 25 19 26 20 27 16 28 17 29
REMARK H PARENT
REMARK Flexibility Score: inf
ROOT
ATOM      1  C   UNL     1      15.271  51.648  31.139  1.00  0.00     0.138 A 
ATOM      2  C   UNL     1      14.609  50.600  31.793  1.00  0.00     0.100 A 
ATOM      3  C   UNL     1      14.651  49.318  31.247  1.00  0.00     0.197 A 
ATOM      4  O   UNL     1      14.073  48.379  31.858  1.00  0.00    -0.289 OA
ATOM      5  C   UNL     1      15.352  49.092  30.041  1.00  0.00     0.115 A 
ATOM      6  C   UNL     1      16.013  50.190  29.456  1.00  0.00     0.188 A 
ATOM      7  O   UNL     1      15.943  51.395  30.018  1.00  0.00    -0.452 OA
ATOM      8  C   UNL     1      16.750  50.044  28.275  1.00  0.00     0.209 A 
ATOM      9  C   UNL     1      16.864  48.768  27.665  1.00  0.00     0.211 A 
ATOM     10  C   UNL     1      16.225  47.648  28.263  1.00  0.00     0.208 A 
ATOM     11  C   UNL     1      15.418  47.830  29.412  1.00  0.00     0.179 A 
ENDROOT
BRANCH   1  12
ATOM     12  C   UNL     1      15.264  53.035  31.668  1.00  0.00     0.021 A 
ATOM     13  C   UNL     1      15.277  55.653  32.727  1.00  0.00     0.160 A 
ATOM     14  C   UNL     1      15.177  54.550  33.588  1.00  0.00     0.161 A 
ATOM     15  C   UNL     1      15.377  55.443  31.341  1.00  0.00     0.051 A 
ATOM     16  C   UNL     1      15.177  53.247  33.054  1.00  0.00     0.062 A 
ATOM     17  C   UNL     1      15.375  54.149  30.818  1.00  0.00     0.016 A 
BRANCH  13  18
ATOM     18  O   UNL     1      15.275  56.940  33.289  1.00  0.00    -0.493 OA
ATOM     19  C   UNL     1      16.020  58.042  32.781  1.00  0.00     0.278 C 
ENDBRANCH  13  18
BRANCH  14  20
ATOM     20  O   UNL     1      15.083  54.790  34.969  1.00  0.00    -0.493 OA
ATOM     21  C   UNL     1      13.938  54.496  35.763  1.00  0.00     0.278 C 
ENDBRANCH  14  20
ENDBRANCH   1  12
BRANCH   8  22
ATOM     22  O   UNL     1      17.350  51.216  27.768  1.00  0.00    -0.490 OA
ATOM     23  C   UNL     1      16.842  52.069  26.749  1.00  0.00     0.278 C 
ENDBRANCH   8  22
BRANCH  11  24
ATOM     24  O   UNL     1      14.655  46.769  29.902  1.00  0.00    -0.492 OA
ATOM     25  C   UNL     1      13.474  46.344  29.232  1.00  0.00     0.278 C 
ENDBRANCH  11  24
BRANCH   9  26
ATOM     26  O   UNL     1      17.625  48.665  26.484  1.00  0.00    -0.490 OA
ATOM     27  C   UNL     1      17.151  48.677  25.142  1.00  0.00     0.279 C 
ENDBRANCH   9  26
BRANCH  10  28
ATOM     28  O   UNL     1      16.412  46.376  27.697  1.00  0.00    -0.490 OA
ATOM     29  C   UNL     1      17.481  45.481  27.988  1.00  0.00     0.278 C 
ENDBRANCH  10  28
TORSDOF 7
ENDMDL
MODEL 9
REMARK VINA RESULT:    -4.594      1.696      2.541
REMARK INTER + INTRA:          -7.315
REMARK INTER:                  -6.913
REMARK INTRA:                  -0.402
REMARK UNBOUND:                -0.842
REMARK SMILES COc1ccc(-c2cc(=O)c3c(OC)c(OC)c(OC)c(OC)c3o2)cc1OC
REMARK SMILES IDX 7 1 8 2 9 3 10 4 11 5 24 6 25 7 21 8 18 9 15 10 12 11 6 12
REMARK SMILES IDX 3 13 27 14 4 15 26 16 5 17 2 18 1 19 28 20 29 21 22 22 23 23
REMARK SMILES IDX 13 24 14 25 19 26 20 27 16 28 17 29
REMARK H PARENT
REMARK Flexibility Score: inf
ROOT
ATOM      1  C   UNL     1      14.839  49.862  31.087  1.00  0.00     0.138 A 
ATOM      2  C   UNL     1      15.153  50.072  29.737  1.00  0.00     0.100 A 
ATOM      3  C   UNL     1      15.368  51.372  29.280  1.00  0.00     0.197 A 
ATOM      4  O   UNL     1      15.675  51.545  28.070  1.00  0.00    -0.289 OA
ATOM      5  C   UNL     1      15.260  52.457  30.178  1.00  0.00     0.115 A 
ATOM      6  C   UNL     1      14.966  52.164  31.524  1.00  0.00     0.188 A 
ATOM      7  O   UNL     1      14.770  50.905  31.910  1.00  0.00    -0.452 OA
ATOM      8  C   UNL     1      14.868  53.181  32.480  1.00  0.00     0.209 A 
ATOM      9  C   UNL     1      15.094  54.530  32.104  1.00  0.00     0.211 A 
ATOM     10  C   UNL     1      15.421  54.834  30.755  1.00  0.00     0.208 A 
ATOM     11  C   UNL     1      15.436  53.802  29.786  1.00  0.00     0.179 A 
ENDROOT
BRANCH   1  12
ATOM     12  C   UNL     1      14.598  48.504  31.637  1.00  0.00     0.021 A 
ATOM     13  C   UNL     1      14.082  45.920  32.653  1.00  0.00     0.160 A 
ATOM     14  C   UNL     1      13.017  46.794  32.390  1.00  0.00     0.161 A 
ATOM     15  C   UNL     1      15.401  46.338  32.400  1.00  0.00     0.051 A 
ATOM     16  C   UNL     1      13.280  48.079  31.878  1.00  0.00     0.062 A 
ATOM     17  C   UNL     1      15.655  47.613  31.894  1.00  0.00     0.016 A 
BRANCH  13  18
ATOM     18  O   UNL     1      13.789  44.644  33.163  1.00  0.00    -0.493 OA
ATOM     19  C   UNL     1      14.113  43.421  32.510  1.00  0.00     0.278 C 
ENDBRANCH  13  18
BRANCH  14  20
ATOM     20  O   UNL     1      11.710  46.347  32.648  1.00  0.00    -0.493 OA
ATOM     21  C   UNL     1      10.953  46.691  33.803  1.00  0.00     0.278 C 
ENDBRANCH  14  20
ENDBRANCH   1  12
BRANCH   8  22
ATOM     22  O   UNL     1      14.546  52.773  33.791  1.00  0.00    -0.490 OA
ATOM     23  C   UNL     1      15.272  53.054  34.982  1.00  0.00     0.278 C 
ENDBRANCH   8  22
BRANCH  11  24
ATOM     24  O   UNL     1      15.589  54.118  28.434  1.00  0.00    -0.492 OA
ATOM     25  C   UNL     1      16.853  54.511  27.911  1.00  0.00     0.278 C 
ENDBRANCH  11  24
BRANCH   9  26
ATOM     26  O   UNL     1      14.997  55.520  33.101  1.00  0.00    -0.490 OA
ATOM     27  C   UNL     1      13.870  56.333  33.410  1.00  0.00     0.279 C 
ENDBRANCH   9  26
BRANCH  10  28
ATOM     28  O   UNL     1      15.724  56.163  30.411  1.00  0.00    -0.490 OA
ATOM     29  C   UNL     1      16.904  56.871  30.777  1.00  0.00     0.278 C 
ENDBRANCH  10  28
TORSDOF 7
ENDMDL
