MODEL 1
REMARK VINA RESULT:    -6.080      0.000      0.000
REMARK INTER + INTRA:          -6.080
REMARK INTER:                  -6.080
REMARK INTRA:                   0.000
REMARK UNBOUND:                 0.000
REMARK SMILES CC1=CC(=O)[C@@H]2C[C@H]1C2(C)C
REMARK SMILES IDX 1 1 2 2 3 3 4 4 5 5 6 6 7 7 8 8 9 9 10 10 11 11
REMARK H PARENT
REMARK Flexibility Score: inf
ROOT
ATOM      1  C   UNL     1      20.131  27.624   3.741  1.00  0.00     0.040 C 
ATOM      2  C   UNL     1      19.272  26.518   4.267  1.00  0.00    -0.066 C 
ATOM      3  C   UNL     1      19.676  25.216   4.256  1.00  0.00     0.047 C 
ATOM      4  C   UNL     1      18.710  24.218   4.819  1.00  0.00     0.159 C 
ATOM      5  O   UNL     1      18.982  22.992   4.903  1.00  0.00    -0.295 OA
ATOM      6  C   UNL     1      17.370  24.793   5.282  1.00  0.00     0.067 C 
ATOM      7  C   UNL     1      16.950  25.739   4.135  1.00  0.00     0.021 C 
ATOM      8  C   UNL     1      17.853  26.802   4.799  1.00  0.00     0.022 C 
ATOM      9  C   UNL     1      17.645  26.055   6.148  1.00  0.00    -0.019 C 
ATOM     10  C   UNL     1      16.382  26.538   6.904  1.00  0.00     0.012 C 
ATOM     11  C   UNL     1      18.830  26.013   7.156  1.00  0.00     0.012 C 
ENDROOT
TORSDOF 0
ENDMDL
MODEL 2
REMARK VINA RESULT:    -5.970      1.741      3.032
REMARK INTER + INTRA:          -5.970
REMARK INTER:                  -5.970
REMARK INTRA:                   0.000
REMARK UNBOUND:                 0.000
REMARK SMILES CC1=CC(=O)[C@@H]2C[C@H]1C2(C)C
REMARK SMILES IDX 1 1 2 2 3 3 4 4 5 5 6 6 7 7 8 8 9 9 10 10 11 11
REMARK H PARENT
REMARK Flexibility Score: inf
ROOT
ATOM      1  C   UNL     1      15.059  25.580   4.710  1.00  0.00     0.040 C 
ATOM      2  C   UNL     1      16.538  25.750   4.860  1.00  0.00    -0.066 C 
ATOM      3  C   UNL     1      17.266  26.543   4.023  1.00  0.00     0.047 C 
ATOM      4  C   UNL     1      18.738  26.618   4.298  1.00  0.00     0.159 C 
ATOM      5  O   UNL     1      19.511  27.347   3.624  1.00  0.00    -0.295 OA
ATOM      6  C   UNL     1      19.234  25.747   5.454  1.00  0.00     0.067 C 
ATOM      7  C   UNL     1      18.543  24.385   5.222  1.00  0.00     0.021 C 
ATOM      8  C   UNL     1      17.317  24.983   5.947  1.00  0.00     0.022 C 
ATOM      9  C   UNL     1      18.291  25.957   6.672  1.00  0.00    -0.019 C 
ATOM     10  C   UNL     1      18.869  25.352   7.976  1.00  0.00     0.012 C 
ATOM     11  C   UNL     1      17.794  27.398   6.982  1.00  0.00     0.012 C 
ENDROOT
TORSDOF 0
ENDMDL
MODEL 3
REMARK VINA RESULT:    -5.950     17.550     19.345
REMARK INTER + INTRA:          -5.950
REMARK INTER:                  -5.950
REMARK INTRA:                   0.000
REMARK UNBOUND:                 0.000
REMARK SMILES CC1=CC(=O)[C@@H]2C[C@H]1C2(C)C
REMARK SMILES IDX 1 1 2 2 3 3 4 4 5 5 6 6 7 7 8 8 9 9 10 10 11 11
REMARK H PARENT
REMARK Flexibility Score: inf
ROOT
ATOM      1  C   UNL     1      29.838  18.751  -6.832  1.00  0.00     0.040 C 
ATOM      2  C   UNL     1      30.818  18.075  -5.926  1.00  0.00    -0.066 C 
ATOM      3  C   UNL     1      30.651  18.037  -4.574  1.00  0.00     0.047 C 
ATOM      4  C   UNL     1      31.714  17.321  -3.796  1.00  0.00     0.159 C 
ATOM      5  O   UNL     1      31.653  17.181  -2.546  1.00  0.00    -0.295 OA
ATOM      6  C   UNL     1      32.877  16.775  -4.625  1.00  0.00     0.067 C 
ATOM      7  C   UNL     1      33.241  17.938  -5.575  1.00  0.00     0.021 C 
ATOM      8  C   UNL     1      32.103  17.433  -6.488  1.00  0.00     0.022 C 
ATOM      9  C   UNL     1      32.297  16.024  -5.857  1.00  0.00    -0.019 C 
ATOM     10  C   UNL     1      33.371  15.188  -6.597  1.00  0.00     0.012 C 
ATOM     11  C   UNL     1      31.041  15.131  -5.652  1.00  0.00     0.012 C 
ENDROOT
TORSDOF 0
ENDMDL
MODEL 4
REMARK VINA RESULT:    -5.927      1.045      3.188
REMARK INTER + INTRA:          -5.927
REMARK INTER:                  -5.927
REMARK INTRA:                   0.000
REMARK UNBOUND:                 0.000
REMARK SMILES CC1=CC(=O)[C@@H]2C[C@H]1C2(C)C
REMARK SMILES IDX 1 1 2 2 3 3 4 4 5 5 6 6 7 7 8 8 9 9 10 10 11 11
REMARK H PARENT
REMARK Flexibility Score: inf
ROOT
ATOM      1  C   UNL     1      17.373  27.229   7.353  1.00  0.00     0.040 C 
ATOM      2  C   UNL     1      18.189  26.496   6.336  1.00  0.00    -0.066 C 
ATOM      3  C   UNL     1      17.989  25.176   6.059  1.00  0.00     0.047 C 
ATOM      4  C   UNL     1      18.881  24.577   5.014  1.00  0.00     0.159 C 
ATOM      5  O   UNL     1      18.768  23.380   4.640  1.00  0.00    -0.295 OA
ATOM      6  C   UNL     1      19.937  25.519   4.436  1.00  0.00     0.067 C 
ATOM      7  C   UNL     1      20.534  26.222   5.676  1.00  0.00     0.021 C 
ATOM      8  C   UNL     1      19.341  27.198   5.589  1.00  0.00     0.022 C 
ATOM      9  C   UNL     1      19.252  26.867   4.071  1.00  0.00    -0.019 C 
ATOM     10  C   UNL     1      20.164  27.779   3.213  1.00  0.00     0.012 C 
ATOM     11  C   UNL     1      17.845  26.824   3.409  1.00  0.00     0.012 C 
ENDROOT
TORSDOF 0
ENDMDL
MODEL 5
REMARK VINA RESULT:    -5.851      2.268      4.054
REMARK INTER + INTRA:          -5.851
REMARK INTER:                  -5.851
REMARK INTRA:                   0.000
REMARK UNBOUND:                 0.000
REMARK SMILES CC1=CC(=O)[C@@H]2C[C@H]1C2(C)C
REMARK SMILES IDX 1 1 2 2 3 3 4 4 5 5 6 6 7 7 8 8 9 9 10 10 11 11
REMARK H PARENT
REMARK Flexibility Score: inf
ROOT
ATOM      1  C   UNL     1      14.875  23.435   7.141  1.00  0.00     0.040 C 
ATOM      2  C   UNL     1      15.710  24.610   6.740  1.00  0.00    -0.066 C 
ATOM      3  C   UNL     1      16.367  25.379   7.654  1.00  0.00     0.047 C 
ATOM      4  C   UNL     1      17.166  26.521   7.104  1.00  0.00     0.159 C 
ATOM      5  O   UNL     1      17.851  27.279   7.841  1.00  0.00    -0.295 OA
ATOM      6  C   UNL     1      17.091  26.704   5.588  1.00  0.00     0.067 C 
ATOM      7  C   UNL     1      15.586  26.566   5.266  1.00  0.00     0.021 C 
ATOM      8  C   UNL     1      15.816  25.038   5.263  1.00  0.00     0.022 C 
ATOM      9  C   UNL     1      17.306  25.320   4.912  1.00  0.00    -0.019 C 
ATOM     10  C   UNL     1      17.540  25.440   3.384  1.00  0.00     0.012 C 
ATOM     11  C   UNL     1      18.392  24.373   5.498  1.00  0.00     0.012 C 
ENDROOT
TORSDOF 0
ENDMDL
MODEL 6
REMARK VINA RESULT:    -5.694      1.570      2.157
REMARK INTER + INTRA:          -5.694
REMARK INTER:                  -5.694
REMARK INTRA:                   0.000
REMARK UNBOUND:                 0.000
REMARK SMILES CC1=CC(=O)[C@@H]2C[C@H]1C2(C)C
REMARK SMILES IDX 1 1 2 2 3 3 4 4 5 5 6 6 7 7 8 8 9 9 10 10 11 11
REMARK H PARENT
REMARK Flexibility Score: inf
ROOT
ATOM      1  C   UNL     1      19.344  27.593   3.376  1.00  0.00     0.040 C 
ATOM      2  C   UNL     1      18.779  26.690   4.426  1.00  0.00    -0.066 C 
ATOM      3  C   UNL     1      19.292  26.631   5.688  1.00  0.00     0.047 C 
ATOM      4  C   UNL     1      18.620  25.682   6.632  1.00  0.00     0.159 C 
ATOM      5  O   UNL     1      18.973  25.567   7.835  1.00  0.00    -0.295 OA
ATOM      6  C   UNL     1      17.477  24.861   6.033  1.00  0.00     0.067 C 
ATOM      7  C   UNL     1      18.037  24.366   4.681  1.00  0.00     0.021 C 
ATOM      8  C   UNL     1      17.612  25.734   4.103  1.00  0.00     0.022 C 
ATOM      9  C   UNL     1      16.547  25.817   5.234  1.00  0.00    -0.019 C 
ATOM     10  C   UNL     1      15.209  25.143   4.837  1.00  0.00     0.012 C 
ATOM     11  C   UNL     1      16.226  27.213   5.842  1.00  0.00     0.012 C 
ENDROOT
TORSDOF 0
ENDMDL
MODEL 7
REMARK VINA RESULT:    -5.692     17.622     19.336
REMARK INTER + INTRA:          -5.692
REMARK INTER:                  -5.692
REMARK INTRA:                   0.000
REMARK UNBOUND:                 0.000
REMARK SMILES CC1=CC(=O)[C@@H]2C[C@H]1C2(C)C
REMARK SMILES IDX 1 1 2 2 3 3 4 4 5 5 6 6 7 7 8 8 9 9 10 10 11 11
REMARK H PARENT
REMARK Flexibility Score: inf
ROOT
ATOM      1  C   UNL     1      30.627  14.324  -6.010  1.00  0.00     0.040 C 
ATOM      2  C   UNL     1      31.376  15.595  -5.761  1.00  0.00    -0.066 C 
ATOM      3  C   UNL     1      32.312  16.070  -6.632  1.00  0.00     0.047 C 
ATOM      4  C   UNL     1      32.978  17.356  -6.250  1.00  0.00     0.159 C 
ATOM      5  O   UNL     1      33.828  17.919  -6.989  1.00  0.00    -0.295 OA
ATOM      6  C   UNL     1      32.556  17.937  -4.899  1.00  0.00     0.067 C 
ATOM      7  C   UNL     1      32.576  16.723  -3.944  1.00  0.00     0.021 C 
ATOM      8  C   UNL     1      31.158  16.401  -4.465  1.00  0.00     0.022 C 
ATOM      9  C   UNL     1      31.003  17.910  -4.812  1.00  0.00    -0.019 C 
ATOM     10  C   UNL     1      30.465  18.739  -3.619  1.00  0.00     0.012 C 
ATOM     11  C   UNL     1      30.187  18.292  -6.080  1.00  0.00     0.012 C 
ENDROOT
TORSDOF 0
ENDMDL
MODEL 8
REMARK VINA RESULT:    -5.637      1.606      3.407
REMARK INTER + INTRA:          -5.637
REMARK INTER:                  -5.637
REMARK INTRA:                   0.000
REMARK UNBOUND:                 0.000
REMARK SMILES CC1=CC(=O)[C@@H]2C[C@H]1C2(C)C
REMARK SMILES IDX 1 1 2 2 3 3 4 4 5 5 6 6 7 7 8 8 9 9 10 10 11 11
REMARK H PARENT
REMARK Flexibility Score: inf
ROOT
ATOM      1  C   UNL     1      15.594  25.756   4.500  1.00  0.00     0.040 C 
ATOM      2  C   UNL     1      16.936  25.821   5.158  1.00  0.00    -0.066 C 
ATOM      3  C   UNL     1      17.100  25.620   6.496  1.00  0.00     0.047 C 
ATOM      4  C   UNL     1      18.503  25.715   7.013  1.00  0.00     0.159 C 
ATOM      5  O   UNL     1      18.790  25.507   8.221  1.00  0.00    -0.295 OA
ATOM      6  C   UNL     1      19.561  26.082   5.971  1.00  0.00     0.067 C 
ATOM      7  C   UNL     1      18.927  27.252   5.187  1.00  0.00     0.021 C 
ATOM      8  C   UNL     1      18.198  26.181   4.348  1.00  0.00     0.022 C 
ATOM      9  C   UNL     1      19.345  25.195   4.712  1.00  0.00    -0.019 C 
ATOM     10  C   UNL     1      20.534  25.278   3.721  1.00  0.00     0.012 C 
ATOM     11  C   UNL     1      18.989  23.695   4.919  1.00  0.00     0.012 C 
ENDROOT
TORSDOF 0
ENDMDL
MODEL 9
REMARK VINA RESULT:    -5.584     17.633     19.432
REMARK INTER + INTRA:          -5.584
REMARK INTER:                  -5.584
REMARK INTRA:                   0.000
REMARK UNBOUND:                 0.000
REMARK SMILES CC1=CC(=O)[C@@H]2C[C@H]1C2(C)C
REMARK SMILES IDX 1 1 2 2 3 3 4 4 5 5 6 6 7 7 8 8 9 9 10 10 11 11
REMARK H PARENT
REMARK Flexibility Score: inf
ROOT
ATOM      1  C   UNL     1      31.398  17.174  -2.792  1.00  0.00     0.040 C 
ATOM      2  C   UNL     1      31.256  17.223  -4.281  1.00  0.00    -0.066 C 
ATOM      3  C   UNL     1      30.595  18.233  -4.915  1.00  0.00     0.047 C 
ATOM      4  C   UNL     1      30.537  18.149  -6.410  1.00  0.00     0.159 C 
ATOM      5  O   UNL     1      29.992  19.041  -7.112  1.00  0.00    -0.295 OA
ATOM      6  C   UNL     1      31.182  16.905  -7.022  1.00  0.00     0.067 C 
ATOM      7  C   UNL     1      30.666  15.743  -6.144  1.00  0.00     0.021 C 
ATOM      8  C   UNL     1      31.810  16.089  -5.166  1.00  0.00     0.022 C 
ATOM      9  C   UNL     1      32.580  16.702  -6.372  1.00  0.00    -0.019 C 
ATOM     10  C   UNL     1      33.433  15.649  -7.124  1.00  0.00     0.012 C 
ATOM     11  C   UNL     1      33.465  17.955  -6.119  1.00  0.00     0.012 C 
ENDROOT
TORSDOF 0
ENDMDL
