MODEL 1
REMARK VINA RESULT:    -5.537      0.000      0.000
REMARK INTER + INTRA:          -6.685
REMARK INTER:                  -6.508
REMARK INTRA:                  -0.177
REMARK UNBOUND:                -0.177
REMARK SMILES COc1ccc(C=CC(=O)[O-])cc1
REMARK SMILES IDX 6 1 5 2 12 3 4 4 13 5 3 6 7 7 8 8 9 9 10 10 11 11 2 12 1 13
REMARK H PARENT
REMARK Flexibility Score: inf
ROOT
ATOM      1  C   UNL     1     -31.075  -4.881 -16.915  1.00  0.00    -0.025 A 
ATOM      2  C   UNL     1     -30.859  -3.610 -17.480  1.00  0.00     0.012 A 
ATOM      3  C   UNL     1     -32.385  -5.381 -16.855  1.00  0.00     0.012 A 
ATOM      4  C   UNL     1     -31.929  -2.870 -17.995  1.00  0.00     0.047 A 
ATOM      5  C   UNL     1     -33.454  -4.641 -17.370  1.00  0.00     0.047 A 
ATOM      6  C   UNL     1     -33.238  -3.385 -17.945  1.00  0.00     0.118 A 
ENDROOT
BRANCH   1   7
ATOM      7  C   UNL     1     -29.975  -5.700 -16.345  1.00  0.00     0.010 C 
ATOM      8  C   UNL     1     -29.947  -7.039 -16.383  1.00  0.00     0.025 C 
BRANCH   8   9
ATOM      9  C   UNL     1     -28.841  -7.811 -15.794  1.00  0.00     0.064 C 
ATOM     10  O   UNL     1     -28.688  -7.822 -14.545  1.00  0.00    -0.545 OA
ATOM     11  O   UNL     1     -27.962  -8.529 -16.595  1.00  0.00    -0.545 OA
ENDBRANCH   8   9
ENDBRANCH   1   7
BRANCH   6  12
ATOM     12  O   UNL     1     -34.343  -2.684 -18.449  1.00  0.00    -0.497 OA
ATOM     13  C   UNL     1     -35.627  -3.258 -18.670  1.00  0.00     0.278 C 
ENDBRANCH   6  12
TORSDOF 3
ENDMDL
MODEL 2
REMARK VINA RESULT:    -5.384      4.949      6.409
REMARK INTER + INTRA:          -6.506
REMARK INTER:                  -6.342
REMARK INTRA:                  -0.163
REMARK UNBOUND:                -0.177
REMARK SMILES COc1ccc(C=CC(=O)[O-])cc1
REMARK SMILES IDX 6 1 5 2 12 3 4 4 13 5 3 6 7 7 8 8 9 9 10 10 11 11 2 12 1 13
REMARK H PARENT
REMARK Flexibility Score: inf
ROOT
ATOM      1  C   UNL     1     -35.402  -6.072 -14.921  1.00  0.00    -0.025 A 
ATOM      2  C   UNL     1     -35.624  -6.244 -13.541  1.00  0.00     0.012 A 
ATOM      3  C   UNL     1     -36.011  -6.962 -15.820  1.00  0.00     0.012 A 
ATOM      4  C   UNL     1     -36.458  -7.269 -13.079  1.00  0.00     0.047 A 
ATOM      5  C   UNL     1     -36.843  -7.984 -15.356  1.00  0.00     0.047 A 
ATOM      6  C   UNL     1     -37.077  -8.146 -13.988  1.00  0.00     0.118 A 
ENDROOT
BRANCH   1   7
ATOM      7  C   UNL     1     -34.518  -5.009 -15.462  1.00  0.00     0.010 C 
ATOM      8  C   UNL     1     -33.563  -5.228 -16.376  1.00  0.00     0.025 C 
BRANCH   8   9
ATOM      9  C   UNL     1     -32.702  -4.144 -16.875  1.00  0.00     0.064 C 
ATOM     10  O   UNL     1     -33.100  -3.424 -17.828  1.00  0.00    -0.545 OA
ATOM     11  O   UNL     1     -31.455  -3.901 -16.312  1.00  0.00    -0.545 OA
ENDBRANCH   8   9
ENDBRANCH   1   7
BRANCH   6  12
ATOM     12  O   UNL     1     -37.921  -9.186 -13.573  1.00  0.00    -0.497 OA
ATOM     13  C   UNL     1     -39.342  -9.099 -13.529  1.00  0.00     0.278 C 
ENDBRANCH   6  12
TORSDOF 3
ENDMDL
MODEL 3
REMARK VINA RESULT:    -5.355      5.027      6.481
REMARK INTER + INTRA:          -6.471
REMARK INTER:                  -6.320
REMARK INTRA:                  -0.151
REMARK UNBOUND:                -0.177
REMARK SMILES COc1ccc(C=CC(=O)[O-])cc1
REMARK SMILES IDX 6 1 5 2 12 3 4 4 13 5 3 6 7 7 8 8 9 9 10 10 11 11 2 12 1 13
REMARK H PARENT
REMARK Flexibility Score: inf
ROOT
ATOM      1  C   UNL     1     -35.540  -6.222 -15.075  1.00  0.00    -0.025 A 
ATOM      2  C   UNL     1     -36.314  -7.029 -15.931  1.00  0.00     0.012 A 
ATOM      3  C   UNL     1     -35.629  -6.427 -13.689  1.00  0.00     0.012 A 
ATOM      4  C   UNL     1     -37.137  -8.033 -15.409  1.00  0.00     0.047 A 
ATOM      5  C   UNL     1     -36.452  -7.431 -13.169  1.00  0.00     0.047 A 
ATOM      6  C   UNL     1     -37.208  -8.242 -14.020  1.00  0.00     0.118 A 
ENDROOT
BRANCH   1   7
ATOM      7  C   UNL     1     -34.660  -5.137 -15.578  1.00  0.00     0.010 C 
ATOM      8  C   UNL     1     -33.570  -5.349 -16.328  1.00  0.00     0.025 C 
BRANCH   8   9
ATOM      9  C   UNL     1     -32.720  -4.243 -16.794  1.00  0.00     0.064 C 
ATOM     10  O   UNL     1     -31.627  -4.012 -16.215  1.00  0.00    -0.545 OA
ATOM     11  O   UNL     1     -33.104  -3.446 -17.867  1.00  0.00    -0.545 OA
ENDBRANCH   8   9
ENDBRANCH   1   7
BRANCH   6  12
ATOM     12  O   UNL     1     -38.017  -9.236 -13.449  1.00  0.00    -0.497 OA
ATOM     13  C   UNL     1     -39.439  -9.263 -13.533  1.00  0.00     0.278 C 
ENDBRANCH   6  12
TORSDOF 3
ENDMDL
MODEL 4
REMARK VINA RESULT:    -5.263      5.395      6.843
REMARK INTER + INTRA:          -6.364
REMARK INTER:                  -6.210
REMARK INTRA:                  -0.153
REMARK UNBOUND:                -0.177
REMARK SMILES COc1ccc(C=CC(=O)[O-])cc1
REMARK SMILES IDX 6 1 5 2 12 3 4 4 13 5 3 6 7 7 8 8 9 9 10 10 11 11 2 12 1 13
REMARK H PARENT
REMARK Flexibility Score: inf
ROOT
ATOM      1  C   UNL     1     -36.018  -6.566 -15.007  1.00  0.00    -0.025 A 
ATOM      2  C   UNL     1     -37.017  -6.992 -15.904  1.00  0.00     0.012 A 
ATOM      3  C   UNL     1     -36.034  -7.059 -13.693  1.00  0.00     0.012 A 
ATOM      4  C   UNL     1     -37.991  -7.910 -15.497  1.00  0.00     0.047 A 
ATOM      5  C   UNL     1     -37.009  -7.976 -13.288  1.00  0.00     0.047 A 
ATOM      6  C   UNL     1     -37.991  -8.412 -14.183  1.00  0.00     0.118 A 
ENDROOT
BRANCH   1   7
ATOM      7  C   UNL     1     -34.969  -5.586 -15.385  1.00  0.00     0.010 C 
ATOM      8  C   UNL     1     -34.260  -5.655 -16.520  1.00  0.00     0.025 C 
BRANCH   8   9
ATOM      9  C   UNL     1     -33.221  -4.666 -16.849  1.00  0.00     0.064 C 
ATOM     10  O   UNL     1     -33.223  -4.116 -17.981  1.00  0.00    -0.545 OA
ATOM     11  O   UNL     1     -32.236  -4.328 -15.928  1.00  0.00    -0.545 OA
ENDBRANCH   8   9
ENDBRANCH   1   7
BRANCH   6  12
ATOM     12  O   UNL     1     -38.945  -9.334 -13.728  1.00  0.00    -0.497 OA
ATOM     13  C   UNL     1     -40.303  -9.012 -13.444  1.00  0.00     0.278 C 
ENDBRANCH   6  12
TORSDOF 3
ENDMDL
MODEL 5
REMARK VINA RESULT:    -5.239      4.575      6.526
REMARK INTER + INTRA:          -6.334
REMARK INTER:                  -6.176
REMARK INTRA:                  -0.159
REMARK UNBOUND:                -0.177
REMARK SMILES COc1ccc(C=CC(=O)[O-])cc1
REMARK SMILES IDX 6 1 5 2 12 3 4 4 13 5 3 6 7 7 8 8 9 9 10 10 11 11 2 12 1 13
REMARK H PARENT
REMARK Flexibility Score: inf
ROOT
ATOM      1  C   UNL     1     -35.291  -5.750 -15.285  1.00  0.00    -0.025 A 
ATOM      2  C   UNL     1     -35.955  -6.787 -15.968  1.00  0.00     0.012 A 
ATOM      3  C   UNL     1     -35.313  -5.742 -13.881  1.00  0.00     0.012 A 
ATOM      4  C   UNL     1     -36.603  -7.804 -15.258  1.00  0.00     0.047 A 
ATOM      5  C   UNL     1     -35.961  -6.758 -13.174  1.00  0.00     0.047 A 
ATOM      6  C   UNL     1     -36.607  -7.796 -13.851  1.00  0.00     0.118 A 
ENDROOT
BRANCH   1   7
ATOM      7  C   UNL     1     -34.598  -4.643 -15.991  1.00  0.00     0.010 C 
ATOM      8  C   UNL     1     -34.019  -4.774 -17.192  1.00  0.00     0.025 C 
BRANCH   8   9
ATOM      9  C   UNL     1     -33.333  -3.650 -17.850  1.00  0.00     0.064 C 
ATOM     10  O   UNL     1     -33.960  -2.939 -18.678  1.00  0.00    -0.545 OA
ATOM     11  O   UNL     1     -32.002  -3.361 -17.573  1.00  0.00    -0.545 OA
ENDBRANCH   8   9
ENDBRANCH   1   7
BRANCH   6  12
ATOM     12  O   UNL     1     -37.241  -8.793 -13.094  1.00  0.00    -0.497 OA
ATOM     13  C   UNL     1     -38.517  -9.347 -13.403  1.00  0.00     0.278 C 
ENDBRANCH   6  12
TORSDOF 3
ENDMDL
MODEL 6
REMARK VINA RESULT:    -5.189      5.554      7.056
REMARK INTER + INTRA:          -6.277
REMARK INTER:                  -6.106
REMARK INTRA:                  -0.171
REMARK UNBOUND:                -0.177
REMARK SMILES COc1ccc(C=CC(=O)[O-])cc1
REMARK SMILES IDX 6 1 5 2 12 3 4 4 13 5 3 6 7 7 8 8 9 9 10 10 11 11 2 12 1 13
REMARK H PARENT
REMARK Flexibility Score: inf
ROOT
ATOM      1  C   UNL     1     -36.045  -6.488 -14.495  1.00  0.00    -0.025 A 
ATOM      2  C   UNL     1     -35.322  -5.418 -13.932  1.00  0.00     0.012 A 
ATOM      3  C   UNL     1     -35.863  -6.784 -15.856  1.00  0.00     0.012 A 
ATOM      4  C   UNL     1     -34.421  -4.682 -14.709  1.00  0.00     0.047 A 
ATOM      5  C   UNL     1     -34.963  -6.047 -16.631  1.00  0.00     0.047 A 
ATOM      6  C   UNL     1     -34.233  -4.996 -16.068  1.00  0.00     0.118 A 
ENDROOT
BRANCH   1   7
ATOM      7  C   UNL     1     -37.020  -7.292 -13.717  1.00  0.00     0.010 C 
ATOM      8  C   UNL     1     -38.013  -7.999 -14.272  1.00  0.00     0.025 C 
BRANCH   8   9
ATOM      9  C   UNL     1     -38.964  -8.774 -13.460  1.00  0.00     0.064 C 
ATOM     10  O   UNL     1     -38.687  -9.959 -13.139  1.00  0.00    -0.545 OA
ATOM     11  O   UNL     1     -40.166  -8.217 -13.038  1.00  0.00    -0.545 OA
ENDBRANCH   8   9
ENDBRANCH   1   7
BRANCH   6  12
ATOM     12  O   UNL     1     -33.341  -4.289 -16.887  1.00  0.00    -0.497 OA
ATOM     13  C   UNL     1     -31.960  -4.100 -16.597  1.00  0.00     0.278 C 
ENDBRANCH   6  12
TORSDOF 3
ENDMDL
MODEL 7
REMARK VINA RESULT:    -5.080      4.240      5.927
REMARK INTER + INTRA:          -6.148
REMARK INTER:                  -5.987
REMARK INTRA:                  -0.161
REMARK UNBOUND:                -0.177
REMARK SMILES COc1ccc(C=CC(=O)[O-])cc1
REMARK SMILES IDX 6 1 5 2 12 3 4 4 13 5 3 6 7 7 8 8 9 9 10 10 11 11 2 12 1 13
REMARK H PARENT
REMARK Flexibility Score: inf
ROOT
ATOM      1  C   UNL     1     -35.371  -5.774 -16.517  1.00  0.00    -0.025 A 
ATOM      2  C   UNL     1     -34.395  -5.309 -15.615  1.00  0.00     0.012 A 
ATOM      3  C   UNL     1     -35.265  -5.416 -17.871  1.00  0.00     0.012 A 
ATOM      4  C   UNL     1     -33.327  -4.526 -16.065  1.00  0.00     0.047 A 
ATOM      5  C   UNL     1     -34.197  -4.633 -18.319  1.00  0.00     0.047 A 
ATOM      6  C   UNL     1     -33.220  -4.185 -17.426  1.00  0.00     0.118 A 
ENDROOT
BRANCH   1   7
ATOM      7  C   UNL     1     -36.529  -6.598 -16.088  1.00  0.00     0.010 C 
ATOM      8  C   UNL     1     -36.431  -7.647 -15.261  1.00  0.00     0.025 C 
BRANCH   8   9
ATOM      9  C   UNL     1     -37.605  -8.443 -14.872  1.00  0.00     0.064 C 
ATOM     10  O   UNL     1     -38.551  -8.595 -15.689  1.00  0.00    -0.545 OA
ATOM     11  O   UNL     1     -37.689  -9.032 -13.616  1.00  0.00    -0.545 OA
ENDBRANCH   8   9
ENDBRANCH   1   7
BRANCH   6  12
ATOM     12  O   UNL     1     -32.168  -3.403 -17.926  1.00  0.00    -0.497 OA
ATOM     13  C   UNL     1     -30.881  -3.308 -17.323  1.00  0.00     0.278 C 
ENDBRANCH   6  12
TORSDOF 3
ENDMDL
MODEL 8
REMARK VINA RESULT:    -4.892      3.879      4.967
REMARK INTER + INTRA:          -5.927
REMARK INTER:                  -5.761
REMARK INTRA:                  -0.166
REMARK UNBOUND:                -0.177
REMARK SMILES COc1ccc(C=CC(=O)[O-])cc1
REMARK SMILES IDX 6 1 5 2 12 3 4 4 13 5 3 6 7 7 8 8 9 9 10 10 11 11 2 12 1 13
REMARK H PARENT
REMARK Flexibility Score: inf
ROOT
ATOM      1  C   UNL     1     -33.220  -3.684 -17.637  1.00  0.00    -0.025 A 
ATOM      2  C   UNL     1     -33.487  -3.267 -18.955  1.00  0.00     0.012 A 
ATOM      3  C   UNL     1     -31.893  -3.663 -17.177  1.00  0.00     0.012 A 
ATOM      4  C   UNL     1     -32.452  -2.818 -19.781  1.00  0.00     0.047 A 
ATOM      5  C   UNL     1     -30.860  -3.213 -18.004  1.00  0.00     0.047 A 
ATOM      6  C   UNL     1     -31.127  -2.785 -19.308  1.00  0.00     0.118 A 
ENDROOT
BRANCH   1   7
ATOM      7  C   UNL     1     -34.280  -4.180 -16.724  1.00  0.00     0.010 C 
ATOM      8  C   UNL     1     -34.478  -5.476 -16.448  1.00  0.00     0.025 C 
BRANCH   8   9
ATOM      9  C   UNL     1     -35.551  -5.923 -15.545  1.00  0.00     0.064 C 
ATOM     10  O   UNL     1     -36.141  -5.082 -14.818  1.00  0.00    -0.545 OA
ATOM     11  O   UNL     1     -35.925  -7.260 -15.482  1.00  0.00    -0.545 OA
ENDBRANCH   8   9
ENDBRANCH   1   7
BRANCH   6  12
ATOM     12  O   UNL     1     -30.056  -2.342 -20.097  1.00  0.00    -0.497 OA
ATOM     13  C   UNL     1     -30.190  -1.822 -21.416  1.00  0.00     0.278 C 
ENDBRANCH   6  12
TORSDOF 3
ENDMDL
