MODEL 1
REMARK VINA RESULT:    -5.779      0.000      0.000
REMARK INTER + INTRA:          -7.253
REMARK INTER:                  -6.962
REMARK INTRA:                  -0.291
REMARK UNBOUND:                -0.291
REMARK SMILES O=c1c(O)c(-c2ccc(O)c(O)c2)oc2cc(O)cc(O)c12
REMARK SMILES IDX 5 1 3 2 2 3 1 4 22 5 20 6 19 7 17 8 16 9 15 10 14 11 6 12
REMARK SMILES IDX 7 13 8 14 9 15 13 16 11 17 10 18 12 20 4 22 21 24 18 26
REMARK H PARENT 10 19 12 21 4 23 21 25 18 27
REMARK Flexibility Score: inf
ROOT
ATOM      1  C   UNL     1      50.528  13.845  26.635  1.00  0.00     0.180 A 
ATOM      2  C   UNL     1      49.333  14.148  27.316  1.00  0.00     0.208 A 
ATOM      3  C   UNL     1      48.299  14.792  26.619  1.00  0.00     0.238 A 
ATOM      4  O   UNL     1      47.221  15.058  27.215  1.00  0.00    -0.285 OA
ATOM      5  C   UNL     1      48.482  15.139  25.265  1.00  0.00     0.111 A 
ATOM      6  C   UNL     1      47.493  15.793  24.492  1.00  0.00     0.134 A 
ATOM      7  C   UNL     1      47.755  16.113  23.151  1.00  0.00     0.093 A 
ATOM      8  C   UNL     1      48.984  15.794  22.571  1.00  0.00     0.123 A 
ATOM      9  C   UNL     1      49.966  15.148  23.328  1.00  0.00     0.094 A 
ATOM     10  C   UNL     1      49.723  14.819  24.666  1.00  0.00     0.146 A 
ATOM     11  O   UNL     1      50.671  14.201  25.362  1.00  0.00    -0.452 OA
ENDROOT
BRANCH   1  12
ATOM     12  C   UNL     1      51.656  13.150  27.296  1.00  0.00     0.025 A 
ATOM     13  C   UNL     1      52.804  13.878  27.647  1.00  0.00     0.016 A 
ATOM     14  C   UNL     1      53.889  13.239  28.253  1.00  0.00     0.051 A 
ATOM     15  C   UNL     1      53.850  11.865  28.503  1.00  0.00     0.157 A 
ATOM     16  C   UNL     1      51.628  11.763  27.529  1.00  0.00     0.062 A 
ATOM     17  C   UNL     1      52.716  11.121  28.136  1.00  0.00     0.158 A 
BRANCH  15  18
ATOM     18  O   UNL     1      54.947  11.256  29.112  1.00  0.00    -0.504 OA
ATOM     19  H   UNL     1      55.333  11.592  29.987  1.00  0.00     0.293 HD
ENDBRANCH  15  18
BRANCH  17  20
ATOM     20  O   UNL     1      52.677   9.747  28.370  1.00  0.00    -0.504 OA
ATOM     21  H   UNL     1      52.113   9.127  27.800  1.00  0.00     0.293 HD
ENDBRANCH  17  20
ENDBRANCH   1  12
BRANCH   2  22
ATOM     22  O   UNL     1      49.195  13.837  28.672  1.00  0.00    -0.502 OA
ATOM     23  H   UNL     1      48.338  14.009  29.183  1.00  0.00     0.293 HD
ENDBRANCH   2  22
BRANCH   6  24
ATOM     24  O   UNL     1      46.254  16.125  25.043  1.00  0.00    -0.507 OA
ATOM     25  H   UNL     1      46.178  16.654  25.904  1.00  0.00     0.293 HD
ENDBRANCH   6  24
BRANCH   8  26
ATOM     26  O   UNL     1      49.220  16.125  21.238  1.00  0.00    -0.508 OA
ATOM     27  H   UNL     1      48.556  15.892  20.509  1.00  0.00     0.293 HD
ENDBRANCH   8  26
TORSDOF 6
ENDMDL
MODEL 2
REMARK VINA RESULT:    -5.776      2.684      4.506
REMARK INTER + INTRA:          -7.249
REMARK INTER:                  -7.455
REMARK INTRA:                   0.205
REMARK UNBOUND:                -0.291
REMARK SMILES O=c1c(O)c(-c2ccc(O)c(O)c2)oc2cc(O)cc(O)c12
REMARK SMILES IDX 5 1 3 2 2 3 1 4 22 5 20 6 19 7 17 8 16 9 15 10 14 11 6 12
REMARK SMILES IDX 7 13 8 14 9 15 13 16 11 17 10 18 12 20 4 22 21 24 18 26
REMARK H PARENT 10 19 12 21 4 23 21 25 18 27
REMARK Flexibility Score: inf
ROOT
ATOM      1  C   UNL     1      52.163  14.196  26.614  1.00  0.00     0.180 A 
ATOM      2  C   UNL     1      51.722  14.005  25.291  1.00  0.00     0.208 A 
ATOM      3  C   UNL     1      50.355  13.789  25.056  1.00  0.00     0.238 A 
ATOM      4  O   UNL     1      49.946  13.628  23.874  1.00  0.00    -0.285 OA
ATOM      5  C   UNL     1      49.459  13.748  26.144  1.00  0.00     0.111 A 
ATOM      6  C   UNL     1      48.068  13.532  25.994  1.00  0.00     0.134 A 
ATOM      7  C   UNL     1      47.243  13.495  27.128  1.00  0.00     0.093 A 
ATOM      8  C   UNL     1      47.779  13.669  28.405  1.00  0.00     0.123 A 
ATOM      9  C   UNL     1      49.153  13.884  28.561  1.00  0.00     0.094 A 
ATOM     10  C   UNL     1      49.992  13.926  27.442  1.00  0.00     0.146 A 
ATOM     11  O   UNL     1      51.291  14.136  27.617  1.00  0.00    -0.452 OA
ENDROOT
BRANCH   1  12
ATOM     12  C   UNL     1      53.585  14.448  26.940  1.00  0.00     0.025 A 
ATOM     13  C   UNL     1      54.098  14.012  28.172  1.00  0.00     0.016 A 
ATOM     14  C   UNL     1      55.432  14.257  28.510  1.00  0.00     0.051 A 
ATOM     15  C   UNL     1      56.267  14.953  27.632  1.00  0.00     0.157 A 
ATOM     16  C   UNL     1      54.421  15.168  26.068  1.00  0.00     0.062 A 
ATOM     17  C   UNL     1      55.760  15.415  26.406  1.00  0.00     0.158 A 
BRANCH  15  18
ATOM     18  O   UNL     1      57.594  15.180  27.996  1.00  0.00    -0.504 OA
ATOM     19  H   UNL     1      58.093  14.562  28.626  1.00  0.00     0.293 HD
ENDBRANCH  15  18
BRANCH  17  20
ATOM     20  O   UNL     1      56.584  16.124  25.532  1.00  0.00    -0.504 OA
ATOM     21  H   UNL     1      56.868  15.737  24.640  1.00  0.00     0.293 HD
ENDBRANCH  17  20
ENDBRANCH   1  12
BRANCH   2  22
ATOM     22  O   UNL     1      52.637  14.002  24.235  1.00  0.00    -0.502 OA
ATOM     23  H   UNL     1      52.680  13.251  23.557  1.00  0.00     0.293 HD
ENDBRANCH   2  22
BRANCH   6  24
ATOM     24  O   UNL     1      47.500  13.354  24.731  1.00  0.00    -0.507 OA
ATOM     25  H   UNL     1      48.023  13.534  23.882  1.00  0.00     0.293 HD
ENDBRANCH   6  24
BRANCH   8  26
ATOM     26  O   UNL     1      46.938  13.627  29.516  1.00  0.00    -0.508 OA
ATOM     27  H   UNL     1      46.983  12.868  30.185  1.00  0.00     0.293 HD
ENDBRANCH   8  26
TORSDOF 6
ENDMDL
MODEL 3
REMARK VINA RESULT:    -5.696      2.195      2.899
REMARK INTER + INTRA:          -7.152
REMARK INTER:                  -7.565
REMARK INTRA:                   0.412
REMARK UNBOUND:                -0.291
REMARK SMILES O=c1c(O)c(-c2ccc(O)c(O)c2)oc2cc(O)cc(O)c12
REMARK SMILES IDX 5 1 3 2 2 3 1 4 22 5 20 6 19 7 17 8 16 9 15 10 14 11 6 12
REMARK SMILES IDX 7 13 8 14 9 15 13 16 11 17 10 18 12 20 4 22 21 24 18 26
REMARK H PARENT 10 19 12 21 4 23 21 25 18 27
REMARK Flexibility Score: inf
ROOT
ATOM      1  C   UNL     1      52.363  14.538  26.076  1.00  0.00     0.180 A 
ATOM      2  C   UNL     1      51.353  13.887  26.811  1.00  0.00     0.208 A 
ATOM      3  C   UNL     1      50.078  13.754  26.241  1.00  0.00     0.238 A 
ATOM      4  O   UNL     1      49.169  13.163  26.884  1.00  0.00    -0.285 OA
ATOM      5  C   UNL     1      49.828  14.289  24.961  1.00  0.00     0.111 A 
ATOM      6  C   UNL     1      48.570  14.202  24.316  1.00  0.00     0.134 A 
ATOM      7  C   UNL     1      48.398  14.769  23.045  1.00  0.00     0.093 A 
ATOM      8  C   UNL     1      49.455  15.419  22.406  1.00  0.00     0.123 A 
ATOM      9  C   UNL     1      50.701  15.509  23.036  1.00  0.00     0.094 A 
ATOM     10  C   UNL     1      50.893  14.949  24.303  1.00  0.00     0.146 A 
ATOM     11  O   UNL     1      52.087  15.044  24.877  1.00  0.00    -0.452 OA
ENDROOT
BRANCH   1  12
ATOM     12  C   UNL     1      53.738  14.701  26.601  1.00  0.00     0.025 A 
ATOM     13  C   UNL     1      54.788  14.976  25.712  1.00  0.00     0.016 A 
ATOM     14  C   UNL     1      56.097  15.112  26.182  1.00  0.00     0.051 A 
ATOM     15  C   UNL     1      56.378  14.961  27.543  1.00  0.00     0.157 A 
ATOM     16  C   UNL     1      54.027  14.527  27.967  1.00  0.00     0.062 A 
ATOM     17  C   UNL     1      55.340  14.663  28.440  1.00  0.00     0.158 A 
BRANCH  15  18
ATOM     18  O   UNL     1      57.693  15.106  27.983  1.00  0.00    -0.504 OA
ATOM     19  H   UNL     1      58.383  15.630  27.456  1.00  0.00     0.293 HD
ENDBRANCH  15  18
BRANCH  17  20
ATOM     20  O   UNL     1      55.616  14.496  29.797  1.00  0.00    -0.504 OA
ATOM     21  H   UNL     1      54.992  13.979  30.406  1.00  0.00     0.293 HD
ENDBRANCH  17  20
ENDBRANCH   1  12
BRANCH   2  22
ATOM     22  O   UNL     1      51.614  13.409  28.098  1.00  0.00    -0.502 OA
ATOM     23  H   UNL     1      51.347  12.479  28.395  1.00  0.00     0.293 HD
ENDBRANCH   2  22
BRANCH   6  24
ATOM     24  O   UNL     1      47.493  13.558  24.929  1.00  0.00    -0.507 OA
ATOM     25  H   UNL     1      47.222  13.764  25.882  1.00  0.00     0.293 HD
ENDBRANCH   6  24
BRANCH   8  26
ATOM     26  O   UNL     1      49.258  15.975  21.143  1.00  0.00    -0.508 OA
ATOM     27  H   UNL     1      48.756  16.846  21.021  1.00  0.00     0.293 HD
ENDBRANCH   8  26
TORSDOF 6
ENDMDL
MODEL 4
REMARK VINA RESULT:    -5.600      2.596      4.253
REMARK INTER + INTRA:          -7.037
REMARK INTER:                  -7.483
REMARK INTRA:                   0.446
REMARK UNBOUND:                -0.291
REMARK SMILES O=c1c(O)c(-c2ccc(O)c(O)c2)oc2cc(O)cc(O)c12
REMARK SMILES IDX 5 1 3 2 2 3 1 4 22 5 20 6 19 7 17 8 16 9 15 10 14 11 6 12
REMARK SMILES IDX 7 13 8 14 9 15 13 16 11 17 10 18 12 20 4 22 21 24 18 26
REMARK H PARENT 10 19 12 21 4 23 21 25 18 27
REMARK Flexibility Score: inf
ROOT
ATOM      1  C   UNL     1      52.113  14.167  26.667  1.00  0.00     0.180 A 
ATOM      2  C   UNL     1      51.734  13.919  25.333  1.00  0.00     0.208 A 
ATOM      3  C   UNL     1      50.379  13.698  25.043  1.00  0.00     0.238 A 
ATOM      4  O   UNL     1      50.025  13.487  23.852  1.00  0.00    -0.285 OA
ATOM      5  C   UNL     1      49.432  13.707  26.088  1.00  0.00     0.111 A 
ATOM      6  C   UNL     1      48.048  13.489  25.882  1.00  0.00     0.134 A 
ATOM      7  C   UNL     1      47.170  13.504  26.976  1.00  0.00     0.093 A 
ATOM      8  C   UNL     1      47.646  13.733  28.268  1.00  0.00     0.123 A 
ATOM      9  C   UNL     1      49.012  13.950  28.479  1.00  0.00     0.094 A 
ATOM     10  C   UNL     1      49.903  13.940  27.401  1.00  0.00     0.146 A 
ATOM     11  O   UNL     1      51.195  14.153  27.628  1.00  0.00    -0.452 OA
ENDROOT
BRANCH   1  12
ATOM     12  C   UNL     1      53.519  14.428  27.049  1.00  0.00     0.025 A 
ATOM     13  C   UNL     1      54.441  14.816  26.063  1.00  0.00     0.016 A 
ATOM     14  C   UNL     1      55.778  15.048  26.397  1.00  0.00     0.051 A 
ATOM     15  C   UNL     1      56.217  14.882  27.714  1.00  0.00     0.157 A 
ATOM     16  C   UNL     1      53.968  14.241  28.368  1.00  0.00     0.062 A 
ATOM     17  C   UNL     1      55.309  14.472  28.705  1.00  0.00     0.158 A 
BRANCH  15  18
ATOM     18  O   UNL     1      57.556  15.123  28.017  1.00  0.00    -0.504 OA
ATOM     19  H   UNL     1      58.289  14.461  27.787  1.00  0.00     0.293 HD
ENDBRANCH  15  18
BRANCH  17  20
ATOM     20  O   UNL     1      55.744  14.290  30.017  1.00  0.00    -0.504 OA
ATOM     21  H   UNL     1      56.706  14.050  30.229  1.00  0.00     0.293 HD
ENDBRANCH  17  20
ENDBRANCH   1  12
BRANCH   2  22
ATOM     22  O   UNL     1      52.698  13.867  24.323  1.00  0.00    -0.502 OA
ATOM     23  H   UNL     1      53.663  13.622  24.507  1.00  0.00     0.293 HD
ENDBRANCH   2  22
BRANCH   6  24
ATOM     24  O   UNL     1      47.540  13.258  24.602  1.00  0.00    -0.507 OA
ATOM     25  H   UNL     1      46.890  13.898  24.164  1.00  0.00     0.293 HD
ENDBRANCH   6  24
BRANCH   8  26
ATOM     26  O   UNL     1      46.754  13.742  29.338  1.00  0.00    -0.508 OA
ATOM     27  H   UNL     1      46.128  14.522  29.499  1.00  0.00     0.293 HD
ENDBRANCH   8  26
TORSDOF 6
ENDMDL
MODEL 5
REMARK VINA RESULT:    -5.568      2.166      7.053
REMARK INTER + INTRA:          -6.999
REMARK INTER:                  -7.051
REMARK INTRA:                   0.052
REMARK UNBOUND:                -0.291
REMARK SMILES O=c1c(O)c(-c2ccc(O)c(O)c2)oc2cc(O)cc(O)c12
REMARK SMILES IDX 5 1 3 2 2 3 1 4 22 5 20 6 19 7 17 8 16 9 15 10 14 11 6 12
REMARK SMILES IDX 7 13 8 14 9 15 13 16 11 17 10 18 12 20 4 22 21 24 18 26
REMARK H PARENT 10 19 12 21 4 23 21 25 18 27
REMARK Flexibility Score: inf
ROOT
ATOM      1  C   UNL     1      51.730  13.476  25.486  1.00  0.00     0.180 A 
ATOM      2  C   UNL     1      51.596  12.098  25.748  1.00  0.00     0.208 A 
ATOM      3  C   UNL     1      52.285  11.545  26.839  1.00  0.00     0.238 A 
ATOM      4  O   UNL     1      52.164  10.316  27.090  1.00  0.00    -0.285 OA
ATOM      5  C   UNL     1      53.107  12.369  27.634  1.00  0.00     0.111 A 
ATOM      6  C   UNL     1      53.839  11.891  28.748  1.00  0.00     0.134 A 
ATOM      7  C   UNL     1      54.643  12.773  29.484  1.00  0.00     0.093 A 
ATOM      8  C   UNL     1      54.732  14.120  29.130  1.00  0.00     0.123 A 
ATOM      9  C   UNL     1      54.012  14.601  28.031  1.00  0.00     0.094 A 
ATOM     10  C   UNL     1      53.203  13.737  27.285  1.00  0.00     0.146 A 
ATOM     11  O   UNL     1      52.526  14.219  26.249  1.00  0.00    -0.452 OA
ENDROOT
BRANCH   1  12
ATOM     12  C   UNL     1      51.021  14.136  24.367  1.00  0.00     0.025 A 
ATOM     13  C   UNL     1      51.697  15.087  23.587  1.00  0.00     0.016 A 
ATOM     14  C   UNL     1      51.041  15.738  22.539  1.00  0.00     0.051 A 
ATOM     15  C   UNL     1      49.700  15.460  22.263  1.00  0.00     0.157 A 
ATOM     16  C   UNL     1      49.664  13.874  24.102  1.00  0.00     0.062 A 
ATOM     17  C   UNL     1      49.005  14.527  23.050  1.00  0.00     0.158 A 
BRANCH  15  18
ATOM     18  O   UNL     1      49.073  16.124  21.209  1.00  0.00    -0.504 OA
ATOM     19  H   UNL     1      48.091  16.374  21.238  1.00  0.00     0.293 HD
ENDBRANCH  15  18
BRANCH  17  20
ATOM     20  O   UNL     1      47.662  14.257  22.790  1.00  0.00    -0.504 OA
ATOM     21  H   UNL     1      47.088  14.893  22.249  1.00  0.00     0.293 HD
ENDBRANCH  17  20
ENDBRANCH   1  12
BRANCH   2  22
ATOM     22  O   UNL     1      50.813  11.294  24.916  1.00  0.00    -0.502 OA
ATOM     23  H   UNL     1      49.805  11.254  24.993  1.00  0.00     0.293 HD
ENDBRANCH   2  22
BRANCH   6  24
ATOM     24  O   UNL     1      53.771  10.549  29.129  1.00  0.00    -0.507 OA
ATOM     25  H   UNL     1      54.122   9.809  28.533  1.00  0.00     0.293 HD
ENDBRANCH   6  24
BRANCH   8  26
ATOM     26  O   UNL     1      55.540  14.976  29.877  1.00  0.00    -0.508 OA
ATOM     27  H   UNL     1      56.523  15.094  29.666  1.00  0.00     0.293 HD
ENDBRANCH   8  26
TORSDOF 6
ENDMDL
MODEL 6
REMARK VINA RESULT:    -5.465      2.946      7.634
REMARK INTER + INTRA:          -6.875
REMARK INTER:                  -7.261
REMARK INTRA:                   0.386
REMARK UNBOUND:                -0.291
REMARK SMILES O=c1c(O)c(-c2ccc(O)c(O)c2)oc2cc(O)cc(O)c12
REMARK SMILES IDX 5 1 3 2 2 3 1 4 22 5 20 6 19 7 17 8 16 9 15 10 14 11 6 12
REMARK SMILES IDX 7 13 8 14 9 15 13 16 11 17 10 18 12 20 4 22 21 24 18 26
REMARK H PARENT 10 19 12 21 4 23 21 25 18 27
REMARK Flexibility Score: inf
ROOT
ATOM      1  C   UNL     1      52.563  14.968  24.752  1.00  0.00     0.180 A 
ATOM      2  C   UNL     1      53.648  15.527  24.050  1.00  0.00     0.208 A 
ATOM      3  C   UNL     1      54.890  15.637  24.696  1.00  0.00     0.238 A 
ATOM      4  O   UNL     1      55.872  16.125  24.074  1.00  0.00    -0.285 OA
ATOM      5  C   UNL     1      55.021  15.207  26.032  1.00  0.00     0.111 A 
ATOM      6  C   UNL     1      56.235  15.286  26.756  1.00  0.00     0.134 A 
ATOM      7  C   UNL     1      56.282  14.846  28.087  1.00  0.00     0.093 A 
ATOM      8  C   UNL     1      55.143  14.329  28.707  1.00  0.00     0.123 A 
ATOM      9  C   UNL     1      53.940  14.247  27.998  1.00  0.00     0.094 A 
ATOM     10  C   UNL     1      53.873  14.680  26.669  1.00  0.00     0.146 A 
ATOM     11  O   UNL     1      52.720  14.587  26.017  1.00  0.00    -0.452 OA
ENDROOT
BRANCH   1  12
ATOM     12  C   UNL     1      51.228  14.801  24.134  1.00  0.00     0.025 A 
ATOM     13  C   UNL     1      50.338  13.852  24.660  1.00  0.00     0.016 A 
ATOM     14  C   UNL     1      49.081  13.663  24.080  1.00  0.00     0.051 A 
ATOM     15  C   UNL     1      48.701  14.405  22.959  1.00  0.00     0.157 A 
ATOM     16  C   UNL     1      50.853  15.531  22.992  1.00  0.00     0.062 A 
ATOM     17  C   UNL     1      49.592  15.341  22.408  1.00  0.00     0.158 A 
BRANCH  15  18
ATOM     18  O   UNL     1      47.439  14.196  22.403  1.00  0.00    -0.504 OA
ATOM     19  H   UNL     1      46.647  14.787  22.627  1.00  0.00     0.293 HD
ENDBRANCH  15  18
BRANCH  17  20
ATOM     20  O   UNL     1      49.225  16.074  21.280  1.00  0.00    -0.504 OA
ATOM     21  H   UNL     1      48.642  16.901  21.350  1.00  0.00     0.293 HD
ENDBRANCH  17  20
ENDBRANCH   1  12
BRANCH   2  22
ATOM     22  O   UNL     1      53.480  15.990  22.742  1.00  0.00    -0.502 OA
ATOM     23  H   UNL     1      52.709  15.693  22.157  1.00  0.00     0.293 HD
ENDBRANCH   2  22
BRANCH   6  24
ATOM     24  O   UNL     1      57.392  15.798  26.165  1.00  0.00    -0.507 OA
ATOM     25  H   UNL     1      57.443  15.985  25.171  1.00  0.00     0.293 HD
ENDBRANCH   6  24
BRANCH   8  26
ATOM     26  O   UNL     1      55.215  13.900  30.031  1.00  0.00    -0.508 OA
ATOM     27  H   UNL     1      55.163  12.918  30.273  1.00  0.00     0.293 HD
ENDBRANCH   8  26
TORSDOF 6
ENDMDL
MODEL 7
REMARK VINA RESULT:    -5.150      2.162      6.911
REMARK INTER + INTRA:          -6.495
REMARK INTER:                  -6.476
REMARK INTRA:                  -0.019
REMARK UNBOUND:                -0.291
REMARK SMILES O=c1c(O)c(-c2ccc(O)c(O)c2)oc2cc(O)cc(O)c12
REMARK SMILES IDX 5 1 3 2 2 3 1 4 22 5 20 6 19 7 17 8 16 9 15 10 14 11 6 12
REMARK SMILES IDX 7 13 8 14 9 15 13 16 11 17 10 18 12 20 4 22 21 24 18 26
REMARK H PARENT 10 19 12 21 4 23 21 25 18 27
REMARK Flexibility Score: inf
ROOT
ATOM      1  C   UNL     1      51.494  14.627  25.791  1.00  0.00     0.180 A 
ATOM      2  C   UNL     1      51.406  13.607  26.758  1.00  0.00     0.208 A 
ATOM      3  C   UNL     1      52.545  13.289  27.515  1.00  0.00     0.238 A 
ATOM      4  O   UNL     1      52.475  12.385  28.390  1.00  0.00    -0.285 OA
ATOM      5  C   UNL     1      53.751  13.980  27.281  1.00  0.00     0.111 A 
ATOM      6  C   UNL     1      54.945  13.719  27.997  1.00  0.00     0.134 A 
ATOM      7  C   UNL     1      56.109  14.443  27.699  1.00  0.00     0.093 A 
ATOM      8  C   UNL     1      56.103  15.420  26.702  1.00  0.00     0.123 A 
ATOM      9  C   UNL     1      54.928  15.684  25.991  1.00  0.00     0.094 A 
ATOM     10  C   UNL     1      53.757  14.974  26.275  1.00  0.00     0.146 A 
ATOM     11  O   UNL     1      52.653  15.247  25.588  1.00  0.00    -0.452 OA
ENDROOT
BRANCH   1  12
ATOM     12  C   UNL     1      50.333  15.033  24.967  1.00  0.00     0.025 A 
ATOM     13  C   UNL     1      49.123  15.365  25.597  1.00  0.00     0.016 A 
ATOM     14  C   UNL     1      48.007  15.730  24.838  1.00  0.00     0.051 A 
ATOM     15  C   UNL     1      48.079  15.754  23.443  1.00  0.00     0.157 A 
ATOM     16  C   UNL     1      50.396  15.036  23.563  1.00  0.00     0.062 A 
ATOM     17  C   UNL     1      49.277  15.401  22.800  1.00  0.00     0.158 A 
BRANCH  15  18
ATOM     18  O   UNL     1      46.950  16.125  22.713  1.00  0.00    -0.504 OA
ATOM     19  H   UNL     1      47.018  16.582  21.811  1.00  0.00     0.293 HD
ENDBRANCH  15  18
BRANCH  17  20
ATOM     20  O   UNL     1      49.350  15.409  21.407  1.00  0.00    -0.504 OA
ATOM     21  H   UNL     1      50.100  14.940  20.913  1.00  0.00     0.293 HD
ENDBRANCH  17  20
ENDBRANCH   1  12
BRANCH   2  22
ATOM     22  O   UNL     1      50.211  12.904  26.936  1.00  0.00    -0.502 OA
ATOM     23  H   UNL     1      50.137  11.909  26.766  1.00  0.00     0.293 HD
ENDBRANCH   2  22
BRANCH   6  24
ATOM     24  O   UNL     1      54.983  12.748  29.000  1.00  0.00    -0.507 OA
ATOM     25  H   UNL     1      54.315  12.742  29.761  1.00  0.00     0.293 HD
ENDBRANCH   6  24
BRANCH   8  26
ATOM     26  O   UNL     1      57.273  16.125  26.425  1.00  0.00    -0.508 OA
ATOM     27  H   UNL     1      57.292  16.872  25.740  1.00  0.00     0.293 HD
ENDBRANCH   8  26
TORSDOF 6
ENDMDL
MODEL 8
REMARK VINA RESULT:    -5.144      2.793      6.147
REMARK INTER + INTRA:          -6.488
REMARK INTER:                  -6.952
REMARK INTRA:                   0.464
REMARK UNBOUND:                -0.291
REMARK SMILES O=c1c(O)c(-c2ccc(O)c(O)c2)oc2cc(O)cc(O)c12
REMARK SMILES IDX 5 1 3 2 2 3 1 4 22 5 20 6 19 7 17 8 16 9 15 10 14 11 6 12
REMARK SMILES IDX 7 13 8 14 9 15 13 16 11 17 10 18 12 20 4 22 21 24 18 26
REMARK H PARENT 10 19 12 21 4 23 21 25 18 27
REMARK Flexibility Score: inf
ROOT
ATOM      1  C   UNL     1      51.016  14.405  26.537  1.00  0.00     0.180 A 
ATOM      2  C   UNL     1      51.092  14.784  25.183  1.00  0.00     0.208 A 
ATOM      3  C   UNL     1      52.346  15.096  24.635  1.00  0.00     0.238 A 
ATOM      4  O   UNL     1      52.428  15.426  23.421  1.00  0.00    -0.285 OA
ATOM      5  C   UNL     1      53.495  15.044  25.450  1.00  0.00     0.111 A 
ATOM      6  C   UNL     1      54.795  15.348  24.978  1.00  0.00     0.134 A 
ATOM      7  C   UNL     1      55.887  15.282  25.855  1.00  0.00     0.093 A 
ATOM      8  C   UNL     1      55.707  14.921  27.192  1.00  0.00     0.123 A 
ATOM      9  C   UNL     1      54.426  14.619  27.665  1.00  0.00     0.094 A 
ATOM     10  C   UNL     1      53.324  14.677  26.806  1.00  0.00     0.146 A 
ATOM     11  O   UNL     1      52.119  14.382  27.280  1.00  0.00    -0.452 OA
ENDROOT
BRANCH   1  12
ATOM     12  C   UNL     1      49.733  14.042  27.181  1.00  0.00     0.025 A 
ATOM     13  C   UNL     1      48.617  13.752  26.381  1.00  0.00     0.016 A 
ATOM     14  C   UNL     1      47.391  13.428  26.967  1.00  0.00     0.051 A 
ATOM     15  C   UNL     1      47.257  13.403  28.358  1.00  0.00     0.157 A 
ATOM     16  C   UNL     1      49.590  14.039  28.580  1.00  0.00     0.062 A 
ATOM     17  C   UNL     1      48.360  13.714  29.170  1.00  0.00     0.158 A 
BRANCH  15  18
ATOM     18  O   UNL     1      46.021  13.074  28.915  1.00  0.00    -0.504 OA
ATOM     19  H   UNL     1      45.693  12.116  28.969  1.00  0.00     0.293 HD
ENDBRANCH  15  18
BRANCH  17  20
ATOM     20  O   UNL     1      48.229  13.707  30.559  1.00  0.00    -0.504 OA
ATOM     21  H   UNL     1      47.335  13.540  31.007  1.00  0.00     0.293 HD
ENDBRANCH  17  20
ENDBRANCH   1  12
BRANCH   2  22
ATOM     22  O   UNL     1      49.932  14.875  24.409  1.00  0.00    -0.502 OA
ATOM     23  H   UNL     1      49.213  15.565  24.588  1.00  0.00     0.293 HD
ENDBRANCH   2  22
BRANCH   6  24
ATOM     24  O   UNL     1      55.008  15.712  23.648  1.00  0.00    -0.507 OA
ATOM     25  H   UNL     1      55.189  16.672  23.381  1.00  0.00     0.293 HD
ENDBRANCH   6  24
BRANCH   8  26
ATOM     26  O   UNL     1      56.809  14.864  28.043  1.00  0.00    -0.508 OA
ATOM     27  H   UNL     1      57.659  15.378  27.844  1.00  0.00     0.293 HD
ENDBRANCH   8  26
TORSDOF 6
ENDMDL
MODEL 9
REMARK VINA RESULT:    -5.123      2.074      7.127
REMARK INTER + INTRA:          -6.463
REMARK INTER:                  -6.749
REMARK INTRA:                   0.286
REMARK UNBOUND:                -0.291
REMARK SMILES O=c1c(O)c(-c2ccc(O)c(O)c2)oc2cc(O)cc(O)c12
REMARK SMILES IDX 5 1 3 2 2 3 1 4 22 5 20 6 19 7 17 8 16 9 15 10 14 11 6 12
REMARK SMILES IDX 7 13 8 14 9 15 13 16 11 17 10 18 12 20 4 22 21 24 18 26
REMARK H PARENT 10 19 12 21 4 23 21 25 18 27
REMARK Flexibility Score: inf
ROOT
ATOM      1  C   UNL     1      51.935  14.044  25.493  1.00  0.00     0.180 A 
ATOM      2  C   UNL     1      52.934  14.826  26.104  1.00  0.00     0.208 A 
ATOM      3  C   UNL     1      53.648  14.290  27.187  1.00  0.00     0.238 A 
ATOM      4  O   UNL     1      54.553  14.976  27.735  1.00  0.00    -0.285 OA
ATOM      5  C   UNL     1      53.340  12.995  27.652  1.00  0.00     0.111 A 
ATOM      6  C   UNL     1      54.009  12.382  28.739  1.00  0.00     0.134 A 
ATOM      7  C   UNL     1      53.637  11.093  29.149  1.00  0.00     0.093 A 
ATOM      8  C   UNL     1      52.613  10.406  28.495  1.00  0.00     0.123 A 
ATOM      9  C   UNL     1      51.948  11.004  27.419  1.00  0.00     0.094 A 
ATOM     10  C   UNL     1      52.305  12.288  26.995  1.00  0.00     0.146 A 
ATOM     11  O   UNL     1      51.661  12.832  25.968  1.00  0.00    -0.452 OA
ENDROOT
BRANCH   1  12
ATOM     12  C   UNL     1      51.152  14.532  24.335  1.00  0.00     0.025 A 
ATOM     13  C   UNL     1      51.748  15.420  23.425  1.00  0.00     0.016 A 
ATOM     14  C   UNL     1      51.022  15.910  22.337  1.00  0.00     0.051 A 
ATOM     15  C   UNL     1      49.689  15.533  22.149  1.00  0.00     0.157 A 
ATOM     16  C   UNL     1      49.805  14.172  24.156  1.00  0.00     0.062 A 
ATOM     17  C   UNL     1      49.075  14.664  23.065  1.00  0.00     0.158 A 
BRANCH  15  18
ATOM     18  O   UNL     1      48.991  16.037  21.051  1.00  0.00    -0.504 OA
ATOM     19  H   UNL     1      49.377  16.758  20.452  1.00  0.00     0.293 HD
ENDBRANCH  15  18
BRANCH  17  20
ATOM     20  O   UNL     1      47.741  14.296  22.891  1.00  0.00    -0.504 OA
ATOM     21  H   UNL     1      47.271  14.408  22.000  1.00  0.00     0.293 HD
ENDBRANCH  17  20
ENDBRANCH   1  12
BRANCH   2  22
ATOM     22  O   UNL     1      53.187  16.125  25.655  1.00  0.00    -0.502 OA
ATOM     23  H   UNL     1      54.113  16.534  25.672  1.00  0.00     0.293 HD
ENDBRANCH   2  22
BRANCH   6  24
ATOM     24  O   UNL     1      55.037  13.043  29.414  1.00  0.00    -0.507 OA
ATOM     25  H   UNL     1      55.867  13.369  28.933  1.00  0.00     0.293 HD
ENDBRANCH   6  24
BRANCH   8  26
ATOM     26  O   UNL     1      52.262   9.126  28.921  1.00  0.00    -0.508 OA
ATOM     27  H   UNL     1      52.926   8.525  29.395  1.00  0.00     0.293 HD
ENDBRANCH   8  26
TORSDOF 6
ENDMDL
