MODEL 1
REMARK VINA RESULT:    -7.608      0.000      0.000
REMARK INTER + INTRA:          -9.480
REMARK INTER:                  -9.165
REMARK INTRA:                  -0.315
REMARK UNBOUND:                -0.315
REMARK SMILES O=c1c(O)c(-c2ccc(O)c(O)c2)oc2cc(O)cc(O)c12
REMARK SMILES IDX 5 1 3 2 2 3 1 4 22 5 20 6 19 7 17 8 16 9 15 10 14 11 6 12
REMARK SMILES IDX 7 13 8 14 9 15 13 16 11 17 10 18 12 20 4 22 21 24 18 26
REMARK H PARENT 10 19 12 21 4 23 21 25 18 27
REMARK Flexibility Score: inf
ROOT
ATOM      1  C   UNL     1     132.198 135.120 152.054  1.00  0.00     0.180 A 
ATOM      2  C   UNL     1     130.874 134.653 152.113  1.00  0.00     0.208 A 
ATOM      3  C   UNL     1     130.374 133.888 151.047  1.00  0.00     0.238 A 
ATOM      4  O   UNL     1     129.205 133.427 151.130  1.00  0.00    -0.285 OA
ATOM      5  C   UNL     1     131.197 133.614 149.929  1.00  0.00     0.111 A 
ATOM      6  C   UNL     1     130.782 132.884 148.775  1.00  0.00     0.134 A 
ATOM      7  C   UNL     1     131.720 132.560 147.787  1.00  0.00     0.093 A 
ATOM      8  C   UNL     1     133.041 132.996 147.878  1.00  0.00     0.123 A 
ATOM      9  C   UNL     1     133.444 133.762 148.973  1.00  0.00     0.094 A 
ATOM     10  C   UNL     1     132.540 134.069 149.993  1.00  0.00     0.146 A 
ATOM     11  O   UNL     1     132.967 134.791 151.022  1.00  0.00    -0.452 OA
ENDROOT
BRANCH   1  12
ATOM     12  C   UNL     1     132.788 135.952 153.127  1.00  0.00     0.025 A 
ATOM     13  C   UNL     1     133.520 135.377 154.178  1.00  0.00     0.016 A 
ATOM     14  C   UNL     1     134.047 136.178 155.193  1.00  0.00     0.051 A 
ATOM     15  C   UNL     1     133.845 137.563 155.187  1.00  0.00     0.157 A 
ATOM     16  C   UNL     1     132.565 137.338 153.131  1.00  0.00     0.062 A 
ATOM     17  C   UNL     1     133.090 138.150 154.144  1.00  0.00     0.158 A 
BRANCH  15  18
ATOM     18  O   UNL     1     134.402 138.308 156.228  1.00  0.00    -0.504 OA
ATOM     19  H   UNL     1     134.790 137.903 157.068  1.00  0.00     0.293 HD
ENDBRANCH  15  18
BRANCH  17  20
ATOM     20  O   UNL     1     132.839 139.522 154.076  1.00  0.00    -0.504 OA
ATOM     21  H   UNL     1     132.097 139.934 153.528  1.00  0.00     0.293 HD
ENDBRANCH  17  20
ENDBRANCH   1  12
BRANCH   2  22
ATOM     22  O   UNL     1     130.084 134.916 153.235  1.00  0.00    -0.502 OA
ATOM     23  H   UNL     1     130.452 135.357 154.069  1.00  0.00     0.293 HD
ENDBRANCH   2  22
BRANCH   6  24
ATOM     24  O   UNL     1     129.464 132.480 148.541  1.00  0.00    -0.507 OA
ATOM     25  H   UNL     1     129.030 131.666 148.950  1.00  0.00     0.293 HD
ENDBRANCH   6  24
BRANCH   8  26
ATOM     26  O   UNL     1     133.943 132.669 146.869  1.00  0.00    -0.508 OA
ATOM     27  H   UNL     1     134.777 132.124 147.060  1.00  0.00     0.293 HD
ENDBRANCH   8  26
TORSDOF 6
ENDMDL
MODEL 2
REMARK VINA RESULT:    -7.352      2.507      3.953
REMARK INTER + INTRA:          -9.172
REMARK INTER:                  -8.912
REMARK INTRA:                  -0.260
REMARK UNBOUND:                -0.315
REMARK SMILES O=c1c(O)c(-c2ccc(O)c(O)c2)oc2cc(O)cc(O)c12
REMARK SMILES IDX 5 1 3 2 2 3 1 4 22 5 20 6 19 7 17 8 16 9 15 10 14 11 6 12
REMARK SMILES IDX 7 13 8 14 9 15 13 16 11 17 10 18 12 20 4 22 21 24 18 26
REMARK H PARENT 10 19 12 21 4 23 21 25 18 27
REMARK Flexibility Score: inf
ROOT
ATOM      1  C   UNL     1     130.072 133.312 150.024  1.00  0.00     0.180 A 
ATOM      2  C   UNL     1     128.675 133.406 150.145  1.00  0.00     0.208 A 
ATOM      3  C   UNL     1     127.865 132.707 149.235  1.00  0.00     0.238 A 
ATOM      4  O   UNL     1     126.615 132.750 149.382  1.00  0.00    -0.285 OA
ATOM      5  C   UNL     1     128.461 131.937 148.208  1.00  0.00     0.111 A 
ATOM      6  C   UNL     1     127.738 131.222 147.207  1.00  0.00     0.134 A 
ATOM      7  C   UNL     1     128.428 130.388 146.318  1.00  0.00     0.093 A 
ATOM      8  C   UNL     1     129.818 130.296 146.350  1.00  0.00     0.123 A 
ATOM      9  C   UNL     1     130.541 131.038 147.286  1.00  0.00     0.094 A 
ATOM     10  C   UNL     1     129.878 131.849 148.210  1.00  0.00     0.146 A 
ATOM     11  O   UNL     1     130.601 132.530 149.090  1.00  0.00    -0.452 OA
ENDROOT
BRANCH   1  12
ATOM     12  C   UNL     1     130.991 134.039 150.930  1.00  0.00     0.025 A 
ATOM     13  C   UNL     1     131.704 135.167 150.496  1.00  0.00     0.016 A 
ATOM     14  C   UNL     1     132.584 135.821 151.360  1.00  0.00     0.051 A 
ATOM     15  C   UNL     1     132.780 135.358 152.666  1.00  0.00     0.157 A 
ATOM     16  C   UNL     1     131.202 133.558 152.232  1.00  0.00     0.062 A 
ATOM     17  C   UNL     1     132.082 134.209 153.106  1.00  0.00     0.158 A 
BRANCH  15  18
ATOM     18  O   UNL     1     133.669 136.061 153.481  1.00  0.00    -0.504 OA
ATOM     19  H   UNL     1     133.516 137.006 153.802  1.00  0.00     0.293 HD
ENDBRANCH  15  18
BRANCH  17  20
ATOM     20  O   UNL     1     132.233 133.682 154.391  1.00  0.00    -0.504 OA
ATOM     21  H   UNL     1     132.389 134.242 155.217  1.00  0.00     0.293 HD
ENDBRANCH  17  20
ENDBRANCH   1  12
BRANCH   2  22
ATOM     22  O   UNL     1     128.106 134.152 151.180  1.00  0.00    -0.502 OA
ATOM     23  H   UNL     1     127.246 133.879 151.640  1.00  0.00     0.293 HD
ENDBRANCH   2  22
BRANCH   6  24
ATOM     24  O   UNL     1     126.354 131.315 147.027  1.00  0.00    -0.507 OA
ATOM     25  H   UNL     1     125.668 130.820 147.576  1.00  0.00     0.293 HD
ENDBRANCH   6  24
BRANCH   8  26
ATOM     26  O   UNL     1     130.473 129.469 145.441  1.00  0.00    -0.508 OA
ATOM     27  H   UNL     1     131.385 129.075 145.645  1.00  0.00     0.293 HD
ENDBRANCH   8  26
TORSDOF 6
ENDMDL
MODEL 3
REMARK VINA RESULT:    -7.344      2.732      4.340
REMARK INTER + INTRA:          -9.162
REMARK INTER:                  -9.105
REMARK INTRA:                  -0.056
REMARK UNBOUND:                -0.315
REMARK SMILES O=c1c(O)c(-c2ccc(O)c(O)c2)oc2cc(O)cc(O)c12
REMARK SMILES IDX 5 1 3 2 2 3 1 4 22 5 20 6 19 7 17 8 16 9 15 10 14 11 6 12
REMARK SMILES IDX 7 13 8 14 9 15 13 16 11 17 10 18 12 20 4 22 21 24 18 26
REMARK H PARENT 10 19 12 21 4 23 21 25 18 27
REMARK Flexibility Score: inf
ROOT
ATOM      1  C   UNL     1     131.653 135.687 153.905  1.00  0.00     0.180 A 
ATOM      2  C   UNL     1     131.993 135.456 152.561  1.00  0.00     0.208 A 
ATOM      3  C   UNL     1     132.013 134.136 152.081  1.00  0.00     0.238 A 
ATOM      4  O   UNL     1     132.264 133.939 150.864  1.00  0.00    -0.285 OA
ATOM      5  C   UNL     1     131.708 133.064 152.955  1.00  0.00     0.111 A 
ATOM      6  C   UNL     1     131.738 131.686 152.587  1.00  0.00     0.134 A 
ATOM      7  C   UNL     1     131.292 130.718 153.496  1.00  0.00     0.093 A 
ATOM      8  C   UNL     1     130.882 131.072 154.781  1.00  0.00     0.123 A 
ATOM      9  C   UNL     1     130.906 132.412 155.171  1.00  0.00     0.094 A 
ATOM     10  C   UNL     1     131.310 133.404 154.274  1.00  0.00     0.146 A 
ATOM     11  O   UNL     1     131.309 134.666 154.682  1.00  0.00    -0.452 OA
ENDROOT
BRANCH   1  12
ATOM     12  C   UNL     1     131.633 137.048 154.489  1.00  0.00     0.025 A 
ATOM     13  C   UNL     1     130.470 137.577 155.069  1.00  0.00     0.016 A 
ATOM     14  C   UNL     1     130.467 138.871 155.592  1.00  0.00     0.051 A 
ATOM     15  C   UNL     1     131.618 139.666 155.536  1.00  0.00     0.157 A 
ATOM     16  C   UNL     1     132.782 137.851 154.411  1.00  0.00     0.062 A 
ATOM     17  C   UNL     1     132.789 139.150 154.934  1.00  0.00     0.158 A 
BRANCH  15  18
ATOM     18  O   UNL     1     131.551 140.950 156.082  1.00  0.00    -0.504 OA
ATOM     19  H   UNL     1     131.494 141.795 155.531  1.00  0.00     0.293 HD
ENDBRANCH  15  18
BRANCH  17  20
ATOM     20  O   UNL     1     133.972 139.887 154.832  1.00  0.00    -0.504 OA
ATOM     21  H   UNL     1     134.009 140.896 154.816  1.00  0.00     0.293 HD
ENDBRANCH  17  20
ENDBRANCH   1  12
BRANCH   2  22
ATOM     22  O   UNL     1     132.268 136.529 151.710  1.00  0.00    -0.502 OA
ATOM     23  H   UNL     1     133.201 136.905 151.590  1.00  0.00     0.293 HD
ENDBRANCH   2  22
BRANCH   6  24
ATOM     24  O   UNL     1     132.217 131.215 151.361  1.00  0.00    -0.507 OA
ATOM     25  H   UNL     1     132.432 131.797 150.565  1.00  0.00     0.293 HD
ENDBRANCH   6  24
BRANCH   8  26
ATOM     26  O   UNL     1     130.459 130.082 155.664  1.00  0.00    -0.508 OA
ATOM     27  H   UNL     1     129.728 129.425 155.414  1.00  0.00     0.293 HD
ENDBRANCH   8  26
TORSDOF 6
ENDMDL
MODEL 4
REMARK VINA RESULT:    -7.292      1.999      3.889
REMARK INTER + INTRA:          -9.100
REMARK INTER:                  -9.092
REMARK INTRA:                  -0.008
REMARK UNBOUND:                -0.315
REMARK SMILES O=c1c(O)c(-c2ccc(O)c(O)c2)oc2cc(O)cc(O)c12
REMARK SMILES IDX 5 1 3 2 2 3 1 4 22 5 20 6 19 7 17 8 16 9 15 10 14 11 6 12
REMARK SMILES IDX 7 13 8 14 9 15 13 16 11 17 10 18 12 20 4 22 21 24 18 26
REMARK H PARENT 10 19 12 21 4 23 21 25 18 27
REMARK Flexibility Score: inf
ROOT
ATOM      1  C   UNL     1     131.508 133.668 150.775  1.00  0.00     0.180 A 
ATOM      2  C   UNL     1     132.317 133.529 149.634  1.00  0.00     0.208 A 
ATOM      3  C   UNL     1     131.849 132.755 148.560  1.00  0.00     0.238 A 
ATOM      4  O   UNL     1     132.553 132.678 147.519  1.00  0.00    -0.285 OA
ATOM      5  C   UNL     1     130.588 132.118 148.646  1.00  0.00     0.111 A 
ATOM      6  C   UNL     1     130.034 131.277 147.635  1.00  0.00     0.134 A 
ATOM      7  C   UNL     1     128.722 130.804 147.771  1.00  0.00     0.093 A 
ATOM      8  C   UNL     1     127.970 131.087 148.910  1.00  0.00     0.123 A 
ATOM      9  C   UNL     1     128.524 131.858 149.933  1.00  0.00     0.094 A 
ATOM     10  C   UNL     1     129.817 132.375 149.809  1.00  0.00     0.146 A 
ATOM     11  O   UNL     1     130.302 133.112 150.800  1.00  0.00    -0.452 OA
ENDROOT
BRANCH   1  12
ATOM     12  C   UNL     1     131.942 134.448 151.957  1.00  0.00     0.025 A 
ATOM     13  C   UNL     1     132.407 135.767 151.832  1.00  0.00     0.016 A 
ATOM     14  C   UNL     1     132.833 136.475 152.956  1.00  0.00     0.051 A 
ATOM     15  C   UNL     1     132.818 135.880 154.223  1.00  0.00     0.157 A 
ATOM     16  C   UNL     1     131.947 133.841 153.222  1.00  0.00     0.062 A 
ATOM     17  C   UNL     1     132.373 134.544 154.357  1.00  0.00     0.158 A 
BRANCH  15  18
ATOM     18  O   UNL     1     133.254 136.643 155.308  1.00  0.00    -0.504 OA
ATOM     19  H   UNL     1     132.839 136.607 156.228  1.00  0.00     0.293 HD
ENDBRANCH  15  18
BRANCH  17  20
ATOM     20  O   UNL     1     132.339 133.880 155.586  1.00  0.00    -0.504 OA
ATOM     21  H   UNL     1     131.621 133.221 155.852  1.00  0.00     0.293 HD
ENDBRANCH  17  20
ENDBRANCH   1  12
BRANCH   2  22
ATOM     22  O   UNL     1     133.548 134.184 149.559  1.00  0.00    -0.502 OA
ATOM     23  H   UNL     1     133.866 134.653 148.720  1.00  0.00     0.293 HD
ENDBRANCH   2  22
BRANCH   6  24
ATOM     24  O   UNL     1     130.733 130.857 146.499  1.00  0.00    -0.507 OA
ATOM     25  H   UNL     1     131.736 130.763 146.443  1.00  0.00     0.293 HD
ENDBRANCH   6  24
BRANCH   8  26
ATOM     26  O   UNL     1     126.675 130.588 149.019  1.00  0.00    -0.508 OA
ATOM     27  H   UNL     1     126.486 129.694 149.460  1.00  0.00     0.293 HD
ENDBRANCH   8  26
TORSDOF 6
ENDMDL
MODEL 5
REMARK VINA RESULT:    -7.269      2.487      3.167
REMARK INTER + INTRA:          -9.071
REMARK INTER:                  -8.797
REMARK INTRA:                  -0.275
REMARK UNBOUND:                -0.315
REMARK SMILES O=c1c(O)c(-c2ccc(O)c(O)c2)oc2cc(O)cc(O)c12
REMARK SMILES IDX 5 1 3 2 2 3 1 4 22 5 20 6 19 7 17 8 16 9 15 10 14 11 6 12
REMARK SMILES IDX 7 13 8 14 9 15 13 16 11 17 10 18 12 20 4 22 21 24 18 26
REMARK H PARENT 10 19 12 21 4 23 21 25 18 27
REMARK Flexibility Score: inf
ROOT
ATOM      1  C   UNL     1     130.866 134.647 152.961  1.00  0.00     0.180 A 
ATOM      2  C   UNL     1     131.543 133.493 153.391  1.00  0.00     0.208 A 
ATOM      3  C   UNL     1     131.394 132.304 152.659  1.00  0.00     0.238 A 
ATOM      4  O   UNL     1     132.046 131.288 153.017  1.00  0.00    -0.285 OA
ATOM      5  C   UNL     1     130.558 132.279 151.517  1.00  0.00     0.111 A 
ATOM      6  C   UNL     1     130.301 131.119 150.725  1.00  0.00     0.134 A 
ATOM      7  C   UNL     1     129.561 131.240 149.543  1.00  0.00     0.093 A 
ATOM      8  C   UNL     1     129.012 132.463 149.159  1.00  0.00     0.123 A 
ATOM      9  C   UNL     1     129.206 133.591 149.957  1.00  0.00     0.094 A 
ATOM     10  C   UNL     1     129.972 133.510 151.124  1.00  0.00     0.146 A 
ATOM     11  O   UNL     1     130.140 134.608 151.849  1.00  0.00    -0.452 OA
ENDROOT
BRANCH   1  12
ATOM     12  C   UNL     1     130.954 135.931 153.693  1.00  0.00     0.025 A 
ATOM     13  C   UNL     1     129.898 136.388 154.496  1.00  0.00     0.016 A 
ATOM     14  C   UNL     1     129.993 137.614 155.158  1.00  0.00     0.051 A 
ATOM     15  C   UNL     1     131.136 138.412 155.022  1.00  0.00     0.157 A 
ATOM     16  C   UNL     1     132.091 136.739 153.537  1.00  0.00     0.062 A 
ATOM     17  C   UNL     1     132.197 137.969 154.198  1.00  0.00     0.158 A 
BRANCH  15  18
ATOM     18  O   UNL     1     131.170 139.624 155.714  1.00  0.00    -0.504 OA
ATOM     19  H   UNL     1     130.374 140.029 156.183  1.00  0.00     0.293 HD
ENDBRANCH  15  18
BRANCH  17  20
ATOM     20  O   UNL     1     133.363 138.714 154.006  1.00  0.00    -0.504 OA
ATOM     21  H   UNL     1     133.862 138.767 153.130  1.00  0.00     0.293 HD
ENDBRANCH  17  20
ENDBRANCH   1  12
BRANCH   2  22
ATOM     22  O   UNL     1     132.382 133.544 154.507  1.00  0.00    -0.502 OA
ATOM     23  H   UNL     1     132.204 134.155 155.295  1.00  0.00     0.293 HD
ENDBRANCH   2  22
BRANCH   6  24
ATOM     24  O   UNL     1     130.725 129.832 151.067  1.00  0.00    -0.507 OA
ATOM     25  H   UNL     1     131.293 129.607 151.870  1.00  0.00     0.293 HD
ENDBRANCH   6  24
BRANCH   8  26
ATOM     26  O   UNL     1     128.268 132.544 147.984  1.00  0.00    -0.508 OA
ATOM     27  H   UNL     1     127.912 131.713 147.525  1.00  0.00     0.293 HD
ENDBRANCH   8  26
TORSDOF 6
ENDMDL
MODEL 6
REMARK VINA RESULT:    -7.188      2.122      2.787
REMARK INTER + INTRA:          -8.975
REMARK INTER:                  -8.691
REMARK INTRA:                  -0.283
REMARK UNBOUND:                -0.315
REMARK SMILES O=c1c(O)c(-c2ccc(O)c(O)c2)oc2cc(O)cc(O)c12
REMARK SMILES IDX 5 1 3 2 2 3 1 4 22 5 20 6 19 7 17 8 16 9 15 10 14 11 6 12
REMARK SMILES IDX 7 13 8 14 9 15 13 16 11 17 10 18 12 20 4 22 21 24 18 26
REMARK H PARENT 10 19 12 21 4 23 21 25 18 27
REMARK Flexibility Score: inf
ROOT
ATOM      1  C   UNL     1     131.880 134.157 153.215  1.00  0.00     0.180 A 
ATOM      2  C   UNL     1     131.444 133.100 154.034  1.00  0.00     0.208 A 
ATOM      3  C   UNL     1     130.862 131.971 153.436  1.00  0.00     0.238 A 
ATOM      4  O   UNL     1     130.524 131.005 154.169  1.00  0.00    -0.285 OA
ATOM      5  C   UNL     1     130.707 131.920 152.029  1.00  0.00     0.111 A 
ATOM      6  C   UNL     1     130.093 130.844 151.320  1.00  0.00     0.134 A 
ATOM      7  C   UNL     1     130.112 130.840 149.920  1.00  0.00     0.093 A 
ATOM      8  C   UNL     1     130.661 131.902 149.204  1.00  0.00     0.123 A 
ATOM      9  C   UNL     1     131.210 132.988 149.887  1.00  0.00     0.094 A 
ATOM     10  C   UNL     1     131.240 133.004 151.284  1.00  0.00     0.146 A 
ATOM     11  O   UNL     1     131.781 134.050 151.895  1.00  0.00    -0.452 OA
ENDROOT
BRANCH   1  12
ATOM     12  C   UNL     1     132.482 135.389 153.774  1.00  0.00     0.025 A 
ATOM     13  C   UNL     1     131.749 136.583 153.866  1.00  0.00     0.016 A 
ATOM     14  C   UNL     1     132.345 137.739 154.373  1.00  0.00     0.051 A 
ATOM     15  C   UNL     1     133.682 137.732 154.786  1.00  0.00     0.157 A 
ATOM     16  C   UNL     1     133.830 135.384 154.166  1.00  0.00     0.062 A 
ATOM     17  C   UNL     1     134.435 136.539 154.676  1.00  0.00     0.158 A 
BRANCH  15  18
ATOM     18  O   UNL     1     134.217 138.920 155.288  1.00  0.00    -0.504 OA
ATOM     19  H   UNL     1     134.195 139.801 154.796  1.00  0.00     0.293 HD
ENDBRANCH  15  18
BRANCH  17  20
ATOM     20  O   UNL     1     135.776 136.458 155.058  1.00  0.00    -0.504 OA
ATOM     21  H   UNL     1     136.216 137.086 155.715  1.00  0.00     0.293 HD
ENDBRANCH  17  20
ENDBRANCH   1  12
BRANCH   2  22
ATOM     22  O   UNL     1     131.627 133.161 155.418  1.00  0.00    -0.502 OA
ATOM     23  H   UNL     1     131.903 134.011 155.894  1.00  0.00     0.293 HD
ENDBRANCH   2  22
BRANCH   6  24
ATOM     24  O   UNL     1     129.434 129.777 151.938  1.00  0.00    -0.507 OA
ATOM     25  H   UNL     1     128.970 129.828 152.833  1.00  0.00     0.293 HD
ENDBRANCH   6  24
BRANCH   8  26
ATOM     26  O   UNL     1     130.648 131.872 147.811  1.00  0.00    -0.508 OA
ATOM     27  H   UNL     1     129.981 132.416 147.276  1.00  0.00     0.293 HD
ENDBRANCH   8  26
TORSDOF 6
ENDMDL
MODEL 7
REMARK VINA RESULT:    -7.176      3.392      7.588
REMARK INTER + INTRA:          -8.960
REMARK INTER:                  -8.662
REMARK INTRA:                  -0.298
REMARK UNBOUND:                -0.315
REMARK SMILES O=c1c(O)c(-c2ccc(O)c(O)c2)oc2cc(O)cc(O)c12
REMARK SMILES IDX 5 1 3 2 2 3 1 4 22 5 20 6 19 7 17 8 16 9 15 10 14 11 6 12
REMARK SMILES IDX 7 13 8 14 9 15 13 16 11 17 10 18 12 20 4 22 21 24 18 26
REMARK H PARENT 10 19 12 21 4 23 21 25 18 27
REMARK Flexibility Score: inf
ROOT
ATOM      1  C   UNL     1     130.931 135.633 153.711  1.00  0.00     0.180 A 
ATOM      2  C   UNL     1     131.805 136.707 153.955  1.00  0.00     0.208 A 
ATOM      3  C   UNL     1     131.376 137.759 154.780  1.00  0.00     0.238 A 
ATOM      4  O   UNL     1     132.182 138.690 155.039  1.00  0.00    -0.285 OA
ATOM      5  C   UNL     1     130.075 137.733 155.337  1.00  0.00     0.111 A 
ATOM      6  C   UNL     1     129.522 138.765 156.153  1.00  0.00     0.134 A 
ATOM      7  C   UNL     1     128.272 138.574 156.756  1.00  0.00     0.093 A 
ATOM      8  C   UNL     1     127.528 137.419 156.520  1.00  0.00     0.123 A 
ATOM      9  C   UNL     1     128.033 136.430 155.675  1.00  0.00     0.094 A 
ATOM     10  C   UNL     1     129.293 136.575 155.089  1.00  0.00     0.146 A 
ATOM     11  O   UNL     1     129.741 135.606 154.300  1.00  0.00    -0.452 OA
ENDROOT
BRANCH   1  12
ATOM     12  C   UNL     1     131.302 134.499 152.834  1.00  0.00     0.025 A 
ATOM     13  C   UNL     1     131.264 134.615 151.435  1.00  0.00     0.016 A 
ATOM     14  C   UNL     1     131.594 133.526 150.628  1.00  0.00     0.051 A 
ATOM     15  C   UNL     1     131.956 132.298 151.196  1.00  0.00     0.157 A 
ATOM     16  C   UNL     1     131.641 133.264 153.406  1.00  0.00     0.062 A 
ATOM     17  C   UNL     1     131.975 132.165 152.604  1.00  0.00     0.158 A 
BRANCH  15  18
ATOM     18  O   UNL     1     132.279 131.249 150.333  1.00  0.00    -0.504 OA
ATOM     19  H   UNL     1     132.453 131.364 149.345  1.00  0.00     0.293 HD
ENDBRANCH  15  18
BRANCH  17  20
ATOM     20  O   UNL     1     132.315 130.971 153.243  1.00  0.00    -0.504 OA
ATOM     21  H   UNL     1     131.725 130.151 153.260  1.00  0.00     0.293 HD
ENDBRANCH  17  20
ENDBRANCH   1  12
BRANCH   2  22
ATOM     22  O   UNL     1     133.093 136.702 153.415  1.00  0.00    -0.502 OA
ATOM     23  H   UNL     1     133.922 136.828 153.982  1.00  0.00     0.293 HD
ENDBRANCH   2  22
BRANCH   6  24
ATOM     24  O   UNL     1     130.142 139.997 156.379  1.00  0.00    -0.507 OA
ATOM     25  H   UNL     1     130.315 140.396 157.289  1.00  0.00     0.293 HD
ENDBRANCH   6  24
BRANCH   8  26
ATOM     26  O   UNL     1     126.282 137.269 157.124  1.00  0.00    -0.508 OA
ATOM     27  H   UNL     1     125.424 137.298 156.585  1.00  0.00     0.293 HD
ENDBRANCH   8  26
TORSDOF 6
ENDMDL
MODEL 8
REMARK VINA RESULT:    -7.112      2.906      6.922
REMARK INTER + INTRA:          -8.882
REMARK INTER:                  -8.631
REMARK INTRA:                  -0.252
REMARK UNBOUND:                -0.315
REMARK SMILES O=c1c(O)c(-c2ccc(O)c(O)c2)oc2cc(O)cc(O)c12
REMARK SMILES IDX 5 1 3 2 2 3 1 4 22 5 20 6 19 7 17 8 16 9 15 10 14 11 6 12
REMARK SMILES IDX 7 13 8 14 9 15 13 16 11 17 10 18 12 20 4 22 21 24 18 26
REMARK H PARENT 10 19 12 21 4 23 21 25 18 27
REMARK Flexibility Score: inf
ROOT
ATOM      1  C   UNL     1     131.574 135.071 154.212  1.00  0.00     0.180 A 
ATOM      2  C   UNL     1     130.442 135.889 154.371  1.00  0.00     0.208 A 
ATOM      3  C   UNL     1     130.620 137.237 154.722  1.00  0.00     0.238 A 
ATOM      4  O   UNL     1     129.606 137.978 154.810  1.00  0.00    -0.285 OA
ATOM      5  C   UNL     1     131.925 137.746 154.926  1.00  0.00     0.111 A 
ATOM      6  C   UNL     1     132.221 139.084 155.324  1.00  0.00     0.134 A 
ATOM      7  C   UNL     1     133.553 139.513 155.370  1.00  0.00     0.093 A 
ATOM      8  C   UNL     1     134.601 138.637 155.096  1.00  0.00     0.123 A 
ATOM      9  C   UNL     1     134.326 137.309 154.764  1.00  0.00     0.094 A 
ATOM     10  C   UNL     1     133.006 136.861 154.675  1.00  0.00     0.146 A 
ATOM     11  O   UNL     1     132.787 135.594 154.346  1.00  0.00    -0.452 OA
ENDROOT
BRANCH   1  12
ATOM     12  C   UNL     1     131.465 133.636 153.866  1.00  0.00     0.025 A 
ATOM     13  C   UNL     1     130.992 132.694 154.794  1.00  0.00     0.016 A 
ATOM     14  C   UNL     1     130.922 131.342 154.454  1.00  0.00     0.051 A 
ATOM     15  C   UNL     1     131.333 130.900 153.191  1.00  0.00     0.157 A 
ATOM     16  C   UNL     1     131.900 133.193 152.607  1.00  0.00     0.062 A 
ATOM     17  C   UNL     1     131.832 131.838 152.257  1.00  0.00     0.158 A 
BRANCH  15  18
ATOM     18  O   UNL     1     131.232 129.536 152.912  1.00  0.00    -0.504 OA
ATOM     19  H   UNL     1     131.914 128.849 153.201  1.00  0.00     0.293 HD
ENDBRANCH  15  18
BRANCH  17  20
ATOM     20  O   UNL     1     132.270 131.472 150.982  1.00  0.00    -0.504 OA
ATOM     21  H   UNL     1     132.242 132.082 150.178  1.00  0.00     0.293 HD
ENDBRANCH  17  20
ENDBRANCH   1  12
BRANCH   2  22
ATOM     22  O   UNL     1     129.163 135.374 154.143  1.00  0.00    -0.502 OA
ATOM     23  H   UNL     1     128.485 135.840 153.554  1.00  0.00     0.293 HD
ENDBRANCH   2  22
BRANCH   6  24
ATOM     24  O   UNL     1     131.252 140.016 155.709  1.00  0.00    -0.507 OA
ATOM     25  H   UNL     1     130.727 139.979 156.569  1.00  0.00     0.293 HD
ENDBRANCH   6  24
BRANCH   8  26
ATOM     26  O   UNL     1     135.915 139.094 155.166  1.00  0.00    -0.508 OA
ATOM     27  H   UNL     1     136.569 138.725 155.847  1.00  0.00     0.293 HD
ENDBRANCH   8  26
TORSDOF 6
ENDMDL
MODEL 9
REMARK VINA RESULT:    -7.039      2.772      3.589
REMARK INTER + INTRA:          -8.795
REMARK INTER:                  -8.473
REMARK INTRA:                  -0.322
REMARK UNBOUND:                -0.315
REMARK SMILES O=c1c(O)c(-c2ccc(O)c(O)c2)oc2cc(O)cc(O)c12
REMARK SMILES IDX 5 1 3 2 2 3 1 4 22 5 20 6 19 7 17 8 16 9 15 10 14 11 6 12
REMARK SMILES IDX 7 13 8 14 9 15 13 16 11 17 10 18 12 20 4 22 21 24 18 26
REMARK H PARENT 10 19 12 21 4 23 21 25 18 27
REMARK Flexibility Score: inf
ROOT
ATOM      1  C   UNL     1     130.756 135.425 154.113  1.00  0.00     0.180 A 
ATOM      2  C   UNL     1     130.828 134.319 154.977  1.00  0.00     0.208 A 
ATOM      3  C   UNL     1     131.083 133.048 154.436  1.00  0.00     0.238 A 
ATOM      4  O   UNL     1     131.201 132.070 155.220  1.00  0.00    -0.285 OA
ATOM      5  C   UNL     1     131.248 132.897 153.038  1.00  0.00     0.111 A 
ATOM      6  C   UNL     1     131.470 131.652 152.378  1.00  0.00     0.134 A 
ATOM      7  C   UNL     1     131.748 131.638 151.005  1.00  0.00     0.093 A 
ATOM      8  C   UNL     1     131.746 132.814 150.258  1.00  0.00     0.123 A 
ATOM      9  C   UNL     1     131.471 134.031 150.883  1.00  0.00     0.094 A 
ATOM     10  C   UNL     1     131.227 134.082 152.258  1.00  0.00     0.146 A 
ATOM     11  O   UNL     1     130.980 135.261 152.814  1.00  0.00    -0.452 OA
ENDROOT
BRANCH   1  12
ATOM     12  C   UNL     1     130.467 136.791 154.606  1.00  0.00     0.025 A 
ATOM     13  C   UNL     1     129.152 137.219 154.842  1.00  0.00     0.016 A 
ATOM     14  C   UNL     1     128.901 138.520 155.283  1.00  0.00     0.051 A 
ATOM     15  C   UNL     1     129.952 139.422 155.484  1.00  0.00     0.157 A 
ATOM     16  C   UNL     1     131.522 137.700 154.785  1.00  0.00     0.062 A 
ATOM     17  C   UNL     1     131.281 139.007 155.227  1.00  0.00     0.158 A 
BRANCH  15  18
ATOM     18  O   UNL     1     129.635 140.706 155.931  1.00  0.00    -0.504 OA
ATOM     19  H   UNL     1     128.763 141.174 155.730  1.00  0.00     0.293 HD
ENDBRANCH  15  18
BRANCH  17  20
ATOM     20  O   UNL     1     132.380 139.852 155.395  1.00  0.00    -0.504 OA
ATOM     21  H   UNL     1     132.325 140.776 155.800  1.00  0.00     0.293 HD
ENDBRANCH  17  20
ENDBRANCH   1  12
BRANCH   2  22
ATOM     22  O   UNL     1     130.686 134.492 156.356  1.00  0.00    -0.502 OA
ATOM     23  H   UNL     1     131.427 134.862 156.938  1.00  0.00     0.293 HD
ENDBRANCH   2  22
BRANCH   6  24
ATOM     24  O   UNL     1     131.402 130.409 153.014  1.00  0.00    -0.507 OA
ATOM     25  H   UNL     1     131.200 130.273 153.993  1.00  0.00     0.293 HD
ENDBRANCH   6  24
BRANCH   8  26
ATOM     26  O   UNL     1     132.012 132.761 148.892  1.00  0.00    -0.508 OA
ATOM     27  H   UNL     1     131.650 133.461 148.254  1.00  0.00     0.293 HD
ENDBRANCH   8  26
TORSDOF 6
ENDMDL
