MODEL 1
REMARK VINA RESULT:    -4.650      0.000      0.000
REMARK INTER + INTRA:          -9.721
REMARK INTER:                  -8.456
REMARK INTRA:                  -1.265
REMARK UNBOUND:                -1.265
REMARK SMILES CCCCCCCCCCCCCC[C@H](C)C(=O)[O-]
REMARK SMILES IDX 9 1 10 2 11 3 12 4 13 5 14 6 15 7 16 8 17 9 18 10 19 11 8 12
REMARK SMILES IDX 7 13 6 14 5 15 4 16 3 17 2 18 1 19
REMARK H PARENT
REMARK Flexibility Score: inf
ROOT
ATOM      1  C   UNL     1      98.591 -68.600   3.724  1.00  0.00     0.000 C 
ENDROOT
BRANCH   1   2
ATOM      2  C   UNL     1      97.502 -67.530   3.941  1.00  0.00     0.000 C 
BRANCH   2   3
ATOM      3  C   UNL     1      97.934 -66.084   3.628  1.00  0.00     0.000 C 
BRANCH   3   4
ATOM      4  C   UNL     1      97.666 -65.625   2.183  1.00  0.00     0.000 C 
BRANCH   4   5
ATOM      5  C   UNL     1      98.910 -65.735   1.283  1.00  0.00     0.001 C 
BRANCH   5   6
ATOM      6  C   UNL     1      98.715 -66.758   0.142  1.00  0.00     0.009 C 
BRANCH   6   7
ATOM      7  C   UNL     1      99.557 -68.042   0.315  1.00  0.00     0.032 C 
ATOM      8  C   UNL     1     100.928 -67.943  -0.365  1.00  0.00     0.014 C 
BRANCH   7   9
ATOM      9  C   UNL     1      98.803 -69.220  -0.241  1.00  0.00     0.044 C 
ATOM     10  O   UNL     1      98.630 -70.250   0.463  1.00  0.00    -0.550 OA
ATOM     11  O   UNL     1      98.287 -69.177  -1.531  1.00  0.00    -0.550 OA
ENDBRANCH   7   9
ENDBRANCH   6   7
ENDBRANCH   5   6
ENDBRANCH   4   5
ENDBRANCH   3   4
ENDBRANCH   2   3
ENDBRANCH   1   2
BRANCH   1  12
ATOM     12  C   UNL     1      99.881 -68.394   4.539  1.00  0.00     0.000 C 
BRANCH  12  13
ATOM     13  C   UNL     1     100.078 -69.469   5.622  1.00  0.00    -0.000 C 
BRANCH  13  14
ATOM     14  C   UNL     1     101.117 -69.058   6.677  1.00  0.00    -0.000 C 
BRANCH  14  15
ATOM     15  C   UNL     1     101.010 -67.572   7.059  1.00  0.00    -0.000 C 
BRANCH  15  16
ATOM     16  C   UNL     1     100.969 -67.347   8.582  1.00  0.00    -0.000 C 
BRANCH  16  17
ATOM     17  C   UNL     1     100.819 -68.624   9.428  1.00  0.00    -0.000 C 
BRANCH  17  18
ATOM     18  C   UNL     1     100.233 -68.355  10.821  1.00  0.00    -0.003 C 
ATOM     19  C   UNL     1     100.166 -66.858  11.110  1.00  0.00     0.004 C 
ENDBRANCH  17  18
ENDBRANCH  16  17
ENDBRANCH  15  16
ENDBRANCH  14  15
ENDBRANCH  13  14
ENDBRANCH  12  13
ENDBRANCH   1  12
TORSDOF 14
ENDMDL
MODEL 2
REMARK VINA RESULT:    -4.477      0.666      1.272
REMARK INTER + INTRA:          -9.407
REMARK INTER:                  -8.134
REMARK INTRA:                  -1.273
REMARK UNBOUND:                -1.265
REMARK SMILES CCCCCCCCCCCCCC[C@H](C)C(=O)[O-]
REMARK SMILES IDX 9 1 10 2 11 3 12 4 13 5 14 6 15 7 16 8 17 9 18 10 19 11 8 12
REMARK SMILES IDX 7 13 6 14 5 15 4 16 3 17 2 18 1 19
REMARK H PARENT
REMARK Flexibility Score: inf
ROOT
ATOM      1  C   UNL     1      98.682 -68.468   3.590  1.00  0.00     0.000 C 
ENDROOT
BRANCH   1   2
ATOM      2  C   UNL     1      97.512 -67.495   3.840  1.00  0.00     0.000 C 
BRANCH   2   3
ATOM      3  C   UNL     1      97.545 -66.201   3.004  1.00  0.00     0.000 C 
BRANCH   3   4
ATOM      4  C   UNL     1      98.693 -66.118   1.982  1.00  0.00     0.000 C 
BRANCH   4   5
ATOM      5  C   UNL     1      98.213 -65.706   0.579  1.00  0.00     0.001 C 
BRANCH   5   6
ATOM      6  C   UNL     1      98.896 -66.528  -0.535  1.00  0.00     0.009 C 
BRANCH   6   7
ATOM      7  C   UNL     1      99.607 -67.799  -0.018  1.00  0.00     0.032 C 
ATOM      8  C   UNL     1     101.062 -67.895  -0.493  1.00  0.00     0.014 C 
BRANCH   7   9
ATOM      9  C   UNL     1      98.849 -69.020  -0.464  1.00  0.00     0.044 C 
ATOM     10  O   UNL     1      98.379 -69.083  -1.630  1.00  0.00    -0.550 OA
ATOM     11  O   UNL     1      98.666 -70.089   0.407  1.00  0.00    -0.550 OA
ENDBRANCH   7   9
ENDBRANCH   6   7
ENDBRANCH   5   6
ENDBRANCH   4   5
ENDBRANCH   3   4
ENDBRANCH   2   3
ENDBRANCH   1   2
BRANCH   1  12
ATOM     12  C   UNL     1      99.556 -68.769   4.821  1.00  0.00     0.000 C 
BRANCH  12  13
ATOM     13  C   UNL     1     100.304 -67.528   5.336  1.00  0.00    -0.000 C 
BRANCH  13  14
ATOM     14  C   UNL     1     101.434 -67.887   6.316  1.00  0.00    -0.000 C 
BRANCH  14  15
ATOM     15  C   UNL     1     100.992 -68.917   7.370  1.00  0.00    -0.000 C 
BRANCH  15  16
ATOM     16  C   UNL     1     101.098 -68.382   8.810  1.00  0.00    -0.000 C 
BRANCH  16  17
ATOM     17  C   UNL     1     100.733 -66.897   8.984  1.00  0.00    -0.000 C 
BRANCH  17  18
ATOM     18  C   UNL     1     100.249 -66.561  10.402  1.00  0.00    -0.003 C 
ATOM     19  C   UNL     1     100.039 -67.828  11.226  1.00  0.00     0.004 C 
ENDBRANCH  17  18
ENDBRANCH  16  17
ENDBRANCH  15  16
ENDBRANCH  14  15
ENDBRANCH  13  14
ENDBRANCH  12  13
ENDBRANCH   1  12
TORSDOF 14
ENDMDL
MODEL 3
REMARK VINA RESULT:    -4.059      1.094      1.638
REMARK INTER + INTRA:          -8.646
REMARK INTER:                  -6.833
REMARK INTRA:                  -1.813
REMARK UNBOUND:                -1.265
REMARK SMILES CCCCCCCCCCCCCC[C@H](C)C(=O)[O-]
REMARK SMILES IDX 9 1 10 2 11 3 12 4 13 5 14 6 15 7 16 8 17 9 18 10 19 11 8 12
REMARK SMILES IDX 7 13 6 14 5 15 4 16 3 17 2 18 1 19
REMARK H PARENT
REMARK Flexibility Score: inf
ROOT
ATOM      1  C   UNL     1      97.582 -67.616   3.595  1.00  0.00     0.000 C 
ENDROOT
BRANCH   1   2
ATOM      2  C   UNL     1      97.596 -66.074   3.637  1.00  0.00     0.000 C 
BRANCH   2   3
ATOM      3  C   UNL     1      97.923 -65.385   2.298  1.00  0.00     0.000 C 
BRANCH   3   4
ATOM      4  C   UNL     1      99.406 -65.024   2.100  1.00  0.00     0.000 C 
BRANCH   4   5
ATOM      5  C   UNL     1      99.922 -65.375   0.693  1.00  0.00     0.001 C 
BRANCH   5   6
ATOM      6  C   UNL     1     100.079 -66.898   0.493  1.00  0.00     0.009 C 
BRANCH   6   7
ATOM      7  C   UNL     1      99.404 -67.425  -0.794  1.00  0.00     0.032 C 
ATOM      8  C   UNL     1      98.269 -66.516  -1.279  1.00  0.00     0.014 C 
BRANCH   7   9
ATOM      9  C   UNL     1      98.873 -68.812  -0.555  1.00  0.00     0.044 C 
ATOM     10  O   UNL     1      99.180 -69.436   0.495  1.00  0.00    -0.550 OA
ATOM     11  O   UNL     1      98.035 -69.414  -1.488  1.00  0.00    -0.550 OA
ENDBRANCH   7   9
ENDBRANCH   6   7
ENDBRANCH   5   6
ENDBRANCH   4   5
ENDBRANCH   3   4
ENDBRANCH   2   3
ENDBRANCH   1   2
BRANCH   1  12
ATOM     12  C   UNL     1      98.675 -68.301   4.435  1.00  0.00     0.000 C 
BRANCH  12  13
ATOM     13  C   UNL     1     100.057 -68.262   3.760  1.00  0.00    -0.000 C 
BRANCH  13  14
ATOM     14  C   UNL     1     101.151 -67.713   4.690  1.00  0.00    -0.000 C 
BRANCH  14  15
ATOM     15  C   UNL     1     100.580 -66.829   5.812  1.00  0.00    -0.000 C 
BRANCH  15  16
ATOM     16  C   UNL     1     101.212 -67.122   7.185  1.00  0.00    -0.000 C 
BRANCH  16  17
ATOM     17  C   UNL     1     101.050 -68.569   7.684  1.00  0.00    -0.000 C 
BRANCH  17  18
ATOM     18  C   UNL     1     100.771 -68.655   9.191  1.00  0.00    -0.003 C 
ATOM     19  C   UNL     1     100.511 -67.272   9.782  1.00  0.00     0.004 C 
ENDBRANCH  17  18
ENDBRANCH  16  17
ENDBRANCH  15  16
ENDBRANCH  14  15
ENDBRANCH  13  14
ENDBRANCH  12  13
ENDBRANCH   1  12
TORSDOF 14
ENDMDL
MODEL 4
REMARK VINA RESULT:    -4.055      1.390      2.131
REMARK INTER + INTRA:          -8.638
REMARK INTER:                  -7.354
REMARK INTRA:                  -1.284
REMARK UNBOUND:                -1.265
REMARK SMILES CCCCCCCCCCCCCC[C@H](C)C(=O)[O-]
REMARK SMILES IDX 9 1 10 2 11 3 12 4 13 5 14 6 15 7 16 8 17 9 18 10 19 11 8 12
REMARK SMILES IDX 7 13 6 14 5 15 4 16 3 17 2 18 1 19
REMARK H PARENT
REMARK Flexibility Score: inf
ROOT
ATOM      1  C   UNL     1      99.335 -67.385   4.663  1.00  0.00     0.000 C 
ENDROOT
BRANCH   1   2
ATOM      2  C   UNL     1     100.217 -66.564   3.701  1.00  0.00     0.000 C 
BRANCH   2   3
ATOM      3  C   UNL     1     100.893 -67.376   2.578  1.00  0.00     0.000 C 
BRANCH   3   4
ATOM      4  C   UNL     1     101.726 -66.544   1.588  1.00  0.00     0.000 C 
BRANCH   4   5
ATOM      5  C   UNL     1     100.937 -66.156   0.324  1.00  0.00     0.001 C 
BRANCH   5   6
ATOM      6  C   UNL     1      99.524 -66.778   0.305  1.00  0.00     0.009 C 
BRANCH   6   7
ATOM      7  C   UNL     1      99.179 -67.491  -1.022  1.00  0.00     0.032 C 
ATOM      8  C   UNL     1      98.108 -66.748  -1.829  1.00  0.00     0.014 C 
BRANCH   7   9
ATOM      9  C   UNL     1      98.715 -68.893  -0.737  1.00  0.00     0.044 C 
ATOM     10  O   UNL     1      97.937 -69.478  -1.537  1.00  0.00    -0.550 OA
ATOM     11  O   UNL     1      99.144 -69.555   0.408  1.00  0.00    -0.550 OA
ENDBRANCH   7   9
ENDBRANCH   6   7
ENDBRANCH   5   6
ENDBRANCH   4   5
ENDBRANCH   3   4
ENDBRANCH   2   3
ENDBRANCH   1   2
BRANCH   1  12
ATOM     12  C   UNL     1      99.357 -68.907   4.432  1.00  0.00     0.000 C 
BRANCH  12  13
ATOM     13  C   UNL     1     100.046 -69.671   5.576  1.00  0.00    -0.000 C 
BRANCH  13  14
ATOM     14  C   UNL     1     101.574 -69.501   5.561  1.00  0.00    -0.000 C 
BRANCH  14  15
ATOM     15  C   UNL     1     102.123 -69.004   6.909  1.00  0.00    -0.000 C 
BRANCH  15  16
ATOM     16  C   UNL     1     101.016 -68.743   7.947  1.00  0.00    -0.000 C 
BRANCH  16  17
ATOM     17  C   UNL     1     100.927 -67.293   8.457  1.00  0.00    -0.000 C 
BRANCH  17  18
ATOM     18  C   UNL     1     100.413 -67.196   9.900  1.00  0.00    -0.003 C 
ATOM     19  C   UNL     1     100.469 -68.553  10.596  1.00  0.00     0.004 C 
ENDBRANCH  17  18
ENDBRANCH  16  17
ENDBRANCH  15  16
ENDBRANCH  14  15
ENDBRANCH  13  14
ENDBRANCH  12  13
ENDBRANCH   1  12
TORSDOF 14
ENDMDL
MODEL 5
REMARK VINA RESULT:    -4.053      1.812      2.477
REMARK INTER + INTRA:          -8.635
REMARK INTER:                  -7.446
REMARK INTRA:                  -1.190
REMARK UNBOUND:                -1.265
REMARK SMILES CCCCCCCCCCCCCC[C@H](C)C(=O)[O-]
REMARK SMILES IDX 9 1 10 2 11 3 12 4 13 5 14 6 15 7 16 8 17 9 18 10 19 11 8 12
REMARK SMILES IDX 7 13 6 14 5 15 4 16 3 17 2 18 1 19
REMARK H PARENT
REMARK Flexibility Score: inf
ROOT
ATOM      1  C   UNL     1      98.466 -68.249   2.707  1.00  0.00     0.000 C 
ENDROOT
BRANCH   1   2
ATOM      2  C   UNL     1      99.730 -67.804   1.943  1.00  0.00     0.000 C 
BRANCH   2   3
ATOM      3  C   UNL     1      99.649 -66.405   1.301  1.00  0.00     0.000 C 
BRANCH   3   4
ATOM      4  C   UNL     1      98.221 -65.878   1.072  1.00  0.00     0.000 C 
BRANCH   4   5
ATOM      5  C   UNL     1      98.019 -65.295  -0.338  1.00  0.00     0.001 C 
BRANCH   5   6
ATOM      6  C   UNL     1      98.766 -66.108  -1.417  1.00  0.00     0.009 C 
BRANCH   6   7
ATOM      7  C   UNL     1      97.976 -67.337  -1.922  1.00  0.00     0.032 C 
ATOM      8  C   UNL     1      98.709 -68.658  -1.654  1.00  0.00     0.014 C 
BRANCH   7   9
ATOM      9  C   UNL     1      97.710 -67.198  -3.396  1.00  0.00     0.044 C 
ATOM     10  O   UNL     1      98.276 -67.966  -4.217  1.00  0.00    -0.550 OA
ATOM     11  O   UNL     1      96.834 -66.223  -3.861  1.00  0.00    -0.550 OA
ENDBRANCH   7   9
ENDBRANCH   6   7
ENDBRANCH   5   6
ENDBRANCH   4   5
ENDBRANCH   3   4
ENDBRANCH   2   3
ENDBRANCH   1   2
BRANCH   1  12
ATOM     12  C   UNL     1      98.654 -68.443   4.223  1.00  0.00     0.000 C 
BRANCH  12  13
ATOM     13  C   UNL     1     100.128 -68.630   4.620  1.00  0.00    -0.000 C 
BRANCH  13  14
ATOM     14  C   UNL     1     100.324 -69.761   5.642  1.00  0.00    -0.000 C 
BRANCH  14  15
ATOM     15  C   UNL     1     101.144 -69.314   6.864  1.00  0.00    -0.000 C 
BRANCH  15  16
ATOM     16  C   UNL     1     100.901 -67.841   7.242  1.00  0.00    -0.000 C 
BRANCH  16  17
ATOM     17  C   UNL     1     101.238 -67.476   8.699  1.00  0.00    -0.000 C 
BRANCH  17  18
ATOM     18  C   UNL     1     100.918 -68.605   9.688  1.00  0.00    -0.003 C 
ATOM     19  C   UNL     1     100.187 -68.069  10.916  1.00  0.00     0.004 C 
ENDBRANCH  17  18
ENDBRANCH  16  17
ENDBRANCH  15  16
ENDBRANCH  14  15
ENDBRANCH  13  14
ENDBRANCH  12  13
ENDBRANCH   1  12
TORSDOF 14
ENDMDL
MODEL 6
REMARK VINA RESULT:    -4.029      1.385      1.677
REMARK INTER + INTRA:          -8.592
REMARK INTER:                  -6.717
REMARK INTRA:                  -1.875
REMARK UNBOUND:                -1.265
REMARK SMILES CCCCCCCCCCCCCC[C@H](C)C(=O)[O-]
REMARK SMILES IDX 9 1 10 2 11 3 12 4 13 5 14 6 15 7 16 8 17 9 18 10 19 11 8 12
REMARK SMILES IDX 7 13 6 14 5 15 4 16 3 17 2 18 1 19
REMARK H PARENT
REMARK Flexibility Score: inf
ROOT
ATOM      1  C   UNL     1      98.349 -68.447   3.624  1.00  0.00     0.000 C 
ENDROOT
BRANCH   1   2
ATOM      2  C   UNL     1      97.650 -67.081   3.782  1.00  0.00     0.000 C 
BRANCH   2   3
ATOM      3  C   UNL     1      98.467 -65.867   3.296  1.00  0.00     0.000 C 
BRANCH   3   4
ATOM      4  C   UNL     1      98.719 -65.821   1.778  1.00  0.00     0.000 C 
BRANCH   4   5
ATOM      5  C   UNL     1     100.180 -66.131   1.407  1.00  0.00     0.001 C 
BRANCH   5   6
ATOM      6  C   UNL     1     100.291 -67.302   0.407  1.00  0.00     0.009 C 
BRANCH   6   7
ATOM      7  C   UNL     1      98.924 -67.825  -0.087  1.00  0.00     0.032 C 
ATOM      8  C   UNL     1      98.788 -69.346   0.055  1.00  0.00     0.014 C 
BRANCH   7   9
ATOM      9  C   UNL     1      98.721 -67.433  -1.526  1.00  0.00     0.044 C 
ATOM     10  O   UNL     1      97.648 -66.883  -1.887  1.00  0.00    -0.550 OA
ATOM     11  O   UNL     1      99.719 -67.672  -2.465  1.00  0.00    -0.550 OA
ENDBRANCH   7   9
ENDBRANCH   6   7
ENDBRANCH   5   6
ENDBRANCH   4   5
ENDBRANCH   3   4
ENDBRANCH   2   3
ENDBRANCH   1   2
BRANCH   1  12
ATOM     12  C   UNL     1      99.411 -68.764   4.694  1.00  0.00     0.000 C 
BRANCH  12  13
ATOM     13  C   UNL     1     100.845 -68.506   4.202  1.00  0.00    -0.000 C 
BRANCH  13  14
ATOM     14  C   UNL     1     101.724 -67.844   5.276  1.00  0.00    -0.000 C 
BRANCH  14  15
ATOM     15  C   UNL     1     100.895 -67.215   6.408  1.00  0.00    -0.000 C 
BRANCH  15  16
ATOM     16  C   UNL     1     101.489 -67.482   7.804  1.00  0.00    -0.000 C 
BRANCH  16  17
ATOM     17  C   UNL     1     100.910 -68.705   8.537  1.00  0.00    -0.000 C 
BRANCH  17  18
ATOM     18  C   UNL     1     100.643 -68.442  10.026  1.00  0.00    -0.003 C 
ATOM     19  C   UNL     1     100.201 -67.000  10.258  1.00  0.00     0.004 C 
ENDBRANCH  17  18
ENDBRANCH  16  17
ENDBRANCH  15  16
ENDBRANCH  14  15
ENDBRANCH  13  14
ENDBRANCH  12  13
ENDBRANCH   1  12
TORSDOF 14
ENDMDL
MODEL 7
REMARK VINA RESULT:    -3.985      3.982      8.313
REMARK INTER + INTRA:          -8.511
REMARK INTER:                  -7.185
REMARK INTRA:                  -1.326
REMARK UNBOUND:                -1.265
REMARK SMILES CCCCCCCCCCCCCC[C@H](C)C(=O)[O-]
REMARK SMILES IDX 9 1 10 2 11 3 12 4 13 5 14 6 15 7 16 8 17 9 18 10 19 11 8 12
REMARK SMILES IDX 7 13 6 14 5 15 4 16 3 17 2 18 1 19
REMARK H PARENT
REMARK Flexibility Score: inf
ROOT
ATOM      1  C   UNL     1      99.262 -68.613   3.806  1.00  0.00     0.000 C 
ENDROOT
BRANCH   1   2
ATOM      2  C   UNL     1      99.512 -68.918   5.296  1.00  0.00     0.000 C 
BRANCH   2   3
ATOM      3  C   UNL     1     100.440 -70.117   5.573  1.00  0.00     0.000 C 
BRANCH   3   4
ATOM      4  C   UNL     1     101.879 -69.745   5.972  1.00  0.00     0.000 C 
BRANCH   4   5
ATOM      5  C   UNL     1     101.944 -68.509   6.887  1.00  0.00     0.001 C 
BRANCH   5   6
ATOM      6  C   UNL     1     101.831 -68.883   8.381  1.00  0.00     0.009 C 
BRANCH   6   7
ATOM      7  C   UNL     1     100.645 -68.203   9.101  1.00  0.00     0.032 C 
ATOM      8  C   UNL     1     100.682 -66.674   8.980  1.00  0.00     0.014 C 
BRANCH   7   9
ATOM      9  C   UNL     1     100.643 -68.594  10.554  1.00  0.00     0.044 C 
ATOM     10  O   UNL     1      99.941 -67.955  11.381  1.00  0.00    -0.550 OA
ATOM     11  O   UNL     1     101.413 -69.666  10.992  1.00  0.00    -0.550 OA
ENDBRANCH   7   9
ENDBRANCH   6   7
ENDBRANCH   5   6
ENDBRANCH   4   5
ENDBRANCH   3   4
ENDBRANCH   2   3
ENDBRANCH   1   2
BRANCH   1  12
ATOM     12  C   UNL     1      97.939 -67.886   3.501  1.00  0.00     0.000 C 
BRANCH  12  13
ATOM     13  C   UNL     1      98.032 -66.366   3.721  1.00  0.00    -0.000 C 
BRANCH  13  14
ATOM     14  C   UNL     1      98.864 -65.665   2.634  1.00  0.00    -0.000 C 
BRANCH  14  15
ATOM     15  C   UNL     1      98.678 -66.304   1.247  1.00  0.00    -0.000 C 
BRANCH  15  16
ATOM     16  C   UNL     1     100.012 -66.576   0.529  1.00  0.00    -0.000 C 
BRANCH  16  17
ATOM     17  C   UNL     1     100.179 -68.004  -0.019  1.00  0.00    -0.000 C 
BRANCH  17  18
ATOM     18  C   UNL     1      98.888 -68.567  -0.630  1.00  0.00    -0.003 C 
ATOM     19  C   UNL     1      98.417 -69.806   0.125  1.00  0.00     0.004 C 
ENDBRANCH  17  18
ENDBRANCH  16  17
ENDBRANCH  15  16
ENDBRANCH  14  15
ENDBRANCH  13  14
ENDBRANCH  12  13
ENDBRANCH   1  12
TORSDOF 14
ENDMDL
MODEL 8
REMARK VINA RESULT:    -3.976      3.877      8.197
REMARK INTER + INTRA:          -8.496
REMARK INTER:                  -6.750
REMARK INTRA:                  -1.746
REMARK UNBOUND:                -1.265
REMARK SMILES CCCCCCCCCCCCCC[C@H](C)C(=O)[O-]
REMARK SMILES IDX 9 1 10 2 11 3 12 4 13 5 14 6 15 7 16 8 17 9 18 10 19 11 8 12
REMARK SMILES IDX 7 13 6 14 5 15 4 16 3 17 2 18 1 19
REMARK H PARENT
REMARK Flexibility Score: inf
ROOT
ATOM      1  C   UNL     1     100.069 -68.616   4.641  1.00  0.00     0.000 C 
ENDROOT
BRANCH   1   2
ATOM      2  C   UNL     1     100.120 -69.539   5.875  1.00  0.00     0.000 C 
BRANCH   2   3
ATOM      3  C   UNL     1     100.995 -69.032   7.038  1.00  0.00     0.000 C 
BRANCH   3   4
ATOM      4  C   UNL     1     101.578 -67.621   6.843  1.00  0.00     0.000 C 
BRANCH   4   5
ATOM      5  C   UNL     1     100.798 -66.541   7.614  1.00  0.00     0.001 C 
BRANCH   5   6
ATOM      6  C   UNL     1     101.275 -66.410   9.076  1.00  0.00     0.009 C 
BRANCH   6   7
ATOM      7  C   UNL     1     100.224 -66.866  10.113  1.00  0.00     0.032 C 
ATOM      8  C   UNL     1      99.891 -65.773  11.136  1.00  0.00     0.014 C 
BRANCH   7   9
ATOM      9  C   UNL     1     100.718 -68.093  10.829  1.00  0.00     0.044 C 
ATOM     10  O   UNL     1     100.038 -69.152  10.816  1.00  0.00    -0.550 OA
ATOM     11  O   UNL     1     101.932 -68.068  11.507  1.00  0.00    -0.550 OA
ENDBRANCH   7   9
ENDBRANCH   6   7
ENDBRANCH   5   6
ENDBRANCH   4   5
ENDBRANCH   3   4
ENDBRANCH   2   3
ENDBRANCH   1   2
BRANCH   1  12
ATOM     12  C   UNL     1      98.715 -68.579   3.909  1.00  0.00     0.000 C 
BRANCH  12  13
ATOM     13  C   UNL     1      98.076 -67.180   3.913  1.00  0.00    -0.000 C 
BRANCH  13  14
ATOM     14  C   UNL     1      99.061 -66.084   4.352  1.00  0.00    -0.000 C 
BRANCH  14  15
ATOM     15  C   UNL     1      99.296 -65.031   3.255  1.00  0.00    -0.000 C 
BRANCH  15  16
ATOM     16  C   UNL     1     100.472 -65.386   2.326  1.00  0.00    -0.000 C 
BRANCH  16  17
ATOM     17  C   UNL     1     100.080 -66.102   1.021  1.00  0.00    -0.000 C 
BRANCH  17  18
ATOM     18  C   UNL     1     100.530 -67.569   0.984  1.00  0.00    -0.003 C 
ATOM     19  C   UNL     1      99.638 -68.394   0.061  1.00  0.00     0.004 C 
ENDBRANCH  17  18
ENDBRANCH  16  17
ENDBRANCH  15  16
ENDBRANCH  14  15
ENDBRANCH  13  14
ENDBRANCH  12  13
ENDBRANCH   1  12
TORSDOF 14
ENDMDL
MODEL 9
REMARK VINA RESULT:    -3.865      4.324      9.376
REMARK INTER + INTRA:          -8.294
REMARK INTER:                  -7.374
REMARK INTRA:                  -0.920
REMARK UNBOUND:                -1.265
REMARK SMILES CCCCCCCCCCCCCC[C@H](C)C(=O)[O-]
REMARK SMILES IDX 9 1 10 2 11 3 12 4 13 5 14 6 15 7 16 8 17 9 18 10 19 11 8 12
REMARK SMILES IDX 7 13 6 14 5 15 4 16 3 17 2 18 1 19
REMARK H PARENT
REMARK Flexibility Score: inf
ROOT
ATOM      1  C   UNL     1      99.121 -68.999   4.663  1.00  0.00     0.000 C 
ENDROOT
BRANCH   1   2
ATOM      2  C   UNL     1     100.550 -68.704   5.164  1.00  0.00     0.000 C 
BRANCH   2   3
ATOM      3  C   UNL     1     100.716 -68.687   6.696  1.00  0.00     0.000 C 
BRANCH   3   4
ATOM      4  C   UNL     1     101.021 -67.304   7.299  1.00  0.00     0.000 C 
BRANCH   4   5
ATOM      5  C   UNL     1     101.317 -67.364   8.808  1.00  0.00     0.001 C 
BRANCH   5   6
ATOM      6  C   UNL     1     100.663 -68.589   9.483  1.00  0.00     0.009 C 
BRANCH   6   7
ATOM      7  C   UNL     1     100.273 -68.348  10.959  1.00  0.00     0.032 C 
ATOM      8  C   UNL     1      99.911 -66.884  11.240  1.00  0.00     0.014 C 
BRANCH   7   9
ATOM      9  C   UNL     1     101.404 -68.769  11.857  1.00  0.00     0.044 C 
ATOM     10  O   UNL     1     101.749 -69.979  11.915  1.00  0.00    -0.550 OA
ATOM     11  O   UNL     1     102.079 -67.827  12.624  1.00  0.00    -0.550 OA
ENDBRANCH   7   9
ENDBRANCH   6   7
ENDBRANCH   5   6
ENDBRANCH   4   5
ENDBRANCH   3   4
ENDBRANCH   2   3
ENDBRANCH   1   2
BRANCH   1  12
ATOM     12  C   UNL     1      98.397 -67.803   4.017  1.00  0.00     0.000 C 
BRANCH  12  13
ATOM     13  C   UNL     1      99.365 -66.811   3.351  1.00  0.00    -0.000 C 
BRANCH  13  14
ATOM     14  C   UNL     1      99.284 -66.850   1.815  1.00  0.00    -0.000 C 
BRANCH  14  15
ATOM     15  C   UNL     1      99.912 -68.125   1.226  1.00  0.00    -0.000 C 
BRANCH  15  16
ATOM     16  C   UNL     1      99.090 -68.716   0.066  1.00  0.00    -0.000 C 
BRANCH  16  17
ATOM     17  C   UNL     1      99.258 -68.000  -1.285  1.00  0.00    -0.000 C 
BRANCH  17  18
ATOM     18  C   UNL     1      97.971 -67.989  -2.122  1.00  0.00    -0.003 C 
ATOM     19  C   UNL     1      98.269 -67.676  -3.586  1.00  0.00     0.004 C 
ENDBRANCH  17  18
ENDBRANCH  16  17
ENDBRANCH  15  16
ENDBRANCH  14  15
ENDBRANCH  13  14
ENDBRANCH  12  13
ENDBRANCH   1  12
TORSDOF 14
ENDMDL
