MODEL 1
REMARK VINA RESULT:    -3.012      0.000      0.000
REMARK INTER + INTRA:          -3.375
REMARK INTER:                  -3.364
REMARK INTRA:                  -0.011
REMARK UNBOUND:                -0.011
REMARK SMILES CCCC(=O)[O-]
REMARK SMILES IDX 3 1 4 2 5 3 6 4 2 5 1 6
REMARK H PARENT
REMARK Flexibility Score: inf
ROOT
ATOM      1  C   UNL     1      -7.898 -14.627  15.966  1.00  0.00     0.052 C 
ENDROOT
BRANCH   1   2
ATOM      2  C   UNL     1      -7.670 -13.443  16.851  1.00  0.00     0.041 C 
ATOM      3  O   UNL     1      -8.287 -12.366  16.640  1.00  0.00    -0.550 OA
ATOM      4  O   UNL     1      -6.812 -13.543  17.939  1.00  0.00    -0.550 OA
ENDBRANCH   1   2
BRANCH   1   5
ATOM      5  C   UNL     1      -7.570 -14.279  14.511  1.00  0.00     0.003 C 
ATOM      6  C   UNL     1      -8.226 -15.265  13.548  1.00  0.00     0.004 C 
ENDBRANCH   1   5
TORSDOF 2
ENDMDL
MODEL 2
REMARK VINA RESULT:    -3.012      0.225      1.340
REMARK INTER + INTRA:          -3.375
REMARK INTER:                  -3.355
REMARK INTRA:                  -0.020
REMARK UNBOUND:                -0.011
REMARK SMILES CCCC(=O)[O-]
REMARK SMILES IDX 3 1 4 2 5 3 6 4 2 5 1 6
REMARK H PARENT
REMARK Flexibility Score: inf
ROOT
ATOM      1  C   UNL     1      -7.921 -14.727  16.114  1.00  0.00     0.052 C 
ENDROOT
BRANCH   1   2
ATOM      2  C   UNL     1      -7.696 -13.485  16.916  1.00  0.00     0.041 C 
ATOM      3  O   UNL     1      -6.820 -13.463  17.819  1.00  0.00    -0.550 OA
ATOM      4  O   UNL     1      -8.422 -12.334  16.633  1.00  0.00    -0.550 OA
ENDBRANCH   1   2
BRANCH   1   5
ATOM      5  C   UNL     1      -7.534 -14.497  14.650  1.00  0.00     0.003 C 
ATOM      6  C   UNL     1      -8.558 -15.119  13.706  1.00  0.00     0.004 C 
ENDBRANCH   1   5
TORSDOF 2
ENDMDL
MODEL 3
REMARK VINA RESULT:    -2.958     15.375     16.366
REMARK INTER + INTRA:          -3.315
REMARK INTER:                  -3.301
REMARK INTRA:                  -0.014
REMARK UNBOUND:                -0.011
REMARK SMILES CCCC(=O)[O-]
REMARK SMILES IDX 3 1 4 2 5 3 6 4 2 5 1 6
REMARK H PARENT
REMARK Flexibility Score: inf
ROOT
ATOM      1  C   UNL     1     -11.295  -8.082  31.130  1.00  0.00     0.052 C 
ENDROOT
BRANCH   1   2
ATOM      2  C   UNL     1     -11.597  -9.280  30.286  1.00  0.00     0.041 C 
ATOM      3  O   UNL     1     -11.634  -9.178  29.032  1.00  0.00    -0.550 OA
ATOM      4  O   UNL     1     -11.789 -10.520  30.882  1.00  0.00    -0.550 OA
ENDBRANCH   1   2
BRANCH   1   5
ATOM      5  C   UNL     1     -11.323  -6.808  30.280  1.00  0.00     0.003 C 
ATOM      6  C   UNL     1     -11.667  -5.588  31.130  1.00  0.00     0.004 C 
ENDBRANCH   1   5
TORSDOF 2
ENDMDL
MODEL 4
REMARK VINA RESULT:    -2.926      1.136      1.847
REMARK INTER + INTRA:          -3.279
REMARK INTER:                  -3.248
REMARK INTRA:                  -0.031
REMARK UNBOUND:                -0.011
REMARK SMILES CCCC(=O)[O-]
REMARK SMILES IDX 3 1 4 2 5 3 6 4 2 5 1 6
REMARK H PARENT
REMARK Flexibility Score: inf
ROOT
ATOM      1  C   UNL     1      -7.960 -14.478  15.478  1.00  0.00     0.052 C 
ENDROOT
BRANCH   1   2
ATOM      2  C   UNL     1      -8.365 -13.047  15.640  1.00  0.00     0.041 C 
ATOM      3  O   UNL     1      -7.989 -12.392  16.648  1.00  0.00    -0.550 OA
ATOM      4  O   UNL     1      -9.118 -12.421  14.654  1.00  0.00    -0.550 OA
ENDBRANCH   1   2
BRANCH   1   5
ATOM      5  C   UNL     1      -7.439 -14.729  14.061  1.00  0.00     0.003 C 
ATOM      6  C   UNL     1      -8.427 -15.564  13.251  1.00  0.00     0.004 C 
ENDBRANCH   1   5
TORSDOF 2
ENDMDL
MODEL 5
REMARK VINA RESULT:    -2.760     14.701     15.768
REMARK INTER + INTRA:          -3.094
REMARK INTER:                  -3.081
REMARK INTRA:                  -0.013
REMARK UNBOUND:                -0.011
REMARK SMILES CCCC(=O)[O-]
REMARK SMILES IDX 3 1 4 2 5 3 6 4 2 5 1 6
REMARK H PARENT
REMARK Flexibility Score: inf
ROOT
ATOM      1  C   UNL     1     -11.250  -7.274  29.147  1.00  0.00     0.052 C 
ENDROOT
BRANCH   1   2
ATOM      2  C   UNL     1     -11.408  -7.037  30.616  1.00  0.00     0.041 C 
ATOM      3  O   UNL     1     -11.301  -7.993  31.428  1.00  0.00    -0.550 OA
ATOM      4  O   UNL     1     -11.626  -5.750  31.092  1.00  0.00    -0.550 OA
ENDBRANCH   1   2
BRANCH   1   5
ATOM      5  C   UNL     1     -11.632  -8.715  28.794  1.00  0.00     0.003 C 
ATOM      6  C   UNL     1     -12.373  -8.777  27.462  1.00  0.00     0.004 C 
ENDBRANCH   1   5
TORSDOF 2
ENDMDL
MODEL 6
REMARK VINA RESULT:    -2.758      1.961      2.904
REMARK INTER + INTRA:          -3.091
REMARK INTER:                  -3.024
REMARK INTRA:                  -0.067
REMARK UNBOUND:                -0.011
REMARK SMILES CCCC(=O)[O-]
REMARK SMILES IDX 3 1 4 2 5 3 6 4 2 5 1 6
REMARK H PARENT
REMARK Flexibility Score: inf
ROOT
ATOM      1  C   UNL     1      -8.880 -14.666  15.914  1.00  0.00     0.052 C 
ENDROOT
BRANCH   1   2
ATOM      2  C   UNL     1      -8.097 -13.787  14.991  1.00  0.00     0.041 C 
ATOM      3  O   UNL     1      -8.320 -12.549  14.953  1.00  0.00    -0.550 OA
ATOM      4  O   UNL     1      -7.086 -14.329  14.207  1.00  0.00    -0.550 OA
ENDBRANCH   1   2
BRANCH   1   5
ATOM      5  C   UNL     1      -7.958 -15.307  16.954  1.00  0.00     0.003 C 
ATOM      6  C   UNL     1      -7.495 -14.282  17.986  1.00  0.00     0.004 C 
ENDBRANCH   1   5
TORSDOF 2
ENDMDL
MODEL 7
REMARK VINA RESULT:    -2.745      9.233     10.623
REMARK INTER + INTRA:          -3.077
REMARK INTER:                  -3.029
REMARK INTRA:                  -0.049
REMARK UNBOUND:                -0.011
REMARK SMILES CCCC(=O)[O-]
REMARK SMILES IDX 3 1 4 2 5 3 6 4 2 5 1 6
REMARK H PARENT
REMARK Flexibility Score: inf
ROOT
ATOM      1  C   UNL     1      -3.964 -15.400  25.663  1.00  0.00     0.052 C 
ENDROOT
BRANCH   1   2
ATOM      2  C   UNL     1      -3.787 -15.007  24.230  1.00  0.00     0.041 C 
ATOM      3  O   UNL     1      -4.324 -15.686  23.316  1.00  0.00    -0.550 OA
ATOM      4  O   UNL     1      -3.069 -13.862  23.907  1.00  0.00    -0.550 OA
ENDBRANCH   1   2
BRANCH   1   5
ATOM      5  C   UNL     1      -2.651 -15.225  26.432  1.00  0.00     0.003 C 
ATOM      6  C   UNL     1      -1.794 -16.485  26.352  1.00  0.00     0.004 C 
ENDBRANCH   1   5
TORSDOF 2
ENDMDL
MODEL 8
REMARK VINA RESULT:    -2.718      2.413      3.264
REMARK INTER + INTRA:          -3.047
REMARK INTER:                  -3.009
REMARK INTRA:                  -0.038
REMARK UNBOUND:                -0.011
REMARK SMILES CCCC(=O)[O-]
REMARK SMILES IDX 3 1 4 2 5 3 6 4 2 5 1 6
REMARK H PARENT
REMARK Flexibility Score: inf
ROOT
ATOM      1  C   UNL     1      -8.667 -12.715  16.721  1.00  0.00     0.052 C 
ENDROOT
BRANCH   1   2
ATOM      2  C   UNL     1      -8.709 -12.734  15.226  1.00  0.00     0.041 C 
ATOM      3  O   UNL     1      -7.822 -13.346  14.575  1.00  0.00    -0.550 OA
ATOM      4  O   UNL     1      -9.755 -12.117  14.553  1.00  0.00    -0.550 OA
ENDBRANCH   1   2
BRANCH   1   5
ATOM      5  C   UNL     1      -7.412 -13.430  17.230  1.00  0.00     0.003 C 
ATOM      6  C   UNL     1      -7.764 -14.770  17.870  1.00  0.00     0.004 C 
ENDBRANCH   1   5
TORSDOF 2
ENDMDL
MODEL 9
REMARK VINA RESULT:    -2.621     17.955     18.397
REMARK INTER + INTRA:          -2.939
REMARK INTER:                  -2.913
REMARK INTRA:                  -0.026
REMARK UNBOUND:                -0.011
REMARK SMILES CCCC(=O)[O-]
REMARK SMILES IDX 3 1 4 2 5 3 6 4 2 5 1 6
REMARK H PARENT
REMARK Flexibility Score: inf
ROOT
ATOM      1  C   UNL     1       2.582 -10.721  31.615  1.00  0.00     0.052 C 
ENDROOT
BRANCH   1   2
ATOM      2  C   UNL     1       1.532  -9.688  31.355  1.00  0.00     0.041 C 
ATOM      3  O   UNL     1       0.313  -9.974  31.492  1.00  0.00    -0.550 OA
ATOM      4  O   UNL     1       1.901  -8.394  31.008  1.00  0.00    -0.550 OA
ENDBRANCH   1   2
BRANCH   1   5
ATOM      5  C   UNL     1       2.932 -11.466  30.324  1.00  0.00     0.003 C 
ATOM      6  C   UNL     1       2.659 -12.961  30.459  1.00  0.00     0.004 C 
ENDBRANCH   1   5
TORSDOF 2
ENDMDL
