MODEL 1
REMARK VINA RESULT:     6.315      0.000      0.000
REMARK INTER + INTRA:           9.634
REMARK INTER:                   8.714
REMARK INTRA:                   0.919
REMARK UNBOUND:                 0.919
REMARK SMILES C=C(CC[C@H](C(=O)[O-])[C@@H]1CC[C@@]2(C)C3=C(CC[C@]12C)[C@]1(C)CC[C@@H](O)C(C)(C)[C@@H]1CC3)C(C)C
REMARK SMILES IDX 4 1 5 2 6 3 7 4 8 5 9 6 10 7 18 8 11 9 12 10 17 11 19 12
REMARK SMILES IDX 13 13 14 14 16 15 15 16 31 17 20 18 30 19 29 20 22 21 21 22
REMARK SMILES IDX 26 23 23 24 24 25 27 26 28 27 25 28 3 30 2 31 1 32 32 33
REMARK SMILES IDX 33 34 34 35
REMARK H PARENT 25 29
REMARK Flexibility Score: inf
ROOT
ATOM      1  C   UNL     1      -1.475  13.893  44.713  1.00  0.00     0.014 C 
ENDROOT
BRANCH   1   2
ATOM      2  C   UNL     1      -1.814  12.408  45.025  1.00  0.00     0.039 C 
BRANCH   2   3
ATOM      3  C   UNL     1      -2.730  12.342  46.225  1.00  0.00     0.045 C 
ATOM      4  O   UNL     1      -3.119  13.408  46.775  1.00  0.00    -0.550 OA
ATOM      5  O   UNL     1      -3.124  11.118  46.752  1.00  0.00    -0.550 OA
ENDBRANCH   2   3
BRANCH   2   6
ATOM      6  C   UNL     1      -0.573  11.457  45.184  1.00  0.00     0.004 C 
ATOM      7  C   UNL     1      -0.686  10.419  46.340  1.00  0.00     0.006 C 
ATOM      8  C   UNL     1       0.828  12.144  45.421  1.00  0.00    -0.020 C 
ATOM      9  C   UNL     1       0.621  10.483  47.143  1.00  0.00     0.012 C 
ATOM     10  C   UNL     1       1.123  11.919  46.930  1.00  0.00    -0.006 C 
ATOM     11  C   UNL     1       0.984  13.651  45.142  1.00  0.00     0.012 C 
ATOM     12  C   UNL     1       1.847  11.398  44.490  1.00  0.00     0.012 C 
ATOM     13  C   UNL     1       0.318  12.832  47.912  1.00  0.00     0.017 C 
ATOM     14  C   UNL     1       2.591  12.216  47.211  1.00  0.00    -0.064 C 
ATOM     15  C   UNL     1       2.356  14.192  45.636  1.00  0.00     0.032 C 
ATOM     16  C   UNL     1       3.128  13.378  46.720  1.00  0.00    -0.064 C 
ATOM     17  C   UNL     1       3.312  11.375  48.230  1.00  0.00     0.032 C 
ATOM     18  C   UNL     1       4.528  13.910  47.176  1.00  0.00    -0.008 C 
ATOM     19  C   UNL     1       4.815  11.572  48.180  1.00  0.00     0.009 C 
ATOM     20  C   UNL     1       5.176  13.065  48.368  1.00  0.00     0.007 C 
ATOM     21  C   UNL     1       5.462  13.879  45.928  1.00  0.00     0.014 C 
ATOM     22  C   UNL     1       4.291  15.378  47.637  1.00  0.00     0.016 C 
ATOM     23  C   UNL     1       6.750  13.279  48.615  1.00  0.00    -0.006 C 
ATOM     24  C   UNL     1       6.915  14.233  46.229  1.00  0.00     0.033 C 
ATOM     25  C   UNL     1       7.515  13.267  47.255  1.00  0.00     0.120 C 
ATOM     26  C   UNL     1       7.351  12.144  49.498  1.00  0.00     0.014 C 
ATOM     27  C   UNL     1       7.033  14.594  49.410  1.00  0.00     0.014 C 
BRANCH  25  28
ATOM     28  O   UNL     1       8.891  13.512  47.423  1.00  0.00    -0.393 OA
ATOM     29  H   UNL     1       9.106  14.385  47.000  1.00  0.00     0.210 HD
ENDBRANCH  25  28
ENDBRANCH   2   6
ENDBRANCH   1   2
BRANCH   1  30
ATOM     30  C   UNL     1      -2.536  14.681  43.918  1.00  0.00     0.031 C 
BRANCH  30  31
ATOM     31  C   UNL     1      -2.379  16.197  43.951  1.00  0.00    -0.075 C 
ATOM     32  C   UNL     1      -2.951  16.909  42.959  1.00  0.00     0.008 C 
BRANCH  31  33
ATOM     33  C   UNL     1      -1.747  16.874  45.176  1.00  0.00     0.008 C 
ATOM     34  C   UNL     1      -1.038  18.208  44.875  1.00  0.00     0.012 C 
ATOM     35  C   UNL     1      -2.790  17.075  46.283  1.00  0.00     0.012 C 
ENDBRANCH  31  33
ENDBRANCH  30  31
ENDBRANCH   1  30
TORSDOF 7
ENDMDL
MODEL 2
REMARK VINA RESULT:     9.260      1.861      4.478
REMARK INTER + INTRA:          13.698
REMARK INTER:                   7.945
REMARK INTRA:                   5.753
REMARK UNBOUND:                 0.919
REMARK SMILES C=C(CC[C@H](C(=O)[O-])[C@@H]1CC[C@@]2(C)C3=C(CC[C@]12C)[C@]1(C)CC[C@@H](O)C(C)(C)[C@@H]1CC3)C(C)C
REMARK SMILES IDX 4 1 5 2 6 3 7 4 8 5 9 6 10 7 18 8 11 9 12 10 17 11 19 12
REMARK SMILES IDX 13 13 14 14 16 15 15 16 31 17 20 18 30 19 29 20 22 21 21 22
REMARK SMILES IDX 26 23 23 24 24 25 27 26 28 27 25 28 3 30 2 31 1 32 32 33
REMARK SMILES IDX 33 34 34 35
REMARK H PARENT 25 29
REMARK Flexibility Score: inf
ROOT
ATOM      1  C   UNL     1      -2.666  13.501  44.995  1.00  0.00     0.014 C 
ENDROOT
BRANCH   1   2
ATOM      2  C   UNL     1      -2.881  14.997  45.363  1.00  0.00     0.039 C 
BRANCH   2   3
ATOM      3  C   UNL     1      -3.021  15.810  44.098  1.00  0.00     0.045 C 
ATOM      4  O   UNL     1      -3.016  15.232  42.977  1.00  0.00    -0.550 OA
ATOM      5  O   UNL     1      -3.124  17.196  44.151  1.00  0.00    -0.550 OA
ENDBRANCH   2   3
BRANCH   2   6
ATOM      6  C   UNL     1      -1.807  15.607  46.335  1.00  0.00     0.004 C 
ATOM      7  C   UNL     1      -1.116  16.903  45.817  1.00  0.00     0.006 C 
ATOM      8  C   UNL     1      -0.606  14.672  46.751  1.00  0.00    -0.020 C 
ATOM      9  C   UNL     1       0.397  16.719  45.998  1.00  0.00     0.012 C 
ATOM     10  C   UNL     1       0.603  15.199  45.928  1.00  0.00    -0.006 C 
ATOM     11  C   UNL     1      -0.709  13.156  46.497  1.00  0.00     0.012 C 
ATOM     12  C   UNL     1      -0.413  14.865  48.297  1.00  0.00     0.012 C 
ATOM     13  C   UNL     1       0.601  14.809  44.414  1.00  0.00     0.017 C 
ATOM     14  C   UNL     1       1.894  14.621  46.496  1.00  0.00    -0.064 C 
ATOM     15  C   UNL     1       0.641  12.431  46.765  1.00  0.00     0.032 C 
ATOM     16  C   UNL     1       1.953  13.274  46.745  1.00  0.00    -0.064 C 
ATOM     17  C   UNL     1       3.125  15.486  46.502  1.00  0.00     0.032 C 
ATOM     18  C   UNL     1       3.299  12.541  47.061  1.00  0.00    -0.008 C 
ATOM     19  C   UNL     1       4.232  14.906  47.362  1.00  0.00     0.009 C 
ATOM     20  C   UNL     1       4.588  13.473  46.901  1.00  0.00     0.007 C 
ATOM     21  C   UNL     1       3.202  12.007  48.522  1.00  0.00     0.014 C 
ATOM     22  C   UNL     1       3.378  11.355  46.056  1.00  0.00     0.016 C 
ATOM     23  C   UNL     1       5.940  12.936  47.585  1.00  0.00    -0.006 C 
ATOM     24  C   UNL     1       4.493  11.385  49.044  1.00  0.00     0.033 C 
ATOM     25  C   UNL     1       5.641  12.399  49.019  1.00  0.00     0.120 C 
ATOM     26  C   UNL     1       7.000  14.070  47.724  1.00  0.00     0.014 C 
ATOM     27  C   UNL     1       6.635  11.847  46.708  1.00  0.00     0.014 C 
BRANCH  25  28
ATOM     28  O   UNL     1       6.791  11.864  49.631  1.00  0.00    -0.393 OA
ATOM     29  H   UNL     1       6.769  10.876  49.527  1.00  0.00     0.210 HD
ENDBRANCH  25  28
ENDBRANCH   2   6
ENDBRANCH   1   2
BRANCH   1  30
ATOM     30  C   UNL     1      -3.089  12.471  46.064  1.00  0.00     0.031 C 
BRANCH  30  31
ATOM     31  C   UNL     1      -2.240  11.205  46.117  1.00  0.00    -0.075 C 
ATOM     32  C   UNL     1      -1.165  11.135  45.306  1.00  0.00     0.008 C 
BRANCH  31  33
ATOM     33  C   UNL     1      -2.517  10.144  47.192  1.00  0.00     0.008 C 
ATOM     34  C   UNL     1      -1.293   9.294  47.581  1.00  0.00     0.012 C 
ATOM     35  C   UNL     1      -3.125  10.788  48.445  1.00  0.00     0.012 C 
ENDBRANCH  31  33
ENDBRANCH  30  31
ENDBRANCH   1  30
TORSDOF 7
ENDMDL
MODEL 3
REMARK VINA RESULT:     9.277      1.625      3.197
REMARK INTER + INTRA:          13.721
REMARK INTER:                  13.843
REMARK INTRA:                  -0.121
REMARK UNBOUND:                 0.919
REMARK SMILES C=C(CC[C@H](C(=O)[O-])[C@@H]1CC[C@@]2(C)C3=C(CC[C@]12C)[C@]1(C)CC[C@@H](O)C(C)(C)[C@@H]1CC3)C(C)C
REMARK SMILES IDX 4 1 5 2 6 3 7 4 8 5 9 6 10 7 18 8 11 9 12 10 17 11 19 12
REMARK SMILES IDX 13 13 14 14 16 15 15 16 31 17 20 18 30 19 29 20 22 21 21 22
REMARK SMILES IDX 26 23 23 24 24 25 27 26 28 27 25 28 3 30 2 31 1 32 32 33
REMARK SMILES IDX 33 34 34 35
REMARK H PARENT 25 29
REMARK Flexibility Score: inf
ROOT
ATOM      1  C   UNL     1      -3.125  15.459  44.450  1.00  0.00     0.014 C 
ENDROOT
BRANCH   1   2
ATOM      2  C   UNL     1      -1.998  14.490  44.909  1.00  0.00     0.039 C 
BRANCH   2   3
ATOM      3  C   UNL     1      -2.571  13.105  45.098  1.00  0.00     0.045 C 
ATOM      4  O   UNL     1      -2.679  12.331  44.107  1.00  0.00    -0.550 OA
ATOM      5  O   UNL     1      -3.011  12.681  46.347  1.00  0.00    -0.550 OA
ENDBRANCH   2   3
BRANCH   2   6
ATOM      6  C   UNL     1      -1.181  14.961  46.166  1.00  0.00     0.004 C 
ATOM      7  C   UNL     1      -0.642  16.420  46.089  1.00  0.00     0.006 C 
ATOM      8  C   UNL     1       0.087  14.105  46.556  1.00  0.00    -0.020 C 
ATOM      9  C   UNL     1       0.841  16.383  46.482  1.00  0.00     0.012 C 
ATOM     10  C   UNL     1       1.296  14.968  46.100  1.00  0.00    -0.006 C 
ATOM     11  C   UNL     1       0.265  12.702  45.945  1.00  0.00     0.012 C 
ATOM     12  C   UNL     1       0.031  13.922  48.114  1.00  0.00     0.012 C 
ATOM     13  C   UNL     1       1.566  14.977  44.559  1.00  0.00     0.017 C 
ATOM     14  C   UNL     1       2.573  14.427  46.733  1.00  0.00    -0.064 C 
ATOM     15  C   UNL     1       1.664  12.104  46.268  1.00  0.00     0.032 C 
ATOM     16  C   UNL     1       2.813  13.078  46.670  1.00  0.00    -0.064 C 
ATOM     17  C   UNL     1       3.636  15.405  47.151  1.00  0.00     0.032 C 
ATOM     18  C   UNL     1       4.203  12.459  47.036  1.00  0.00    -0.008 C 
ATOM     19  C   UNL     1       4.692  14.767  48.032  1.00  0.00     0.009 C 
ATOM     20  C   UNL     1       5.335  13.551  47.321  1.00  0.00     0.007 C 
ATOM     21  C   UNL     1       3.993  11.565  48.296  1.00  0.00     0.014 C 
ATOM     22  C   UNL     1       4.610  11.586  45.814  1.00  0.00     0.016 C 
ATOM     23  C   UNL     1       6.649  13.029  48.086  1.00  0.00    -0.006 C 
ATOM     24  C   UNL     1       5.283  10.993  48.875  1.00  0.00     0.033 C 
ATOM     25  C   UNL     1       6.245  12.113  49.283  1.00  0.00     0.120 C 
ATOM     26  C   UNL     1       7.483  14.211  48.665  1.00  0.00     0.014 C 
ATOM     27  C   UNL     1       7.624  12.291  47.115  1.00  0.00     0.014 C 
BRANCH  25  28
ATOM     28  O   UNL     1       7.371  11.585  49.945  1.00  0.00    -0.393 OA
ATOM     29  H   UNL     1       8.173  12.086  49.643  1.00  0.00     0.210 HD
ENDBRANCH  25  28
ENDBRANCH   2   6
ENDBRANCH   1   2
BRANCH   1  30
ATOM     30  C   UNL     1      -2.737  16.491  43.372  1.00  0.00     0.031 C 
BRANCH  30  31
ATOM     31  C   UNL     1      -2.709  17.942  43.841  1.00  0.00    -0.075 C 
ATOM     32  C   UNL     1      -3.035  18.193  45.125  1.00  0.00     0.008 C 
BRANCH  31  33
ATOM     33  C   UNL     1      -2.150  19.033  42.917  1.00  0.00     0.008 C 
ATOM     34  C   UNL     1      -2.614  20.462  43.260  1.00  0.00     0.012 C 
ATOM     35  C   UNL     1      -0.617  18.977  42.878  1.00  0.00     0.012 C 
ENDBRANCH  31  33
ENDBRANCH  30  31
ENDBRANCH   1  30
TORSDOF 7
ENDMDL
