MODEL 1
REMARK VINA RESULT:    -2.370      0.000      0.000
REMARK INTER + INTRA:          -5.967
REMARK INTER:                  -4.448
REMARK INTRA:                  -1.519
REMARK UNBOUND:                -1.519
REMARK SMILES O=C([O-])CCCCCCCCCCCCCCC(=O)[O-]
REMARK SMILES IDX 10 1 9 2 8 3 7 4 6 5 5 6 4 7 2 8 1 9 3 10 11 11 12 12 13 13
REMARK SMILES IDX 14 14 15 15 16 16 17 17 18 18 19 19 20 20
REMARK H PARENT
REMARK Flexibility Score: inf
ROOT
ATOM      1  C   UNL     1     -16.038  16.184  -9.685  1.00  0.00     0.000 C 
ENDROOT
BRANCH   1   2
ATOM      2  C   UNL     1     -16.564  17.333  -8.806  1.00  0.00     0.000 C 
BRANCH   2   3
ATOM      3  C   UNL     1     -17.124  18.503  -9.631  1.00  0.00     0.000 C 
BRANCH   3   4
ATOM      4  C   UNL     1     -16.021  19.296 -10.354  1.00  0.00     0.000 C 
BRANCH   4   5
ATOM      5  C   UNL     1     -16.493  19.867 -11.701  1.00  0.00     0.000 C 
BRANCH   5   6
ATOM      6  C   UNL     1     -15.505  19.581 -12.846  1.00  0.00     0.006 C 
BRANCH   6   7
ATOM      7  C   UNL     1     -14.050  19.849 -12.437  1.00  0.00     0.053 C 
BRANCH   7   8
ATOM      8  C   UNL     1     -13.736  21.314 -12.429  1.00  0.00     0.041 C 
ATOM      9  O   UNL     1     -14.418  22.112 -13.125  1.00  0.00    -0.550 OA
ATOM     10  O   UNL     1     -12.668  21.793 -11.681  1.00  0.00    -0.550 OA
ENDBRANCH   7   8
ENDBRANCH   6   7
ENDBRANCH   5   6
ENDBRANCH   4   5
ENDBRANCH   3   4
ENDBRANCH   2   3
ENDBRANCH   1   2
BRANCH   1  11
ATOM     11  C   UNL     1     -17.120  15.615 -10.616  1.00  0.00     0.000 C 
BRANCH  11  12
ATOM     12  C   UNL     1     -16.601  15.370 -12.043  1.00  0.00     0.000 C 
BRANCH  12  13
ATOM     13  C   UNL     1     -16.368  13.879 -12.344  1.00  0.00     0.000 C 
BRANCH  13  14
ATOM     14  C   UNL     1     -14.954  13.364 -12.009  1.00  0.00     0.000 C 
BRANCH  14  15
ATOM     15  C   UNL     1     -14.891  12.302 -10.893  1.00  0.00     0.000 C 
BRANCH  15  16
ATOM     16  C   UNL     1     -14.584  12.852  -9.485  1.00  0.00     0.006 C 
BRANCH  16  17
ATOM     17  C   UNL     1     -15.778  12.819  -8.518  1.00  0.00     0.053 C 
BRANCH  17  18
ATOM     18  C   UNL     1     -15.447  13.438  -7.196  1.00  0.00     0.041 C 
ATOM     19  O   UNL     1     -16.130  14.401  -6.758  1.00  0.00    -0.550 OA
ATOM     20  O   UNL     1     -14.406  12.929  -6.430  1.00  0.00    -0.550 OA
ENDBRANCH  17  18
ENDBRANCH  16  17
ENDBRANCH  15  16
ENDBRANCH  14  15
ENDBRANCH  13  14
ENDBRANCH  12  13
ENDBRANCH  11  12
ENDBRANCH   1  11
TORSDOF 15
ENDMDL
MODEL 2
REMARK VINA RESULT:    -2.098      2.190      7.333
REMARK INTER + INTRA:          -5.457
REMARK INTER:                  -4.602
REMARK INTRA:                  -0.855
REMARK UNBOUND:                -1.519
REMARK SMILES O=C([O-])CCCCCCCCCCCCCCC(=O)[O-]
REMARK SMILES IDX 10 1 9 2 8 3 7 4 6 5 5 6 4 7 2 8 1 9 3 10 11 11 12 12 13 13
REMARK SMILES IDX 14 14 15 15 16 16 17 17 18 18 19 19 20 20
REMARK H PARENT
REMARK Flexibility Score: inf
ROOT
ATOM      1  C   UNL     1     -15.662  15.623  -8.461  1.00  0.00     0.000 C 
ENDROOT
BRANCH   1   2
ATOM      2  C   UNL     1     -15.900  14.197  -7.933  1.00  0.00     0.000 C 
BRANCH   2   3
ATOM      3  C   UNL     1     -16.230  13.197  -9.053  1.00  0.00     0.000 C 
BRANCH   3   4
ATOM      4  C   UNL     1     -16.925  13.864 -10.253  1.00  0.00     0.000 C 
BRANCH   4   5
ATOM      5  C   UNL     1     -16.018  13.939 -11.491  1.00  0.00     0.000 C 
BRANCH   5   6
ATOM      6  C   UNL     1     -16.423  12.936 -12.587  1.00  0.00     0.006 C 
BRANCH   6   7
ATOM      7  C   UNL     1     -15.514  11.700 -12.605  1.00  0.00     0.053 C 
BRANCH   7   8
ATOM      8  C   UNL     1     -14.112  12.036 -12.196  1.00  0.00     0.041 C 
ATOM      9  O   UNL     1     -13.745  11.874 -11.003  1.00  0.00    -0.550 OA
ATOM     10  O   UNL     1     -13.222  12.559 -13.125  1.00  0.00    -0.550 OA
ENDBRANCH   7   8
ENDBRANCH   6   7
ENDBRANCH   5   6
ENDBRANCH   4   5
ENDBRANCH   3   4
ENDBRANCH   2   3
ENDBRANCH   1   2
BRANCH   1  11
ATOM     11  C   UNL     1     -16.594  16.655  -7.806  1.00  0.00     0.000 C 
BRANCH  11  12
ATOM     12  C   UNL     1     -16.912  17.837  -8.738  1.00  0.00     0.000 C 
BRANCH  12  13
ATOM     13  C   UNL     1     -16.665  17.509 -10.221  1.00  0.00     0.000 C 
BRANCH  13  14
ATOM     14  C   UNL     1     -15.595  18.381 -10.908  1.00  0.00     0.000 C 
BRANCH  14  15
ATOM     15  C   UNL     1     -16.134  19.374 -11.957  1.00  0.00     0.000 C 
BRANCH  15  16
ATOM     16  C   UNL     1     -15.909  20.862 -11.622  1.00  0.00     0.006 C 
BRANCH  16  17
ATOM     17  C   UNL     1     -14.939  21.585 -12.569  1.00  0.00     0.053 C 
BRANCH  17  18
ATOM     18  C   UNL     1     -13.514  21.203 -12.313  1.00  0.00     0.041 C 
ATOM     19  O   UNL     1     -13.099  20.056 -12.628  1.00  0.00    -0.550 OA
ATOM     20  O   UNL     1     -12.634  22.125 -11.759  1.00  0.00    -0.550 OA
ENDBRANCH  17  18
ENDBRANCH  16  17
ENDBRANCH  15  16
ENDBRANCH  14  15
ENDBRANCH  13  14
ENDBRANCH  12  13
ENDBRANCH  11  12
ENDBRANCH   1  11
TORSDOF 15
ENDMDL
MODEL 3
REMARK VINA RESULT:    -1.935      2.218      7.003
REMARK INTER + INTRA:          -5.151
REMARK INTER:                  -4.048
REMARK INTRA:                  -1.103
REMARK UNBOUND:                -1.519
REMARK SMILES O=C([O-])CCCCCCCCCCCCCCC(=O)[O-]
REMARK SMILES IDX 10 1 9 2 8 3 7 4 6 5 5 6 4 7 2 8 1 9 3 10 11 11 12 12 13 13
REMARK SMILES IDX 14 14 15 15 16 16 17 17 18 18 19 19 20 20
REMARK H PARENT
REMARK Flexibility Score: inf
ROOT
ATOM      1  C   UNL     1     -14.995  13.443  -8.467  1.00  0.00     0.000 C 
ENDROOT
BRANCH   1   2
ATOM      2  C   UNL     1     -16.226  13.585  -9.381  1.00  0.00     0.000 C 
BRANCH   2   3
ATOM      3  C   UNL     1     -16.038  14.658 -10.465  1.00  0.00     0.000 C 
BRANCH   3   4
ATOM      4  C   UNL     1     -17.104  14.573 -11.571  1.00  0.00     0.000 C 
BRANCH   4   5
ATOM      5  C   UNL     1     -16.755  13.532 -12.646  1.00  0.00     0.000 C 
BRANCH   5   6
ATOM      6  C   UNL     1     -15.295  13.637 -13.123  1.00  0.00     0.006 C 
BRANCH   6   7
ATOM      7  C   UNL     1     -14.588  12.275 -13.125  1.00  0.00     0.053 C 
BRANCH   7   8
ATOM      8  C   UNL     1     -14.873  11.500 -11.875  1.00  0.00     0.041 C 
ATOM      9  O   UNL     1     -14.041  11.493 -10.930  1.00  0.00    -0.550 OA
ATOM     10  O   UNL     1     -16.042  10.757 -11.768  1.00  0.00    -0.550 OA
ENDBRANCH   7   8
ENDBRANCH   6   7
ENDBRANCH   5   6
ENDBRANCH   4   5
ENDBRANCH   3   4
ENDBRANCH   2   3
ENDBRANCH   1   2
BRANCH   1  11
ATOM     11  C   UNL     1     -15.183  14.151  -7.116  1.00  0.00     0.000 C 
BRANCH  11  12
ATOM     12  C   UNL     1     -16.614  14.678  -6.921  1.00  0.00     0.000 C 
BRANCH  12  13
ATOM     13  C   UNL     1     -16.666  16.205  -6.732  1.00  0.00     0.000 C 
BRANCH  13  14
ATOM     14  C   UNL     1     -17.075  17.000  -7.988  1.00  0.00     0.000 C 
BRANCH  14  15
ATOM     15  C   UNL     1     -15.908  17.431  -8.899  1.00  0.00     0.000 C 
BRANCH  15  16
ATOM     16  C   UNL     1     -16.167  18.702  -9.733  1.00  0.00     0.006 C 
BRANCH  16  17
ATOM     17  C   UNL     1     -16.355  18.446 -11.237  1.00  0.00     0.053 C 
BRANCH  17  18
ATOM     18  C   UNL     1     -15.699  19.501 -12.072  1.00  0.00     0.041 C 
ATOM     19  O   UNL     1     -16.358  20.501 -12.462  1.00  0.00    -0.550 OA
ATOM     20  O   UNL     1     -14.350  19.399 -12.390  1.00  0.00    -0.550 OA
ENDBRANCH  17  18
ENDBRANCH  16  17
ENDBRANCH  15  16
ENDBRANCH  14  15
ENDBRANCH  13  14
ENDBRANCH  12  13
ENDBRANCH  11  12
ENDBRANCH   1  11
TORSDOF 15
ENDMDL
MODEL 4
REMARK VINA RESULT:    -1.853      1.009      7.670
REMARK INTER + INTRA:          -4.997
REMARK INTER:                  -4.229
REMARK INTRA:                  -0.768
REMARK UNBOUND:                -1.519
REMARK SMILES O=C([O-])CCCCCCCCCCCCCCC(=O)[O-]
REMARK SMILES IDX 10 1 9 2 8 3 7 4 6 5 5 6 4 7 2 8 1 9 3 10 11 11 12 12 13 13
REMARK SMILES IDX 14 14 15 15 16 16 17 17 18 18 19 19 20 20
REMARK H PARENT
REMARK Flexibility Score: inf
ROOT
ATOM      1  C   UNL     1     -16.922  13.244 -11.856  1.00  0.00     0.000 C 
ENDROOT
BRANCH   1   2
ATOM      2  C   UNL     1     -16.394  12.550 -13.125  1.00  0.00     0.000 C 
BRANCH   2   3
ATOM      3  C   UNL     1     -14.865  12.394 -13.123  1.00  0.00     0.000 C 
BRANCH   3   4
ATOM      4  C   UNL     1     -14.221  12.910 -11.825  1.00  0.00     0.000 C 
BRANCH   4   5
ATOM      5  C   UNL     1     -13.848  11.773 -10.860  1.00  0.00     0.000 C 
BRANCH   5   6
ATOM      6  C   UNL     1     -14.666  11.807  -9.556  1.00  0.00     0.006 C 
BRANCH   6   7
ATOM      7  C   UNL     1     -14.753  13.221  -8.965  1.00  0.00     0.053 C 
BRANCH   7   8
ATOM      8  C   UNL     1     -14.482  13.224  -7.491  1.00  0.00     0.041 C 
ATOM      9  O   UNL     1     -15.227  13.874  -6.712  1.00  0.00    -0.550 OA
ATOM     10  O   UNL     1     -13.386  12.537  -6.984  1.00  0.00    -0.550 OA
ENDBRANCH   7   8
ENDBRANCH   6   7
ENDBRANCH   5   6
ENDBRANCH   4   5
ENDBRANCH   3   4
ENDBRANCH   2   3
ENDBRANCH   1   2
BRANCH   1  11
ATOM     11  C   UNL     1     -17.112  14.757 -12.050  1.00  0.00     0.000 C 
BRANCH  11  12
ATOM     12  C   UNL     1     -16.854  15.554 -10.760  1.00  0.00     0.000 C 
BRANCH  12  13
ATOM     13  C   UNL     1     -17.120  17.060 -10.929  1.00  0.00     0.000 C 
BRANCH  13  14
ATOM     14  C   UNL     1     -15.990  17.979 -10.423  1.00  0.00     0.000 C 
BRANCH  14  15
ATOM     15  C   UNL     1     -15.863  19.328 -11.160  1.00  0.00     0.000 C 
BRANCH  15  16
ATOM     16  C   UNL     1     -15.191  19.252 -12.546  1.00  0.00     0.006 C 
BRANCH  16  17
ATOM     17  C   UNL     1     -13.800  19.902 -12.611  1.00  0.00     0.053 C 
BRANCH  17  18
ATOM     18  C   UNL     1     -13.814  21.311 -12.105  1.00  0.00     0.041 C 
ATOM     19  O   UNL     1     -12.779  21.810 -11.589  1.00  0.00    -0.550 OA
ATOM     20  O   UNL     1     -14.959  22.087 -12.235  1.00  0.00    -0.550 OA
ENDBRANCH  17  18
ENDBRANCH  16  17
ENDBRANCH  15  16
ENDBRANCH  14  15
ENDBRANCH  13  14
ENDBRANCH  12  13
ENDBRANCH  11  12
ENDBRANCH   1  11
TORSDOF 15
ENDMDL
MODEL 5
REMARK VINA RESULT:    -1.625      2.577      3.903
REMARK INTER + INTRA:          -4.569
REMARK INTER:                  -4.178
REMARK INTRA:                  -0.390
REMARK UNBOUND:                -1.519
REMARK SMILES O=C([O-])CCCCCCCCCCCCCCC(=O)[O-]
REMARK SMILES IDX 10 1 9 2 8 3 7 4 6 5 5 6 4 7 2 8 1 9 3 10 11 11 12 12 13 13
REMARK SMILES IDX 14 14 15 15 16 16 17 17 18 18 19 19 20 20
REMARK H PARENT
REMARK Flexibility Score: inf
ROOT
ATOM      1  C   UNL     1     -15.174  14.424  -6.912  1.00  0.00     0.000 C 
ENDROOT
BRANCH   1   2
ATOM      2  C   UNL     1     -16.667  14.515  -7.278  1.00  0.00     0.000 C 
BRANCH   2   3
ATOM      3  C   UNL     1     -17.045  15.872  -7.892  1.00  0.00     0.000 C 
BRANCH   3   4
ATOM      4  C   UNL     1     -16.588  16.007  -9.354  1.00  0.00     0.000 C 
BRANCH   4   5
ATOM      5  C   UNL     1     -17.114  17.289 -10.020  1.00  0.00     0.000 C 
BRANCH   5   6
ATOM      6  C   UNL     1     -16.199  18.503  -9.780  1.00  0.00     0.006 C 
BRANCH   6   7
ATOM      7  C   UNL     1     -16.454  19.629 -10.791  1.00  0.00     0.053 C 
BRANCH   7   8
ATOM      8  C   UNL     1     -15.304  19.799 -11.736  1.00  0.00     0.041 C 
ATOM      9  O   UNL     1     -14.607  20.846 -11.703  1.00  0.00    -0.550 OA
ATOM     10  O   UNL     1     -15.026  18.815 -12.677  1.00  0.00    -0.550 OA
ENDBRANCH   7   8
ENDBRANCH   6   7
ENDBRANCH   5   6
ENDBRANCH   4   5
ENDBRANCH   3   4
ENDBRANCH   2   3
ENDBRANCH   1   2
BRANCH   1  11
ATOM     11  C   UNL     1     -14.504  13.167  -7.489  1.00  0.00     0.000 C 
BRANCH  11  12
ATOM     12  C   UNL     1     -15.166  12.692  -8.793  1.00  0.00     0.000 C 
BRANCH  12  13
ATOM     13  C   UNL     1     -14.542  13.333 -10.046  1.00  0.00     0.000 C 
BRANCH  13  14
ATOM     14  C   UNL     1     -14.077  12.333 -11.123  1.00  0.00     0.000 C 
BRANCH  14  15
ATOM     15  C   UNL     1     -14.623  12.596 -12.540  1.00  0.00     0.000 C 
BRANCH  15  16
ATOM     16  C   UNL     1     -16.032  13.221 -12.591  1.00  0.00     0.006 C 
BRANCH  16  17
ATOM     17  C   UNL     1     -17.124  12.377 -11.914  1.00  0.00     0.053 C 
BRANCH  17  18
ATOM     18  C   UNL     1     -16.867  10.909 -12.055  1.00  0.00     0.041 C 
ATOM     19  O   UNL     1     -16.388  10.449 -13.125  1.00  0.00    -0.550 OA
ATOM     20  O   UNL     1     -17.124  10.052 -10.992  1.00  0.00    -0.550 OA
ENDBRANCH  17  18
ENDBRANCH  16  17
ENDBRANCH  15  16
ENDBRANCH  14  15
ENDBRANCH  13  14
ENDBRANCH  12  13
ENDBRANCH  11  12
ENDBRANCH   1  11
TORSDOF 15
ENDMDL
MODEL 6
REMARK VINA RESULT:    -1.577      2.748      7.225
REMARK INTER + INTRA:          -4.479
REMARK INTER:                  -3.861
REMARK INTRA:                  -0.618
REMARK UNBOUND:                -1.519
REMARK SMILES O=C([O-])CCCCCCCCCCCCCCC(=O)[O-]
REMARK SMILES IDX 10 1 9 2 8 3 7 4 6 5 5 6 4 7 2 8 1 9 3 10 11 11 12 12 13 13
REMARK SMILES IDX 14 14 15 15 16 16 17 17 18 18 19 19 20 20
REMARK H PARENT
REMARK Flexibility Score: inf
ROOT
ATOM      1  C   UNL     1     -14.561  12.743  -9.131  1.00  0.00     0.000 C 
ENDROOT
BRANCH   1   2
ATOM      2  C   UNL     1     -14.507  13.585 -10.419  1.00  0.00     0.000 C 
BRANCH   2   3
ATOM      3  C   UNL     1     -14.254  12.734 -11.673  1.00  0.00     0.000 C 
BRANCH   3   4
ATOM      4  C   UNL     1     -14.604  13.479 -12.973  1.00  0.00     0.000 C 
BRANCH   4   5
ATOM      5  C   UNL     1     -15.901  14.295 -12.851  1.00  0.00     0.000 C 
BRANCH   5   6
ATOM      6  C   UNL     1     -17.125  13.422 -12.521  1.00  0.00     0.006 C 
BRANCH   6   7
ATOM      7  C   UNL     1     -17.011  12.015 -13.124  1.00  0.00     0.053 C 
BRANCH   7   8
ATOM      8  C   UNL     1     -17.068  10.952 -12.070  1.00  0.00     0.041 C 
ATOM      9  O   UNL     1     -17.100   9.737 -12.396  1.00  0.00    -0.550 OA
ATOM     10  O   UNL     1     -17.122  11.306 -10.727  1.00  0.00    -0.550 OA
ENDBRANCH   7   8
ENDBRANCH   6   7
ENDBRANCH   5   6
ENDBRANCH   4   5
ENDBRANCH   3   4
ENDBRANCH   2   3
ENDBRANCH   1   2
BRANCH   1  11
ATOM     11  C   UNL     1     -14.796  13.601  -7.878  1.00  0.00     0.000 C 
BRANCH  11  12
ATOM     12  C   UNL     1     -16.230  13.473  -7.336  1.00  0.00     0.000 C 
BRANCH  12  13
ATOM     13  C   UNL     1     -16.850  14.832  -6.967  1.00  0.00     0.000 C 
BRANCH  13  14
ATOM     14  C   UNL     1     -17.124  15.766  -8.164  1.00  0.00     0.000 C 
BRANCH  14  15
ATOM     15  C   UNL     1     -16.078  16.878  -8.379  1.00  0.00     0.000 C 
BRANCH  15  16
ATOM     16  C   UNL     1     -16.588  18.112  -9.150  1.00  0.00     0.006 C 
BRANCH  16  17
ATOM     17  C   UNL     1     -15.745  18.484 -10.380  1.00  0.00     0.053 C 
BRANCH  17  18
ATOM     18  C   UNL     1     -16.567  18.531 -11.631  1.00  0.00     0.041 C 
ATOM     19  O   UNL     1     -17.058  17.474 -12.107  1.00  0.00    -0.550 OA
ATOM     20  O   UNL     1     -16.820  19.748 -12.252  1.00  0.00    -0.550 OA
ENDBRANCH  17  18
ENDBRANCH  16  17
ENDBRANCH  15  16
ENDBRANCH  14  15
ENDBRANCH  13  14
ENDBRANCH  12  13
ENDBRANCH  11  12
ENDBRANCH   1  11
TORSDOF 15
ENDMDL
MODEL 7
REMARK VINA RESULT:    -1.426      2.433      7.047
REMARK INTER + INTRA:          -4.195
REMARK INTER:                  -3.114
REMARK INTRA:                  -1.081
REMARK UNBOUND:                -1.519
REMARK SMILES O=C([O-])CCCCCCCCCCCCCCC(=O)[O-]
REMARK SMILES IDX 10 1 9 2 8 3 7 4 6 5 5 6 4 7 2 8 1 9 3 10 11 11 12 12 13 13
REMARK SMILES IDX 14 14 15 15 16 16 17 17 18 18 19 19 20 20
REMARK H PARENT
REMARK Flexibility Score: inf
ROOT
ATOM      1  C   UNL     1     -16.234  14.288  -7.342  1.00  0.00     0.000 C 
ENDROOT
BRANCH   1   2
ATOM      2  C   UNL     1     -17.117  13.851  -8.525  1.00  0.00     0.000 C 
BRANCH   2   3
ATOM      3  C   UNL     1     -16.444  12.784  -9.404  1.00  0.00     0.000 C 
BRANCH   3   4
ATOM      4  C   UNL     1     -17.125  12.634 -10.775  1.00  0.00     0.000 C 
BRANCH   4   5
ATOM      5  C   UNL     1     -16.727  11.333 -11.491  1.00  0.00     0.000 C 
BRANCH   5   6
ATOM      6  C   UNL     1     -16.021  11.585 -12.835  1.00  0.00     0.006 C 
BRANCH   6   7
ATOM      7  C   UNL     1     -15.100  12.812 -12.784  1.00  0.00     0.053 C 
BRANCH   7   8
ATOM      8  C   UNL     1     -13.720  12.452 -12.327  1.00  0.00     0.041 C 
ATOM      9  O   UNL     1     -12.749  12.523 -13.125  1.00  0.00    -0.550 OA
ATOM     10  O   UNL     1     -13.512  12.004 -11.028  1.00  0.00    -0.550 OA
ENDBRANCH   7   8
ENDBRANCH   6   7
ENDBRANCH   5   6
ENDBRANCH   4   5
ENDBRANCH   3   4
ENDBRANCH   2   3
ENDBRANCH   1   2
BRANCH   1  11
ATOM     11  C   UNL     1     -15.505  15.614  -7.612  1.00  0.00     0.000 C 
BRANCH  11  12
ATOM     12  C   UNL     1     -16.414  16.838  -7.410  1.00  0.00     0.000 C 
BRANCH  12  13
ATOM     13  C   UNL     1     -17.125  17.272  -8.705  1.00  0.00     0.000 C 
BRANCH  13  14
ATOM     14  C   UNL     1     -16.296  17.087  -9.992  1.00  0.00     0.000 C 
BRANCH  14  15
ATOM     15  C   UNL     1     -17.114  17.056 -11.299  1.00  0.00     0.000 C 
BRANCH  15  16
ATOM     16  C   UNL     1     -16.948  18.294 -12.202  1.00  0.00     0.006 C 
BRANCH  16  17
ATOM     17  C   UNL     1     -15.488  18.660 -12.512  1.00  0.00     0.053 C 
BRANCH  17  18
ATOM     18  C   UNL     1     -15.198  20.102 -12.227  1.00  0.00     0.041 C 
ATOM     19  O   UNL     1     -15.896  20.735 -11.392  1.00  0.00    -0.550 OA
ATOM     20  O   UNL     1     -14.134  20.735 -12.855  1.00  0.00    -0.550 OA
ENDBRANCH  17  18
ENDBRANCH  16  17
ENDBRANCH  15  16
ENDBRANCH  14  15
ENDBRANCH  13  14
ENDBRANCH  12  13
ENDBRANCH  11  12
ENDBRANCH   1  11
TORSDOF 15
ENDMDL
