MODEL 1
REMARK VINA RESULT:    -5.606      0.000      0.000
REMARK INTER + INTRA:          -6.432
REMARK INTER:                  -6.262
REMARK INTRA:                  -0.170
REMARK UNBOUND:                -0.170
REMARK SMILES O=C([O-])c1ccccc1C(=O)[O-]
REMARK SMILES IDX 4 1 9 2 5 3 8 4 6 5 7 6 2 7 1 8 3 9 10 10 11 11 12 12
REMARK H PARENT
REMARK Flexibility Score: inf
ROOT
ATOM      1  C   UNL     1      53.102  38.013  28.652  1.00  0.00     0.006 A 
ATOM      2  C   UNL     1      52.714  39.025  29.573  1.00  0.00     0.006 A 
ATOM      3  C   UNL     1      54.415  38.015  28.144  1.00  0.00     0.010 A 
ATOM      4  C   UNL     1      53.634  40.038  29.903  1.00  0.00     0.010 A 
ATOM      5  C   UNL     1      55.317  39.018  28.502  1.00  0.00     0.001 A 
ATOM      6  C   UNL     1      54.924  40.034  29.371  1.00  0.00     0.001 A 
ENDROOT
BRANCH   1   7
ATOM      7  C   UNL     1      52.157  36.993  28.142  1.00  0.00     0.072 C 
ATOM      8  O   UNL     1      52.200  35.813  28.583  1.00  0.00    -0.545 OA
ATOM      9  O   UNL     1      51.256  37.304  27.131  1.00  0.00    -0.545 OA
ENDBRANCH   1   7
BRANCH   2  10
ATOM     10  C   UNL     1      51.404  39.018  30.261  1.00  0.00     0.072 C 
ATOM     11  O   UNL     1      51.318  38.634  31.459  1.00  0.00    -0.545 OA
ATOM     12  O   UNL     1      50.244  39.370  29.581  1.00  0.00    -0.545 OA
ENDBRANCH   2  10
TORSDOF 2
ENDMDL
MODEL 2
REMARK VINA RESULT:    -5.585      0.091      2.866
REMARK INTER + INTRA:          -6.408
REMARK INTER:                  -6.246
REMARK INTRA:                  -0.163
REMARK UNBOUND:                -0.170
REMARK SMILES O=C([O-])c1ccccc1C(=O)[O-]
REMARK SMILES IDX 4 1 9 2 5 3 8 4 6 5 7 6 2 7 1 8 3 9 10 10 11 11 12 12
REMARK H PARENT
REMARK Flexibility Score: inf
ROOT
ATOM      1  C   UNL     1      52.702  39.069  29.588  1.00  0.00     0.006 A 
ATOM      2  C   UNL     1      53.102  38.093  28.634  1.00  0.00     0.006 A 
ATOM      3  C   UNL     1      53.612  40.074  29.964  1.00  0.00     0.010 A 
ATOM      4  C   UNL     1      54.419  38.123  28.137  1.00  0.00     0.010 A 
ATOM      5  C   UNL     1      54.906  40.097  29.442  1.00  0.00     0.001 A 
ATOM      6  C   UNL     1      55.313  39.116  28.540  1.00  0.00     0.001 A 
ENDROOT
BRANCH   1   7
ATOM      7  C   UNL     1      51.385  39.029  30.266  1.00  0.00     0.072 C 
ATOM      8  O   UNL     1      51.297  38.627  31.457  1.00  0.00    -0.545 OA
ATOM      9  O   UNL     1      50.225  39.371  29.582  1.00  0.00    -0.545 OA
ENDBRANCH   1   7
BRANCH   2  10
ATOM     10  C   UNL     1      52.168  37.088  28.080  1.00  0.00     0.072 C 
ATOM     11  O   UNL     1      52.187  35.901  28.504  1.00  0.00    -0.545 OA
ATOM     12  O   UNL     1      51.304  37.418  27.042  1.00  0.00    -0.545 OA
ENDBRANCH   2  10
TORSDOF 2
ENDMDL
MODEL 3
REMARK VINA RESULT:    -5.429      2.254      3.386
REMARK INTER + INTRA:          -6.234
REMARK INTER:                  -6.197
REMARK INTRA:                  -0.038
REMARK UNBOUND:                -0.170
REMARK SMILES O=C([O-])c1ccccc1C(=O)[O-]
REMARK SMILES IDX 4 1 9 2 5 3 8 4 6 5 7 6 2 7 1 8 3 9 10 10 11 11 12 12
REMARK H PARENT
REMARK Flexibility Score: inf
ROOT
ATOM      1  C   UNL     1      52.268  38.026  28.160  1.00  0.00     0.006 A 
ATOM      2  C   UNL     1      53.318  38.609  28.922  1.00  0.00     0.006 A 
ATOM      3  C   UNL     1      50.935  38.233  28.561  1.00  0.00     0.010 A 
ATOM      4  C   UNL     1      52.999  39.325  30.092  1.00  0.00     0.010 A 
ATOM      5  C   UNL     1      50.640  38.965  29.712  1.00  0.00     0.001 A 
ATOM      6  C   UNL     1      51.670  39.500  30.482  1.00  0.00     0.001 A 
ENDROOT
BRANCH   1   7
ATOM      7  C   UNL     1      52.520  37.142  26.999  1.00  0.00     0.072 C 
ATOM      8  O   UNL     1      52.333  37.566  25.827  1.00  0.00    -0.545 OA
ATOM      9  O   UNL     1      52.905  35.819  27.185  1.00  0.00    -0.545 OA
ENDBRANCH   1   7
BRANCH   2  10
ATOM     10  C   UNL     1      54.735  38.560  28.497  1.00  0.00     0.072 C 
ATOM     11  O   UNL     1      55.357  37.464  28.486  1.00  0.00    -0.545 OA
ATOM     12  O   UNL     1      55.418  39.725  28.168  1.00  0.00    -0.545 OA
ENDBRANCH   2  10
TORSDOF 2
ENDMDL
MODEL 4
REMARK VINA RESULT:    -5.425      2.245      3.877
REMARK INTER + INTRA:          -6.229
REMARK INTER:                  -6.187
REMARK INTRA:                  -0.043
REMARK UNBOUND:                -0.170
REMARK SMILES O=C([O-])c1ccccc1C(=O)[O-]
REMARK SMILES IDX 4 1 9 2 5 3 8 4 6 5 7 6 2 7 1 8 3 9 10 10 11 11 12 12
REMARK H PARENT
REMARK Flexibility Score: inf
ROOT
ATOM      1  C   UNL     1      53.266  38.579  28.910  1.00  0.00     0.006 A 
ATOM      2  C   UNL     1      52.207  38.025  28.136  1.00  0.00     0.006 A 
ATOM      3  C   UNL     1      52.956  39.300  30.078  1.00  0.00     0.010 A 
ATOM      4  C   UNL     1      50.877  38.267  28.526  1.00  0.00     0.010 A 
ATOM      5  C   UNL     1      51.629  39.509  30.457  1.00  0.00     0.001 A 
ATOM      6  C   UNL     1      50.592  39.004  29.677  1.00  0.00     0.001 A 
ENDROOT
BRANCH   1   7
ATOM      7  C   UNL     1      54.685  38.493  28.496  1.00  0.00     0.072 C 
ATOM      8  O   UNL     1      55.280  37.382  28.497  1.00  0.00    -0.545 OA
ATOM      9  O   UNL     1      55.397  39.640  28.163  1.00  0.00    -0.545 OA
ENDBRANCH   1   7
BRANCH   2  10
ATOM     10  C   UNL     1      52.446  37.139  26.975  1.00  0.00     0.072 C 
ATOM     11  O   UNL     1      52.280  37.570  25.803  1.00  0.00    -0.545 OA
ATOM     12  O   UNL     1      52.792  35.806  27.160  1.00  0.00    -0.545 OA
ENDBRANCH   2  10
TORSDOF 2
ENDMDL
MODEL 5
REMARK VINA RESULT:    -5.269      2.370      4.131
REMARK INTER + INTRA:          -6.055
REMARK INTER:                  -5.979
REMARK INTRA:                  -0.076
REMARK UNBOUND:                -0.170
REMARK SMILES O=C([O-])c1ccccc1C(=O)[O-]
REMARK SMILES IDX 4 1 9 2 5 3 8 4 6 5 7 6 2 7 1 8 3 9 10 10 11 11 12 12
REMARK H PARENT
REMARK Flexibility Score: inf
ROOT
ATOM      1  C   UNL     1      54.021  36.987  28.063  1.00  0.00     0.006 A 
ATOM      2  C   UNL     1      52.984  36.491  27.226  1.00  0.00     0.006 A 
ATOM      3  C   UNL     1      55.057  36.120  28.458  1.00  0.00     0.010 A 
ATOM      4  C   UNL     1      52.988  35.130  26.866  1.00  0.00     0.010 A 
ATOM      5  C   UNL     1      55.052  34.779  28.071  1.00  0.00     0.001 A 
ATOM      6  C   UNL     1      54.013  34.282  27.287  1.00  0.00     0.001 A 
ENDROOT
BRANCH   1   7
ATOM      7  C   UNL     1      54.019  38.366  28.604  1.00  0.00     0.072 C 
ATOM      8  O   UNL     1      54.931  39.174  28.283  1.00  0.00    -0.545 OA
ATOM      9  O   UNL     1      53.052  38.768  29.518  1.00  0.00    -0.545 OA
ENDBRANCH   1   7
BRANCH   2  10
ATOM     10  C   UNL     1      51.935  37.364  26.651  1.00  0.00     0.072 C 
ATOM     11  O   UNL     1      52.026  37.765  25.460  1.00  0.00    -0.545 OA
ATOM     12  O   UNL     1      50.874  37.806  27.433  1.00  0.00    -0.545 OA
ENDBRANCH   2  10
TORSDOF 2
ENDMDL
MODEL 6
REMARK VINA RESULT:    -5.253      2.355      3.615
REMARK INTER + INTRA:          -6.038
REMARK INTER:                  -5.954
REMARK INTRA:                  -0.084
REMARK UNBOUND:                -0.170
REMARK SMILES O=C([O-])c1ccccc1C(=O)[O-]
REMARK SMILES IDX 4 1 9 2 5 3 8 4 6 5 7 6 2 7 1 8 3 9 10 10 11 11 12 12
REMARK H PARENT
REMARK Flexibility Score: inf
ROOT
ATOM      1  C   UNL     1      52.962  36.535  27.297  1.00  0.00     0.006 A 
ATOM      2  C   UNL     1      54.031  37.017  28.102  1.00  0.00     0.006 A 
ATOM      3  C   UNL     1      52.921  35.169  26.958  1.00  0.00     0.010 A 
ATOM      4  C   UNL     1      55.053  36.129  28.485  1.00  0.00     0.010 A 
ATOM      5  C   UNL     1      53.935  34.301  27.368  1.00  0.00     0.001 A 
ATOM      6  C   UNL     1      55.004  34.782  28.120  1.00  0.00     0.001 A 
ENDROOT
BRANCH   1   7
ATOM      7  C   UNL     1      51.923  37.426  26.732  1.00  0.00     0.072 C 
ATOM      8  O   UNL     1      52.002  37.813  25.535  1.00  0.00    -0.545 OA
ATOM      9  O   UNL     1      50.886  37.899  27.528  1.00  0.00    -0.545 OA
ENDBRANCH   1   7
BRANCH   2  10
ATOM     10  C   UNL     1      54.078  38.403  28.619  1.00  0.00     0.072 C 
ATOM     11  O   UNL     1      55.004  39.182  28.265  1.00  0.00    -0.545 OA
ATOM     12  O   UNL     1      53.145  38.845  29.549  1.00  0.00    -0.545 OA
ENDBRANCH   2  10
TORSDOF 2
ENDMDL
MODEL 7
REMARK VINA RESULT:    -4.948      3.766      5.487
REMARK INTER + INTRA:          -5.696
REMARK INTER:                  -5.500
REMARK INTRA:                  -0.197
REMARK UNBOUND:                -0.170
REMARK SMILES O=C([O-])c1ccccc1C(=O)[O-]
REMARK SMILES IDX 4 1 9 2 5 3 8 4 6 5 7 6 2 7 1 8 3 9 10 10 11 11 12 12
REMARK H PARENT
REMARK Flexibility Score: inf
ROOT
ATOM      1  C   UNL     1      51.972  33.445  26.586  1.00  0.00     0.006 A 
ATOM      2  C   UNL     1      52.816  34.517  26.989  1.00  0.00     0.006 A 
ATOM      3  C   UNL     1      52.473  32.130  26.616  1.00  0.00     0.010 A 
ATOM      4  C   UNL     1      54.149  34.241  27.346  1.00  0.00     0.010 A 
ATOM      5  C   UNL     1      53.792  31.877  26.995  1.00  0.00     0.001 A 
ATOM      6  C   UNL     1      54.632  32.931  27.347  1.00  0.00     0.001 A 
ENDROOT
BRANCH   1   7
ATOM      7  C   UNL     1      50.603  33.661  26.061  1.00  0.00     0.072 C 
ATOM      8  O   UNL     1      49.602  33.287  26.729  1.00  0.00    -0.545 OA
ATOM      9  O   UNL     1      50.406  34.217  24.803  1.00  0.00    -0.545 OA
ENDBRANCH   1   7
BRANCH   2  10
ATOM     10  C   UNL     1      52.330  35.909  27.121  1.00  0.00     0.072 C 
ATOM     11  O   UNL     1      52.453  36.719  26.162  1.00  0.00    -0.545 OA
ATOM     12  O   UNL     1      51.793  36.362  28.320  1.00  0.00    -0.545 OA
ENDBRANCH   2  10
TORSDOF 2
ENDMDL
MODEL 8
REMARK VINA RESULT:    -4.943     14.582     15.663
REMARK INTER + INTRA:          -5.691
REMARK INTER:                  -5.470
REMARK INTRA:                  -0.221
REMARK UNBOUND:                -0.170
REMARK SMILES O=C([O-])c1ccccc1C(=O)[O-]
REMARK SMILES IDX 4 1 9 2 5 3 8 4 6 5 7 6 2 7 1 8 3 9 10 10 11 11 12 12
REMARK H PARENT
REMARK Flexibility Score: inf
ROOT
ATOM      1  C   UNL     1      59.439  49.111  19.650  1.00  0.00     0.006 A 
ATOM      2  C   UNL     1      60.335  48.865  20.727  1.00  0.00     0.006 A 
ATOM      3  C   UNL     1      59.850  48.816  18.336  1.00  0.00     0.010 A 
ATOM      4  C   UNL     1      61.631  48.393  20.445  1.00  0.00     0.010 A 
ATOM      5  C   UNL     1      61.132  48.328  18.081  1.00  0.00     0.001 A 
ATOM      6  C   UNL     1      62.025  48.127  19.132  1.00  0.00     0.001 A 
ENDROOT
BRANCH   1   7
ATOM      7  C   UNL     1      58.112  49.738  19.843  1.00  0.00     0.072 C 
ATOM      8  O   UNL     1      57.984  50.989  19.764  1.00  0.00    -0.545 OA
ATOM      9  O   UNL     1      57.005  48.967  20.177  1.00  0.00    -0.545 OA
ENDBRANCH   1   7
BRANCH   2  10
ATOM     10  C   UNL     1      59.938  49.014  22.145  1.00  0.00     0.072 C 
ATOM     11  O   UNL     1      60.329  50.009  22.813  1.00  0.00    -0.545 OA
ATOM     12  O   UNL     1      59.188  48.030  22.779  1.00  0.00    -0.545 OA
ENDBRANCH   2  10
TORSDOF 2
ENDMDL
MODEL 9
REMARK VINA RESULT:    -4.924      3.780      5.889
REMARK INTER + INTRA:          -5.669
REMARK INTER:                  -5.508
REMARK INTRA:                  -0.162
REMARK UNBOUND:                -0.170
REMARK SMILES O=C([O-])c1ccccc1C(=O)[O-]
REMARK SMILES IDX 4 1 9 2 5 3 8 4 6 5 7 6 2 7 1 8 3 9 10 10 11 11 12 12
REMARK H PARENT
REMARK Flexibility Score: inf
ROOT
ATOM      1  C   UNL     1      52.772  34.489  27.014  1.00  0.00     0.006 A 
ATOM      2  C   UNL     1      51.954  33.403  26.596  1.00  0.00     0.006 A 
ATOM      3  C   UNL     1      54.112  34.242  27.365  1.00  0.00     0.010 A 
ATOM      4  C   UNL     1      52.488  32.101  26.605  1.00  0.00     0.010 A 
ATOM      5  C   UNL     1      54.628  32.945  27.346  1.00  0.00     0.001 A 
ATOM      6  C   UNL     1      53.815  31.875  26.978  1.00  0.00     0.001 A 
ENDROOT
BRANCH   1   7
ATOM      7  C   UNL     1      52.251  35.867  27.169  1.00  0.00     0.072 C 
ATOM      8  O   UNL     1      51.665  36.207  28.232  1.00  0.00    -0.545 OA
ATOM      9  O   UNL     1      52.342  36.781  26.127  1.00  0.00    -0.545 OA
ENDBRANCH   1   7
BRANCH   2  10
ATOM     10  C   UNL     1      50.580  33.591  26.078  1.00  0.00     0.072 C 
ATOM     11  O   UNL     1      49.600  33.067  26.673  1.00  0.00    -0.545 OA
ATOM     12  O   UNL     1      50.357  34.290  24.897  1.00  0.00    -0.545 OA
ENDBRANCH   2  10
TORSDOF 2
ENDMDL
