MODEL 1
REMARK VINA RESULT:    -4.273      0.000      0.000
REMARK INTER + INTRA:          -9.436
REMARK INTER:                  -7.520
REMARK INTRA:                  -1.916
REMARK UNBOUND:                -1.916
REMARK SMILES CCCCCCCCCCCCCCC(=O)[O-]
REMARK SMILES IDX 9 1 10 2 11 3 12 4 13 5 14 6 15 7 16 8 17 9 8 10 7 11 6 12
REMARK SMILES IDX 5 13 4 14 3 15 2 16 1 17
REMARK H PARENT
REMARK Flexibility Score: inf
ROOT
ATOM      1  C   UNL     1      15.695  63.347  31.317  1.00  0.00     0.000 C 
ENDROOT
BRANCH   1   2
ATOM      2  C   UNL     1      16.644  63.771  32.450  1.00  0.00     0.000 C 
BRANCH   2   3
ATOM      3  C   UNL     1      15.936  64.599  33.536  1.00  0.00     0.000 C 
BRANCH   3   4
ATOM      4  C   UNL     1      15.097  65.746  32.947  1.00  0.00     0.000 C 
BRANCH   4   5
ATOM      5  C   UNL     1      15.056  66.979  33.867  1.00  0.00     0.006 C 
BRANCH   5   6
ATOM      6  C   UNL     1      16.371  67.770  33.833  1.00  0.00     0.053 C 
BRANCH   6   7
ATOM      7  C   UNL     1      16.175  69.153  33.293  1.00  0.00     0.041 C 
ATOM      8  O   UNL     1      16.667  70.146  33.893  1.00  0.00    -0.550 OA
ATOM      9  O   UNL     1      15.471  69.344  32.110  1.00  0.00    -0.550 OA
ENDBRANCH   6   7
ENDBRANCH   5   6
ENDBRANCH   4   5
ENDBRANCH   3   4
ENDBRANCH   2   3
ENDBRANCH   1   2
BRANCH   1  10
ATOM     10  C   UNL     1      15.583  61.819  31.180  1.00  0.00     0.000 C 
BRANCH  10  11
ATOM     11  C   UNL     1      14.234  61.373  30.585  1.00  0.00    -0.000 C 
BRANCH  11  12
ATOM     12  C   UNL     1      13.269  62.519  30.220  1.00  0.00    -0.000 C 
BRANCH  12  13
ATOM     13  C   UNL     1      11.962  62.563  31.037  1.00  0.00    -0.000 C 
BRANCH  13  14
ATOM     14  C   UNL     1      11.875  63.710  32.059  1.00  0.00    -0.000 C 
BRANCH  14  15
ATOM     15  C   UNL     1      12.411  63.314  33.445  1.00  0.00    -0.000 C 
BRANCH  15  16
ATOM     16  C   UNL     1      12.213  61.819  33.746  1.00  0.00    -0.003 C 
ATOM     17  C   UNL     1      13.501  61.136  34.206  1.00  0.00     0.004 C 
ENDBRANCH  15  16
ENDBRANCH  14  15
ENDBRANCH  13  14
ENDBRANCH  12  13
ENDBRANCH  11  12
ENDBRANCH  10  11
ENDBRANCH   1  10
TORSDOF 13
ENDMDL
MODEL 2
REMARK VINA RESULT:    -4.239      1.015      1.658
REMARK INTER + INTRA:          -9.377
REMARK INTER:                  -7.547
REMARK INTRA:                  -1.830
REMARK UNBOUND:                -1.916
REMARK SMILES CCCCCCCCCCCCCCC(=O)[O-]
REMARK SMILES IDX 9 1 10 2 11 3 12 4 13 5 14 6 15 7 16 8 17 9 8 10 7 11 6 12
REMARK SMILES IDX 5 13 4 14 3 15 2 16 1 17
REMARK H PARENT
REMARK Flexibility Score: inf
ROOT
ATOM      1  C   UNL     1      15.086  62.002  31.127  1.00  0.00     0.000 C 
ENDROOT
BRANCH   1   2
ATOM      2  C   UNL     1      15.939  62.941  31.994  1.00  0.00     0.000 C 
BRANCH   2   3
ATOM      3  C   UNL     1      15.721  64.425  31.650  1.00  0.00     0.000 C 
BRANCH   3   4
ATOM      4  C   UNL     1      15.243  65.245  32.860  1.00  0.00     0.000 C 
BRANCH   4   5
ATOM      5  C   UNL     1      14.761  66.652  32.465  1.00  0.00     0.006 C 
BRANCH   5   6
ATOM      6  C   UNL     1      15.448  67.751  33.286  1.00  0.00     0.053 C 
BRANCH   6   7
ATOM      7  C   UNL     1      15.602  69.018  32.501  1.00  0.00     0.041 C 
ATOM      8  O   UNL     1      16.558  69.803  32.742  1.00  0.00    -0.550 OA
ATOM      9  O   UNL     1      14.704  69.319  31.485  1.00  0.00    -0.550 OA
ENDBRANCH   6   7
ENDBRANCH   5   6
ENDBRANCH   4   5
ENDBRANCH   3   4
ENDBRANCH   2   3
ENDBRANCH   1   2
BRANCH   1  10
ATOM     10  C   UNL     1      14.007  62.751  30.326  1.00  0.00     0.000 C 
BRANCH  10  11
ATOM     11  C   UNL     1      12.614  62.106  30.455  1.00  0.00    -0.000 C 
BRANCH  11  12
ATOM     12  C   UNL     1      11.561  62.964  31.184  1.00  0.00    -0.000 C 
BRANCH  12  13
ATOM     13  C   UNL     1      11.944  63.403  32.611  1.00  0.00    -0.000 C 
BRANCH  13  14
ATOM     14  C   UNL     1      11.799  62.309  33.685  1.00  0.00    -0.000 C 
BRANCH  14  15
ATOM     15  C   UNL     1      13.142  61.658  34.055  1.00  0.00    -0.000 C 
BRANCH  15  16
ATOM     16  C   UNL     1      13.158  60.146  33.774  1.00  0.00    -0.003 C 
ATOM     17  C   UNL     1      11.896  59.667  33.056  1.00  0.00     0.004 C 
ENDBRANCH  15  16
ENDBRANCH  14  15
ENDBRANCH  13  14
ENDBRANCH  12  13
ENDBRANCH  11  12
ENDBRANCH  10  11
ENDBRANCH   1  10
TORSDOF 13
ENDMDL
MODEL 3
REMARK VINA RESULT:    -4.132      3.066      7.069
REMARK INTER + INTRA:          -9.189
REMARK INTER:                  -8.081
REMARK INTRA:                  -1.107
REMARK UNBOUND:                -1.916
REMARK SMILES CCCCCCCCCCCCCCC(=O)[O-]
REMARK SMILES IDX 9 1 10 2 11 3 12 4 13 5 14 6 15 7 16 8 17 9 8 10 7 11 6 12
REMARK SMILES IDX 5 13 4 14 3 15 2 16 1 17
REMARK H PARENT
REMARK Flexibility Score: inf
ROOT
ATOM      1  C   UNL     1      16.770  65.531  33.832  1.00  0.00     0.000 C 
ENDROOT
BRANCH   1   2
ATOM      2  C   UNL     1      15.603  64.582  33.516  1.00  0.00     0.000 C 
BRANCH   2   3
ATOM      3  C   UNL     1      15.030  64.799  32.105  1.00  0.00     0.000 C 
BRANCH   3   4
ATOM      4  C   UNL     1      15.429  63.678  31.130  1.00  0.00     0.000 C 
BRANCH   4   5
ATOM      5  C   UNL     1      14.450  62.490  31.166  1.00  0.00     0.006 C 
BRANCH   5   6
ATOM      6  C   UNL     1      13.195  62.749  30.320  1.00  0.00     0.053 C 
BRANCH   6   7
ATOM      7  C   UNL     1      11.956  62.788  31.161  1.00  0.00     0.041 C 
ATOM      8  O   UNL     1      11.713  63.789  31.887  1.00  0.00    -0.550 OA
ATOM      9  O   UNL     1      11.055  61.731  31.121  1.00  0.00    -0.550 OA
ENDBRANCH   6   7
ENDBRANCH   5   6
ENDBRANCH   4   5
ENDBRANCH   3   4
ENDBRANCH   2   3
ENDBRANCH   1   2
BRANCH   1  10
ATOM     10  C   UNL     1      16.840  65.908  35.322  1.00  0.00     0.000 C 
BRANCH  10  11
ATOM     11  C   UNL     1      16.133  67.242  35.631  1.00  0.00    -0.000 C 
BRANCH  11  12
ATOM     12  C   UNL     1      17.071  68.410  35.993  1.00  0.00    -0.000 C 
BRANCH  12  13
ATOM     13  C   UNL     1      17.795  69.065  34.800  1.00  0.00    -0.000 C 
BRANCH  13  14
ATOM     14  C   UNL     1      16.983  70.147  34.065  1.00  0.00    -0.000 C 
BRANCH  14  15
ATOM     15  C   UNL     1      16.607  69.736  32.632  1.00  0.00    -0.000 C 
BRANCH  15  16
ATOM     16  C   UNL     1      15.254  69.010  32.565  1.00  0.00    -0.003 C 
ATOM     17  C   UNL     1      14.647  69.022  31.162  1.00  0.00     0.004 C 
ENDBRANCH  15  16
ENDBRANCH  14  15
ENDBRANCH  13  14
ENDBRANCH  12  13
ENDBRANCH  11  12
ENDBRANCH  10  11
ENDBRANCH   1  10
TORSDOF 13
ENDMDL
MODEL 4
REMARK VINA RESULT:    -4.114      2.613      4.795
REMARK INTER + INTRA:          -9.157
REMARK INTER:                  -8.083
REMARK INTRA:                  -1.075
REMARK UNBOUND:                -1.916
REMARK SMILES CCCCCCCCCCCCCCC(=O)[O-]
REMARK SMILES IDX 9 1 10 2 11 3 12 4 13 5 14 6 15 7 16 8 17 9 8 10 7 11 6 12
REMARK SMILES IDX 5 13 4 14 3 15 2 16 1 17
REMARK H PARENT
REMARK Flexibility Score: inf
ROOT
ATOM      1  C   UNL     1      15.267  68.712  32.436  1.00  0.00     0.000 C 
ENDROOT
BRANCH   1   2
ATOM      2  C   UNL     1      16.384  69.747  32.654  1.00  0.00     0.000 C 
BRANCH   2   3
ATOM      3  C   UNL     1      17.521  69.211  33.541  1.00  0.00     0.000 C 
BRANCH   3   4
ATOM      4  C   UNL     1      17.763  70.090  34.780  1.00  0.00     0.000 C 
BRANCH   4   5
ATOM      5  C   UNL     1      18.474  69.328  35.913  1.00  0.00     0.006 C 
BRANCH   5   6
ATOM      6  C   UNL     1      17.667  68.112  36.388  1.00  0.00     0.053 C 
BRANCH   6   7
ATOM      7  C   UNL     1      18.374  67.367  37.479  1.00  0.00     0.041 C 
ATOM      8  O   UNL     1      19.587  67.049  37.349  1.00  0.00    -0.550 OA
ATOM      9  O   UNL     1      17.702  67.049  38.652  1.00  0.00    -0.550 OA
ENDBRANCH   6   7
ENDBRANCH   5   6
ENDBRANCH   4   5
ENDBRANCH   3   4
ENDBRANCH   2   3
ENDBRANCH   1   2
BRANCH   1  10
ATOM     10  C   UNL     1      15.361  67.526  33.411  1.00  0.00     0.000 C 
BRANCH  10  11
ATOM     11  C   UNL     1      14.907  66.198  32.776  1.00  0.00    -0.000 C 
BRANCH  11  12
ATOM     12  C   UNL     1      15.542  64.931  33.385  1.00  0.00    -0.000 C 
BRANCH  12  13
ATOM     13  C   UNL     1      15.842  63.800  32.381  1.00  0.00    -0.000 C 
BRANCH  13  14
ATOM     14  C   UNL     1      14.777  63.605  31.288  1.00  0.00    -0.000 C 
BRANCH  14  15
ATOM     15  C   UNL     1      13.594  62.743  31.757  1.00  0.00    -0.000 C 
BRANCH  15  16
ATOM     16  C   UNL     1      12.349  63.583  32.086  1.00  0.00    -0.003 C 
ATOM     17  C   UNL     1      11.929  63.465  33.552  1.00  0.00     0.004 C 
ENDBRANCH  15  16
ENDBRANCH  14  15
ENDBRANCH  13  14
ENDBRANCH  12  13
ENDBRANCH  11  12
ENDBRANCH  10  11
ENDBRANCH   1  10
TORSDOF 13
ENDMDL
MODEL 5
REMARK VINA RESULT:    -4.080      1.786      2.578
REMARK INTER + INTRA:          -9.097
REMARK INTER:                  -8.110
REMARK INTRA:                  -0.987
REMARK UNBOUND:                -1.916
REMARK SMILES CCCCCCCCCCCCCCC(=O)[O-]
REMARK SMILES IDX 9 1 10 2 11 3 12 4 13 5 14 6 15 7 16 8 17 9 8 10 7 11 6 12
REMARK SMILES IDX 5 13 4 14 3 15 2 16 1 17
REMARK H PARENT
REMARK Flexibility Score: inf
ROOT
ATOM      1  C   UNL     1      14.670  64.152  31.944  1.00  0.00     0.000 C 
ENDROOT
BRANCH   1   2
ATOM      2  C   UNL     1      15.568  65.240  32.554  1.00  0.00     0.000 C 
BRANCH   2   3
ATOM      3  C   UNL     1      14.891  66.622  32.576  1.00  0.00     0.000 C 
BRANCH   3   4
ATOM      4  C   UNL     1      15.525  67.570  33.608  1.00  0.00     0.000 C 
BRANCH   4   5
ATOM      5  C   UNL     1      15.694  69.001  33.068  1.00  0.00     0.006 C 
BRANCH   5   6
ATOM      6  C   UNL     1      17.155  69.468  33.115  1.00  0.00     0.053 C 
BRANCH   6   7
ATOM      7  C   UNL     1      17.439  70.286  34.338  1.00  0.00     0.041 C 
ATOM      8  O   UNL     1      17.243  71.531  34.329  1.00  0.00    -0.550 OA
ATOM      9  O   UNL     1      17.893  69.669  35.497  1.00  0.00    -0.550 OA
ENDBRANCH   6   7
ENDBRANCH   5   6
ENDBRANCH   4   5
ENDBRANCH   3   4
ENDBRANCH   2   3
ENDBRANCH   1   2
BRANCH   1  10
ATOM     10  C   UNL     1      13.387  63.917  32.760  1.00  0.00     0.000 C 
BRANCH  10  11
ATOM     11  C   UNL     1      12.138  63.759  31.872  1.00  0.00    -0.000 C 
BRANCH  11  12
ATOM     12  C   UNL     1      11.092  62.751  32.388  1.00  0.00    -0.000 C 
BRANCH  12  13
ATOM     13  C   UNL     1      10.880  61.511  31.498  1.00  0.00    -0.000 C 
BRANCH  13  14
ATOM     14  C   UNL     1      10.948  60.163  32.238  1.00  0.00    -0.000 C 
BRANCH  14  15
ATOM     15  C   UNL     1      11.749  60.244  33.548  1.00  0.00    -0.000 C 
BRANCH  15  16
ATOM     16  C   UNL     1      13.220  59.840  33.364  1.00  0.00    -0.003 C 
ATOM     17  C   UNL     1      14.174  60.690  34.205  1.00  0.00     0.004 C 
ENDBRANCH  15  16
ENDBRANCH  14  15
ENDBRANCH  13  14
ENDBRANCH  12  13
ENDBRANCH  11  12
ENDBRANCH  10  11
ENDBRANCH   1  10
TORSDOF 13
ENDMDL
MODEL 6
REMARK VINA RESULT:    -4.057      3.954      6.655
REMARK INTER + INTRA:          -9.056
REMARK INTER:                  -7.613
REMARK INTRA:                  -1.443
REMARK UNBOUND:                -1.916
REMARK SMILES CCCCCCCCCCCCCCC(=O)[O-]
REMARK SMILES IDX 9 1 10 2 11 3 12 4 13 5 14 6 15 7 16 8 17 9 8 10 7 11 6 12
REMARK SMILES IDX 5 13 4 14 3 15 2 16 1 17
REMARK H PARENT
REMARK Flexibility Score: inf
ROOT
ATOM      1  C   UNL     1      16.715  65.461  34.366  1.00  0.00     0.000 C 
ENDROOT
BRANCH   1   2
ATOM      2  C   UNL     1      15.465  66.354  34.334  1.00  0.00     0.000 C 
BRANCH   2   3
ATOM      3  C   UNL     1      15.062  66.758  32.905  1.00  0.00     0.000 C 
BRANCH   3   4
ATOM      4  C   UNL     1      15.291  68.254  32.631  1.00  0.00     0.000 C 
BRANCH   4   5
ATOM      5  C   UNL     1      15.993  68.967  33.801  1.00  0.00     0.006 C 
BRANCH   5   6
ATOM      6  C   UNL     1      17.111  69.902  33.322  1.00  0.00     0.053 C 
BRANCH   6   7
ATOM      7  C   UNL     1      17.500  70.891  34.378  1.00  0.00     0.041 C 
ATOM      8  O   UNL     1      18.155  70.518  35.387  1.00  0.00    -0.550 OA
ATOM      9  O   UNL     1      17.162  72.231  34.233  1.00  0.00    -0.550 OA
ENDBRANCH   6   7
ENDBRANCH   5   6
ENDBRANCH   4   5
ENDBRANCH   3   4
ENDBRANCH   2   3
ENDBRANCH   1   2
BRANCH   1  10
ATOM     10  C   UNL     1      17.411  65.465  35.738  1.00  0.00     0.000 C 
BRANCH  10  11
ATOM     11  C   UNL     1      16.717  66.392  36.754  1.00  0.00    -0.000 C 
BRANCH  11  12
ATOM     12  C   UNL     1      17.459  67.711  37.047  1.00  0.00    -0.000 C 
BRANCH  12  13
ATOM     13  C   UNL     1      18.973  67.571  37.304  1.00  0.00    -0.000 C 
BRANCH  13  14
ATOM     14  C   UNL     1      19.346  67.043  38.701  1.00  0.00    -0.000 C 
BRANCH  14  15
ATOM     15  C   UNL     1      20.134  65.724  38.647  1.00  0.00    -0.000 C 
BRANCH  15  16
ATOM     16  C   UNL     1      19.651  64.708  39.695  1.00  0.00    -0.003 C 
ATOM     17  C   UNL     1      18.128  64.577  39.728  1.00  0.00     0.004 C 
ENDBRANCH  15  16
ENDBRANCH  14  15
ENDBRANCH  13  14
ENDBRANCH  12  13
ENDBRANCH  11  12
ENDBRANCH  10  11
ENDBRANCH   1  10
TORSDOF 13
ENDMDL
MODEL 7
REMARK VINA RESULT:    -4.038      3.734      7.230
REMARK INTER + INTRA:          -9.023
REMARK INTER:                  -7.773
REMARK INTRA:                  -1.250
REMARK UNBOUND:                -1.916
REMARK SMILES CCCCCCCCCCCCCCC(=O)[O-]
REMARK SMILES IDX 9 1 10 2 11 3 12 4 13 5 14 6 15 7 16 8 17 9 8 10 7 11 6 12
REMARK SMILES IDX 5 13 4 14 3 15 2 16 1 17
REMARK H PARENT
REMARK Flexibility Score: inf
ROOT
ATOM      1  C   UNL     1      15.289  65.341  31.888  1.00  0.00     0.000 C 
ENDROOT
BRANCH   1   2
ATOM      2  C   UNL     1      15.531  63.922  31.347  1.00  0.00     0.000 C 
BRANCH   2   3
ATOM      3  C   UNL     1      14.449  62.925  31.796  1.00  0.00     0.000 C 
BRANCH   3   4
ATOM      4  C   UNL     1      13.460  62.585  30.668  1.00  0.00     0.000 C 
BRANCH   4   5
ATOM      5  C   UNL     1      12.081  63.235  30.877  1.00  0.00     0.006 C 
BRANCH   5   6
ATOM      6  C   UNL     1      11.475  62.881  32.241  1.00  0.00     0.053 C 
BRANCH   6   7
ATOM      7  C   UNL     1      11.146  61.423  32.342  1.00  0.00     0.041 C 
ATOM      8  O   UNL     1      10.266  60.917  31.596  1.00  0.00    -0.550 OA
ATOM      9  O   UNL     1      11.832  60.616  33.241  1.00  0.00    -0.550 OA
ENDBRANCH   6   7
ENDBRANCH   5   6
ENDBRANCH   4   5
ENDBRANCH   3   4
ENDBRANCH   2   3
ENDBRANCH   1   2
BRANCH   1  10
ATOM     10  C   UNL     1      14.994  65.356  33.398  1.00  0.00     0.000 C 
BRANCH  10  11
ATOM     11  C   UNL     1      16.035  66.160  34.199  1.00  0.00    -0.000 C 
BRANCH  11  12
ATOM     12  C   UNL     1      15.451  67.101  35.271  1.00  0.00    -0.000 C 
BRANCH  12  13
ATOM     13  C   UNL     1      16.439  68.138  35.843  1.00  0.00    -0.000 C 
BRANCH  13  14
ATOM     14  C   UNL     1      17.416  68.737  34.816  1.00  0.00    -0.000 C 
BRANCH  14  15
ATOM     15  C   UNL     1      16.845  69.976  34.105  1.00  0.00    -0.000 C 
BRANCH  15  16
ATOM     16  C   UNL     1      16.648  69.749  32.598  1.00  0.00    -0.003 C 
ATOM     17  C   UNL     1      15.281  69.148  32.267  1.00  0.00     0.004 C 
ENDBRANCH  15  16
ENDBRANCH  14  15
ENDBRANCH  13  14
ENDBRANCH  12  13
ENDBRANCH  11  12
ENDBRANCH  10  11
ENDBRANCH   1  10
TORSDOF 13
ENDMDL
MODEL 8
REMARK VINA RESULT:    -4.009      3.719      7.512
REMARK INTER + INTRA:          -8.972
REMARK INTER:                  -7.665
REMARK INTRA:                  -1.307
REMARK UNBOUND:                -1.916
REMARK SMILES CCCCCCCCCCCCCCC(=O)[O-]
REMARK SMILES IDX 9 1 10 2 11 3 12 4 13 5 14 6 15 7 16 8 17 9 8 10 7 11 6 12
REMARK SMILES IDX 5 13 4 14 3 15 2 16 1 17
REMARK H PARENT
REMARK Flexibility Score: inf
ROOT
ATOM      1  C   UNL     1      17.337  69.606  33.730  1.00  0.00     0.000 C 
ENDROOT
BRANCH   1   2
ATOM      2  C   UNL     1      16.124  69.056  32.963  1.00  0.00     0.000 C 
BRANCH   2   3
ATOM      3  C   UNL     1      15.583  67.749  33.569  1.00  0.00     0.000 C 
BRANCH   3   4
ATOM      4  C   UNL     1      14.857  66.877  32.530  1.00  0.00     0.000 C 
BRANCH   4   5
ATOM      5  C   UNL     1      15.122  65.374  32.734  1.00  0.00     0.006 C 
BRANCH   5   6
ATOM      6  C   UNL     1      13.833  64.545  32.668  1.00  0.00     0.053 C 
BRANCH   6   7
ATOM      7  C   UNL     1      13.916  63.469  31.629  1.00  0.00     0.041 C 
ATOM      8  O   UNL     1      12.905  63.178  30.935  1.00  0.00    -0.550 OA
ATOM      9  O   UNL     1      15.117  62.808  31.408  1.00  0.00    -0.550 OA
ENDBRANCH   6   7
ENDBRANCH   5   6
ENDBRANCH   4   5
ENDBRANCH   3   4
ENDBRANCH   2   3
ENDBRANCH   1   2
BRANCH   1  10
ATOM     10  C   UNL     1      17.412  69.080  35.174  1.00  0.00     0.000 C 
BRANCH  10  11
ATOM     11  C   UNL     1      18.716  69.484  35.887  1.00  0.00    -0.000 C 
BRANCH  11  12
ATOM     12  C   UNL     1      18.745  69.207  37.404  1.00  0.00    -0.000 C 
BRANCH  12  13
ATOM     13  C   UNL     1      19.754  68.133  37.856  1.00  0.00    -0.000 C 
BRANCH  13  14
ATOM     14  C   UNL     1      19.326  66.682  37.571  1.00  0.00    -0.000 C 
BRANCH  14  15
ATOM     15  C   UNL     1      17.943  66.345  38.153  1.00  0.00    -0.000 C 
BRANCH  15  16
ATOM     16  C   UNL     1      16.929  65.952  37.067  1.00  0.00    -0.003 C 
ATOM     17  C   UNL     1      17.594  65.339  35.834  1.00  0.00     0.004 C 
ENDBRANCH  15  16
ENDBRANCH  14  15
ENDBRANCH  13  14
ENDBRANCH  12  13
ENDBRANCH  11  12
ENDBRANCH  10  11
ENDBRANCH   1  10
TORSDOF 13
ENDMDL
MODEL 9
REMARK VINA RESULT:    -3.996      6.100      8.551
REMARK INTER + INTRA:          -8.949
REMARK INTER:                  -7.004
REMARK INTRA:                  -1.945
REMARK UNBOUND:                -1.916
REMARK SMILES CCCCCCCCCCCCCCC(=O)[O-]
REMARK SMILES IDX 9 1 10 2 11 3 12 4 13 5 14 6 15 7 16 8 17 9 8 10 7 11 6 12
REMARK SMILES IDX 5 13 4 14 3 15 2 16 1 17
REMARK H PARENT
REMARK Flexibility Score: inf
ROOT
ATOM      1  C   UNL     1      12.246  60.115  33.165  1.00  0.00     0.000 C 
ENDROOT
BRANCH   1   2
ATOM      2  C   UNL     1      11.020  59.192  33.065  1.00  0.00     0.000 C 
BRANCH   2   3
ATOM      3  C   UNL     1      10.500  59.054  31.623  1.00  0.00     0.000 C 
BRANCH   3   4
ATOM      4  C   UNL     1       9.524  60.180  31.241  1.00  0.00     0.000 C 
BRANCH   4   5
ATOM      5  C   UNL     1       8.080  59.676  31.071  1.00  0.00     0.006 C 
BRANCH   5   6
ATOM      6  C   UNL     1       7.313  59.658  32.400  1.00  0.00     0.053 C 
BRANCH   6   7
ATOM      7  C   UNL     1       6.872  58.275  32.769  1.00  0.00     0.041 C 
ATOM      8  O   UNL     1       7.419  57.271  32.239  1.00  0.00    -0.550 OA
ATOM      9  O   UNL     1       5.875  58.093  33.720  1.00  0.00    -0.550 OA
ENDBRANCH   6   7
ENDBRANCH   5   6
ENDBRANCH   4   5
ENDBRANCH   3   4
ENDBRANCH   2   3
ENDBRANCH   1   2
BRANCH   1  10
ATOM     10  C   UNL     1      11.935  61.435  33.892  1.00  0.00     0.000 C 
BRANCH  10  11
ATOM     11  C   UNL     1      12.552  62.660  33.192  1.00  0.00    -0.000 C 
BRANCH  11  12
ATOM     12  C   UNL     1      11.642  63.348  32.155  1.00  0.00    -0.000 C 
BRANCH  12  13
ATOM     13  C   UNL     1      11.855  62.903  30.695  1.00  0.00    -0.000 C 
BRANCH  13  14
ATOM     14  C   UNL     1      13.314  62.584  30.322  1.00  0.00    -0.000 C 
BRANCH  14  15
ATOM     15  C   UNL     1      13.518  61.113  29.924  1.00  0.00    -0.000 C 
BRANCH  15  16
ATOM     16  C   UNL     1      14.807  60.518  30.514  1.00  0.00    -0.003 C 
ATOM     17  C   UNL     1      15.564  61.513  31.395  1.00  0.00     0.004 C 
ENDBRANCH  15  16
ENDBRANCH  14  15
ENDBRANCH  13  14
ENDBRANCH  12  13
ENDBRANCH  11  12
ENDBRANCH  10  11
ENDBRANCH   1  10
TORSDOF 13
ENDMDL
