MODEL 1
REMARK VINA RESULT:    -3.311      0.000      0.000
REMARK INTER + INTRA:          -3.634
REMARK INTER:                  -3.602
REMARK INTRA:                  -0.033
REMARK UNBOUND:                -0.033
REMARK SMILES O=C([O-])c1ccc(O)cc1
REMARK SMILES IDX 7 1 6 2 9 3 5 4 10 5 4 6 8 7 2 9 1 10 3 11
REMARK H PARENT 8 8
REMARK Flexibility Score: inf
ROOT
ATOM      1  C   UNL     1     134.223 126.233 101.028  1.00  0.00     0.115 A 
ATOM      2  C   UNL     1     134.218 127.553 100.567  1.00  0.00     0.047 A 
ATOM      3  C   UNL     1     134.471 125.185 100.133  1.00  0.00     0.047 A 
ATOM      4  C   UNL     1     134.459 127.828  99.217  1.00  0.00     0.014 A 
ATOM      5  C   UNL     1     134.713 125.457  98.782  1.00  0.00     0.014 A 
ATOM      6  C   UNL     1     134.710 126.783  98.310  1.00  0.00    -0.003 A 
ENDROOT
BRANCH   1   7
ATOM      7  O   UNL     1     133.982 125.974 102.375  1.00  0.00    -0.508 OA
ATOM      8  H   UNL     1     134.739 125.898 103.045  1.00  0.00     0.293 HD
ENDBRANCH   1   7
BRANCH   6   9
ATOM      9  C   UNL     1     134.964 127.077  96.884  1.00  0.00     0.071 C 
ATOM     10  O   UNL     1     134.367 128.026  96.308  1.00  0.00    -0.545 OA
ATOM     11  O   UNL     1     135.868 126.310  96.156  1.00  0.00    -0.545 OA
ENDBRANCH   6   9
TORSDOF 2
ENDMDL
MODEL 2
REMARK VINA RESULT:    -3.306     17.565     17.810
REMARK INTER + INTRA:          -3.629
REMARK INTER:                  -3.595
REMARK INTRA:                  -0.035
REMARK UNBOUND:                -0.033
REMARK SMILES O=C([O-])c1ccc(O)cc1
REMARK SMILES IDX 7 1 6 2 9 3 5 4 10 5 4 6 8 7 2 9 1 10 3 11
REMARK H PARENT 8 8
REMARK Flexibility Score: inf
ROOT
ATOM      1  C   UNL     1     117.391 124.077 100.627  1.00  0.00     0.115 A 
ATOM      2  C   UNL     1     117.273 125.456 100.819  1.00  0.00     0.047 A 
ATOM      3  C   UNL     1     117.192 123.533  99.352  1.00  0.00     0.047 A 
ATOM      4  C   UNL     1     116.958 126.293  99.743  1.00  0.00     0.014 A 
ATOM      5  C   UNL     1     116.877 124.367  98.274  1.00  0.00     0.014 A 
ATOM      6  C   UNL     1     116.757 125.757  98.458  1.00  0.00    -0.003 A 
ENDROOT
BRANCH   1   7
ATOM      7  O   UNL     1     117.705 123.256 101.707  1.00  0.00    -0.508 OA
ATOM      8  H   UNL     1     117.563 123.560 102.664  1.00  0.00     0.293 HD
ENDBRANCH   1   7
BRANCH   6   9
ATOM      9  C   UNL     1     116.425 126.643  97.323  1.00  0.00     0.071 C 
ATOM     10  O   UNL     1     116.630 126.271  96.137  1.00  0.00    -0.545 OA
ATOM     11  O   UNL     1     115.878 127.902  97.548  1.00  0.00    -0.545 OA
ENDBRANCH   6   9
TORSDOF 2
ENDMDL
MODEL 3
REMARK VINA RESULT:    -3.290      1.514      1.988
REMARK INTER + INTRA:          -3.611
REMARK INTER:                  -3.579
REMARK INTRA:                  -0.031
REMARK UNBOUND:                -0.033
REMARK SMILES O=C([O-])c1ccc(O)cc1
REMARK SMILES IDX 7 1 6 2 9 3 5 4 10 5 4 6 8 7 2 9 1 10 3 11
REMARK H PARENT 8 8
REMARK Flexibility Score: inf
ROOT
ATOM      1  C   UNL     1     134.091 127.377 100.344  1.00  0.00     0.115 A 
ATOM      2  C   UNL     1     134.276 127.876  99.051  1.00  0.00     0.047 A 
ATOM      3  C   UNL     1     134.257 126.008 100.591  1.00  0.00     0.047 A 
ATOM      4  C   UNL     1     134.625 127.014  98.007  1.00  0.00     0.014 A 
ATOM      5  C   UNL     1     134.607 125.144  99.548  1.00  0.00     0.014 A 
ATOM      6  C   UNL     1     134.795 125.638  98.245  1.00  0.00    -0.003 A 
ENDROOT
BRANCH   1   7
ATOM      7  O   UNL     1     133.744 128.247 101.375  1.00  0.00    -0.508 OA
ATOM      8  H   UNL     1     134.351 128.391 102.174  1.00  0.00     0.293 HD
ENDBRANCH   1   7
BRANCH   6   9
ATOM      9  C   UNL     1     135.164 124.729  97.138  1.00  0.00     0.071 C 
ATOM     10  O   UNL     1     134.615 124.836  96.009  1.00  0.00    -0.545 OA
ATOM     11  O   UNL     1     136.125 123.742  97.328  1.00  0.00    -0.545 OA
ENDBRANCH   6   9
TORSDOF 2
ENDMDL
MODEL 4
REMARK VINA RESULT:    -3.240     17.501     17.775
REMARK INTER + INTRA:          -3.557
REMARK INTER:                  -3.524
REMARK INTRA:                  -0.033
REMARK UNBOUND:                -0.033
REMARK SMILES O=C([O-])c1ccc(O)cc1
REMARK SMILES IDX 7 1 6 2 9 3 5 4 10 5 4 6 8 7 2 9 1 10 3 11
REMARK H PARENT 8 8
REMARK Flexibility Score: inf
ROOT
ATOM      1  C   UNL     1     117.375 125.346 101.372  1.00  0.00     0.115 A 
ATOM      2  C   UNL     1     117.373 124.025 100.913  1.00  0.00     0.047 A 
ATOM      3  C   UNL     1     117.130 126.393 100.475  1.00  0.00     0.047 A 
ATOM      4  C   UNL     1     117.128 123.748  99.565  1.00  0.00     0.014 A 
ATOM      5  C   UNL     1     116.884 126.119  99.125  1.00  0.00     0.014 A 
ATOM      6  C   UNL     1     116.879 124.793  98.656  1.00  0.00    -0.003 A 
ENDROOT
BRANCH   1   7
ATOM      7  O   UNL     1     117.621 125.607 102.717  1.00  0.00    -0.508 OA
ATOM      8  H   UNL     1     117.089 125.154 103.452  1.00  0.00     0.293 HD
ENDBRANCH   1   7
BRANCH   6   9
ATOM      9  C   UNL     1     116.620 124.497  97.231  1.00  0.00     0.071 C 
ATOM     10  O   UNL     1     115.875 125.248  96.545  1.00  0.00    -0.545 OA
ATOM     11  O   UNL     1     117.195 123.385  96.625  1.00  0.00    -0.545 OA
ENDBRANCH   6   9
TORSDOF 2
ENDMDL
MODEL 5
REMARK VINA RESULT:    -3.178     17.449     18.075
REMARK INTER + INTRA:          -3.489
REMARK INTER:                  -3.457
REMARK INTRA:                  -0.032
REMARK UNBOUND:                -0.033
REMARK SMILES O=C([O-])c1ccc(O)cc1
REMARK SMILES IDX 7 1 6 2 9 3 5 4 10 5 4 6 8 7 2 9 1 10 3 11
REMARK H PARENT 8 8
REMARK Flexibility Score: inf
ROOT
ATOM      1  C   UNL     1     116.729 124.274  97.918  1.00  0.00     0.115 A 
ATOM      2  C   UNL     1     116.499 125.653  97.889  1.00  0.00     0.047 A 
ATOM      3  C   UNL     1     117.140 123.663  99.109  1.00  0.00     0.047 A 
ATOM      4  C   UNL     1     116.676 126.420  99.044  1.00  0.00     0.014 A 
ATOM      5  C   UNL     1     117.318 124.428 100.266  1.00  0.00     0.014 A 
ATOM      6  C   UNL     1     117.088 125.816 100.246  1.00  0.00    -0.003 A 
ENDROOT
BRANCH   1   7
ATOM      7  O   UNL     1     116.548 123.522  96.760  1.00  0.00    -0.508 OA
ATOM      8  H   UNL     1     116.597 122.509  96.772  1.00  0.00     0.293 HD
ENDBRANCH   1   7
BRANCH   6   9
ATOM      9  C   UNL     1     117.274 126.631 101.466  1.00  0.00     0.071 C 
ATOM     10  O   UNL     1     117.784 127.781 101.397  1.00  0.00    -0.545 OA
ATOM     11  O   UNL     1     116.888 126.138 102.708  1.00  0.00    -0.545 OA
ENDBRANCH   6   9
TORSDOF 2
ENDMDL
MODEL 6
REMARK VINA RESULT:    -3.177      1.040      4.266
REMARK INTER + INTRA:          -3.488
REMARK INTER:                  -3.460
REMARK INTRA:                  -0.028
REMARK UNBOUND:                -0.033
REMARK SMILES O=C([O-])c1ccc(O)cc1
REMARK SMILES IDX 7 1 6 2 9 3 5 4 10 5 4 6 8 7 2 9 1 10 3 11
REMARK H PARENT 8 8
REMARK Flexibility Score: inf
ROOT
ATOM      1  C   UNL     1     134.922 127.072  97.760  1.00  0.00     0.115 A 
ATOM      2  C   UNL     1     134.501 127.798  98.878  1.00  0.00     0.047 A 
ATOM      3  C   UNL     1     135.081 125.684  97.852  1.00  0.00     0.047 A 
ATOM      4  C   UNL     1     134.241 127.142 100.086  1.00  0.00     0.014 A 
ATOM      5  C   UNL     1     134.820 125.025  99.058  1.00  0.00     0.014 A 
ATOM      6  C   UNL     1     134.397 125.748 100.188  1.00  0.00    -0.003 A 
ENDROOT
BRANCH   1   7
ATOM      7  O   UNL     1     135.177 127.738  96.563  1.00  0.00    -0.508 OA
ATOM      8  H   UNL     1     135.596 127.264  95.771  1.00  0.00     0.293 HD
ENDBRANCH   1   7
BRANCH   6   9
ATOM      9  C   UNL     1     134.120 125.058 101.466  1.00  0.00     0.071 C 
ATOM     10  O   UNL     1     135.064 124.614 102.173  1.00  0.00    -0.545 OA
ATOM     11  O   UNL     1     132.812 124.889 101.908  1.00  0.00    -0.545 OA
ENDBRANCH   6   9
TORSDOF 2
ENDMDL
MODEL 7
REMARK VINA RESULT:    -3.124      2.046      4.287
REMARK INTER + INTRA:          -3.430
REMARK INTER:                  -3.397
REMARK INTRA:                  -0.033
REMARK UNBOUND:                -0.033
REMARK SMILES O=C([O-])c1ccc(O)cc1
REMARK SMILES IDX 7 1 6 2 9 3 5 4 10 5 4 6 8 7 2 9 1 10 3 11
REMARK H PARENT 8 8
REMARK Flexibility Score: inf
ROOT
ATOM      1  C   UNL     1     134.891 127.456  96.812  1.00  0.00     0.115 A 
ATOM      2  C   UNL     1     135.637 126.420  96.242  1.00  0.00     0.047 A 
ATOM      3  C   UNL     1     134.381 127.312  98.108  1.00  0.00     0.047 A 
ATOM      4  C   UNL     1     135.875 125.244  96.960  1.00  0.00     0.014 A 
ATOM      5  C   UNL     1     134.618 126.138  98.830  1.00  0.00     0.014 A 
ATOM      6  C   UNL     1     135.368 125.091  98.263  1.00  0.00    -0.003 A 
ENDROOT
BRANCH   1   7
ATOM      7  O   UNL     1     134.663 128.621  96.084  1.00  0.00    -0.508 OA
ATOM      8  H   UNL     1     133.921 129.265  96.333  1.00  0.00     0.293 HD
ENDBRANCH   1   7
BRANCH   6   9
ATOM      9  C   UNL     1     135.620 123.847  99.021  1.00  0.00     0.071 C 
ATOM     10  O   UNL     1     135.772 123.877 100.272  1.00  0.00    -0.545 OA
ATOM     11  O   UNL     1     135.694 122.623  98.364  1.00  0.00    -0.545 OA
ENDBRANCH   6   9
TORSDOF 2
ENDMDL
MODEL 8
REMARK VINA RESULT:    -3.121     18.123     18.575
REMARK INTER + INTRA:          -3.427
REMARK INTER:                  -3.393
REMARK INTRA:                  -0.035
REMARK UNBOUND:                -0.033
REMARK SMILES O=C([O-])c1ccc(O)cc1
REMARK SMILES IDX 7 1 6 2 9 3 5 4 10 5 4 6 8 7 2 9 1 10 3 11
REMARK H PARENT 8 8
REMARK Flexibility Score: inf
ROOT
ATOM      1  C   UNL     1     116.775 123.827  96.900  1.00  0.00     0.115 A 
ATOM      2  C   UNL     1     117.257 123.900  98.210  1.00  0.00     0.047 A 
ATOM      3  C   UNL     1     116.083 124.915  96.353  1.00  0.00     0.047 A 
ATOM      4  C   UNL     1     117.050 125.053  98.974  1.00  0.00     0.014 A 
ATOM      5  C   UNL     1     115.875 126.070  97.114  1.00  0.00     0.014 A 
ATOM      6  C   UNL     1     116.357 126.151  98.433  1.00  0.00    -0.003 A 
ENDROOT
BRANCH   1   7
ATOM      7  O   UNL     1     116.988 122.672  96.151  1.00  0.00    -0.508 OA
ATOM      8  H   UNL     1     117.877 122.186  96.168  1.00  0.00     0.293 HD
ENDBRANCH   1   7
BRANCH   6   9
ATOM      9  C   UNL     1     116.140 127.370  99.242  1.00  0.00     0.071 C 
ATOM     10  O   UNL     1     116.194 127.322 100.500  1.00  0.00    -0.545 OA
ATOM     11  O   UNL     1     115.875 128.588  98.626  1.00  0.00    -0.545 OA
ENDBRANCH   6   9
TORSDOF 2
ENDMDL
MODEL 9
REMARK VINA RESULT:    -3.104     16.984     17.239
REMARK INTER + INTRA:          -3.408
REMARK INTER:                  -3.373
REMARK INTRA:                  -0.036
REMARK UNBOUND:                -0.033
REMARK SMILES O=C([O-])c1ccc(O)cc1
REMARK SMILES IDX 7 1 6 2 9 3 5 4 10 5 4 6 8 7 2 9 1 10 3 11
REMARK H PARENT 8 8
REMARK Flexibility Score: inf
ROOT
ATOM      1  C   UNL     1     118.143 123.179 100.053  1.00  0.00     0.115 A 
ATOM      2  C   UNL     1     117.057 123.962  99.649  1.00  0.00     0.047 A 
ATOM      3  C   UNL     1     118.970 122.588  99.090  1.00  0.00     0.047 A 
ATOM      4  C   UNL     1     116.797 124.156  98.289  1.00  0.00     0.014 A 
ATOM      5  C   UNL     1     118.712 122.781  97.728  1.00  0.00     0.014 A 
ATOM      6  C   UNL     1     117.622 123.568  97.314  1.00  0.00    -0.003 A 
ENDROOT
BRANCH   1   7
ATOM      7  O   UNL     1     118.391 122.994 101.411  1.00  0.00    -0.508 OA
ATOM      8  H   UNL     1     117.694 123.216 102.112  1.00  0.00     0.293 HD
ENDBRANCH   1   7
BRANCH   6   9
ATOM      9  C   UNL     1     117.344 123.775  95.876  1.00  0.00     0.071 C 
ATOM     10  O   UNL     1     118.048 123.208  94.998  1.00  0.00    -0.545 OA
ATOM     11  O   UNL     1     116.299 124.600  95.472  1.00  0.00    -0.545 OA
ENDBRANCH   6   9
TORSDOF 2
ENDMDL
