MODEL 1
REMARK VINA RESULT:    -5.548      0.000      0.000
REMARK INTER + INTRA:          -5.548
REMARK INTER:                  -5.548
REMARK INTRA:                   0.000
REMARK UNBOUND:                 0.000
REMARK SMILES CC1=CC(=O)[C@@H]2C[C@H]1C2(C)C
REMARK SMILES IDX 1 1 2 2 3 3 4 4 5 5 6 6 7 7 8 8 9 9 10 10 11 11
REMARK H PARENT
REMARK Flexibility Score: inf
ROOT
ATOM      1  C   UNL     1      36.837  39.405  84.365  1.00  0.00     0.040 C 
ATOM      2  C   UNL     1      35.454  39.951  84.208  1.00  0.00    -0.066 C 
ATOM      3  C   UNL     1      34.430  39.525  84.998  1.00  0.00     0.047 C 
ATOM      4  C   UNL     1      33.098  40.170  84.763  1.00  0.00     0.159 C 
ATOM      5  O   UNL     1      32.084  39.891  85.455  1.00  0.00    -0.295 OA
ATOM      6  C   UNL     1      33.057  41.193  83.627  1.00  0.00     0.067 C 
ATOM      7  C   UNL     1      33.813  40.502  82.471  1.00  0.00     0.021 C 
ATOM      8  C   UNL     1      35.115  41.007  83.136  1.00  0.00     0.022 C 
ATOM      9  C   UNL     1      34.276  42.148  83.779  1.00  0.00    -0.019 C 
ATOM     10  C   UNL     1      34.664  42.631  85.206  1.00  0.00     0.012 C 
ATOM     11  C   UNL     1      34.167  43.392  82.859  1.00  0.00     0.012 C 
ENDROOT
TORSDOF 0
ENDMDL
MODEL 2
REMARK VINA RESULT:    -5.463      1.709      3.024
REMARK INTER + INTRA:          -5.463
REMARK INTER:                  -5.463
REMARK INTRA:                   0.000
REMARK UNBOUND:                 0.000
REMARK SMILES CC1=CC(=O)[C@@H]2C[C@H]1C2(C)C
REMARK SMILES IDX 1 1 2 2 3 3 4 4 5 5 6 6 7 7 8 8 9 9 10 10 11 11
REMARK H PARENT
REMARK Flexibility Score: inf
ROOT
ATOM      1  C   UNL     1      32.151  40.091  85.485  1.00  0.00     0.040 C 
ATOM      2  C   UNL     1      33.552  40.406  85.067  1.00  0.00    -0.066 C 
ATOM      3  C   UNL     1      34.499  39.432  84.972  1.00  0.00     0.047 C 
ATOM      4  C   UNL     1      35.856  39.868  84.512  1.00  0.00     0.159 C 
ATOM      5  O   UNL     1      36.804  39.056  84.347  1.00  0.00    -0.295 OA
ATOM      6  C   UNL     1      36.010  41.368  84.256  1.00  0.00     0.067 C 
ATOM      7  C   UNL     1      35.342  42.030  85.481  1.00  0.00     0.021 C 
ATOM      8  C   UNL     1      33.998  41.846  84.739  1.00  0.00     0.022 C 
ATOM      9  C   UNL     1      34.799  41.850  83.406  1.00  0.00    -0.019 C 
ATOM     10  C   UNL     1      34.301  40.940  82.246  1.00  0.00     0.012 C 
ATOM     11  C   UNL     1      35.006  43.280  82.845  1.00  0.00     0.012 C 
ENDROOT
TORSDOF 0
ENDMDL
MODEL 3
REMARK VINA RESULT:    -5.287      1.961      3.155
REMARK INTER + INTRA:          -5.287
REMARK INTER:                  -5.287
REMARK INTRA:                   0.000
REMARK UNBOUND:                 0.000
REMARK SMILES CC1=CC(=O)[C@@H]2C[C@H]1C2(C)C
REMARK SMILES IDX 1 1 2 2 3 3 4 4 5 5 6 6 7 7 8 8 9 9 10 10 11 11
REMARK H PARENT
REMARK Flexibility Score: inf
ROOT
ATOM      1  C   UNL     1      35.595  43.654  83.253  1.00  0.00     0.040 C 
ATOM      2  C   UNL     1      35.514  42.207  83.621  1.00  0.00    -0.066 C 
ATOM      3  C   UNL     1      36.623  41.505  83.985  1.00  0.00     0.047 C 
ATOM      4  C   UNL     1      36.407  40.071  84.361  1.00  0.00     0.159 C 
ATOM      5  O   UNL     1      37.346  39.329  84.752  1.00  0.00    -0.295 OA
ATOM      6  C   UNL     1      34.967  39.572  84.239  1.00  0.00     0.067 C 
ATOM      7  C   UNL     1      34.498  40.106  82.868  1.00  0.00     0.021 C 
ATOM      8  C   UNL     1      34.179  41.435  83.592  1.00  0.00     0.022 C 
ATOM      9  C   UNL     1      34.025  40.616  84.905  1.00  0.00    -0.019 C 
ATOM     10  C   UNL     1      34.477  41.275  86.240  1.00  0.00     0.012 C 
ATOM     11  C   UNL     1      32.585  40.072  85.096  1.00  0.00     0.012 C 
ENDROOT
TORSDOF 0
ENDMDL
MODEL 4
REMARK VINA RESULT:    -5.278      1.885      2.937
REMARK INTER + INTRA:          -5.278
REMARK INTER:                  -5.278
REMARK INTRA:                   0.000
REMARK UNBOUND:                 0.000
REMARK SMILES CC1=CC(=O)[C@@H]2C[C@H]1C2(C)C
REMARK SMILES IDX 1 1 2 2 3 3 4 4 5 5 6 6 7 7 8 8 9 9 10 10 11 11
REMARK H PARENT
REMARK Flexibility Score: inf
ROOT
ATOM      1  C   UNL     1      36.042  38.526  83.922  1.00  0.00     0.040 C 
ATOM      2  C   UNL     1      35.364  39.822  84.231  1.00  0.00    -0.066 C 
ATOM      3  C   UNL     1      35.974  41.016  83.992  1.00  0.00     0.047 C 
ATOM      4  C   UNL     1      35.179  42.244  84.315  1.00  0.00     0.159 C 
ATOM      5  O   UNL     1      35.618  43.405  84.102  1.00  0.00    -0.295 OA
ATOM      6  C   UNL     1      33.797  41.990  84.917  1.00  0.00     0.067 C 
ATOM      7  C   UNL     1      34.047  40.909  85.991  1.00  0.00     0.021 C 
ATOM      8  C   UNL     1      33.950  39.873  84.848  1.00  0.00     0.022 C 
ATOM      9  C   UNL     1      33.081  40.901  84.068  1.00  0.00    -0.019 C 
ATOM     10  C   UNL     1      33.222  40.958  82.520  1.00  0.00     0.012 C 
ATOM     11  C   UNL     1      31.574  40.781  84.413  1.00  0.00     0.012 C 
ENDROOT
TORSDOF 0
ENDMDL
MODEL 5
REMARK VINA RESULT:    -5.196      1.713      2.805
REMARK INTER + INTRA:          -5.196
REMARK INTER:                  -5.196
REMARK INTRA:                   0.000
REMARK UNBOUND:                 0.000
REMARK SMILES CC1=CC(=O)[C@@H]2C[C@H]1C2(C)C
REMARK SMILES IDX 1 1 2 2 3 3 4 4 5 5 6 6 7 7 8 8 9 9 10 10 11 11
REMARK H PARENT
REMARK Flexibility Score: inf
ROOT
ATOM      1  C   UNL     1      35.395  42.357  86.942  1.00  0.00     0.040 C 
ATOM      2  C   UNL     1      35.232  41.580  85.676  1.00  0.00    -0.066 C 
ATOM      3  C   UNL     1      35.923  40.427  85.458  1.00  0.00     0.047 C 
ATOM      4  C   UNL     1      35.650  39.723  84.164  1.00  0.00     0.159 C 
ATOM      5  O   UNL     1      36.197  38.629  83.865  1.00  0.00    -0.295 OA
ATOM      6  C   UNL     1      34.659  40.424  83.234  1.00  0.00     0.067 C 
ATOM      7  C   UNL     1      35.111  41.901  83.248  1.00  0.00     0.021 C 
ATOM      8  C   UNL     1      34.289  42.050  84.549  1.00  0.00     0.022 C 
ATOM      9  C   UNL     1      33.418  40.853  84.068  1.00  0.00    -0.019 C 
ATOM     10  C   UNL     1      32.869  39.867  85.138  1.00  0.00     0.012 C 
ATOM     11  C   UNL     1      32.236  41.306  83.173  1.00  0.00     0.012 C 
ENDROOT
TORSDOF 0
ENDMDL
MODEL 6
REMARK VINA RESULT:    -5.056      1.881      2.834
REMARK INTER + INTRA:          -5.056
REMARK INTER:                  -5.056
REMARK INTRA:                   0.000
REMARK UNBOUND:                 0.000
REMARK SMILES CC1=CC(=O)[C@@H]2C[C@H]1C2(C)C
REMARK SMILES IDX 1 1 2 2 3 3 4 4 5 5 6 6 7 7 8 8 9 9 10 10 11 11
REMARK H PARENT
REMARK Flexibility Score: inf
ROOT
ATOM      1  C   UNL     1      33.920  40.480  82.000  1.00  0.00     0.040 C 
ATOM      2  C   UNL     1      33.664  40.734  83.451  1.00  0.00    -0.066 C 
ATOM      3  C   UNL     1      34.675  40.719  84.362  1.00  0.00     0.047 C 
ATOM      4  C   UNL     1      34.295  41.019  85.781  1.00  0.00     0.159 C 
ATOM      5  O   UNL     1      35.145  41.073  86.707  1.00  0.00    -0.295 OA
ATOM      6  C   UNL     1      32.804  41.256  86.022  1.00  0.00     0.067 C 
ATOM      7  C   UNL     1      32.110  40.117  85.245  1.00  0.00     0.021 C 
ATOM      8  C   UNL     1      32.244  41.009  83.989  1.00  0.00     0.022 C 
ATOM      9  C   UNL     1      32.279  42.241  84.939  1.00  0.00    -0.019 C 
ATOM     10  C   UNL     1      33.174  43.450  84.541  1.00  0.00     0.012 C 
ATOM     11  C   UNL     1      30.861  42.774  85.266  1.00  0.00     0.012 C 
ENDROOT
TORSDOF 0
ENDMDL
MODEL 7
REMARK VINA RESULT:    -5.053      1.857      3.349
REMARK INTER + INTRA:          -5.053
REMARK INTER:                  -5.053
REMARK INTRA:                   0.000
REMARK UNBOUND:                 0.000
REMARK SMILES CC1=CC(=O)[C@@H]2C[C@H]1C2(C)C
REMARK SMILES IDX 1 1 2 2 3 3 4 4 5 5 6 6 7 7 8 8 9 9 10 10 11 11
REMARK H PARENT
REMARK Flexibility Score: inf
ROOT
ATOM      1  C   UNL     1      32.079  40.086  85.434  1.00  0.00     0.040 C 
ATOM      2  C   UNL     1      33.320  40.707  84.878  1.00  0.00    -0.066 C 
ATOM      3  C   UNL     1      33.496  42.057  84.871  1.00  0.00     0.047 C 
ATOM      4  C   UNL     1      34.796  42.554  84.316  1.00  0.00     0.159 C 
ATOM      5  O   UNL     1      35.093  43.778  84.291  1.00  0.00    -0.295 OA
ATOM      6  C   UNL     1      35.737  41.473  83.783  1.00  0.00     0.067 C 
ATOM      7  C   UNL     1      34.820  40.556  82.943  1.00  0.00     0.021 C 
ATOM      8  C   UNL     1      34.453  39.854  84.271  1.00  0.00     0.022 C 
ATOM      9  C   UNL     1      35.822  40.331  84.835  1.00  0.00    -0.019 C 
ATOM     10  C   UNL     1      35.902  40.716  86.340  1.00  0.00     0.012 C 
ATOM     11  C   UNL     1      36.968  39.332  84.529  1.00  0.00     0.012 C 
ENDROOT
TORSDOF 0
ENDMDL
MODEL 8
REMARK VINA RESULT:    -5.048      2.142      3.899
REMARK INTER + INTRA:          -5.048
REMARK INTER:                  -5.048
REMARK INTRA:                   0.000
REMARK UNBOUND:                 0.000
REMARK SMILES CC1=CC(=O)[C@@H]2C[C@H]1C2(C)C
REMARK SMILES IDX 1 1 2 2 3 3 4 4 5 5 6 6 7 7 8 8 9 9 10 10 11 11
REMARK H PARENT
REMARK Flexibility Score: inf
ROOT
ATOM      1  C   UNL     1      31.523  43.694  82.852  1.00  0.00     0.040 C 
ATOM      2  C   UNL     1      32.808  42.943  82.987  1.00  0.00    -0.066 C 
ATOM      3  C   UNL     1      34.011  43.561  82.826  1.00  0.00     0.047 C 
ATOM      4  C   UNL     1      35.227  42.706  83.017  1.00  0.00     0.159 C 
ATOM      5  O   UNL     1      36.395  43.170  82.935  1.00  0.00    -0.295 OA
ATOM      6  C   UNL     1      34.951  41.233  83.321  1.00  0.00     0.067 C 
ATOM      7  C   UNL     1      33.861  40.836  82.302  1.00  0.00     0.021 C 
ATOM      8  C   UNL     1      32.837  41.431  83.296  1.00  0.00     0.022 C 
ATOM      9  C   UNL     1      33.864  41.154  84.431  1.00  0.00    -0.019 C 
ATOM     10  C   UNL     1      33.941  42.160  85.615  1.00  0.00     0.012 C 
ATOM     11  C   UNL     1      33.725  39.725  85.017  1.00  0.00     0.012 C 
ENDROOT
TORSDOF 0
ENDMDL
MODEL 9
REMARK VINA RESULT:    -5.020      1.042      3.124
REMARK INTER + INTRA:          -5.020
REMARK INTER:                  -5.020
REMARK INTRA:                   0.000
REMARK UNBOUND:                 0.000
REMARK SMILES CC1=CC(=O)[C@@H]2C[C@H]1C2(C)C
REMARK SMILES IDX 1 1 2 2 3 3 4 4 5 5 6 6 7 7 8 8 9 9 10 10 11 11
REMARK H PARENT
REMARK Flexibility Score: inf
ROOT
ATOM      1  C   UNL     1      34.635  43.795  84.417  1.00  0.00     0.040 C 
ATOM      2  C   UNL     1      34.376  42.362  84.757  1.00  0.00    -0.066 C 
ATOM      3  C   UNL     1      33.111  41.899  84.960  1.00  0.00     0.047 C 
ATOM      4  C   UNL     1      32.981  40.438  85.264  1.00  0.00     0.159 C 
ATOM      5  O   UNL     1      31.863  39.883  85.432  1.00  0.00    -0.295 OA
ATOM      6  C   UNL     1      34.298  39.667  85.353  1.00  0.00     0.067 C 
ATOM      7  C   UNL     1      35.207  40.572  86.213  1.00  0.00     0.021 C 
ATOM      8  C   UNL     1      35.524  41.343  84.911  1.00  0.00     0.022 C 
ATOM      9  C   UNL     1      35.176  40.046  84.126  1.00  0.00    -0.019 C 
ATOM     10  C   UNL     1      34.486  40.190  82.739  1.00  0.00     0.012 C 
ATOM     11  C   UNL     1      36.399  39.107  83.964  1.00  0.00     0.012 C 
ENDROOT
TORSDOF 0
ENDMDL
