MODEL 1
REMARK VINA RESULT:    -4.139      0.000      0.000
REMARK INTER + INTRA:         -16.312
REMARK INTER:                 -10.430
REMARK INTRA:                  -5.882
REMARK UNBOUND:                -5.882
REMARK SMILES CCCCCCCCCCCCCCCCCCCCCCCCCCCC(=O)[O-]
REMARK SMILES IDX 15 1 16 2 17 3 18 4 19 5 20 6 21 7 22 8 23 9 24 10 25 11
REMARK SMILES IDX 26 12 27 13 28 14 29 15 30 16 14 17 13 18 12 19 11 20 10 21
REMARK SMILES IDX 9 22 8 23 7 24 6 25 5 26 4 27 3 28 2 29 1 30
REMARK H PARENT
REMARK Flexibility Score: inf
ROOT
ATOM      1  C   UNL     1      22.505  -5.804  47.538  1.00  0.00     0.000 C 
ENDROOT
BRANCH   1   2
ATOM      2  C   UNL     1      23.687  -5.991  46.565  1.00  0.00     0.000 C 
BRANCH   2   3
ATOM      3  C   UNL     1      24.677  -4.816  46.562  1.00  0.00     0.000 C 
BRANCH   3   4
ATOM      4  C   UNL     1      25.280  -4.541  45.174  1.00  0.00     0.000 C 
BRANCH   4   5
ATOM      5  C   UNL     1      25.567  -3.049  44.938  1.00  0.00     0.000 C 
BRANCH   5   6
ATOM      6  C   UNL     1      25.429  -2.210  46.220  1.00  0.00     0.000 C 
BRANCH   6   7
ATOM      7  C   UNL     1      24.429  -1.055  46.058  1.00  0.00     0.000 C 
BRANCH   7   8
ATOM      8  C   UNL     1      23.344  -1.349  45.008  1.00  0.00     0.000 C 
BRANCH   8   9
ATOM      9  C   UNL     1      21.944  -1.474  45.630  1.00  0.00     0.000 C 
BRANCH   9  10
ATOM     10  C   UNL     1      21.375  -2.896  45.518  1.00  0.00     0.000 C 
BRANCH  10  11
ATOM     11  C   UNL     1      21.946  -3.622  44.291  1.00  0.00     0.000 C 
BRANCH  11  12
ATOM     12  C   UNL     1      21.213  -4.938  43.988  1.00  0.00     0.006 C 
BRANCH  12  13
ATOM     13  C   UNL     1      19.836  -5.022  44.661  1.00  0.00     0.053 C 
BRANCH  13  14
ATOM     14  C   UNL     1      18.746  -4.970  43.637  1.00  0.00     0.041 C 
ATOM     15  O   UNL     1      18.089  -6.007  43.356  1.00  0.00    -0.550 OA
ATOM     16  O   UNL     1      18.439  -3.771  43.007  1.00  0.00    -0.550 OA
ENDBRANCH  13  14
ENDBRANCH  12  13
ENDBRANCH  11  12
ENDBRANCH  10  11
ENDBRANCH   9  10
ENDBRANCH   8   9
ENDBRANCH   7   8
ENDBRANCH   6   7
ENDBRANCH   5   6
ENDBRANCH   4   5
ENDBRANCH   3   4
ENDBRANCH   2   3
ENDBRANCH   1   2
BRANCH   1  17
ATOM     17  C   UNL     1      21.530  -6.993  47.499  1.00  0.00     0.000 C 
BRANCH  17  18
ATOM     18  C   UNL     1      20.240  -6.731  48.294  1.00  0.00     0.000 C 
BRANCH  18  19
ATOM     19  C   UNL     1      20.196  -7.500  49.624  1.00  0.00     0.000 C 
BRANCH  19  20
ATOM     20  C   UNL     1      20.973  -6.755  50.722  1.00  0.00     0.000 C 
BRANCH  20  21
ATOM     21  C   UNL     1      22.265  -7.485  51.130  1.00  0.00     0.000 C 
BRANCH  21  22
ATOM     22  C   UNL     1      23.512  -6.594  50.994  1.00  0.00    -0.000 C 
BRANCH  22  23
ATOM     23  C   UNL     1      24.630  -7.253  50.166  1.00  0.00    -0.000 C 
BRANCH  23  24
ATOM     24  C   UNL     1      25.737  -6.294  49.693  1.00  0.00    -0.000 C 
BRANCH  24  25
ATOM     25  C   UNL     1      25.860  -5.042  50.581  1.00  0.00    -0.000 C 
BRANCH  25  26
ATOM     26  C   UNL     1      25.925  -3.745  49.761  1.00  0.00    -0.000 C 
BRANCH  26  27
ATOM     27  C   UNL     1      25.116  -2.602  50.399  1.00  0.00    -0.000 C 
BRANCH  27  28
ATOM     28  C   UNL     1      23.610  -2.901  50.448  1.00  0.00    -0.000 C 
BRANCH  28  29
ATOM     29  C   UNL     1      22.885  -2.500  49.155  1.00  0.00    -0.003 C 
ATOM     30  C   UNL     1      22.061  -1.231  49.357  1.00  0.00     0.004 C 
ENDBRANCH  28  29
ENDBRANCH  27  28
ENDBRANCH  26  27
ENDBRANCH  25  26
ENDBRANCH  24  25
ENDBRANCH  23  24
ENDBRANCH  22  23
ENDBRANCH  21  22
ENDBRANCH  20  21
ENDBRANCH  19  20
ENDBRANCH  18  19
ENDBRANCH  17  18
ENDBRANCH   1  17
TORSDOF 26
ENDMDL
MODEL 2
REMARK VINA RESULT:    -4.129      2.544      6.764
REMARK INTER + INTRA:         -16.288
REMARK INTER:                 -10.511
REMARK INTRA:                  -5.776
REMARK UNBOUND:                -5.882
REMARK SMILES CCCCCCCCCCCCCCCCCCCCCCCCCCCC(=O)[O-]
REMARK SMILES IDX 15 1 16 2 17 3 18 4 19 5 20 6 21 7 22 8 23 9 24 10 25 11
REMARK SMILES IDX 26 12 27 13 28 14 29 15 30 16 14 17 13 18 12 19 11 20 10 21
REMARK SMILES IDX 9 22 8 23 7 24 6 25 5 26 4 27 3 28 2 29 1 30
REMARK H PARENT
REMARK Flexibility Score: inf
ROOT
ATOM      1  C   UNL     1      20.437  -6.293  47.875  1.00  0.00     0.000 C 
ENDROOT
BRANCH   1   2
ATOM      2  C   UNL     1      20.215  -7.176  49.121  1.00  0.00     0.000 C 
BRANCH   2   3
ATOM      3  C   UNL     1      21.007  -6.713  50.354  1.00  0.00     0.000 C 
BRANCH   3   4
ATOM      4  C   UNL     1      21.619  -7.881  51.146  1.00  0.00     0.000 C 
BRANCH   4   5
ATOM      5  C   UNL     1      23.109  -7.665  51.462  1.00  0.00     0.000 C 
BRANCH   5   6
ATOM      6  C   UNL     1      23.982  -8.859  51.042  1.00  0.00     0.000 C 
BRANCH   6   7
ATOM      7  C   UNL     1      24.157  -8.949  49.518  1.00  0.00     0.000 C 
BRANCH   7   8
ATOM      8  C   UNL     1      25.123  -7.887  48.966  1.00  0.00     0.000 C 
BRANCH   8   9
ATOM      9  C   UNL     1      24.463  -6.988  47.908  1.00  0.00     0.000 C 
BRANCH   9  10
ATOM     10  C   UNL     1      23.943  -5.668  48.499  1.00  0.00     0.000 C 
BRANCH  10  11
ATOM     11  C   UNL     1      25.071  -4.898  49.202  1.00  0.00     0.000 C 
BRANCH  11  12
ATOM     12  C   UNL     1      24.612  -3.531  49.733  1.00  0.00     0.006 C 
BRANCH  12  13
ATOM     13  C   UNL     1      23.092  -3.339  49.649  1.00  0.00     0.053 C 
BRANCH  13  14
ATOM     14  C   UNL     1      22.743  -1.884  49.665  1.00  0.00     0.041 C 
ATOM     15  O   UNL     1      23.250  -1.120  50.528  1.00  0.00    -0.550 OA
ATOM     16  O   UNL     1      21.874  -1.366  48.713  1.00  0.00    -0.550 OA
ENDBRANCH  13  14
ENDBRANCH  12  13
ENDBRANCH  11  12
ENDBRANCH  10  11
ENDBRANCH   9  10
ENDBRANCH   8   9
ENDBRANCH   7   8
ENDBRANCH   6   7
ENDBRANCH   5   6
ENDBRANCH   4   5
ENDBRANCH   3   4
ENDBRANCH   2   3
ENDBRANCH   1   2
BRANCH   1  17
ATOM     17  C   UNL     1      19.549  -6.722  46.695  1.00  0.00     0.000 C 
BRANCH  17  18
ATOM     18  C   UNL     1      20.271  -7.664  45.718  1.00  0.00     0.000 C 
BRANCH  18  19
ATOM     19  C   UNL     1      21.735  -7.261  45.478  1.00  0.00     0.000 C 
BRANCH  19  20
ATOM     20  C   UNL     1      21.980  -6.915  44.000  1.00  0.00     0.000 C 
BRANCH  20  21
ATOM     21  C   UNL     1      20.672  -6.722  43.213  1.00  0.00     0.000 C 
BRANCH  21  22
ATOM     22  C   UNL     1      20.449  -5.258  42.794  1.00  0.00    -0.000 C 
BRANCH  22  23
ATOM     23  C   UNL     1      19.366  -4.555  43.632  1.00  0.00    -0.000 C 
BRANCH  23  24
ATOM     24  C   UNL     1      19.904  -3.620  44.731  1.00  0.00    -0.000 C 
BRANCH  24  25
ATOM     25  C   UNL     1      21.410  -3.338  44.588  1.00  0.00    -0.000 C 
BRANCH  25  26
ATOM     26  C   UNL     1      22.193  -3.658  45.870  1.00  0.00    -0.000 C 
BRANCH  26  27
ATOM     27  C   UNL     1      23.526  -2.893  45.955  1.00  0.00    -0.000 C 
BRANCH  27  28
ATOM     28  C   UNL     1      24.475  -3.229  44.794  1.00  0.00    -0.000 C 
BRANCH  28  29
ATOM     29  C   UNL     1      24.932  -4.695  44.809  1.00  0.00    -0.003 C 
ATOM     30  C   UNL     1      26.253  -4.850  45.559  1.00  0.00     0.004 C 
ENDBRANCH  28  29
ENDBRANCH  27  28
ENDBRANCH  26  27
ENDBRANCH  25  26
ENDBRANCH  24  25
ENDBRANCH  23  24
ENDBRANCH  22  23
ENDBRANCH  21  22
ENDBRANCH  20  21
ENDBRANCH  19  20
ENDBRANCH  18  19
ENDBRANCH  17  18
ENDBRANCH   1  17
TORSDOF 26
ENDMDL
MODEL 3
REMARK VINA RESULT:    -4.119      2.506      4.692
REMARK INTER + INTRA:         -16.261
REMARK INTER:                 -11.776
REMARK INTRA:                  -4.485
REMARK UNBOUND:                -5.882
REMARK SMILES CCCCCCCCCCCCCCCCCCCCCCCCCCCC(=O)[O-]
REMARK SMILES IDX 15 1 16 2 17 3 18 4 19 5 20 6 21 7 22 8 23 9 24 10 25 11
REMARK SMILES IDX 26 12 27 13 28 14 29 15 30 16 14 17 13 18 12 19 11 20 10 21
REMARK SMILES IDX 9 22 8 23 7 24 6 25 5 26 4 27 3 28 2 29 1 30
REMARK H PARENT
REMARK Flexibility Score: inf
ROOT
ATOM      1  C   UNL     1      20.309  -7.466  48.817  1.00  0.00     0.000 C 
ENDROOT
BRANCH   1   2
ATOM      2  C   UNL     1      19.867  -6.404  47.789  1.00  0.00     0.000 C 
BRANCH   2   3
ATOM      3  C   UNL     1      19.839  -6.920  46.342  1.00  0.00     0.000 C 
BRANCH   3   4
ATOM      4  C   UNL     1      18.414  -7.188  45.828  1.00  0.00     0.000 C 
BRANCH   4   5
ATOM      5  C   UNL     1      18.286  -6.986  44.309  1.00  0.00     0.000 C 
BRANCH   5   6
ATOM      6  C   UNL     1      19.651  -6.932  43.601  1.00  0.00     0.000 C 
BRANCH   6   7
ATOM      7  C   UNL     1      19.792  -5.700  42.694  1.00  0.00     0.000 C 
BRANCH   7   8
ATOM      8  C   UNL     1      19.374  -4.395  43.393  1.00  0.00     0.000 C 
BRANCH   8   9
ATOM      9  C   UNL     1      20.583  -3.544  43.817  1.00  0.00     0.000 C 
BRANCH   9  10
ATOM     10  C   UNL     1      20.830  -3.586  45.333  1.00  0.00     0.000 C 
BRANCH  10  11
ATOM     11  C   UNL     1      22.185  -2.957  45.687  1.00  0.00     0.000 C 
BRANCH  11  12
ATOM     12  C   UNL     1      22.625  -1.889  44.673  1.00  0.00     0.006 C 
BRANCH  12  13
ATOM     13  C   UNL     1      23.548  -0.828  45.287  1.00  0.00     0.053 C 
BRANCH  13  14
ATOM     14  C   UNL     1      24.666  -1.475  46.042  1.00  0.00     0.041 C 
ATOM     15  O   UNL     1      24.760  -1.324  47.289  1.00  0.00    -0.550 OA
ATOM     16  O   UNL     1      25.593  -2.263  45.373  1.00  0.00    -0.550 OA
ENDBRANCH  13  14
ENDBRANCH  12  13
ENDBRANCH  11  12
ENDBRANCH  10  11
ENDBRANCH   9  10
ENDBRANCH   8   9
ENDBRANCH   7   8
ENDBRANCH   6   7
ENDBRANCH   5   6
ENDBRANCH   4   5
ENDBRANCH   3   4
ENDBRANCH   2   3
ENDBRANCH   1   2
BRANCH   1  17
ATOM     17  C   UNL     1      20.546  -6.860  50.211  1.00  0.00     0.000 C 
BRANCH  17  18
ATOM     18  C   UNL     1      21.366  -7.780  51.129  1.00  0.00     0.000 C 
BRANCH  18  19
ATOM     19  C   UNL     1      22.836  -7.345  51.246  1.00  0.00     0.000 C 
BRANCH  19  20
ATOM     20  C   UNL     1      23.783  -8.551  51.131  1.00  0.00     0.000 C 
BRANCH  20  21
ATOM     21  C   UNL     1      24.744  -8.435  49.935  1.00  0.00     0.000 C 
BRANCH  21  22
ATOM     22  C   UNL     1      24.007  -8.158  48.612  1.00  0.00    -0.000 C 
BRANCH  22  23
ATOM     23  C   UNL     1      24.518  -6.895  47.896  1.00  0.00    -0.000 C 
BRANCH  23  24
ATOM     24  C   UNL     1      23.434  -5.854  47.568  1.00  0.00    -0.000 C 
BRANCH  24  25
ATOM     25  C   UNL     1      23.281  -4.785  48.665  1.00  0.00    -0.000 C 
BRANCH  25  26
ATOM     26  C   UNL     1      24.632  -4.349  49.252  1.00  0.00    -0.000 C 
BRANCH  26  27
ATOM     27  C   UNL     1      24.474  -3.399  50.453  1.00  0.00    -0.000 C 
BRANCH  27  28
ATOM     28  C   UNL     1      23.021  -2.944  50.659  1.00  0.00    -0.000 C 
BRANCH  28  29
ATOM     29  C   UNL     1      22.841  -1.431  50.462  1.00  0.00    -0.003 C 
ATOM     30  C   UNL     1      21.946  -1.136  49.262  1.00  0.00     0.004 C 
ENDBRANCH  28  29
ENDBRANCH  27  28
ENDBRANCH  26  27
ENDBRANCH  25  26
ENDBRANCH  24  25
ENDBRANCH  23  24
ENDBRANCH  22  23
ENDBRANCH  21  22
ENDBRANCH  20  21
ENDBRANCH  19  20
ENDBRANCH  18  19
ENDBRANCH  17  18
ENDBRANCH   1  17
TORSDOF 26
ENDMDL
MODEL 4
REMARK VINA RESULT:    -4.113      2.569      4.755
REMARK INTER + INTRA:         -16.246
REMARK INTER:                 -10.445
REMARK INTRA:                  -5.801
REMARK UNBOUND:                -5.882
REMARK SMILES CCCCCCCCCCCCCCCCCCCCCCCCCCCC(=O)[O-]
REMARK SMILES IDX 15 1 16 2 17 3 18 4 19 5 20 6 21 7 22 8 23 9 24 10 25 11
REMARK SMILES IDX 26 12 27 13 28 14 29 15 30 16 14 17 13 18 12 19 11 20 10 21
REMARK SMILES IDX 9 22 8 23 7 24 6 25 5 26 4 27 3 28 2 29 1 30
REMARK H PARENT
REMARK Flexibility Score: inf
ROOT
ATOM      1  C   UNL     1      22.109  -6.415  47.276  1.00  0.00     0.000 C 
ENDROOT
BRANCH   1   2
ATOM      2  C   UNL     1      20.878  -7.344  47.274  1.00  0.00     0.000 C 
BRANCH   2   3
ATOM      3  C   UNL     1      19.548  -6.607  47.052  1.00  0.00     0.000 C 
BRANCH   3   4
ATOM      4  C   UNL     1      18.820  -7.055  45.773  1.00  0.00     0.000 C 
BRANCH   4   5
ATOM      5  C   UNL     1      19.685  -7.968  44.889  1.00  0.00     0.000 C 
BRANCH   5   6
ATOM      6  C   UNL     1      20.139  -7.278  43.591  1.00  0.00     0.000 C 
BRANCH   6   7
ATOM      7  C   UNL     1      21.654  -7.026  43.562  1.00  0.00     0.000 C 
BRANCH   7   8
ATOM      8  C   UNL     1      22.030  -5.599  43.996  1.00  0.00     0.000 C 
BRANCH   8   9
ATOM      9  C   UNL     1      20.824  -4.645  43.978  1.00  0.00     0.000 C 
BRANCH   9  10
ATOM     10  C   UNL     1      21.035  -3.411  44.869  1.00  0.00     0.000 C 
BRANCH  10  11
ATOM     11  C   UNL     1      22.014  -2.423  44.217  1.00  0.00     0.000 C 
BRANCH  11  12
ATOM     12  C   UNL     1      23.243  -2.141  45.095  1.00  0.00     0.006 C 
BRANCH  12  13
ATOM     13  C   UNL     1      23.172  -2.838  46.460  1.00  0.00     0.053 C 
BRANCH  13  14
ATOM     14  C   UNL     1      23.343  -1.847  47.567  1.00  0.00     0.041 C 
ATOM     15  O   UNL     1      22.351  -1.487  48.255  1.00  0.00    -0.550 OA
ATOM     16  O   UNL     1      24.601  -1.334  47.855  1.00  0.00    -0.550 OA
ENDBRANCH  13  14
ENDBRANCH  12  13
ENDBRANCH  11  12
ENDBRANCH  10  11
ENDBRANCH   9  10
ENDBRANCH   8   9
ENDBRANCH   7   8
ENDBRANCH   6   7
ENDBRANCH   5   6
ENDBRANCH   4   5
ENDBRANCH   3   4
ENDBRANCH   2   3
ENDBRANCH   1   2
BRANCH   1  17
ATOM     17  C   UNL     1      23.429  -7.202  47.226  1.00  0.00     0.000 C 
BRANCH  17  18
ATOM     18  C   UNL     1      23.223  -8.691  46.905  1.00  0.00     0.000 C 
BRANCH  18  19
ATOM     19  C   UNL     1      24.037  -9.614  47.826  1.00  0.00     0.000 C 
BRANCH  19  20
ATOM     20  C   UNL     1      24.634  -8.834  49.008  1.00  0.00     0.000 C 
BRANCH  20  21
ATOM     21  C   UNL     1      24.112  -9.331  50.368  1.00  0.00     0.000 C 
BRANCH  21  22
ATOM     22  C   UNL     1      23.533  -8.193  51.227  1.00  0.00    -0.000 C 
BRANCH  22  23
ATOM     23  C   UNL     1      22.112  -7.785  50.801  1.00  0.00    -0.000 C 
BRANCH  23  24
ATOM     24  C   UNL     1      21.805  -6.282  50.925  1.00  0.00    -0.000 C 
BRANCH  24  25
ATOM     25  C   UNL     1      23.026  -5.460  51.375  1.00  0.00    -0.000 C 
BRANCH  25  26
ATOM     26  C   UNL     1      23.272  -4.236  50.480  1.00  0.00    -0.000 C 
BRANCH  26  27
ATOM     27  C   UNL     1      24.769  -3.967  50.247  1.00  0.00    -0.000 C 
BRANCH  27  28
ATOM     28  C   UNL     1      25.627  -5.234  50.392  1.00  0.00    -0.000 C 
BRANCH  28  29
ATOM     29  C   UNL     1      26.334  -5.622  49.085  1.00  0.00    -0.003 C 
ATOM     30  C   UNL     1      26.020  -4.626  47.973  1.00  0.00     0.004 C 
ENDBRANCH  28  29
ENDBRANCH  27  28
ENDBRANCH  26  27
ENDBRANCH  25  26
ENDBRANCH  24  25
ENDBRANCH  23  24
ENDBRANCH  22  23
ENDBRANCH  21  22
ENDBRANCH  20  21
ENDBRANCH  19  20
ENDBRANCH  18  19
ENDBRANCH  17  18
ENDBRANCH   1  17
TORSDOF 26
ENDMDL
MODEL 5
REMARK VINA RESULT:    -4.075      2.693      6.466
REMARK INTER + INTRA:         -16.151
REMARK INTER:                 -10.595
REMARK INTRA:                  -5.556
REMARK UNBOUND:                -5.882
REMARK SMILES CCCCCCCCCCCCCCCCCCCCCCCCCCCC(=O)[O-]
REMARK SMILES IDX 15 1 16 2 17 3 18 4 19 5 20 6 21 7 22 8 23 9 24 10 25 11
REMARK SMILES IDX 26 12 27 13 28 14 29 15 30 16 14 17 13 18 12 19 11 20 10 21
REMARK SMILES IDX 9 22 8 23 7 24 6 25 5 26 4 27 3 28 2 29 1 30
REMARK H PARENT
REMARK Flexibility Score: inf
ROOT
ATOM      1  C   UNL     1      20.499  -3.564  43.709  1.00  0.00     0.000 C 
ENDROOT
BRANCH   1   2
ATOM      2  C   UNL     1      21.338  -4.341  44.745  1.00  0.00     0.000 C 
BRANCH   2   3
ATOM      3  C   UNL     1      20.730  -4.343  46.156  1.00  0.00     0.000 C 
BRANCH   3   4
ATOM      4  C   UNL     1      21.004  -5.646  46.926  1.00  0.00     0.000 C 
BRANCH   4   5
ATOM      5  C   UNL     1      19.712  -6.383  47.319  1.00  0.00     0.000 C 
BRANCH   5   6
ATOM      6  C   UNL     1      19.669  -6.742  48.814  1.00  0.00     0.000 C 
BRANCH   6   7
ATOM      7  C   UNL     1      20.909  -7.531  49.263  1.00  0.00     0.000 C 
BRANCH   7   8
ATOM      8  C   UNL     1      21.150  -7.448  50.780  1.00  0.00     0.000 C 
BRANCH   8   9
ATOM      9  C   UNL     1      22.562  -6.943  51.122  1.00  0.00     0.000 C 
BRANCH   9  10
ATOM     10  C   UNL     1      22.664  -5.410  51.083  1.00  0.00     0.000 C 
BRANCH  10  11
ATOM     11  C   UNL     1      24.131  -4.956  51.056  1.00  0.00     0.000 C 
BRANCH  11  12
ATOM     12  C   UNL     1      24.329  -3.642  50.286  1.00  0.00     0.006 C 
BRANCH  12  13
ATOM     13  C   UNL     1      23.111  -3.260  49.435  1.00  0.00     0.053 C 
BRANCH  13  14
ATOM     14  C   UNL     1      23.019  -1.775  49.282  1.00  0.00     0.041 C 
ATOM     15  O   UNL     1      23.975  -1.129  48.776  1.00  0.00    -0.550 OA
ATOM     16  O   UNL     1      21.870  -1.104  49.679  1.00  0.00    -0.550 OA
ENDBRANCH  13  14
ENDBRANCH  12  13
ENDBRANCH  11  12
ENDBRANCH  10  11
ENDBRANCH   9  10
ENDBRANCH   8   9
ENDBRANCH   7   8
ENDBRANCH   6   7
ENDBRANCH   5   6
ENDBRANCH   4   5
ENDBRANCH   3   4
ENDBRANCH   2   3
ENDBRANCH   1   2
BRANCH   1  17
ATOM     17  C   UNL     1      19.090  -4.157  43.543  1.00  0.00     0.000 C 
BRANCH  17  18
ATOM     18  C   UNL     1      19.104  -5.563  42.921  1.00  0.00     0.000 C 
BRANCH  18  19
ATOM     19  C   UNL     1      18.509  -6.630  43.853  1.00  0.00     0.000 C 
BRANCH  19  20
ATOM     20  C   UNL     1      19.428  -7.860  43.946  1.00  0.00     0.000 C 
BRANCH  20  21
ATOM     21  C   UNL     1      20.868  -7.557  43.498  1.00  0.00     0.000 C 
BRANCH  21  22
ATOM     22  C   UNL     1      21.885  -8.562  44.068  1.00  0.00    -0.000 C 
BRANCH  22  23
ATOM     23  C   UNL     1      21.430  -9.181  45.401  1.00  0.00    -0.000 C 
BRANCH  23  24
ATOM     24  C   UNL     1      22.509  -9.220  46.498  1.00  0.00    -0.000 C 
BRANCH  24  25
ATOM     25  C   UNL     1      23.521  -8.066  46.380  1.00  0.00    -0.000 C 
BRANCH  25  26
ATOM     26  C   UNL     1      24.040  -7.599  47.748  1.00  0.00    -0.000 C 
BRANCH  26  27
ATOM     27  C   UNL     1      24.762  -6.241  47.674  1.00  0.00    -0.000 C 
BRANCH  27  28
ATOM     28  C   UNL     1      24.746  -5.641  46.259  1.00  0.00    -0.000 C 
BRANCH  28  29
ATOM     29  C   UNL     1      24.864  -4.110  46.264  1.00  0.00    -0.003 C 
ATOM     30  C   UNL     1      24.778  -3.547  44.848  1.00  0.00     0.004 C 
ENDBRANCH  28  29
ENDBRANCH  27  28
ENDBRANCH  26  27
ENDBRANCH  25  26
ENDBRANCH  24  25
ENDBRANCH  23  24
ENDBRANCH  22  23
ENDBRANCH  21  22
ENDBRANCH  20  21
ENDBRANCH  19  20
ENDBRANCH  18  19
ENDBRANCH  17  18
ENDBRANCH   1  17
TORSDOF 26
ENDMDL
MODEL 6
REMARK VINA RESULT:    -4.034      2.517      6.551
REMARK INTER + INTRA:         -16.049
REMARK INTER:                 -10.821
REMARK INTRA:                  -5.227
REMARK UNBOUND:                -5.882
REMARK SMILES CCCCCCCCCCCCCCCCCCCCCCCCCCCC(=O)[O-]
REMARK SMILES IDX 15 1 16 2 17 3 18 4 19 5 20 6 21 7 22 8 23 9 24 10 25 11
REMARK SMILES IDX 26 12 27 13 28 14 29 15 30 16 14 17 13 18 12 19 11 20 10 21
REMARK SMILES IDX 9 22 8 23 7 24 6 25 5 26 4 27 3 28 2 29 1 30
REMARK H PARENT
REMARK Flexibility Score: inf
ROOT
ATOM      1  C   UNL     1      20.588  -7.030  50.488  1.00  0.00     0.000 C 
ENDROOT
BRANCH   1   2
ATOM      2  C   UNL     1      21.492  -8.071  51.182  1.00  0.00     0.000 C 
BRANCH   2   3
ATOM      3  C   UNL     1      22.981  -7.691  51.185  1.00  0.00     0.000 C 
BRANCH   3   4
ATOM      4  C   UNL     1      23.773  -8.359  50.048  1.00  0.00     0.000 C 
BRANCH   4   5
ATOM      5  C   UNL     1      25.288  -8.378  50.314  1.00  0.00     0.000 C 
BRANCH   5   6
ATOM      6  C   UNL     1      26.116  -8.297  49.020  1.00  0.00     0.000 C 
BRANCH   6   7
ATOM      7  C   UNL     1      25.323  -7.685  47.855  1.00  0.00     0.000 C 
BRANCH   7   8
ATOM      8  C   UNL     1      25.873  -6.318  47.413  1.00  0.00     0.000 C 
BRANCH   8   9
ATOM      9  C   UNL     1      24.850  -5.186  47.604  1.00  0.00     0.000 C 
BRANCH   9  10
ATOM     10  C   UNL     1      24.921  -4.559  49.005  1.00  0.00     0.000 C 
BRANCH  10  11
ATOM     11  C   UNL     1      23.559  -4.635  49.711  1.00  0.00     0.000 C 
BRANCH  11  12
ATOM     12  C   UNL     1      23.298  -3.427  50.623  1.00  0.00     0.006 C 
BRANCH  12  13
ATOM     13  C   UNL     1      23.750  -2.100  50.000  1.00  0.00     0.053 C 
BRANCH  13  14
ATOM     14  C   UNL     1      22.605  -1.418  49.321  1.00  0.00     0.041 C 
ATOM     15  O   UNL     1      21.724  -0.829  50.001  1.00  0.00    -0.550 OA
ATOM     16  O   UNL     1      22.519  -1.415  47.935  1.00  0.00    -0.550 OA
ENDBRANCH  13  14
ENDBRANCH  12  13
ENDBRANCH  11  12
ENDBRANCH  10  11
ENDBRANCH   9  10
ENDBRANCH   8   9
ENDBRANCH   7   8
ENDBRANCH   6   7
ENDBRANCH   5   6
ENDBRANCH   4   5
ENDBRANCH   3   4
ENDBRANCH   2   3
ENDBRANCH   1   2
BRANCH   1  17
ATOM     17  C   UNL     1      20.217  -7.449  49.056  1.00  0.00     0.000 C 
BRANCH  17  18
ATOM     18  C   UNL     1      20.528  -6.359  48.017  1.00  0.00     0.000 C 
BRANCH  18  19
ATOM     19  C   UNL     1      21.672  -6.753  47.069  1.00  0.00     0.000 C 
BRANCH  19  20
ATOM     20  C   UNL     1      21.819  -8.281  46.980  1.00  0.00     0.000 C 
BRANCH  20  21
ATOM     21  C   UNL     1      21.750  -8.798  45.532  1.00  0.00     0.000 C 
BRANCH  21  22
ATOM     22  C   UNL     1      21.930  -7.674  44.497  1.00  0.00    -0.000 C 
BRANCH  22  23
ATOM     23  C   UNL     1      20.789  -7.622  43.465  1.00  0.00    -0.000 C 
BRANCH  23  24
ATOM     24  C   UNL     1      19.378  -7.801  44.053  1.00  0.00    -0.000 C 
BRANCH  24  25
ATOM     25  C   UNL     1      18.752  -6.473  44.515  1.00  0.00    -0.000 C 
BRANCH  25  26
ATOM     26  C   UNL     1      18.692  -5.429  43.391  1.00  0.00    -0.000 C 
BRANCH  26  27
ATOM     27  C   UNL     1      19.183  -4.043  43.846  1.00  0.00    -0.000 C 
BRANCH  27  28
ATOM     28  C   UNL     1      20.175  -4.123  45.017  1.00  0.00    -0.000 C 
BRANCH  28  29
ATOM     29  C   UNL     1      21.388  -3.200  44.829  1.00  0.00    -0.003 C 
ATOM     30  C   UNL     1      22.693  -3.991  44.873  1.00  0.00     0.004 C 
ENDBRANCH  28  29
ENDBRANCH  27  28
ENDBRANCH  26  27
ENDBRANCH  25  26
ENDBRANCH  24  25
ENDBRANCH  23  24
ENDBRANCH  22  23
ENDBRANCH  21  22
ENDBRANCH  20  21
ENDBRANCH  19  20
ENDBRANCH  18  19
ENDBRANCH  17  18
ENDBRANCH   1  17
TORSDOF 26
ENDMDL
MODEL 7
REMARK VINA RESULT:    -4.020      2.553      6.322
REMARK INTER + INTRA:         -16.012
REMARK INTER:                 -10.646
REMARK INTRA:                  -5.366
REMARK UNBOUND:                -5.882
REMARK SMILES CCCCCCCCCCCCCCCCCCCCCCCCCCCC(=O)[O-]
REMARK SMILES IDX 15 1 16 2 17 3 18 4 19 5 20 6 21 7 22 8 23 9 24 10 25 11
REMARK SMILES IDX 26 12 27 13 28 14 29 15 30 16 14 17 13 18 12 19 11 20 10 21
REMARK SMILES IDX 9 22 8 23 7 24 6 25 5 26 4 27 3 28 2 29 1 30
REMARK H PARENT
REMARK Flexibility Score: inf
ROOT
ATOM      1  C   UNL     1      20.376  -6.899  50.373  1.00  0.00     0.000 C 
ENDROOT
BRANCH   1   2
ATOM      2  C   UNL     1      21.273  -7.907  51.121  1.00  0.00     0.000 C 
BRANCH   2   3
ATOM      3  C   UNL     1      22.747  -7.483  51.201  1.00  0.00     0.000 C 
BRANCH   3   4
ATOM      4  C   UNL     1      23.685  -8.422  50.424  1.00  0.00     0.000 C 
BRANCH   4   5
ATOM      5  C   UNL     1      24.838  -7.672  49.736  1.00  0.00     0.000 C 
BRANCH   5   6
ATOM      6  C   UNL     1      24.505  -6.194  49.470  1.00  0.00     0.000 C 
BRANCH   6   7
ATOM      7  C   UNL     1      25.509  -5.239  50.135  1.00  0.00     0.000 C 
BRANCH   7   8
ATOM      8  C   UNL     1      24.825  -4.094  50.901  1.00  0.00     0.000 C 
BRANCH   8   9
ATOM      9  C   UNL     1      23.315  -4.021  50.620  1.00  0.00     0.000 C 
BRANCH   9  10
ATOM     10  C   UNL     1      22.916  -2.740  49.872  1.00  0.00     0.000 C 
BRANCH  10  11
ATOM     11  C   UNL     1      23.394  -2.784  48.413  1.00  0.00     0.000 C 
BRANCH  11  12
ATOM     12  C   UNL     1      24.503  -1.760  48.122  1.00  0.00     0.006 C 
BRANCH  12  13
ATOM     13  C   UNL     1      25.477  -2.231  47.034  1.00  0.00     0.053 C 
BRANCH  13  14
ATOM     14  C   UNL     1      25.373  -1.361  45.821  1.00  0.00     0.041 C 
ATOM     15  O   UNL     1      26.331  -1.292  45.006  1.00  0.00    -0.550 OA
ATOM     16  O   UNL     1      24.209  -0.644  45.577  1.00  0.00    -0.550 OA
ENDBRANCH  13  14
ENDBRANCH  12  13
ENDBRANCH  11  12
ENDBRANCH  10  11
ENDBRANCH   9  10
ENDBRANCH   8   9
ENDBRANCH   7   8
ENDBRANCH   6   7
ENDBRANCH   5   6
ENDBRANCH   4   5
ENDBRANCH   3   4
ENDBRANCH   2   3
ENDBRANCH   1   2
BRANCH   1  17
ATOM     17  C   UNL     1      20.331  -7.175  48.861  1.00  0.00     0.000 C 
BRANCH  17  18
ATOM     18  C   UNL     1      21.106  -6.130  48.041  1.00  0.00     0.000 C 
BRANCH  18  19
ATOM     19  C   UNL     1      22.021  -6.766  46.982  1.00  0.00     0.000 C 
BRANCH  19  20
ATOM     20  C   UNL     1      21.825  -8.289  46.921  1.00  0.00     0.000 C 
BRANCH  20  21
ATOM     21  C   UNL     1      22.349  -8.900  45.610  1.00  0.00     0.000 C 
BRANCH  21  22
ATOM     22  C   UNL     1      21.215  -9.424  44.710  1.00  0.00    -0.000 C 
BRANCH  22  23
ATOM     23  C   UNL     1      21.192  -8.752  43.325  1.00  0.00    -0.000 C 
BRANCH  23  24
ATOM     24  C   UNL     1      21.741  -7.315  43.295  1.00  0.00    -0.000 C 
BRANCH  24  25
ATOM     25  C   UNL     1      20.662  -6.272  42.951  1.00  0.00    -0.000 C 
BRANCH  25  26
ATOM     26  C   UNL     1      19.643  -6.086  44.085  1.00  0.00    -0.000 C 
BRANCH  26  27
ATOM     27  C   UNL     1      19.799  -4.734  44.803  1.00  0.00    -0.000 C 
BRANCH  27  28
ATOM     28  C   UNL     1      20.767  -3.787  44.076  1.00  0.00    -0.000 C 
BRANCH  28  29
ATOM     29  C   UNL     1      21.891  -3.275  44.989  1.00  0.00    -0.003 C 
ATOM     30  C   UNL     1      23.167  -4.091  44.802  1.00  0.00     0.004 C 
ENDBRANCH  28  29
ENDBRANCH  27  28
ENDBRANCH  26  27
ENDBRANCH  25  26
ENDBRANCH  24  25
ENDBRANCH  23  24
ENDBRANCH  22  23
ENDBRANCH  21  22
ENDBRANCH  20  21
ENDBRANCH  19  20
ENDBRANCH  18  19
ENDBRANCH  17  18
ENDBRANCH   1  17
TORSDOF 26
ENDMDL
MODEL 8
REMARK VINA RESULT:    -4.016      1.520      5.404
REMARK INTER + INTRA:         -16.001
REMARK INTER:                  -9.970
REMARK INTRA:                  -6.032
REMARK UNBOUND:                -5.882
REMARK SMILES CCCCCCCCCCCCCCCCCCCCCCCCCCCC(=O)[O-]
REMARK SMILES IDX 15 1 16 2 17 3 18 4 19 5 20 6 21 7 22 8 23 9 24 10 25 11
REMARK SMILES IDX 26 12 27 13 28 14 29 15 30 16 14 17 13 18 12 19 11 20 10 21
REMARK SMILES IDX 9 22 8 23 7 24 6 25 5 26 4 27 3 28 2 29 1 30
REMARK H PARENT
REMARK Flexibility Score: inf
ROOT
ATOM      1  C   UNL     1      23.906  -4.446  50.411  1.00  0.00     0.000 C 
ENDROOT
BRANCH   1   2
ATOM      2  C   UNL     1      23.246  -5.403  51.426  1.00  0.00     0.000 C 
BRANCH   2   3
ATOM      3  C   UNL     1      22.102  -6.240  50.832  1.00  0.00     0.000 C 
BRANCH   3   4
ATOM      4  C   UNL     1      22.432  -7.741  50.759  1.00  0.00     0.000 C 
BRANCH   4   5
ATOM      5  C   UNL     1      23.920  -8.006  50.472  1.00  0.00     0.000 C 
BRANCH   5   6
ATOM      6  C   UNL     1      24.156  -8.601  49.074  1.00  0.00     0.000 C 
BRANCH   6   7
ATOM      7  C   UNL     1      23.773  -7.625  47.950  1.00  0.00     0.000 C 
BRANCH   7   8
ATOM      8  C   UNL     1      23.194  -8.336  46.715  1.00  0.00     0.000 C 
BRANCH   8   9
ATOM      9  C   UNL     1      21.692  -8.059  46.530  1.00  0.00     0.000 C 
BRANCH   9  10
ATOM     10  C   UNL     1      21.196  -6.898  47.406  1.00  0.00     0.000 C 
BRANCH  10  11
ATOM     11  C   UNL     1      19.835  -6.382  46.916  1.00  0.00     0.000 C 
BRANCH  11  12
ATOM     12  C   UNL     1      19.552  -6.756  45.453  1.00  0.00     0.006 C 
BRANCH  12  13
ATOM     13  C   UNL     1      19.464  -5.532  44.531  1.00  0.00     0.053 C 
BRANCH  13  14
ATOM     14  C   UNL     1      20.270  -5.749  43.289  1.00  0.00     0.041 C 
ATOM     15  O   UNL     1      19.974  -5.140  42.227  1.00  0.00    -0.550 OA
ATOM     16  O   UNL     1      21.361  -6.607  43.308  1.00  0.00    -0.550 OA
ENDBRANCH  13  14
ENDBRANCH  12  13
ENDBRANCH  11  12
ENDBRANCH  10  11
ENDBRANCH   9  10
ENDBRANCH   8   9
ENDBRANCH   7   8
ENDBRANCH   6   7
ENDBRANCH   5   6
ENDBRANCH   4   5
ENDBRANCH   3   4
ENDBRANCH   2   3
ENDBRANCH   1   2
BRANCH   1  17
ATOM     17  C   UNL     1      23.008  -4.186  49.191  1.00  0.00     0.000 C 
BRANCH  17  18
ATOM     18  C   UNL     1      22.917  -2.696  48.824  1.00  0.00     0.000 C 
BRANCH  18  19
ATOM     19  C   UNL     1      24.286  -1.997  48.841  1.00  0.00     0.000 C 
BRANCH  19  20
ATOM     20  C   UNL     1      24.661  -1.477  47.443  1.00  0.00     0.000 C 
BRANCH  20  21
ATOM     21  C   UNL     1      25.927  -2.150  46.883  1.00  0.00     0.000 C 
BRANCH  21  22
ATOM     22  C   UNL     1      26.300  -3.431  47.650  1.00  0.00    -0.000 C 
BRANCH  22  23
ATOM     23  C   UNL     1      26.177  -4.700  46.789  1.00  0.00    -0.000 C 
BRANCH  23  24
ATOM     24  C   UNL     1      25.701  -4.459  45.346  1.00  0.00    -0.000 C 
BRANCH  24  25
ATOM     25  C   UNL     1      24.396  -5.206  45.015  1.00  0.00    -0.000 C 
BRANCH  25  26
ATOM     26  C   UNL     1      23.153  -4.487  45.561  1.00  0.00    -0.000 C 
BRANCH  26  27
ATOM     27  C   UNL     1      22.760  -3.263  44.715  1.00  0.00    -0.000 C 
BRANCH  27  28
ATOM     28  C   UNL     1      21.546  -2.514  45.288  1.00  0.00    -0.000 C 
BRANCH  28  29
ATOM     29  C   UNL     1      21.808  -1.012  45.465  1.00  0.00    -0.003 C 
ATOM     30  C   UNL     1      22.727  -0.481  44.368  1.00  0.00     0.004 C 
ENDBRANCH  28  29
ENDBRANCH  27  28
ENDBRANCH  26  27
ENDBRANCH  25  26
ENDBRANCH  24  25
ENDBRANCH  23  24
ENDBRANCH  22  23
ENDBRANCH  21  22
ENDBRANCH  20  21
ENDBRANCH  19  20
ENDBRANCH  18  19
ENDBRANCH  17  18
ENDBRANCH   1  17
TORSDOF 26
ENDMDL
MODEL 9
REMARK VINA RESULT:    -3.992      1.529      5.661
REMARK INTER + INTRA:         -15.943
REMARK INTER:                 -10.770
REMARK INTRA:                  -5.172
REMARK UNBOUND:                -5.882
REMARK SMILES CCCCCCCCCCCCCCCCCCCCCCCCCCCC(=O)[O-]
REMARK SMILES IDX 15 1 16 2 17 3 18 4 19 5 20 6 21 7 22 8 23 9 24 10 25 11
REMARK SMILES IDX 26 12 27 13 28 14 29 15 30 16 14 17 13 18 12 19 11 20 10 21
REMARK SMILES IDX 9 22 8 23 7 24 6 25 5 26 4 27 3 28 2 29 1 30
REMARK H PARENT
REMARK Flexibility Score: inf
ROOT
ATOM      1  C   UNL     1      25.111  -4.832  49.616  1.00  0.00     0.000 C 
ENDROOT
BRANCH   1   2
ATOM      2  C   UNL     1      23.920  -5.740  49.245  1.00  0.00     0.000 C 
BRANCH   2   3
ATOM      3  C   UNL     1      24.275  -7.235  49.198  1.00  0.00     0.000 C 
BRANCH   3   4
ATOM      4  C   UNL     1      23.635  -8.040  50.342  1.00  0.00     0.000 C 
BRANCH   4   5
ATOM      5  C   UNL     1      22.607  -7.221  51.139  1.00  0.00     0.000 C 
BRANCH   5   6
ATOM      6  C   UNL     1      21.200  -7.841  51.102  1.00  0.00     0.000 C 
BRANCH   6   7
ATOM      7  C   UNL     1      20.259  -7.101  50.139  1.00  0.00     0.000 C 
BRANCH   7   8
ATOM      8  C   UNL     1      20.486  -7.491  48.668  1.00  0.00     0.000 C 
BRANCH   8   9
ATOM      9  C   UNL     1      19.893  -6.462  47.691  1.00  0.00     0.000 C 
BRANCH   9  10
ATOM     10  C   UNL     1      20.922  -5.413  47.243  1.00  0.00     0.000 C 
BRANCH  10  11
ATOM     11  C   UNL     1      21.848  -5.979  46.157  1.00  0.00     0.000 C 
BRANCH  11  12
ATOM     12  C   UNL     1      21.670  -5.275  44.803  1.00  0.00     0.006 C 
BRANCH  12  13
ATOM     13  C   UNL     1      20.354  -5.646  44.106  1.00  0.00     0.053 C 
BRANCH  13  14
ATOM     14  C   UNL     1      20.282  -7.121  43.865  1.00  0.00     0.041 C 
ATOM     15  O   UNL     1      21.226  -7.714  43.279  1.00  0.00    -0.550 OA
ATOM     16  O   UNL     1      19.183  -7.845  44.306  1.00  0.00    -0.550 OA
ENDBRANCH  13  14
ENDBRANCH  12  13
ENDBRANCH  11  12
ENDBRANCH  10  11
ENDBRANCH   9  10
ENDBRANCH   8   9
ENDBRANCH   7   8
ENDBRANCH   6   7
ENDBRANCH   5   6
ENDBRANCH   4   5
ENDBRANCH   3   4
ENDBRANCH   2   3
ENDBRANCH   1   2
BRANCH   1  17
ATOM     17  C   UNL     1      24.733  -3.786  50.678  1.00  0.00     0.000 C 
BRANCH  17  18
ATOM     18  C   UNL     1      23.216  -3.558  50.776  1.00  0.00     0.000 C 
BRANCH  18  19
ATOM     19  C   UNL     1      22.834  -2.070  50.714  1.00  0.00     0.000 C 
BRANCH  19  20
ATOM     20  C   UNL     1      23.310  -1.429  49.400  1.00  0.00     0.000 C 
BRANCH  20  21
ATOM     21  C   UNL     1      22.502  -1.909  48.182  1.00  0.00     0.000 C 
BRANCH  21  22
ATOM     22  C   UNL     1      23.394  -2.533  47.093  1.00  0.00    -0.000 C 
BRANCH  22  23
ATOM     23  C   UNL     1      23.110  -1.966  45.691  1.00  0.00    -0.000 C 
BRANCH  23  24
ATOM     24  C   UNL     1      24.276  -1.184  45.060  1.00  0.00    -0.000 C 
BRANCH  24  25
ATOM     25  C   UNL     1      25.472  -1.024  46.016  1.00  0.00    -0.000 C 
BRANCH  25  26
ATOM     26  C   UNL     1      26.806  -1.406  45.356  1.00  0.00    -0.000 C 
BRANCH  26  27
ATOM     27  C   UNL     1      26.616  -2.270  44.097  1.00  0.00    -0.000 C 
BRANCH  27  28
ATOM     28  C   UNL     1      26.880  -3.761  44.360  1.00  0.00    -0.000 C 
BRANCH  28  29
ATOM     29  C   UNL     1      25.586  -4.571  44.526  1.00  0.00    -0.003 C 
ATOM     30  C   UNL     1      25.536  -5.253  45.890  1.00  0.00     0.004 C 
ENDBRANCH  28  29
ENDBRANCH  27  28
ENDBRANCH  26  27
ENDBRANCH  25  26
ENDBRANCH  24  25
ENDBRANCH  23  24
ENDBRANCH  22  23
ENDBRANCH  21  22
ENDBRANCH  20  21
ENDBRANCH  19  20
ENDBRANCH  18  19
ENDBRANCH  17  18
ENDBRANCH   1  17
TORSDOF 26
ENDMDL
