MODEL 1
REMARK VINA RESULT:    -5.398      0.000      0.000
REMARK INTER + INTRA:          -7.079
REMARK INTER:                  -7.607
REMARK INTRA:                   0.528
REMARK UNBOUND:                 0.528
REMARK SMILES CC1=CCC(=C(C)C)C(=O)CC(C)=CCC1
REMARK SMILES IDX 12 1 14 2 13 3 15 4 16 5 2 6 1 7 3 8 11 10 9 11 10 12 5 13
REMARK SMILES IDX 6 14 7 15 8 16 4 17
REMARK H PARENT
REMARK Flexibility Score: 60.00
ROOT
ATOM      1  C   UNL     1      -3.583 -11.418  27.790  1.00  0.00    -0.070 C 
ATOM      2  C   UNL     1      -2.744 -10.663  28.533  1.00  0.00    -0.027 C 
ATOM      3  C   UNL     1      -3.337 -11.494  26.304  1.00  0.00     0.039 C 
ENDROOT
BRANCH   2   4
ATOM      4  C   UNL     1      -2.882 -10.385  30.014  1.00  0.00     0.032 C 
BRANCH   4   5
ATOM      5  C   UNL     1      -1.675 -10.822  30.870  1.00  0.00     0.034 C 
BRANCH   5   6
ATOM      6  C   UNL     1      -1.317 -12.288  30.695  1.00  0.00    -0.077 C 
ATOM      7  C   UNL     1       0.092 -12.619  30.275  1.00  0.00     0.039 C 
ATOM      8  C   UNL     1      -2.199 -13.309  30.823  1.00  0.00    -0.023 CG0
ATOM      9  G   UNL     1      -3.650 -13.217  31.251  1.00  0.00     0.000 G0
ENDBRANCH   5   6
ENDBRANCH   4   5
ENDBRANCH   2   4
BRANCH   1  10
ATOM     10  C   UNL     1      -4.803 -12.111  28.362  1.00  0.00     0.111 C 
BRANCH  10  11
ATOM     11  C   UNL     1      -4.480 -13.503  28.835  1.00  0.00     0.163 C 
ATOM     12  O   UNL     1      -4.160 -14.365  27.972  1.00  0.00    -0.294 OA
BRANCH  11  13
ATOM     13  C   UNL     1      -4.587 -13.908  30.268  1.00  0.00    -0.002 C 
ATOM     14  C   UNL     1      -5.552 -14.786  30.678  1.00  0.00    -0.069 C 
ATOM     15  C   UNL     1      -5.786 -15.093  32.140  1.00  0.00     0.039 C 
ATOM     16  C   UNL     1      -6.439 -15.496  29.680  1.00  0.00     0.039 C 
BRANCH  13  17
ATOM     17  C   UNL     1      -3.646 -13.233  31.254  1.00  0.00     0.066 CG0
ATOM     18  G   UNL     1      -2.197 -13.309  30.813  1.00  0.00     0.000 G0
ENDBRANCH  13  17
ENDBRANCH  11  13
ENDBRANCH  10  11
ENDBRANCH   1  10
TORSDOF 0
ENDMDL
MODEL 2
REMARK VINA RESULT:    -5.162      1.194      1.747
REMARK INTER + INTRA:          -6.746
REMARK INTER:                  -7.201
REMARK INTRA:                   0.455
REMARK UNBOUND:                 0.528
REMARK SMILES CC1=CCC(=C(C)C)C(=O)CC(C)=CCC1
REMARK SMILES IDX 12 1 14 2 13 3 15 4 16 5 2 6 1 7 3 8 11 10 9 11 10 12 5 13
REMARK SMILES IDX 6 14 7 15 8 16 4 17
REMARK H PARENT
REMARK Flexibility Score: 60.00
ROOT
ATOM      1  C   UNL     1      -2.493 -12.837  27.736  1.00  0.00    -0.070 C 
ATOM      2  C   UNL     1      -1.315 -12.517  28.313  1.00  0.00    -0.027 C 
ATOM      3  C   UNL     1      -2.974 -11.984  26.589  1.00  0.00     0.039 C 
ENDROOT
BRANCH   2   4
ATOM      4  C   UNL     1      -0.716 -13.186  29.530  1.00  0.00     0.032 C 
BRANCH   4   5
ATOM      5  C   UNL     1      -0.662 -12.304  30.795  1.00  0.00     0.034 C 
BRANCH   5   6
ATOM      6  C   UNL     1      -1.917 -11.472  30.995  1.00  0.00    -0.077 C 
ATOM      7  C   UNL     1      -1.807  -9.981  30.798  1.00  0.00     0.039 C 
ATOM      8  C   UNL     1      -3.108 -11.972  31.406  1.00  0.00    -0.023 CG0
ATOM      9  G   UNL     1      -3.455 -13.428  31.647  1.00  0.00     0.000 G0
ENDBRANCH   5   6
ENDBRANCH   4   5
ENDBRANCH   2   4
BRANCH   1  10
ATOM     10  C   UNL     1      -3.392 -13.947  28.243  1.00  0.00     0.111 C 
BRANCH  10  11
ATOM     11  C   UNL     1      -4.391 -13.437  29.248  1.00  0.00     0.163 C 
ATOM     12  O   UNL     1      -5.147 -12.487  28.904  1.00  0.00    -0.294 OA
BRANCH  11  13
ATOM     13  C   UNL     1      -4.472 -13.970  30.640  1.00  0.00    -0.002 C 
ATOM     14  C   UNL     1      -5.462 -14.842  30.999  1.00  0.00    -0.069 C 
ATOM     15  C   UNL     1      -5.666 -15.275  32.434  1.00  0.00     0.039 C 
ATOM     16  C   UNL     1      -6.410 -15.418  29.971  1.00  0.00     0.039 C 
BRANCH  13  17
ATOM     17  C   UNL     1      -3.473 -13.430  31.651  1.00  0.00     0.066 CG0
ATOM     18  G   UNL     1      -3.116 -11.980  31.390  1.00  0.00     0.000 G0
ENDBRANCH  13  17
ENDBRANCH  11  13
ENDBRANCH  10  11
ENDBRANCH   1  10
TORSDOF 0
ENDMDL
MODEL 3
REMARK VINA RESULT:    -5.092      1.625      4.024
REMARK INTER + INTRA:          -6.647
REMARK INTER:                  -6.860
REMARK INTRA:                   0.213
REMARK UNBOUND:                 0.528
REMARK SMILES CC1=CCC(=C(C)C)C(=O)CC(C)=CCC1
REMARK SMILES IDX 12 1 14 2 13 3 15 4 16 5 2 6 1 7 3 8 11 10 9 11 10 12 5 13
REMARK SMILES IDX 6 14 7 15 8 16 4 17
REMARK H PARENT
REMARK Flexibility Score: 60.00
ROOT
ATOM      1  C   UNL     1      -4.235 -14.008  27.354  1.00  0.00    -0.070 C 
ATOM      2  C   UNL     1      -5.381 -14.294  28.008  1.00  0.00    -0.027 C 
ATOM      3  C   UNL     1      -4.318 -13.718  25.876  1.00  0.00     0.039 C 
ENDROOT
BRANCH   2   4
ATOM      4  C   UNL     1      -5.492 -14.704  29.460  1.00  0.00     0.032 C 
BRANCH   4   5
ATOM      5  C   UNL     1      -5.344 -13.549  30.472  1.00  0.00     0.034 C 
BRANCH   5   6
ATOM      6  C   UNL     1      -4.375 -13.862  31.599  1.00  0.00    -0.077 C 
ATOM      7  C   UNL     1      -4.747 -14.967  32.556  1.00  0.00     0.039 C 
ATOM      8  C   UNL     1      -3.235 -13.170  31.841  1.00  0.00    -0.023 CG0
ATOM      9  G   UNL     1      -2.656 -12.043  31.010  1.00  0.00     0.000 G0
ENDBRANCH   5   6
ENDBRANCH   4   5
ENDBRANCH   2   4
BRANCH   1  10
ATOM     10  C   UNL     1      -2.870 -14.054  28.010  1.00  0.00     0.111 C 
BRANCH  10  11
ATOM     11  C   UNL     1      -2.459 -12.703  28.533  1.00  0.00     0.163 C 
ATOM     12  O   UNL     1      -2.648 -11.697  27.794  1.00  0.00    -0.294 OA
BRANCH  11  13
ATOM     13  C   UNL     1      -1.786 -12.524  29.853  1.00  0.00    -0.002 C 
ATOM     14  C   UNL     1      -0.477 -12.879  30.025  1.00  0.00    -0.069 C 
ATOM     15  C   UNL     1       0.186 -12.859  31.384  1.00  0.00     0.039 C 
ATOM     16  C   UNL     1       0.377 -13.314  28.855  1.00  0.00     0.039 C 
BRANCH  13  17
ATOM     17  C   UNL     1      -2.641 -12.026  31.008  1.00  0.00     0.066 CG0
ATOM     18  G   UNL     1      -3.234 -13.161  31.818  1.00  0.00     0.000 G0
ENDBRANCH  13  17
ENDBRANCH  11  13
ENDBRANCH  10  11
ENDBRANCH   1  10
TORSDOF 0
ENDMDL
MODEL 4
REMARK VINA RESULT:    -4.929      1.572      4.009
REMARK INTER + INTRA:          -6.417
REMARK INTER:                  -6.672
REMARK INTRA:                   0.255
REMARK UNBOUND:                 0.528
REMARK SMILES CC1=CCC(=C(C)C)C(=O)CC(C)=CCC1
REMARK SMILES IDX 12 1 14 2 13 3 15 4 16 5 2 6 1 7 3 8 11 10 9 11 10 12 5 13
REMARK SMILES IDX 6 14 7 15 8 16 4 17
REMARK H PARENT
REMARK Flexibility Score: 60.00
ROOT
ATOM      1  C   UNL     1      -5.126 -14.564  30.715  1.00  0.00    -0.070 C 
ATOM      2  C   UNL     1      -4.758 -14.018  31.894  1.00  0.00    -0.027 C 
ATOM      3  C   UNL     1      -6.311 -15.497  30.707  1.00  0.00     0.039 C 
ENDROOT
BRANCH   2   4
ATOM      4  C   UNL     1      -3.547 -13.141  32.122  1.00  0.00     0.032 C 
BRANCH   4   5
ATOM      5  C   UNL     1      -3.719 -11.672  31.685  1.00  0.00     0.034 C 
BRANCH   5   6
ATOM      6  C   UNL     1      -2.653 -11.212  30.704  1.00  0.00    -0.077 C 
ATOM      7  C   UNL     1      -1.246 -11.054  31.222  1.00  0.00     0.039 C 
ATOM      8  C   UNL     1      -2.898 -10.870  29.416  1.00  0.00    -0.023 CG0
ATOM      9  G   UNL     1      -4.219 -10.965  28.679  1.00  0.00     0.000 G0
ENDBRANCH   5   6
ENDBRANCH   4   5
ENDBRANCH   2   4
BRANCH   1  10
ATOM     10  C   UNL     1      -4.355 -14.357  29.427  1.00  0.00     0.111 C 
BRANCH  10  11
ATOM     11  C   UNL     1      -5.057 -13.393  28.508  1.00  0.00     0.163 C 
ATOM     12  O   UNL     1      -6.272 -13.603  28.241  1.00  0.00    -0.294 OA
BRANCH  11  13
ATOM     13  C   UNL     1      -4.354 -12.245  27.861  1.00  0.00    -0.002 C 
ATOM     14  C   UNL     1      -3.778 -12.382  26.629  1.00  0.00    -0.069 C 
ATOM     15  C   UNL     1      -2.926 -11.292  26.018  1.00  0.00     0.039 C 
ATOM     16  C   UNL     1      -3.965 -13.642  25.812  1.00  0.00     0.039 C 
BRANCH  13  17
ATOM     17  C   UNL     1      -4.227 -10.963  28.669  1.00  0.00     0.066 CG0
ATOM     18  G   UNL     1      -2.908 -10.876  29.410  1.00  0.00     0.000 G0
ENDBRANCH  13  17
ENDBRANCH  11  13
ENDBRANCH  10  11
ENDBRANCH   1  10
TORSDOF 0
ENDMDL
MODEL 5
REMARK VINA RESULT:    -4.923      2.111      4.887
REMARK INTER + INTRA:          -6.409
REMARK INTER:                  -7.377
REMARK INTRA:                   0.968
REMARK UNBOUND:                 0.528
REMARK SMILES CC1=CCC(=C(C)C)C(=O)CC(C)=CCC1
REMARK SMILES IDX 12 1 14 2 13 3 15 4 16 5 2 6 1 7 3 8 11 10 9 11 10 12 5 13
REMARK SMILES IDX 6 14 7 15 8 16 4 17
REMARK H PARENT
REMARK Flexibility Score: 60.00
ROOT
ATOM      1  C   UNL     1      -5.136 -14.312  30.469  1.00  0.00    -0.070 C 
ATOM      2  C   UNL     1      -5.852 -14.709  29.394  1.00  0.00    -0.027 C 
ATOM      3  C   UNL     1      -5.251 -15.124  31.734  1.00  0.00     0.039 C 
ENDROOT
BRANCH   2   4
ATOM      4  C   UNL     1      -5.944 -13.976  28.074  1.00  0.00     0.032 C 
BRANCH   4   5
ATOM      5  C   UNL     1      -4.887 -14.388  27.029  1.00  0.00     0.034 C 
BRANCH   5   6
ATOM      6  C   UNL     1      -3.784 -13.357  26.856  1.00  0.00    -0.077 C 
ATOM      7  C   UNL     1      -3.981 -12.290  25.810  1.00  0.00     0.039 C 
ATOM      8  C   UNL     1      -2.609 -13.376  27.532  1.00  0.00    -0.023 CG0
ATOM      9  G   UNL     1      -2.201 -14.334  28.633  1.00  0.00     0.000 G0
ENDBRANCH   5   6
ENDBRANCH   4   5
ENDBRANCH   2   4
BRANCH   1  10
ATOM     10  C   UNL     1      -4.302 -13.047  30.490  1.00  0.00     0.111 C 
BRANCH  10  11
ATOM     11  C   UNL     1      -2.881 -13.325  30.904  1.00  0.00     0.163 C 
ATOM     12  O   UNL     1      -2.595 -13.256  32.131  1.00  0.00    -0.294 OA
BRANCH  11  13
ATOM     13  C   UNL     1      -1.800 -13.616  29.917  1.00  0.00    -0.002 C 
ATOM     14  C   UNL     1      -0.522 -13.178  30.129  1.00  0.00    -0.069 C 
ATOM     15  C   UNL     1       0.557 -13.317  29.078  1.00  0.00     0.039 C 
ATOM     16  C   UNL     1      -0.124 -12.526  31.435  1.00  0.00     0.039 C 
BRANCH  13  17
ATOM     17  C   UNL     1      -2.202 -14.328  28.635  1.00  0.00     0.066 CG0
ATOM     18  G   UNL     1      -2.591 -13.360  27.535  1.00  0.00     0.000 G0
ENDBRANCH  13  17
ENDBRANCH  11  13
ENDBRANCH  10  11
ENDBRANCH   1  10
TORSDOF 0
ENDMDL
MODEL 6
REMARK VINA RESULT:    -4.804      2.281      4.232
REMARK INTER + INTRA:          -6.242
REMARK INTER:                  -6.989
REMARK INTRA:                   0.747
REMARK UNBOUND:                 0.528
REMARK SMILES CC1=CCC(=C(C)C)C(=O)CC(C)=CCC1
REMARK SMILES IDX 12 1 14 2 13 3 15 4 16 5 2 6 1 7 3 8 11 10 9 11 10 12 5 13
REMARK SMILES IDX 6 14 7 15 8 16 4 17
REMARK H PARENT
REMARK Flexibility Score: 60.00
ROOT
ATOM      1  C   UNL     1      -3.157 -10.740  30.520  1.00  0.00    -0.070 C 
ATOM      2  C   UNL     1      -3.727 -10.168  29.438  1.00  0.00    -0.027 C 
ATOM      3  C   UNL     1      -1.838 -10.187  31.000  1.00  0.00     0.039 C 
ENDROOT
BRANCH   2   4
ATOM      4  C   UNL     1      -4.990 -10.638  28.751  1.00  0.00     0.032 C 
BRANCH   4   5
ATOM      5  C   UNL     1      -4.842 -11.949  27.951  1.00  0.00     0.034 C 
BRANCH   5   6
ATOM      6  C   UNL     1      -3.478 -12.101  27.301  1.00  0.00    -0.077 C 
ATOM      7  C   UNL     1      -3.170 -11.234  26.106  1.00  0.00     0.039 C 
ATOM      8  C   UNL     1      -2.548 -13.011  27.680  1.00  0.00    -0.023 CG0
ATOM      9  G   UNL     1      -2.629 -13.967  28.854  1.00  0.00     0.000 G0
ENDBRANCH   5   6
ENDBRANCH   4   5
ENDBRANCH   2   4
BRANCH   1  10
ATOM     10  C   UNL     1      -3.729 -11.961  31.213  1.00  0.00     0.111 C 
BRANCH  10  11
ATOM     11  C   UNL     1      -2.731 -13.087  31.267  1.00  0.00     0.163 C 
ATOM     12  O   UNL     1      -2.560 -13.678  32.368  1.00  0.00    -0.294 OA
BRANCH  11  13
ATOM     13  C   UNL     1      -1.901 -13.480  30.090  1.00  0.00    -0.002 C 
ATOM     14  C   UNL     1      -0.544 -13.314  30.103  1.00  0.00    -0.069 C 
ATOM     15  C   UNL     1       0.304 -13.553  28.873  1.00  0.00     0.039 C 
ATOM     16  C   UNL     1       0.180 -12.878  31.357  1.00  0.00     0.039 C 
BRANCH  13  17
ATOM     17  C   UNL     1      -2.637 -13.978  28.855  1.00  0.00     0.066 CG0
ATOM     18  G   UNL     1      -2.528 -13.013  27.691  1.00  0.00     0.000 G0
ENDBRANCH  13  17
ENDBRANCH  11  13
ENDBRANCH  10  11
ENDBRANCH   1  10
TORSDOF 0
ENDMDL
MODEL 7
REMARK VINA RESULT:    -4.568      1.953      3.499
REMARK INTER + INTRA:          -5.909
REMARK INTER:                  -6.754
REMARK INTRA:                   0.846
REMARK UNBOUND:                 0.528
REMARK SMILES CC1=CCC(=C(C)C)C(=O)CC(C)=CCC1
REMARK SMILES IDX 12 1 14 2 13 3 15 4 16 5 2 6 1 7 3 8 11 10 9 11 10 12 5 13
REMARK SMILES IDX 6 14 7 15 8 16 4 17
REMARK H PARENT
REMARK Flexibility Score: 60.00
ROOT
ATOM      1  C   UNL     1      -3.431 -13.025  31.296  1.00  0.00    -0.070 C 
ATOM      2  C   UNL     1      -2.208 -13.510  31.603  1.00  0.00    -0.027 C 
ATOM      3  C   UNL     1      -4.585 -13.995  31.252  1.00  0.00     0.039 C 
ENDROOT
BRANCH   2   4
ATOM      4  C   UNL     1      -0.919 -12.719  31.602  1.00  0.00     0.032 C 
BRANCH   4   5
ATOM      5  C   UNL     1      -0.515 -12.139  30.231  1.00  0.00     0.034 C 
BRANCH   5   6
ATOM      6  C   UNL     1      -0.650 -13.140  29.096  1.00  0.00    -0.077 C 
ATOM      7  C   UNL     1       0.262 -14.341  29.109  1.00  0.00     0.039 C 
ATOM      8  C   UNL     1      -1.487 -12.989  28.041  1.00  0.00    -0.023 CG0
ATOM      9  G   UNL     1      -2.499 -11.882  27.826  1.00  0.00     0.000 G0
ENDBRANCH   5   6
ENDBRANCH   4   5
ENDBRANCH   2   4
BRANCH   1  10
ATOM     10  C   UNL     1      -3.679 -11.582  30.906  1.00  0.00     0.111 C 
BRANCH  10  11
ATOM     11  C   UNL     1      -4.347 -11.477  29.560  1.00  0.00     0.163 C 
ATOM     12  O   UNL     1      -5.374 -10.752  29.461  1.00  0.00    -0.294 OA
BRANCH  11  13
ATOM     13  C   UNL     1      -3.876 -12.245  28.370  1.00  0.00    -0.002 C 
ATOM     14  C   UNL     1      -4.617 -13.277  27.864  1.00  0.00    -0.069 C 
ATOM     15  C   UNL     1      -4.095 -14.172  26.762  1.00  0.00     0.039 C 
ATOM     16  C   UNL     1      -6.004 -13.576  28.388  1.00  0.00     0.039 C 
BRANCH  13  17
ATOM     17  C   UNL     1      -2.505 -11.893  27.812  1.00  0.00     0.066 CG0
ATOM     18  G   UNL     1      -1.489 -12.994  28.041  1.00  0.00     0.000 G0
ENDBRANCH  13  17
ENDBRANCH  11  13
ENDBRANCH  10  11
ENDBRANCH   1  10
TORSDOF 0
ENDMDL
MODEL 8
REMARK VINA RESULT:    -4.496      1.819      3.369
REMARK INTER + INTRA:          -5.808
REMARK INTER:                  -6.076
REMARK INTRA:                   0.269
REMARK UNBOUND:                 0.528
REMARK SMILES CC1=CCC(=C(C)C)C(=O)CC(C)=CCC1
REMARK SMILES IDX 12 1 14 2 13 3 15 4 16 5 2 6 1 7 3 8 11 10 9 11 10 12 5 13
REMARK SMILES IDX 6 14 7 15 8 16 4 17
REMARK H PARENT
REMARK Flexibility Score: 60.00
ROOT
ATOM      1  C   UNL     1      -1.091 -13.311  29.156  1.00  0.00    -0.070 C 
ATOM      2  C   UNL     1      -0.917 -13.684  30.443  1.00  0.00    -0.027 C 
ATOM      3  C   UNL     1      -0.689 -14.285  28.077  1.00  0.00     0.039 C 
ENDROOT
BRANCH   2   4
ATOM      4  C   UNL     1      -1.167 -12.817  31.657  1.00  0.00     0.032 C 
BRANCH   4   5
ATOM      5  C   UNL     1      -2.596 -12.243  31.759  1.00  0.00     0.034 C 
BRANCH   5   6
ATOM      6  C   UNL     1      -3.676 -13.299  31.609  1.00  0.00    -0.077 C 
ATOM      7  C   UNL     1      -3.723 -14.403  32.635  1.00  0.00     0.039 C 
ATOM      8  C   UNL     1      -4.554 -13.353  30.578  1.00  0.00    -0.023 CG0
ATOM      9  G   UNL     1      -4.705 -12.351  29.451  1.00  0.00     0.000 G0
ENDBRANCH   5   6
ENDBRANCH   4   5
ENDBRANCH   2   4
BRANCH   1  10
ATOM     10  C   UNL     1      -1.582 -11.936  28.750  1.00  0.00     0.111 C 
BRANCH  10  11
ATOM     11  C   UNL     1      -2.767 -12.021  27.824  1.00  0.00     0.163 C 
ATOM     12  O   UNL     1      -2.714 -11.393  26.731  1.00  0.00    -0.294 OA
BRANCH  11  13
ATOM     13  C   UNL     1      -4.012 -12.764  28.182  1.00  0.00    -0.002 C 
ATOM     14  C   UNL     1      -4.523 -13.717  27.346  1.00  0.00    -0.069 C 
ATOM     15  C   UNL     1      -5.862 -14.372  27.602  1.00  0.00     0.039 C 
ATOM     16  C   UNL     1      -3.768 -14.165  26.113  1.00  0.00     0.039 C 
BRANCH  13  17
ATOM     17  C   UNL     1      -4.728 -12.348  29.457  1.00  0.00     0.066 CG0
ATOM     18  G   UNL     1      -4.547 -13.355  30.575  1.00  0.00     0.000 G0
ENDBRANCH  13  17
ENDBRANCH  11  13
ENDBRANCH  10  11
ENDBRANCH   1  10
TORSDOF 0
ENDMDL
MODEL 9
REMARK VINA RESULT:    -4.367      2.044      3.901
REMARK INTER + INTRA:          -5.626
REMARK INTER:                  -6.808
REMARK INTRA:                   1.182
REMARK UNBOUND:                 0.528
REMARK SMILES CC1=CCC(=C(C)C)C(=O)CC(C)=CCC1
REMARK SMILES IDX 12 1 14 2 13 3 15 4 16 5 2 6 1 7 3 8 11 10 9 11 10 12 5 13
REMARK SMILES IDX 6 14 7 15 8 16 4 17
REMARK H PARENT
REMARK Flexibility Score: 60.00
ROOT
ATOM      1  C   UNL     1      -0.599 -13.039  30.907  1.00  0.00    -0.070 C 
ATOM      2  C   UNL     1      -0.469 -13.315  29.591  1.00  0.00    -0.027 C 
ATOM      3  C   UNL     1       0.603 -12.494  31.637  1.00  0.00     0.039 C 
ENDROOT
BRANCH   2   4
ATOM      4  C   UNL     1      -1.522 -13.954  28.713  1.00  0.00     0.032 C 
BRANCH   4   5
ATOM      5  C   UNL     1      -2.236 -12.985  27.749  1.00  0.00     0.034 C 
BRANCH   5   6
ATOM      6  C   UNL     1      -3.663 -13.400  27.433  1.00  0.00    -0.077 C 
ATOM      7  C   UNL     1      -3.894 -14.227  26.194  1.00  0.00     0.039 C 
ATOM      8  C   UNL     1      -4.746 -13.019  28.153  1.00  0.00    -0.023 CG0
ATOM      9  G   UNL     1      -4.755 -12.210  29.435  1.00  0.00     0.000 G0
ENDBRANCH   5   6
ENDBRANCH   4   5
ENDBRANCH   2   4
BRANCH   1  10
ATOM     10  C   UNL     1      -1.857 -13.337  31.697  1.00  0.00     0.111 C 
BRANCH  10  11
ATOM     11  C   UNL     1      -2.997 -12.443  31.284  1.00  0.00     0.163 C 
ATOM     12  O   UNL     1      -2.915 -11.213  31.553  1.00  0.00    -0.294 OA
BRANCH  11  13
ATOM     13  C   UNL     1      -4.232 -12.969  30.632  1.00  0.00    -0.002 C 
ATOM     14  C   UNL     1      -4.804 -14.136  31.055  1.00  0.00    -0.069 C 
ATOM     15  C   UNL     1      -5.960 -14.775  30.317  1.00  0.00     0.039 C 
ATOM     16  C   UNL     1      -4.304 -14.851  32.291  1.00  0.00     0.039 C 
BRANCH  13  17
ATOM     17  C   UNL     1      -4.763 -12.205  29.429  1.00  0.00     0.066 CG0
ATOM     18  G   UNL     1      -4.738 -13.037  28.162  1.00  0.00     0.000 G0
ENDBRANCH  13  17
ENDBRANCH  11  13
ENDBRANCH  10  11
ENDBRANCH   1  10
TORSDOF 0
ENDMDL
