MODEL 1
REMARK VINA RESULT:    -8.251      0.000      0.000
REMARK INTER + INTRA:         -10.174
REMARK INTER:                  -9.939
REMARK INTRA:                  -0.235
REMARK UNBOUND:                -0.235
REMARK SMILES O=c1c(O)c(-c2ccc(O)cc2O)oc2cc(O)cc(O)c12
REMARK SMILES IDX 5 1 3 2 2 3 1 4 22 5 20 6 19 7 17 8 16 9 15 10 14 11 6 12
REMARK SMILES IDX 8 13 7 14 9 15 11 16 12 17 10 18 13 20 4 22 21 24 18 26
REMARK H PARENT 10 19 13 21 4 23 21 25 18 27
REMARK Flexibility Score: inf
ROOT
ATOM      1  C   UNL     1      80.191 -26.512  84.553  1.00  0.00     0.184 A 
ATOM      2  C   UNL     1      81.479 -26.975  84.875  1.00  0.00     0.208 A 
ATOM      3  C   UNL     1      82.202 -26.322  85.885  1.00  0.00     0.238 A 
ATOM      4  O   UNL     1      83.361 -26.722  86.176  1.00  0.00    -0.285 OA
ATOM      5  C   UNL     1      81.618 -25.233  86.565  1.00  0.00     0.111 A 
ATOM      6  C   UNL     1      82.277 -24.521  87.597  1.00  0.00     0.134 A 
ATOM      7  C   UNL     1      81.624 -23.454  88.231  1.00  0.00     0.093 A 
ATOM      8  C   UNL     1      80.328 -23.085  87.855  1.00  0.00     0.123 A 
ATOM      9  C   UNL     1      79.675 -23.783  86.838  1.00  0.00     0.094 A 
ATOM     10  C   UNL     1      80.308 -24.849  86.192  1.00  0.00     0.146 A 
ATOM     11  O   UNL     1      79.664 -25.492  85.224  1.00  0.00    -0.451 OA
ENDROOT
BRANCH   1  12
ATOM     12  C   UNL     1      79.381 -27.146  83.493  1.00  0.00     0.063 A 
ATOM     13  C   UNL     1      79.210 -27.931  81.198  1.00  0.00     0.047 A 
ATOM     14  C   UNL     1      79.947 -27.331  82.222  1.00  0.00     0.020 A 
ATOM     15  C   UNL     1      77.901 -28.367  81.436  1.00  0.00     0.119 A 
ATOM     16  C   UNL     1      77.337 -28.207  82.705  1.00  0.00     0.093 A 
ATOM     17  C   UNL     1      78.072 -27.610  83.740  1.00  0.00     0.130 A 
BRANCH  15  18
ATOM     18  O   UNL     1      77.156 -28.963  80.421  1.00  0.00    -0.508 OA
ATOM     19  H   UNL     1      77.495 -29.000  79.467  1.00  0.00     0.293 HD
ENDBRANCH  15  18
BRANCH  17  20
ATOM     20  O   UNL     1      77.515 -27.503  85.014  1.00  0.00    -0.507 OA
ATOM     21  H   UNL     1      77.562 -26.639  85.543  1.00  0.00     0.293 HD
ENDBRANCH  17  20
ENDBRANCH   1  12
BRANCH   2  22
ATOM     22  O   UNL     1      82.011 -28.085  84.214  1.00  0.00    -0.502 OA
ATOM     23  H   UNL     1      81.782 -29.036  84.481  1.00  0.00     0.293 HD
ENDBRANCH   2  22
BRANCH   6  24
ATOM     24  O   UNL     1      83.569 -24.866  87.995  1.00  0.00    -0.507 OA
ATOM     25  H   UNL     1      84.260 -25.199  87.333  1.00  0.00     0.293 HD
ENDBRANCH   6  24
BRANCH   8  26
ATOM     26  O   UNL     1      79.679 -22.026  88.486  1.00  0.00    -0.508 OA
ATOM     27  H   UNL     1      79.937 -21.063  88.304  1.00  0.00     0.293 HD
ENDBRANCH   8  26
TORSDOF 6
ENDMDL
MODEL 2
REMARK VINA RESULT:    -8.241      2.427      4.500
REMARK INTER + INTRA:         -10.162
REMARK INTER:                  -9.986
REMARK INTRA:                  -0.176
REMARK UNBOUND:                -0.235
REMARK SMILES O=c1c(O)c(-c2ccc(O)cc2O)oc2cc(O)cc(O)c12
REMARK SMILES IDX 5 1 3 2 2 3 1 4 22 5 20 6 19 7 17 8 16 9 15 10 14 11 6 12
REMARK SMILES IDX 8 13 7 14 9 15 11 16 12 17 10 18 13 20 4 22 21 24 18 26
REMARK H PARENT 10 19 13 21 4 23 21 25 18 27
REMARK Flexibility Score: inf
ROOT
ATOM      1  C   UNL     1      78.919 -25.916  86.162  1.00  0.00     0.184 A 
ATOM      2  C   UNL     1      79.480 -24.918  86.978  1.00  0.00     0.208 A 
ATOM      3  C   UNL     1      80.866 -24.920  87.197  1.00  0.00     0.238 A 
ATOM      4  O   UNL     1      81.379 -24.036  87.935  1.00  0.00    -0.285 OA
ATOM      5  C   UNL     1      81.665 -25.907  86.584  1.00  0.00     0.111 A 
ATOM      6  C   UNL     1      83.069 -25.980  86.750  1.00  0.00     0.134 A 
ATOM      7  C   UNL     1      83.796 -26.987  86.098  1.00  0.00     0.093 A 
ATOM      8  C   UNL     1      83.147 -27.922  85.284  1.00  0.00     0.123 A 
ATOM      9  C   UNL     1      81.763 -27.854  85.117  1.00  0.00     0.094 A 
ATOM     10  C   UNL     1      81.020 -26.859  85.759  1.00  0.00     0.146 A 
ATOM     11  O   UNL     1      79.703 -26.823  85.587  1.00  0.00    -0.451 OA
ENDROOT
BRANCH   1  12
ATOM     12  C   UNL     1      77.466 -25.978  85.899  1.00  0.00     0.063 A 
ATOM     13  C   UNL     1      75.195 -25.927  86.765  1.00  0.00     0.047 A 
ATOM     14  C   UNL     1      76.575 -25.876  86.978  1.00  0.00     0.020 A 
ATOM     15  C   UNL     1      74.689 -26.067  85.466  1.00  0.00     0.119 A 
ATOM     16  C   UNL     1      75.569 -26.146  84.383  1.00  0.00     0.093 A 
ATOM     17  C   UNL     1      76.956 -26.091  84.589  1.00  0.00     0.130 A 
BRANCH  15  18
ATOM     18  O   UNL     1      73.315 -26.122  85.242  1.00  0.00    -0.508 OA
ATOM     19  H   UNL     1      72.691 -25.406  85.595  1.00  0.00     0.293 HD
ENDBRANCH  15  18
BRANCH  17  20
ATOM     20  O   UNL     1      77.821 -26.122  83.496  1.00  0.00    -0.507 OA
ATOM     21  H   UNL     1      78.827 -26.078  83.612  1.00  0.00     0.293 HD
ENDBRANCH  17  20
ENDBRANCH   1  12
BRANCH   2  22
ATOM     22  O   UNL     1      78.666 -23.927  87.534  1.00  0.00    -0.502 OA
ATOM     23  H   UNL     1      77.975 -24.131  88.247  1.00  0.00     0.293 HD
ENDBRANCH   2  22
BRANCH   6  24
ATOM     24  O   UNL     1      83.746 -25.062  87.555  1.00  0.00    -0.507 OA
ATOM     25  H   UNL     1      84.686 -24.752  87.337  1.00  0.00     0.293 HD
ENDBRANCH   6  24
BRANCH   8  26
ATOM     26  O   UNL     1      83.868 -28.921  84.635  1.00  0.00    -0.508 OA
ATOM     27  H   UNL     1      84.072 -28.869  83.644  1.00  0.00     0.293 HD
ENDBRANCH   8  26
TORSDOF 6
ENDMDL
MODEL 3
REMARK VINA RESULT:    -8.198      2.111      6.212
REMARK INTER + INTRA:         -10.111
REMARK INTER:                  -9.692
REMARK INTRA:                  -0.418
REMARK UNBOUND:                -0.235
REMARK SMILES O=c1c(O)c(-c2ccc(O)cc2O)oc2cc(O)cc(O)c12
REMARK SMILES IDX 5 1 3 2 2 3 1 4 22 5 20 6 19 7 17 8 16 9 15 10 14 11 6 12
REMARK SMILES IDX 8 13 7 14 9 15 11 16 12 17 10 18 13 20 4 22 21 24 18 26
REMARK H PARENT 10 19 13 21 4 23 21 25 18 27
REMARK Flexibility Score: inf
ROOT
ATOM      1  C   UNL     1      80.337 -25.917  85.636  1.00  0.00     0.184 A 
ATOM      2  C   UNL     1      80.405 -26.818  84.560  1.00  0.00     0.208 A 
ATOM      3  C   UNL     1      79.219 -27.193  83.912  1.00  0.00     0.238 A 
ATOM      4  O   UNL     1      79.267 -28.009  82.952  1.00  0.00    -0.285 OA
ATOM      5  C   UNL     1      77.991 -26.647  84.338  1.00  0.00     0.111 A 
ATOM      6  C   UNL     1      76.750 -26.969  83.738  1.00  0.00     0.134 A 
ATOM      7  C   UNL     1      75.572 -26.375  84.214  1.00  0.00     0.093 A 
ATOM      8  C   UNL     1      75.611 -25.466  85.278  1.00  0.00     0.123 A 
ATOM      9  C   UNL     1      76.832 -25.146  85.873  1.00  0.00     0.094 A 
ATOM     10  C   UNL     1      78.017 -25.727  85.414  1.00  0.00     0.146 A 
ATOM     11  O   UNL     1      79.164 -25.408  86.003  1.00  0.00    -0.451 OA
ENDROOT
BRANCH   1  12
ATOM     12  C   UNL     1      81.546 -25.489  86.370  1.00  0.00     0.063 A 
ATOM     13  C   UNL     1      83.276 -26.001  88.000  1.00  0.00     0.047 A 
ATOM     14  C   UNL     1      82.129 -26.371  87.292  1.00  0.00     0.020 A 
ATOM     15  C   UNL     1      83.861 -24.747  87.783  1.00  0.00     0.119 A 
ATOM     16  C   UNL     1      83.300 -23.872  86.849  1.00  0.00     0.093 A 
ATOM     17  C   UNL     1      82.152 -24.238  86.131  1.00  0.00     0.130 A 
BRANCH  15  18
ATOM     18  O   UNL     1      85.002 -24.366  88.486  1.00  0.00    -0.508 OA
ATOM     19  H   UNL     1      85.909 -24.311  88.035  1.00  0.00     0.293 HD
ENDBRANCH  15  18
BRANCH  17  20
ATOM     20  O   UNL     1      81.632 -23.375  85.167  1.00  0.00    -0.507 OA
ATOM     21  H   UNL     1      81.771 -22.372  85.221  1.00  0.00     0.293 HD
ENDBRANCH  17  20
ENDBRANCH   1  12
BRANCH   2  22
ATOM     22  O   UNL     1      81.643 -27.307  84.133  1.00  0.00    -0.502 OA
ATOM     23  H   UNL     1      82.461 -27.308  84.731  1.00  0.00     0.293 HD
ENDBRANCH   2  22
BRANCH   6  24
ATOM     24  O   UNL     1      76.679 -27.871  82.675  1.00  0.00    -0.507 OA
ATOM     25  H   UNL     1      75.791 -28.197  82.312  1.00  0.00     0.293 HD
ENDBRANCH   6  24
BRANCH   8  26
ATOM     26  O   UNL     1      74.441 -24.875  85.750  1.00  0.00    -0.508 OA
ATOM     27  H   UNL     1      73.920 -25.274  86.523  1.00  0.00     0.293 HD
ENDBRANCH   8  26
TORSDOF 6
ENDMDL
MODEL 4
REMARK VINA RESULT:    -8.121      1.755      6.911
REMARK INTER + INTRA:         -10.018
REMARK INTER:                  -9.601
REMARK INTRA:                  -0.417
REMARK UNBOUND:                -0.235
REMARK SMILES O=c1c(O)c(-c2ccc(O)cc2O)oc2cc(O)cc(O)c12
REMARK SMILES IDX 5 1 3 2 2 3 1 4 22 5 20 6 19 7 17 8 16 9 15 10 14 11 6 12
REMARK SMILES IDX 8 13 7 14 9 15 11 16 12 17 10 18 13 20 4 22 21 24 18 26
REMARK H PARENT 10 19 13 21 4 23 21 25 18 27
REMARK Flexibility Score: inf
ROOT
ATOM      1  C   UNL     1      80.543 -25.748  85.940  1.00  0.00     0.184 A 
ATOM      2  C   UNL     1      79.284 -25.288  86.362  1.00  0.00     0.208 A 
ATOM      3  C   UNL     1      78.137 -25.738  85.692  1.00  0.00     0.238 A 
ATOM      4  O   UNL     1      77.003 -25.325  86.055  1.00  0.00    -0.285 OA
ATOM      5  C   UNL     1      78.268 -26.653  84.626  1.00  0.00     0.111 A 
ATOM      6  C   UNL     1      77.164 -27.159  83.899  1.00  0.00     0.134 A 
ATOM      7  C   UNL     1      77.377 -28.073  82.857  1.00  0.00     0.093 A 
ATOM      8  C   UNL     1      78.672 -28.492  82.529  1.00  0.00     0.123 A 
ATOM      9  C   UNL     1      79.763 -27.995  83.243  1.00  0.00     0.094 A 
ATOM     10  C   UNL     1      79.573 -27.082  84.283  1.00  0.00     0.146 A 
ATOM     11  O   UNL     1      80.631 -26.622  84.942  1.00  0.00    -0.451 OA
ENDROOT
BRANCH   1  12
ATOM     12  C   UNL     1      81.792 -25.305  86.595  1.00  0.00     0.063 A 
ATOM     13  C   UNL     1      83.502 -25.687  88.280  1.00  0.00     0.047 A 
ATOM     14  C   UNL     1      82.321 -26.075  87.642  1.00  0.00     0.020 A 
ATOM     15  C   UNL     1      84.176 -24.531  87.868  1.00  0.00     0.119 A 
ATOM     16  C   UNL     1      83.669 -23.770  86.811  1.00  0.00     0.093 A 
ATOM     17  C   UNL     1      82.486 -24.156  86.162  1.00  0.00     0.130 A 
BRANCH  15  18
ATOM     18  O   UNL     1      85.353 -24.133  88.499  1.00  0.00    -0.508 OA
ATOM     19  H   UNL     1      85.368 -23.877  89.480  1.00  0.00     0.293 HD
ENDBRANCH  15  18
BRANCH  17  20
ATOM     20  O   UNL     1      82.017 -23.416  85.077  1.00  0.00    -0.507 OA
ATOM     21  H   UNL     1      81.031 -23.213  84.958  1.00  0.00     0.293 HD
ENDBRANCH  17  20
ENDBRANCH   1  12
BRANCH   2  22
ATOM     22  O   UNL     1      79.184 -24.417  87.451  1.00  0.00    -0.502 OA
ATOM     23  H   UNL     1      80.000 -24.048  87.926  1.00  0.00     0.293 HD
ENDBRANCH   2  22
BRANCH   6  24
ATOM     24  O   UNL     1      75.861 -26.761  84.203  1.00  0.00    -0.507 OA
ATOM     25  H   UNL     1      75.609 -26.420  85.124  1.00  0.00     0.293 HD
ENDBRANCH   6  24
BRANCH   8  26
ATOM     26  O   UNL     1      78.883 -29.401  81.495  1.00  0.00    -0.508 OA
ATOM     27  H   UNL     1      79.652 -30.062  81.520  1.00  0.00     0.293 HD
ENDBRANCH   8  26
TORSDOF 6
ENDMDL
MODEL 5
REMARK VINA RESULT:    -8.121      2.104      6.135
REMARK INTER + INTRA:         -10.017
REMARK INTER:                  -9.601
REMARK INTRA:                  -0.417
REMARK UNBOUND:                -0.235
REMARK SMILES O=c1c(O)c(-c2ccc(O)cc2O)oc2cc(O)cc(O)c12
REMARK SMILES IDX 5 1 3 2 2 3 1 4 22 5 20 6 19 7 17 8 16 9 15 10 14 11 6 12
REMARK SMILES IDX 8 13 7 14 9 15 11 16 12 17 10 18 13 20 4 22 21 24 18 26
REMARK H PARENT 10 19 13 21 4 23 21 25 18 27
REMARK Flexibility Score: inf
ROOT
ATOM      1  C   UNL     1      80.403 -26.044  85.741  1.00  0.00     0.184 A 
ATOM      2  C   UNL     1      80.476 -26.919  84.643  1.00  0.00     0.208 A 
ATOM      3  C   UNL     1      79.297 -27.245  83.956  1.00  0.00     0.238 A 
ATOM      4  O   UNL     1      79.348 -28.037  82.976  1.00  0.00    -0.285 OA
ATOM      5  C   UNL     1      78.073 -26.677  84.367  1.00  0.00     0.111 A 
ATOM      6  C   UNL     1      76.839 -26.951  83.728  1.00  0.00     0.134 A 
ATOM      7  C   UNL     1      75.665 -26.339  84.191  1.00  0.00     0.093 A 
ATOM      8  C   UNL     1      75.701 -25.459  85.280  1.00  0.00     0.123 A 
ATOM      9  C   UNL     1      76.914 -25.187  85.912  1.00  0.00     0.094 A 
ATOM     10  C   UNL     1      78.095 -25.788  85.467  1.00  0.00     0.146 A 
ATOM     11  O   UNL     1      79.235 -25.514  86.093  1.00  0.00    -0.451 OA
ENDROOT
BRANCH   1  12
ATOM     12  C   UNL     1      81.604 -25.668  86.515  1.00  0.00     0.063 A 
ATOM     13  C   UNL     1      83.440 -24.115  86.878  1.00  0.00     0.047 A 
ATOM     14  C   UNL     1      82.302 -24.503  86.164  1.00  0.00     0.020 A 
ATOM     15  C   UNL     1      83.884 -24.883  87.961  1.00  0.00     0.119 A 
ATOM     16  C   UNL     1      83.182 -26.033  88.332  1.00  0.00     0.093 A 
ATOM     17  C   UNL     1      82.036 -26.425  87.624  1.00  0.00     0.130 A 
BRANCH  15  18
ATOM     18  O   UNL     1      85.019 -24.508  88.678  1.00  0.00    -0.508 OA
ATOM     19  H   UNL     1      85.908 -24.977  88.545  1.00  0.00     0.293 HD
ENDBRANCH  15  18
BRANCH  17  20
ATOM     20  O   UNL     1      81.316 -27.547  88.036  1.00  0.00    -0.507 OA
ATOM     21  H   UNL     1      81.049 -27.681  89.004  1.00  0.00     0.293 HD
ENDBRANCH  17  20
ENDBRANCH   1  12
BRANCH   2  22
ATOM     22  O   UNL     1      81.711 -27.429  84.233  1.00  0.00    -0.502 OA
ATOM     23  H   UNL     1      81.996 -27.441  83.260  1.00  0.00     0.293 HD
ENDBRANCH   2  22
BRANCH   6  24
ATOM     24  O   UNL     1      76.771 -27.823  82.640  1.00  0.00    -0.507 OA
ATOM     25  H   UNL     1      75.892 -28.042  82.187  1.00  0.00     0.293 HD
ENDBRANCH   6  24
BRANCH   8  26
ATOM     26  O   UNL     1      74.535 -24.850  85.739  1.00  0.00    -0.508 OA
ATOM     27  H   UNL     1      73.883 -25.340  86.341  1.00  0.00     0.293 HD
ENDBRANCH   8  26
TORSDOF 6
ENDMDL
MODEL 6
REMARK VINA RESULT:    -8.027      2.290      3.787
REMARK INTER + INTRA:          -9.905
REMARK INTER:                  -9.818
REMARK INTRA:                  -0.087
REMARK UNBOUND:                -0.235
REMARK SMILES O=c1c(O)c(-c2ccc(O)cc2O)oc2cc(O)cc(O)c12
REMARK SMILES IDX 5 1 3 2 2 3 1 4 22 5 20 6 19 7 17 8 16 9 15 10 14 11 6 12
REMARK SMILES IDX 8 13 7 14 9 15 11 16 12 17 10 18 13 20 4 22 21 24 18 26
REMARK H PARENT 10 19 13 21 4 23 21 25 18 27
REMARK Flexibility Score: inf
ROOT
ATOM      1  C   UNL     1      78.995 -26.557  85.599  1.00  0.00     0.184 A 
ATOM      2  C   UNL     1      79.605 -27.573  84.843  1.00  0.00     0.208 A 
ATOM      3  C   UNL     1      81.002 -27.697  84.874  1.00  0.00     0.238 A 
ATOM      4  O   UNL     1      81.561 -28.598  84.192  1.00  0.00    -0.285 OA
ATOM      5  C   UNL     1      81.760 -26.817  85.674  1.00  0.00     0.111 A 
ATOM      6  C   UNL     1      83.172 -26.875  85.765  1.00  0.00     0.134 A 
ATOM      7  C   UNL     1      83.854 -25.969  86.591  1.00  0.00     0.093 A 
ATOM      8  C   UNL     1      83.152 -25.007  87.327  1.00  0.00     0.123 A 
ATOM      9  C   UNL     1      81.760 -24.946  87.240  1.00  0.00     0.094 A 
ATOM     10  C   UNL     1      81.062 -25.839  86.422  1.00  0.00     0.146 A 
ATOM     11  O   UNL     1      79.738 -25.754  86.355  1.00  0.00    -0.451 OA
ENDROOT
BRANCH   1  12
ATOM     12  C   UNL     1      77.530 -26.364  85.602  1.00  0.00     0.063 A 
ATOM     13  C   UNL     1      75.466 -26.145  86.869  1.00  0.00     0.047 A 
ATOM     14  C   UNL     1      76.851 -26.331  86.830  1.00  0.00     0.020 A 
ATOM     15  C   UNL     1      74.746 -25.977  85.680  1.00  0.00     0.119 A 
ATOM     16  C   UNL     1      75.417 -25.986  84.454  1.00  0.00     0.093 A 
ATOM     17  C   UNL     1      76.808 -26.166  84.407  1.00  0.00     0.130 A 
BRANCH  15  18
ATOM     18  O   UNL     1      73.365 -25.795  85.707  1.00  0.00    -0.508 OA
ATOM     19  H   UNL     1      72.896 -25.195  85.038  1.00  0.00     0.293 HD
ENDBRANCH  15  18
BRANCH  17  20
ATOM     20  O   UNL     1      77.471 -26.124  83.181  1.00  0.00    -0.507 OA
ATOM     21  H   UNL     1      77.834 -26.963  82.743  1.00  0.00     0.293 HD
ENDBRANCH  17  20
ENDBRANCH   1  12
BRANCH   2  22
ATOM     22  O   UNL     1      78.822 -28.458  84.096  1.00  0.00    -0.502 OA
ATOM     23  H   UNL     1      78.902 -29.464  84.190  1.00  0.00     0.293 HD
ENDBRANCH   2  22
BRANCH   6  24
ATOM     24  O   UNL     1      83.900 -27.822  85.043  1.00  0.00    -0.507 OA
ATOM     25  H   UNL     1      84.208 -28.691  85.465  1.00  0.00     0.293 HD
ENDBRANCH   6  24
BRANCH   8  26
ATOM     26  O   UNL     1      83.828 -24.109  88.148  1.00  0.00    -0.508 OA
ATOM     27  H   UNL     1      84.795 -23.856  87.975  1.00  0.00     0.293 HD
ENDBRANCH   8  26
TORSDOF 6
ENDMDL
MODEL 7
REMARK VINA RESULT:    -7.776      1.312      3.158
REMARK INTER + INTRA:          -9.602
REMARK INTER:                  -9.540
REMARK INTRA:                  -0.063
REMARK UNBOUND:                -0.235
REMARK SMILES O=c1c(O)c(-c2ccc(O)cc2O)oc2cc(O)cc(O)c12
REMARK SMILES IDX 5 1 3 2 2 3 1 4 22 5 20 6 19 7 17 8 16 9 15 10 14 11 6 12
REMARK SMILES IDX 8 13 7 14 9 15 11 16 12 17 10 18 13 20 4 22 21 24 18 26
REMARK H PARENT 10 19 13 21 4 23 21 25 18 27
REMARK Flexibility Score: inf
ROOT
ATOM      1  C   UNL     1      79.313 -26.146  84.622  1.00  0.00     0.184 A 
ATOM      2  C   UNL     1      78.471 -25.294  85.358  1.00  0.00     0.208 A 
ATOM      3  C   UNL     1      79.024 -24.517  86.387  1.00  0.00     0.238 A 
ATOM      4  O   UNL     1      78.277 -23.756  87.060  1.00  0.00    -0.285 OA
ATOM      5  C   UNL     1      80.408 -24.591  86.647  1.00  0.00     0.111 A 
ATOM      6  C   UNL     1      81.047 -23.839  87.663  1.00  0.00     0.134 A 
ATOM      7  C   UNL     1      82.431 -23.962  87.854  1.00  0.00     0.093 A 
ATOM      8  C   UNL     1      83.189 -24.820  87.049  1.00  0.00     0.123 A 
ATOM      9  C   UNL     1      82.564 -25.563  86.046  1.00  0.00     0.094 A 
ATOM     10  C   UNL     1      81.185 -25.457  85.841  1.00  0.00     0.146 A 
ATOM     11  O   UNL     1      80.617 -26.181  84.883  1.00  0.00    -0.451 OA
ENDROOT
BRANCH   1  12
ATOM     12  C   UNL     1      78.794 -27.000  83.534  1.00  0.00     0.063 A 
ATOM     13  C   UNL     1      77.045 -28.469  82.701  1.00  0.00     0.047 A 
ATOM     14  C   UNL     1      77.567 -27.657  83.711  1.00  0.00     0.020 A 
ATOM     15  C   UNL     1      77.738 -28.623  81.494  1.00  0.00     0.119 A 
ATOM     16  C   UNL     1      78.950 -27.954  81.300  1.00  0.00     0.093 A 
ATOM     17  C   UNL     1      79.478 -27.132  82.307  1.00  0.00     0.130 A 
BRANCH  15  18
ATOM     18  O   UNL     1      77.229 -29.433  80.481  1.00  0.00    -0.508 OA
ATOM     19  H   UNL     1      77.709 -30.275  80.184  1.00  0.00     0.293 HD
ENDBRANCH  15  18
BRANCH  17  20
ATOM     20  O   UNL     1      80.663 -26.432  82.081  1.00  0.00    -0.507 OA
ATOM     21  H   UNL     1      81.222 -26.588  81.250  1.00  0.00     0.293 HD
ENDBRANCH  17  20
ENDBRANCH   1  12
BRANCH   2  22
ATOM     22  O   UNL     1      77.112 -25.210  85.045  1.00  0.00    -0.502 OA
ATOM     23  H   UNL     1      76.386 -25.360  85.737  1.00  0.00     0.293 HD
ENDBRANCH   2  22
BRANCH   6  24
ATOM     24  O   UNL     1      80.318 -22.974  88.481  1.00  0.00    -0.507 OA
ATOM     25  H   UNL     1      80.000 -22.070  88.151  1.00  0.00     0.293 HD
ENDBRANCH   6  24
BRANCH   8  26
ATOM     26  O   UNL     1      84.563 -24.941  87.237  1.00  0.00    -0.508 OA
ATOM     27  H   UNL     1      85.085 -25.718  86.849  1.00  0.00     0.293 HD
ENDBRANCH   8  26
TORSDOF 6
ENDMDL
MODEL 8
REMARK VINA RESULT:    -7.663      2.100      6.768
REMARK INTER + INTRA:          -9.466
REMARK INTER:                  -9.047
REMARK INTRA:                  -0.418
REMARK UNBOUND:                -0.235
REMARK SMILES O=c1c(O)c(-c2ccc(O)cc2O)oc2cc(O)cc(O)c12
REMARK SMILES IDX 5 1 3 2 2 3 1 4 22 5 20 6 19 7 17 8 16 9 15 10 14 11 6 12
REMARK SMILES IDX 8 13 7 14 9 15 11 16 12 17 10 18 13 20 4 22 21 24 18 26
REMARK H PARENT 10 19 13 21 4 23 21 25 18 27
REMARK Flexibility Score: inf
ROOT
ATOM      1  C   UNL     1      79.980 -24.914  86.443  1.00  0.00     0.184 A 
ATOM      2  C   UNL     1      78.969 -24.095  86.975  1.00  0.00     0.208 A 
ATOM      3  C   UNL     1      77.655 -24.249  86.509  1.00  0.00     0.238 A 
ATOM      4  O   UNL     1      76.742 -23.513  86.972  1.00  0.00    -0.285 OA
ATOM      5  C   UNL     1      77.373 -25.229  85.535  1.00  0.00     0.111 A 
ATOM      6  C   UNL     1      76.075 -25.452  85.014  1.00  0.00     0.134 A 
ATOM      7  C   UNL     1      75.874 -26.453  84.053  1.00  0.00     0.093 A 
ATOM      8  C   UNL     1      76.944 -27.237  83.604  1.00  0.00     0.123 A 
ATOM      9  C   UNL     1      78.224 -27.021  84.115  1.00  0.00     0.094 A 
ATOM     10  C   UNL     1      78.446 -26.026  85.072  1.00  0.00     0.146 A 
ATOM     11  O   UNL     1      79.677 -25.839  85.536  1.00  0.00    -0.451 OA
ENDROOT
BRANCH   1  12
ATOM     12  C   UNL     1      81.386 -24.797  86.880  1.00  0.00     0.063 A 
ATOM     13  C   UNL     1      83.492 -23.584  86.800  1.00  0.00     0.047 A 
ATOM     14  C   UNL     1      82.160 -23.728  86.403  1.00  0.00     0.020 A 
ATOM     15  C   UNL     1      84.062 -24.501  87.691  1.00  0.00     0.119 A 
ATOM     16  C   UNL     1      83.293 -25.556  88.190  1.00  0.00     0.093 A 
ATOM     17  C   UNL     1      81.953 -25.704  87.800  1.00  0.00     0.130 A 
BRANCH  15  18
ATOM     18  O   UNL     1      85.391 -24.370  88.091  1.00  0.00    -0.508 OA
ATOM     19  H   UNL     1      85.800 -24.988  88.783  1.00  0.00     0.293 HD
ENDBRANCH  15  18
BRANCH  17  20
ATOM     20  O   UNL     1      81.182 -26.731  88.343  1.00  0.00    -0.507 OA
ATOM     21  H   UNL     1      80.265 -26.959  87.975  1.00  0.00     0.293 HD
ENDBRANCH  17  20
ENDBRANCH   1  12
BRANCH   2  22
ATOM     22  O   UNL     1      79.274 -23.164  87.972  1.00  0.00    -0.502 OA
ATOM     23  H   UNL     1      80.228 -22.939  88.229  1.00  0.00     0.293 HD
ENDBRANCH   2  22
BRANCH   6  24
ATOM     24  O   UNL     1      74.988 -24.688  85.442  1.00  0.00    -0.507 OA
ATOM     25  H   UNL     1      74.188 -25.109  85.898  1.00  0.00     0.293 HD
ENDBRANCH   6  24
BRANCH   8  26
ATOM     26  O   UNL     1      76.744 -28.232  82.651  1.00  0.00    -0.508 OA
ATOM     27  H   UNL     1      76.109 -28.101  81.872  1.00  0.00     0.293 HD
ENDBRANCH   8  26
TORSDOF 6
ENDMDL
MODEL 9
REMARK VINA RESULT:    -6.811      2.246      7.344
REMARK INTER + INTRA:          -8.439
REMARK INTER:                  -8.113
REMARK INTRA:                  -0.326
REMARK UNBOUND:                -0.235
REMARK SMILES O=c1c(O)c(-c2ccc(O)cc2O)oc2cc(O)cc(O)c12
REMARK SMILES IDX 5 1 3 2 2 3 1 4 22 5 20 6 19 7 17 8 16 9 15 10 14 11 6 12
REMARK SMILES IDX 8 13 7 14 9 15 11 16 12 17 10 18 13 20 4 22 21 24 18 26
REMARK H PARENT 10 19 13 21 4 23 21 25 18 27
REMARK Flexibility Score: inf
ROOT
ATOM      1  C   UNL     1      82.623 -24.911  86.998  1.00  0.00     0.184 A 
ATOM      2  C   UNL     1      81.469 -24.123  87.148  1.00  0.00     0.208 A 
ATOM      3  C   UNL     1      80.318 -24.460  86.420  1.00  0.00     0.238 A 
ATOM      4  O   UNL     1      79.280 -23.754  86.539  1.00  0.00    -0.285 OA
ATOM      5  C   UNL     1      80.336 -25.587  85.573  1.00  0.00     0.111 A 
ATOM      6  C   UNL     1      79.219 -25.998  84.806  1.00  0.00     0.134 A 
ATOM      7  C   UNL     1      79.314 -27.137  83.993  1.00  0.00     0.093 A 
ATOM      8  C   UNL     1      80.503 -27.873  83.932  1.00  0.00     0.123 A 
ATOM      9  C   UNL     1      81.607 -27.471  84.686  1.00  0.00     0.094 A 
ATOM     10  C   UNL     1      81.533 -26.338  85.501  1.00  0.00     0.146 A 
ATOM     11  O   UNL     1      82.602 -25.977  86.202  1.00  0.00    -0.451 OA
ENDROOT
BRANCH   1  12
ATOM     12  C   UNL     1      83.873 -24.606  87.726  1.00  0.00     0.063 A 
ATOM     13  C   UNL     1      86.158 -23.776  87.672  1.00  0.00     0.047 A 
ATOM     14  C   UNL     1      84.963 -24.081  87.014  1.00  0.00     0.020 A 
ATOM     15  C   UNL     1      86.271 -23.980  89.053  1.00  0.00     0.119 A 
ATOM     16  C   UNL     1      85.183 -24.481  89.773  1.00  0.00     0.093 A 
ATOM     17  C   UNL     1      83.978 -24.784  89.121  1.00  0.00     0.130 A 
BRANCH  15  18
ATOM     18  O   UNL     1      87.459 -23.684  89.718  1.00  0.00    -0.508 OA
ATOM     19  H   UNL     1      88.320 -24.179  89.513  1.00  0.00     0.293 HD
ENDBRANCH  15  18
BRANCH  17  20
ATOM     20  O   UNL     1      82.885 -25.236  89.859  1.00  0.00    -0.507 OA
ATOM     21  H   UNL     1      82.788 -26.209  90.125  1.00  0.00     0.293 HD
ENDBRANCH  17  20
ENDBRANCH   1  12
BRANCH   2  22
ATOM     22  O   UNL     1      81.470 -23.039  88.030  1.00  0.00    -0.502 OA
ATOM     23  H   UNL     1      81.430 -22.079  87.708  1.00  0.00     0.293 HD
ENDBRANCH   2  22
BRANCH   6  24
ATOM     24  O   UNL     1      78.019 -25.286  84.847  1.00  0.00    -0.507 OA
ATOM     25  H   UNL     1      77.519 -25.133  85.715  1.00  0.00     0.293 HD
ENDBRANCH   6  24
BRANCH   8  26
ATOM     26  O   UNL     1      80.597 -29.005  83.126  1.00  0.00    -0.508 OA
ATOM     27  H   UNL     1      81.494 -29.406  82.878  1.00  0.00     0.293 HD
ENDBRANCH   8  26
TORSDOF 6
ENDMDL
