MODEL 1
REMARK VINA RESULT:    -4.274      0.000      0.000
REMARK INTER + INTRA:          -6.098
REMARK INTER:                  -5.773
REMARK INTRA:                  -0.326
REMARK UNBOUND:                -0.326
REMARK SMILES O=C[C@@H](O)[C@@H](O)[C@H](O)CO
REMARK SMILES IDX 7 1 9 2 10 3 5 5 3 6 2 7 1 8 4 9 6 11 8 13
REMARK H PARENT 10 4 4 10 6 12 8 14
REMARK Flexibility Score: inf
ROOT
ATOM      1  C   UNL     1      15.637 -17.472  13.011  1.00  0.00     0.171 C 
ENDROOT
BRANCH   1   2
ATOM      2  C   UNL     1      16.246 -16.093  13.318  1.00  0.00     0.190 C 
BRANCH   2   3
ATOM      3  O   UNL     1      15.389 -15.341  14.136  1.00  0.00    -0.394 OA
ATOM      4  H   UNL     1      14.790 -14.827  13.535  1.00  0.00     0.210 HD
ENDBRANCH   2   3
ENDBRANCH   1   2
BRANCH   1   5
ATOM      5  C   UNL     1      16.021 -17.976  11.595  1.00  0.00     0.181 C 
BRANCH   5   6
ATOM      6  C   UNL     1      16.287 -19.501  11.569  1.00  0.00     0.209 C 
BRANCH   6   7
ATOM      7  C   UNL     1      15.053 -20.312  11.879  1.00  0.00     0.258 C 
ATOM      8  O   UNL     1      13.994 -20.061  11.326  1.00  0.00    -0.300 OA
ENDBRANCH   6   7
BRANCH   6   9
ATOM      9  O   UNL     1      16.811 -19.889  10.324  1.00  0.00    -0.383 OA
ATOM     10  H   UNL     1      16.050 -20.008   9.696  1.00  0.00     0.211 HD
ENDBRANCH   6   9
ENDBRANCH   5   6
BRANCH   5  11
ATOM     11  O   UNL     1      15.012 -17.648  10.669  1.00  0.00    -0.387 OA
ATOM     12  H   UNL     1      15.408 -17.014  10.015  1.00  0.00     0.211 HD
ENDBRANCH   5  11
ENDBRANCH   1   5
BRANCH   1  13
ATOM     13  O   UNL     1      14.239 -17.394  13.124  1.00  0.00    -0.388 OA
ATOM     14  H   UNL     1      13.954 -18.134  13.720  1.00  0.00     0.211 HD
ENDBRANCH   1  13
TORSDOF 8
ENDMDL
MODEL 2
REMARK VINA RESULT:    -4.191     15.605     16.475
REMARK INTER + INTRA:          -5.987
REMARK INTER:                  -5.294
REMARK INTRA:                  -0.694
REMARK UNBOUND:                -0.326
REMARK SMILES O=C[C@@H](O)[C@@H](O)[C@H](O)CO
REMARK SMILES IDX 7 1 9 2 10 3 5 5 3 6 2 7 1 8 4 9 6 11 8 13
REMARK H PARENT 10 4 4 10 6 12 8 14
REMARK Flexibility Score: inf
ROOT
ATOM      1  C   UNL     1       0.589  -8.411  11.029  1.00  0.00     0.171 C 
ENDROOT
BRANCH   1   2
ATOM      2  C   UNL     1      -0.659  -9.290  11.212  1.00  0.00     0.190 C 
BRANCH   2   3
ATOM      3  O   UNL     1      -0.540 -10.093  12.358  1.00  0.00    -0.394 OA
ATOM      4  H   UNL     1      -1.328  -9.901  12.930  1.00  0.00     0.210 HD
ENDBRANCH   2   3
ENDBRANCH   1   2
BRANCH   1   5
ATOM      5  C   UNL     1       1.739  -9.173  10.320  1.00  0.00     0.181 C 
BRANCH   5   6
ATOM      6  C   UNL     1       2.996  -9.298  11.216  1.00  0.00     0.209 C 
BRANCH   6   7
ATOM      7  C   UNL     1       3.945 -10.370  10.740  1.00  0.00     0.258 C 
ATOM      8  O   UNL     1       3.903 -11.491  11.222  1.00  0.00    -0.300 OA
ENDBRANCH   6   7
BRANCH   6   9
ATOM      9  O   UNL     1       3.670  -8.067  11.294  1.00  0.00    -0.383 OA
ATOM     10  H   UNL     1       3.624  -7.753  12.236  1.00  0.00     0.211 HD
ENDBRANCH   6   9
ENDBRANCH   5   6
BRANCH   5  11
ATOM     11  O   UNL     1       1.304 -10.451   9.919  1.00  0.00    -0.387 OA
ATOM     12  H   UNL     1       1.422 -11.058  10.696  1.00  0.00     0.211 HD
ENDBRANCH   5  11
ENDBRANCH   1   5
BRANCH   1  13
ATOM     13  O   UNL     1       1.023  -7.960  12.287  1.00  0.00    -0.388 OA
ATOM     14  H   UNL     1       1.123  -8.761  12.864  1.00  0.00     0.211 HD
ENDBRANCH   1  13
TORSDOF 8
ENDMDL
MODEL 3
REMARK VINA RESULT:    -4.145     16.489     17.384
REMARK INTER + INTRA:          -5.925
REMARK INTER:                  -5.427
REMARK INTRA:                  -0.498
REMARK UNBOUND:                -0.326
REMARK SMILES O=C[C@@H](O)[C@@H](O)[C@H](O)CO
REMARK SMILES IDX 7 1 9 2 10 3 5 5 3 6 2 7 1 8 4 9 6 11 8 13
REMARK H PARENT 10 4 4 10 6 12 8 14
REMARK Flexibility Score: inf
ROOT
ATOM      1  C   UNL     1       0.246  -8.504  10.215  1.00  0.00     0.171 C 
ENDROOT
BRANCH   1   2
ATOM      2  C   UNL     1      -1.106  -9.008  10.749  1.00  0.00     0.190 C 
BRANCH   2   3
ATOM      3  O   UNL     1      -1.506  -8.267  11.872  1.00  0.00    -0.394 OA
ATOM      4  H   UNL     1      -1.283  -7.317  11.687  1.00  0.00     0.210 HD
ENDBRANCH   2   3
ENDBRANCH   1   2
BRANCH   1   5
ATOM      5  C   UNL     1       1.387  -8.695  11.247  1.00  0.00     0.181 C 
BRANCH   5   6
ATOM      6  C   UNL     1       2.774  -8.332  10.660  1.00  0.00     0.209 C 
BRANCH   6   7
ATOM      7  C   UNL     1       3.853  -9.299  11.080  1.00  0.00     0.258 C 
ATOM      8  O   UNL     1       3.562 -10.356  11.617  1.00  0.00    -0.300 OA
ENDBRANCH   6   7
BRANCH   6   9
ATOM      9  O   UNL     1       2.713  -8.267   9.257  1.00  0.00    -0.383 OA
ATOM     10  H   UNL     1       3.356  -8.931   8.892  1.00  0.00     0.211 HD
ENDBRANCH   6   9
ENDBRANCH   5   6
BRANCH   5  11
ATOM     11  O   UNL     1       1.137  -7.927  12.401  1.00  0.00    -0.387 OA
ATOM     12  H   UNL     1       0.511  -7.202  12.140  1.00  0.00     0.211 HD
ENDBRANCH   5  11
ENDBRANCH   1   5
BRANCH   1  13
ATOM     13  O   UNL     1       0.131  -7.144   9.881  1.00  0.00    -0.388 OA
ATOM     14  H   UNL     1      -0.824  -6.977   9.667  1.00  0.00     0.211 HD
ENDBRANCH   1  13
TORSDOF 8
ENDMDL
MODEL 4
REMARK VINA RESULT:    -4.118     16.295     16.959
REMARK INTER + INTRA:          -5.889
REMARK INTER:                  -4.932
REMARK INTRA:                  -0.956
REMARK UNBOUND:                -0.326
REMARK SMILES O=C[C@@H](O)[C@@H](O)[C@H](O)CO
REMARK SMILES IDX 7 1 9 2 10 3 5 5 3 6 2 7 1 8 4 9 6 11 8 13
REMARK H PARENT 10 4 4 10 6 12 8 14
REMARK Flexibility Score: inf
ROOT
ATOM      1  C   UNL     1       2.488  -8.823  10.639  1.00  0.00     0.171 C 
ENDROOT
BRANCH   1   2
ATOM      2  C   UNL     1       1.903  -7.643  11.435  1.00  0.00     0.190 C 
BRANCH   2   3
ATOM      3  O   UNL     1       0.854  -8.071  12.263  1.00  0.00    -0.394 OA
ATOM      4  H   UNL     1       0.023  -8.035  11.722  1.00  0.00     0.210 HD
ENDBRANCH   2   3
ENDBRANCH   1   2
BRANCH   1   5
ATOM      5  C   UNL     1       1.682  -9.109   9.346  1.00  0.00     0.181 C 
BRANCH   5   6
ATOM      6  C   UNL     1       1.077 -10.535   9.337  1.00  0.00     0.209 C 
BRANCH   6   7
ATOM      7  C   UNL     1      -0.355 -10.562   9.809  1.00  0.00     0.258 C 
ATOM      8  O   UNL     1      -0.635 -10.245  10.954  1.00  0.00    -0.300 OA
ENDBRANCH   6   7
BRANCH   6   9
ATOM      9  O   UNL     1       1.166 -11.100   8.053  1.00  0.00    -0.383 OA
ATOM     10  H   UNL     1       0.242 -11.257   7.724  1.00  0.00     0.211 HD
ENDBRANCH   6   9
ENDBRANCH   5   6
BRANCH   5  11
ATOM     11  O   UNL     1       0.661  -8.152   9.184  1.00  0.00    -0.387 OA
ATOM     12  H   UNL     1       0.195  -8.362   8.332  1.00  0.00     0.211 HD
ENDBRANCH   5  11
ENDBRANCH   1   5
BRANCH   1  13
ATOM     13  O   UNL     1       2.499  -9.967  11.455  1.00  0.00    -0.388 OA
ATOM     14  H   UNL     1       2.580  -9.654  12.393  1.00  0.00     0.211 HD
ENDBRANCH   1  13
TORSDOF 8
ENDMDL
MODEL 5
REMARK VINA RESULT:    -4.101     16.153     17.156
REMARK INTER + INTRA:          -5.865
REMARK INTER:                  -4.902
REMARK INTRA:                  -0.964
REMARK UNBOUND:                -0.326
REMARK SMILES O=C[C@@H](O)[C@@H](O)[C@H](O)CO
REMARK SMILES IDX 7 1 9 2 10 3 5 5 3 6 2 7 1 8 4 9 6 11 8 13
REMARK H PARENT 10 4 4 10 6 12 8 14
REMARK Flexibility Score: inf
ROOT
ATOM      1  C   UNL     1       2.856  -9.268  11.215  1.00  0.00     0.171 C 
ENDROOT
BRANCH   1   2
ATOM      2  C   UNL     1       3.725  -9.735  10.035  1.00  0.00     0.190 C 
BRANCH   2   3
ATOM      3  O   UNL     1       3.914  -8.694   9.112  1.00  0.00    -0.394 OA
ATOM      4  H   UNL     1       3.381  -8.921   8.306  1.00  0.00     0.210 HD
ENDBRANCH   2   3
ENDBRANCH   1   2
BRANCH   1   5
ATOM      5  C   UNL     1       1.344  -9.296  10.872  1.00  0.00     0.181 C 
BRANCH   5   6
ATOM      6  C   UNL     1       0.685  -7.902  11.018  1.00  0.00     0.209 C 
BRANCH   6   7
ATOM      7  C   UNL     1       0.625  -7.148   9.713  1.00  0.00     0.258 C 
ATOM      8  O   UNL     1       1.651  -6.863   9.115  1.00  0.00    -0.300 OA
ENDBRANCH   6   7
BRANCH   6   9
ATOM      9  O   UNL     1      -0.607  -8.022  11.558  1.00  0.00    -0.383 OA
ATOM     10  H   UNL     1      -0.668  -7.414  12.341  1.00  0.00     0.211 HD
ENDBRANCH   6   9
ENDBRANCH   5   6
BRANCH   5  11
ATOM     11  O   UNL     1       1.148  -9.787   9.566  1.00  0.00    -0.387 OA
ATOM     12  H   UNL     1       1.956  -9.551   9.040  1.00  0.00     0.211 HD
ENDBRANCH   5  11
ENDBRANCH   1   5
BRANCH   1  13
ATOM     13  O   UNL     1       3.236  -7.965  11.579  1.00  0.00    -0.388 OA
ATOM     14  H   UNL     1       3.998  -8.050  12.209  1.00  0.00     0.211 HD
ENDBRANCH   1  13
TORSDOF 8
ENDMDL
MODEL 6
REMARK VINA RESULT:    -4.097     14.758     15.491
REMARK INTER + INTRA:          -5.860
REMARK INTER:                  -4.900
REMARK INTRA:                  -0.960
REMARK UNBOUND:                -0.326
REMARK SMILES O=C[C@@H](O)[C@@H](O)[C@H](O)CO
REMARK SMILES IDX 7 1 9 2 10 3 5 5 3 6 2 7 1 8 4 9 6 11 8 13
REMARK H PARENT 10 4 4 10 6 12 8 14
REMARK Flexibility Score: inf
ROOT
ATOM      1  C   UNL     1       3.523 -10.514  10.877  1.00  0.00     0.171 C 
ENDROOT
BRANCH   1   2
ATOM      2  C   UNL     1       4.801  -9.687  11.102  1.00  0.00     0.190 C 
BRANCH   2   3
ATOM      3  O   UNL     1       4.544  -8.317  10.937  1.00  0.00    -0.394 OA
ATOM      4  H   UNL     1       5.090  -8.009  10.168  1.00  0.00     0.210 HD
ENDBRANCH   2   3
ENDBRANCH   1   2
BRANCH   1   5
ATOM      5  C   UNL     1       3.200 -10.689   9.371  1.00  0.00     0.181 C 
BRANCH   5   6
ATOM      6  C   UNL     1       1.765 -10.223   9.023  1.00  0.00     0.209 C 
BRANCH   6   7
ATOM      7  C   UNL     1       1.725  -8.813   8.488  1.00  0.00     0.258 C 
ATOM      8  O   UNL     1       2.168  -7.888   9.150  1.00  0.00    -0.300 OA
ENDBRANCH   6   7
BRANCH   6   9
ATOM      9  O   UNL     1       1.173 -11.100   8.097  1.00  0.00    -0.383 OA
ATOM     10  H   UNL     1       1.572 -10.917   7.206  1.00  0.00     0.211 HD
ENDBRANCH   6   9
ENDBRANCH   5   6
BRANCH   5  11
ATOM     11  O   UNL     1       4.137  -9.990   8.585  1.00  0.00    -0.387 OA
ATOM     12  H   UNL     1       4.471  -9.232   9.133  1.00  0.00     0.211 HD
ENDBRANCH   5  11
ENDBRANCH   1   5
BRANCH   1  13
ATOM     13  O   UNL     1       2.447  -9.882  11.524  1.00  0.00    -0.388 OA
ATOM     14  H   UNL     1       2.801  -9.497  12.367  1.00  0.00     0.211 HD
ENDBRANCH   1  13
TORSDOF 8
ENDMDL
MODEL 7
REMARK VINA RESULT:    -4.061     15.125     15.978
REMARK INTER + INTRA:          -5.811
REMARK INTER:                  -5.123
REMARK INTRA:                  -0.688
REMARK UNBOUND:                -0.326
REMARK SMILES O=C[C@@H](O)[C@@H](O)[C@H](O)CO
REMARK SMILES IDX 7 1 9 2 10 3 5 5 3 6 2 7 1 8 4 9 6 11 8 13
REMARK H PARENT 10 4 4 10 6 12 8 14
REMARK Flexibility Score: inf
ROOT
ATOM      1  C   UNL     1       1.587  -8.465  10.663  1.00  0.00     0.171 C 
ENDROOT
BRANCH   1   2
ATOM      2  C   UNL     1       0.144  -8.674  11.154  1.00  0.00     0.190 C 
BRANCH   2   3
ATOM      3  O   UNL     1       0.101  -9.631  12.180  1.00  0.00    -0.394 OA
ATOM      4  H   UNL     1      -0.853  -9.748  12.428  1.00  0.00     0.210 HD
ENDBRANCH   2   3
ENDBRANCH   1   2
BRANCH   1   5
ATOM      5  C   UNL     1       2.350  -9.806  10.509  1.00  0.00     0.181 C 
BRANCH   5   6
ATOM      6  C   UNL     1       3.303  -9.801   9.288  1.00  0.00     0.209 C 
BRANCH   6   7
ATOM      7  C   UNL     1       4.713  -9.410   9.654  1.00  0.00     0.258 C 
ATOM      8  O   UNL     1       4.946  -8.311  10.131  1.00  0.00    -0.300 OA
ENDBRANCH   6   7
BRANCH   6   9
ATOM      9  O   UNL     1       3.305 -11.058   8.659  1.00  0.00    -0.383 OA
ATOM     10  H   UNL     1       4.024 -11.055   7.974  1.00  0.00     0.211 HD
ENDBRANCH   6   9
ENDBRANCH   5   6
BRANCH   5  11
ATOM     11  O   UNL     1       3.072 -10.095  11.683  1.00  0.00    -0.387 OA
ATOM     12  H   UNL     1       3.201  -9.238  12.166  1.00  0.00     0.211 HD
ENDBRANCH   5  11
ENDBRANCH   1   5
BRANCH   1  13
ATOM     13  O   UNL     1       2.266  -7.633  11.569  1.00  0.00    -0.388 OA
ATOM     14  H   UNL     1       3.124  -7.378  11.142  1.00  0.00     0.211 HD
ENDBRANCH   1  13
TORSDOF 8
ENDMDL
MODEL 8
REMARK VINA RESULT:    -4.048     17.249     18.207
REMARK INTER + INTRA:          -5.793
REMARK INTER:                  -5.089
REMARK INTRA:                  -0.704
REMARK UNBOUND:                -0.326
REMARK SMILES O=C[C@@H](O)[C@@H](O)[C@H](O)CO
REMARK SMILES IDX 7 1 9 2 10 3 5 5 3 6 2 7 1 8 4 9 6 11 8 13
REMARK H PARENT 10 4 4 10 6 12 8 14
REMARK Flexibility Score: inf
ROOT
ATOM      1  C   UNL     1      -0.984  -9.005  10.905  1.00  0.00     0.171 C 
ENDROOT
BRANCH   1   2
ATOM      2  C   UNL     1      -1.522 -10.386  11.317  1.00  0.00     0.190 C 
BRANCH   2   3
ATOM      3  O   UNL     1      -1.357 -10.594  12.696  1.00  0.00    -0.394 OA
ATOM      4  H   UNL     1      -1.116 -11.549  12.819  1.00  0.00     0.210 HD
ENDBRANCH   2   3
ENDBRANCH   1   2
BRANCH   1   5
ATOM      5  C   UNL     1       0.550  -9.021  10.682  1.00  0.00     0.181 C 
BRANCH   5   6
ATOM      6  C   UNL     1       1.103  -7.620  10.321  1.00  0.00     0.209 C 
BRANCH   6   7
ATOM      7  C   UNL     1       2.396  -7.687   9.547  1.00  0.00     0.258 C 
ATOM      8  O   UNL     1       3.261  -8.492   9.857  1.00  0.00    -0.300 OA
ENDBRANCH   6   7
BRANCH   6   9
ATOM      9  O   UNL     1       0.150  -6.887   9.592  1.00  0.00    -0.383 OA
ATOM     10  H   UNL     1       0.598  -6.526   8.781  1.00  0.00     0.211 HD
ENDBRANCH   6   9
ENDBRANCH   5   6
BRANCH   5  11
ATOM     11  O   UNL     1       1.206  -9.517  11.825  1.00  0.00    -0.387 OA
ATOM     12  H   UNL     1       0.698 -10.313  12.132  1.00  0.00     0.211 HD
ENDBRANCH   5  11
ENDBRANCH   1   5
BRANCH   1  13
ATOM     13  O   UNL     1      -1.310  -8.068  11.901  1.00  0.00    -0.388 OA
ATOM     14  H   UNL     1      -1.720  -8.573  12.650  1.00  0.00     0.211 HD
ENDBRANCH   1  13
TORSDOF 8
ENDMDL
MODEL 9
REMARK VINA RESULT:    -4.032     15.531     16.304
REMARK INTER + INTRA:          -5.771
REMARK INTER:                  -4.803
REMARK INTRA:                  -0.969
REMARK UNBOUND:                -0.326
REMARK SMILES O=C[C@@H](O)[C@@H](O)[C@H](O)CO
REMARK SMILES IDX 7 1 9 2 10 3 5 5 3 6 2 7 1 8 4 9 6 11 8 13
REMARK H PARENT 10 4 4 10 6 12 8 14
REMARK Flexibility Score: inf
ROOT
ATOM      1  C   UNL     1       1.586  -8.003  11.513  1.00  0.00     0.171 C 
ENDROOT
BRANCH   1   2
ATOM      2  C   UNL     1       0.844  -7.251  10.395  1.00  0.00     0.190 C 
BRANCH   2   3
ATOM      3  O   UNL     1       0.260  -8.151   9.491  1.00  0.00    -0.394 OA
ATOM      4  H   UNL     1      -0.521  -8.558   9.949  1.00  0.00     0.210 HD
ENDBRANCH   2   3
ENDBRANCH   1   2
BRANCH   1   5
ATOM      5  C   UNL     1       2.979  -8.505  11.052  1.00  0.00     0.181 C 
BRANCH   5   6
ATOM      6  C   UNL     1       3.089 -10.049  11.100  1.00  0.00     0.209 C 
BRANCH   6   7
ATOM      7  C   UNL     1       2.810 -10.693   9.764  1.00  0.00     0.258 C 
ATOM      8  O   UNL     1       1.689 -10.658   9.282  1.00  0.00    -0.300 OA
ENDBRANCH   6   7
BRANCH   6   9
ATOM      9  O   UNL     1       4.359 -10.439  11.560  1.00  0.00    -0.383 OA
ATOM     10  H   UNL     1       5.004  -9.724  11.315  1.00  0.00     0.211 HD
ENDBRANCH   6   9
ENDBRANCH   5   6
BRANCH   5  11
ATOM     11  O   UNL     1       3.260  -8.042   9.752  1.00  0.00    -0.387 OA
ATOM     12  H   UNL     1       2.926  -8.729   9.118  1.00  0.00     0.211 HD
ENDBRANCH   5  11
ENDBRANCH   1   5
BRANCH   1  13
ATOM     13  O   UNL     1       0.803  -9.093  11.932  1.00  0.00    -0.388 OA
ATOM     14  H   UNL     1      -0.008  -8.718  12.363  1.00  0.00     0.211 HD
ENDBRANCH   1  13
TORSDOF 8
ENDMDL
