MODEL 1
REMARK VINA RESULT:    -3.995      0.000      0.000
REMARK INTER + INTRA:          -7.247
REMARK INTER:                  -6.096
REMARK INTRA:                  -1.151
REMARK UNBOUND:                -1.151
REMARK SMILES CCCCCCCCCC=CC(=O)[O-]
REMARK SMILES IDX 7 1 8 2 9 3 10 4 11 5 12 6 13 7 14 8 6 9 5 10 4 11 3 12 2 13
REMARK SMILES IDX 1 14
REMARK H PARENT
REMARK Flexibility Score: inf
ROOT
ATOM      1  C   UNL     1       5.184  -0.688   4.088  1.00  0.00     0.000 C 
ENDROOT
BRANCH   1   2
ATOM      2  C   UNL     1       4.550  -1.674   3.091  1.00  0.00     0.004 C 
BRANCH   2   3
ATOM      3  C   UNL     1       4.912  -3.137   3.388  1.00  0.00     0.027 C 
BRANCH   3   4
ATOM      4  C   UNL     1       4.087  -4.078   2.560  1.00  0.00    -0.025 C 
ATOM      5  C   UNL     1       4.581  -5.242   2.121  1.00  0.00     0.020 C 
BRANCH   5   6
ATOM      6  C   UNL     1       3.795  -6.173   1.296  1.00  0.00     0.064 C 
ATOM      7  O   UNL     1       3.707  -7.393   1.596  1.00  0.00    -0.545 OA
ATOM      8  O   UNL     1       3.140  -5.698   0.167  1.00  0.00    -0.545 OA
ENDBRANCH   5   6
ENDBRANCH   3   4
ENDBRANCH   2   3
ENDBRANCH   1   2
BRANCH   1   9
ATOM      9  C   UNL     1       4.284  -0.285   5.274  1.00  0.00     0.000 C 
BRANCH   9  10
ATOM     10  C   UNL     1       2.790  -0.612   5.100  1.00  0.00     0.000 C 
BRANCH  10  11
ATOM     11  C   UNL     1       2.291  -1.673   6.092  1.00  0.00    -0.000 C 
BRANCH  11  12
ATOM     12  C   UNL     1       3.387  -2.036   7.104  1.00  0.00    -0.000 C 
BRANCH  12  13
ATOM     13  C   UNL     1       3.916  -3.467   6.915  1.00  0.00    -0.003 C 
ATOM     14  C   UNL     1       2.840  -4.434   6.426  1.00  0.00     0.004 C 
ENDBRANCH  12  13
ENDBRANCH  11  12
ENDBRANCH  10  11
ENDBRANCH   9  10
ENDBRANCH   1   9
TORSDOF 9
ENDMDL
MODEL 2
REMARK VINA RESULT:    -3.898      3.406      5.289
REMARK INTER + INTRA:          -7.100
REMARK INTER:                  -5.776
REMARK INTRA:                  -1.324
REMARK UNBOUND:                -1.151
REMARK SMILES CCCCCCCCCC=CC(=O)[O-]
REMARK SMILES IDX 7 1 8 2 9 3 10 4 11 5 12 6 13 7 14 8 6 9 5 10 4 11 3 12 2 13
REMARK SMILES IDX 1 14
REMARK H PARENT
REMARK Flexibility Score: inf
ROOT
ATOM      1  C   UNL     1       7.751  -1.587   4.537  1.00  0.00     0.000 C 
ENDROOT
BRANCH   1   2
ATOM      2  C   UNL     1       7.388  -2.218   5.893  1.00  0.00     0.004 C 
BRANCH   2   3
ATOM      3  C   UNL     1       6.638  -1.249   6.821  1.00  0.00     0.027 C 
BRANCH   3   4
ATOM      4  C   UNL     1       5.152  -1.386   6.659  1.00  0.00    -0.025 C 
ATOM      5  C   UNL     1       4.413  -0.406   6.127  1.00  0.00     0.020 C 
BRANCH   5   6
ATOM      6  C   UNL     1       2.954  -0.511   5.972  1.00  0.00     0.064 C 
ATOM      7  O   UNL     1       2.250  -1.104   6.832  1.00  0.00    -0.545 OA
ATOM      8  O   UNL     1       2.343   0.053   4.860  1.00  0.00    -0.545 OA
ENDBRANCH   5   6
ENDBRANCH   3   4
ENDBRANCH   2   3
ENDBRANCH   1   2
BRANCH   1   9
ATOM      9  C   UNL     1       6.948  -2.118   3.332  1.00  0.00     0.000 C 
BRANCH   9  10
ATOM     10  C   UNL     1       5.866  -1.163   2.797  1.00  0.00     0.000 C 
BRANCH  10  11
ATOM     11  C   UNL     1       4.463  -1.789   2.797  1.00  0.00    -0.000 C 
BRANCH  11  12
ATOM     12  C   UNL     1       4.485  -3.183   3.439  1.00  0.00    -0.000 C 
BRANCH  12  13
ATOM     13  C   UNL     1       4.154  -4.301   2.438  1.00  0.00    -0.003 C 
ATOM     14  C   UNL     1       5.282  -5.323   2.299  1.00  0.00     0.004 C 
ENDBRANCH  12  13
ENDBRANCH  11  12
ENDBRANCH  10  11
ENDBRANCH   9  10
ENDBRANCH   1   9
TORSDOF 9
ENDMDL
MODEL 3
REMARK VINA RESULT:    -3.894      3.549      5.828
REMARK INTER + INTRA:          -7.094
REMARK INTER:                  -6.172
REMARK INTRA:                  -0.922
REMARK UNBOUND:                -1.151
REMARK SMILES CCCCCCCCCC=CC(=O)[O-]
REMARK SMILES IDX 7 1 8 2 9 3 10 4 11 5 12 6 13 7 14 8 6 9 5 10 4 11 3 12 2 13
REMARK SMILES IDX 1 14
REMARK H PARENT
REMARK Flexibility Score: inf
ROOT
ATOM      1  C   UNL     1       6.503  -2.539   3.575  1.00  0.00     0.000 C 
ENDROOT
BRANCH   1   2
ATOM      2  C   UNL     1       5.749  -1.381   2.894  1.00  0.00     0.004 C 
BRANCH   2   3
ATOM      3  C   UNL     1       4.224  -1.559   2.931  1.00  0.00     0.027 C 
BRANCH   3   4
ATOM      4  C   UNL     1       3.704  -1.489   4.337  1.00  0.00    -0.025 C 
ATOM      5  C   UNL     1       3.465  -0.317   4.937  1.00  0.00     0.020 C 
BRANCH   5   6
ATOM      6  C   UNL     1       2.969  -0.224   6.319  1.00  0.00     0.064 C 
ATOM      7  O   UNL     1       2.254  -1.133   6.817  1.00  0.00    -0.545 OA
ATOM      8  O   UNL     1       3.297   0.885   7.088  1.00  0.00    -0.545 OA
ENDBRANCH   5   6
ENDBRANCH   3   4
ENDBRANCH   2   3
ENDBRANCH   1   2
BRANCH   1   9
ATOM      9  C   UNL     1       6.230  -3.936   2.981  1.00  0.00     0.000 C 
BRANCH   9  10
ATOM     10  C   UNL     1       5.412  -4.880   3.880  1.00  0.00     0.000 C 
BRANCH  10  11
ATOM     11  C   UNL     1       4.466  -5.791   3.085  1.00  0.00    -0.000 C 
BRANCH  11  12
ATOM     12  C   UNL     1       3.741  -5.003   1.985  1.00  0.00    -0.000 C 
BRANCH  12  13
ATOM     13  C   UNL     1       3.734  -5.739   0.636  1.00  0.00    -0.003 C 
ATOM     14  C   UNL     1       4.098  -7.217   0.768  1.00  0.00     0.004 C 
ENDBRANCH  12  13
ENDBRANCH  11  12
ENDBRANCH  10  11
ENDBRANCH   9  10
ENDBRANCH   1   9
TORSDOF 9
ENDMDL
MODEL 4
REMARK VINA RESULT:    -3.891      1.681      2.540
REMARK INTER + INTRA:          -7.089
REMARK INTER:                  -5.920
REMARK INTRA:                  -1.170
REMARK UNBOUND:                -1.151
REMARK SMILES CCCCCCCCCC=CC(=O)[O-]
REMARK SMILES IDX 7 1 8 2 9 3 10 4 11 5 12 6 13 7 14 8 6 9 5 10 4 11 3 12 2 13
REMARK SMILES IDX 1 14
REMARK H PARENT
REMARK Flexibility Score: inf
ROOT
ATOM      1  C   UNL     1       6.582  -2.059   3.765  1.00  0.00     0.000 C 
ENDROOT
BRANCH   1   2
ATOM      2  C   UNL     1       6.838  -3.497   3.278  1.00  0.00     0.004 C 
BRANCH   2   3
ATOM      3  C   UNL     1       6.098  -4.551   4.116  1.00  0.00     0.027 C 
BRANCH   3   4
ATOM      4  C   UNL     1       4.994  -5.193   3.326  1.00  0.00    -0.025 C 
ATOM      5  C   UNL     1       5.052  -5.289   1.993  1.00  0.00     0.020 C 
BRANCH   5   6
ATOM      6  C   UNL     1       3.976  -5.900   1.198  1.00  0.00     0.064 C 
ATOM      7  O   UNL     1       2.929  -5.259   0.917  1.00  0.00    -0.545 OA
ATOM      8  O   UNL     1       4.117  -7.207   0.749  1.00  0.00    -0.545 OA
ENDBRANCH   5   6
ENDBRANCH   3   4
ENDBRANCH   2   3
ENDBRANCH   1   2
BRANCH   1   9
ATOM      9  C   UNL     1       5.645  -1.222   2.870  1.00  0.00     0.000 C 
BRANCH   9  10
ATOM     10  C   UNL     1       4.155  -1.597   2.954  1.00  0.00     0.000 C 
BRANCH  10  11
ATOM     11  C   UNL     1       3.660  -1.758   4.399  1.00  0.00    -0.000 C 
BRANCH  11  12
ATOM     12  C   UNL     1       2.856  -0.527   4.843  1.00  0.00    -0.000 C 
BRANCH  12  13
ATOM     13  C   UNL     1       3.552   0.261   5.964  1.00  0.00    -0.003 C 
ATOM     14  C   UNL     1       4.631  -0.553   6.676  1.00  0.00     0.004 C 
ENDBRANCH  12  13
ENDBRANCH  11  12
ENDBRANCH  10  11
ENDBRANCH   9  10
ENDBRANCH   1   9
TORSDOF 9
ENDMDL
MODEL 5
REMARK VINA RESULT:    -3.800      1.587      2.835
REMARK INTER + INTRA:          -6.951
REMARK INTER:                  -5.834
REMARK INTRA:                  -1.117
REMARK UNBOUND:                -1.151
REMARK SMILES CCCCCCCCCC=CC(=O)[O-]
REMARK SMILES IDX 7 1 8 2 9 3 10 4 11 5 12 6 13 7 14 8 6 9 5 10 4 11 3 12 2 13
REMARK SMILES IDX 1 14
REMARK H PARENT
REMARK Flexibility Score: inf
ROOT
ATOM      1  C   UNL     1       2.948  -0.758   4.639  1.00  0.00     0.000 C 
ENDROOT
BRANCH   1   2
ATOM      2  C   UNL     1       4.461  -0.915   4.404  1.00  0.00     0.004 C 
BRANCH   2   3
ATOM      3  C   UNL     1       4.792  -1.514   3.029  1.00  0.00     0.027 C 
BRANCH   3   4
ATOM      4  C   UNL     1       5.026  -2.994   3.125  1.00  0.00    -0.025 C 
ATOM      5  C   UNL     1       4.106  -3.876   2.717  1.00  0.00     0.020 C 
BRANCH   5   6
ATOM      6  C   UNL     1       4.307  -5.330   2.816  1.00  0.00     0.064 C 
ATOM      7  O   UNL     1       3.537  -6.134   2.227  1.00  0.00    -0.545 OA
ATOM      8  O   UNL     1       5.364  -5.823   3.569  1.00  0.00    -0.545 OA
ENDBRANCH   5   6
ENDBRANCH   3   4
ENDBRANCH   2   3
ENDBRANCH   1   2
BRANCH   1   9
ATOM      9  C   UNL     1       2.387  -1.540   5.844  1.00  0.00     0.000 C 
BRANCH   9  10
ATOM     10  C   UNL     1       3.406  -2.436   6.572  1.00  0.00     0.000 C 
BRANCH  10  11
ATOM     11  C   UNL     1       3.593  -2.051   8.047  1.00  0.00    -0.000 C 
BRANCH  11  12
ATOM     12  C   UNL     1       4.550  -0.858   8.184  1.00  0.00    -0.000 C 
BRANCH  12  13
ATOM     13  C   UNL     1       3.837   0.423   8.646  1.00  0.00    -0.003 C 
ATOM     14  C   UNL     1       3.663   1.441   7.520  1.00  0.00     0.004 C 
ENDBRANCH  12  13
ENDBRANCH  11  12
ENDBRANCH  10  11
ENDBRANCH   9  10
ENDBRANCH   1   9
TORSDOF 9
ENDMDL
MODEL 6
REMARK VINA RESULT:    -3.791      3.744      4.421
REMARK INTER + INTRA:          -6.937
REMARK INTER:                  -5.857
REMARK INTRA:                  -1.079
REMARK UNBOUND:                -1.151
REMARK SMILES CCCCCCCCCC=CC(=O)[O-]
REMARK SMILES IDX 7 1 8 2 9 3 10 4 11 5 12 6 13 7 14 8 6 9 5 10 4 11 3 12 2 13
REMARK SMILES IDX 1 14
REMARK H PARENT
REMARK Flexibility Score: inf
ROOT
ATOM      1  C   UNL     1       3.016  -0.397   4.880  1.00  0.00     0.000 C 
ENDROOT
BRANCH   1   2
ATOM      2  C   UNL     1       3.722  -1.714   4.507  1.00  0.00     0.004 C 
BRANCH   2   3
ATOM      3  C   UNL     1       4.206  -1.738   3.049  1.00  0.00     0.027 C 
BRANCH   3   4
ATOM      4  C   UNL     1       5.703  -1.653   2.974  1.00  0.00    -0.025 C 
ATOM      5  C   UNL     1       6.329  -0.486   2.782  1.00  0.00     0.020 C 
BRANCH   5   6
ATOM      6  C   UNL     1       7.794  -0.382   2.690  1.00  0.00     0.064 C 
ATOM      7  O   UNL     1       8.369  -0.254   1.577  1.00  0.00    -0.545 OA
ATOM      8  O   UNL     1       8.555  -0.424   3.851  1.00  0.00    -0.545 OA
ENDBRANCH   5   6
ENDBRANCH   3   4
ENDBRANCH   2   3
ENDBRANCH   1   2
BRANCH   1   9
ATOM      9  C   UNL     1       3.679   0.400   6.022  1.00  0.00     0.000 C 
BRANCH   9  10
ATOM     10  C   UNL     1       4.590  -0.424   6.950  1.00  0.00     0.000 C 
BRANCH  10  11
ATOM     11  C   UNL     1       4.143  -0.380   8.419  1.00  0.00    -0.000 C 
BRANCH  11  12
ATOM     12  C   UNL     1       2.712  -0.914   8.573  1.00  0.00    -0.000 C 
BRANCH  12  13
ATOM     13  C   UNL     1       2.575  -2.377   8.122  1.00  0.00    -0.003 C 
ATOM     14  C   UNL     1       1.305  -2.629   7.312  1.00  0.00     0.004 C 
ENDBRANCH  12  13
ENDBRANCH  11  12
ENDBRANCH  10  11
ENDBRANCH   9  10
ENDBRANCH   1   9
TORSDOF 9
ENDMDL
MODEL 7
REMARK VINA RESULT:    -3.769      3.581      5.294
REMARK INTER + INTRA:          -6.903
REMARK INTER:                  -5.550
REMARK INTRA:                  -1.353
REMARK UNBOUND:                -1.151
REMARK SMILES CCCCCCCCCC=CC(=O)[O-]
REMARK SMILES IDX 7 1 8 2 9 3 10 4 11 5 12 6 13 7 14 8 6 9 5 10 4 11 3 12 2 13
REMARK SMILES IDX 1 14
REMARK H PARENT
REMARK Flexibility Score: inf
ROOT
ATOM      1  C   UNL     1       5.231  -3.851   3.880  1.00  0.00     0.000 C 
ENDROOT
BRANCH   1   2
ATOM      2  C   UNL     1       4.393  -4.787   4.771  1.00  0.00     0.004 C 
BRANCH   2   3
ATOM      3  C   UNL     1       4.234  -4.261   6.205  1.00  0.00     0.027 C 
BRANCH   3   4
ATOM      4  C   UNL     1       2.918  -3.560   6.382  1.00  0.00    -0.025 C 
ATOM      5  C   UNL     1       2.572  -3.004   7.549  1.00  0.00     0.020 C 
BRANCH   5   6
ATOM      6  C   UNL     1       1.283  -2.325   7.749  1.00  0.00     0.064 C 
ATOM      7  O   UNL     1       0.240  -2.725   7.168  1.00  0.00    -0.545 OA
ATOM      8  O   UNL     1       1.215  -1.224   8.592  1.00  0.00    -0.545 OA
ENDBRANCH   5   6
ENDBRANCH   3   4
ENDBRANCH   2   3
ENDBRANCH   1   2
BRANCH   1   9
ATOM      9  C   UNL     1       4.420  -2.997   2.884  1.00  0.00     0.000 C 
BRANCH   9  10
ATOM     10  C   UNL     1       4.014  -1.604   3.398  1.00  0.00     0.000 C 
BRANCH  10  11
ATOM     11  C   UNL     1       5.185  -0.835   4.028  1.00  0.00    -0.000 C 
BRANCH  11  12
ATOM     12  C   UNL     1       4.949  -0.610   5.529  1.00  0.00    -0.000 C 
BRANCH  12  13
ATOM     13  C   UNL     1       3.654   0.167   5.813  1.00  0.00    -0.003 C 
ATOM     14  C   UNL     1       3.691   0.907   7.149  1.00  0.00     0.004 C 
ENDBRANCH  12  13
ENDBRANCH  11  12
ENDBRANCH  10  11
ENDBRANCH   9  10
ENDBRANCH   1   9
TORSDOF 9
ENDMDL
MODEL 8
REMARK VINA RESULT:    -3.723      3.645      6.261
REMARK INTER + INTRA:          -6.833
REMARK INTER:                  -5.976
REMARK INTRA:                  -0.856
REMARK UNBOUND:                -1.151
REMARK SMILES CCCCCCCCCC=CC(=O)[O-]
REMARK SMILES IDX 7 1 8 2 9 3 10 4 11 5 12 6 13 7 14 8 6 9 5 10 4 11 3 12 2 13
REMARK SMILES IDX 1 14
REMARK H PARENT
REMARK Flexibility Score: inf
ROOT
ATOM      1  C   UNL     1       4.782  -4.081   3.933  1.00  0.00     0.000 C 
ENDROOT
BRANCH   1   2
ATOM      2  C   UNL     1       5.323  -2.997   2.983  1.00  0.00     0.004 C 
BRANCH   2   3
ATOM      3  C   UNL     1       4.466  -1.722   2.984  1.00  0.00     0.027 C 
BRANCH   3   4
ATOM      4  C   UNL     1       3.746  -1.555   4.291  1.00  0.00    -0.025 C 
ATOM      5  C   UNL     1       3.768  -0.396   4.959  1.00  0.00     0.020 C 
BRANCH   5   6
ATOM      6  C   UNL     1       3.082  -0.213   6.247  1.00  0.00     0.064 C 
ATOM      7  O   UNL     1       2.279  -1.079   6.685  1.00  0.00    -0.545 OA
ATOM      8  O   UNL     1       3.325   0.932   6.994  1.00  0.00    -0.545 OA
ENDBRANCH   5   6
ENDBRANCH   3   4
ENDBRANCH   2   3
ENDBRANCH   1   2
BRANCH   1   9
ATOM      9  C   UNL     1       4.025  -5.235   3.245  1.00  0.00     0.000 C 
BRANCH   9  10
ATOM     10  C   UNL     1       3.715  -5.016   1.754  1.00  0.00     0.000 C 
BRANCH  10  11
ATOM     11  C   UNL     1       4.129  -6.206   0.876  1.00  0.00    -0.000 C 
BRANCH  11  12
ATOM     12  C   UNL     1       5.650  -6.232   0.669  1.00  0.00    -0.000 C 
BRANCH  12  13
ATOM     13  C   UNL     1       6.293  -7.539   1.161  1.00  0.00    -0.003 C 
ATOM     14  C   UNL     1       6.971  -7.388   2.522  1.00  0.00     0.004 C 
ENDBRANCH  12  13
ENDBRANCH  11  12
ENDBRANCH  10  11
ENDBRANCH   9  10
ENDBRANCH   1   9
TORSDOF 9
ENDMDL
MODEL 9
REMARK VINA RESULT:    -3.671      1.289      2.675
REMARK INTER + INTRA:          -6.754
REMARK INTER:                  -5.326
REMARK INTRA:                  -1.428
REMARK UNBOUND:                -1.151
REMARK SMILES CCCCCCCCCC=CC(=O)[O-]
REMARK SMILES IDX 7 1 8 2 9 3 10 4 11 5 12 6 13 7 14 8 6 9 5 10 4 11 3 12 2 13
REMARK SMILES IDX 1 14
REMARK H PARENT
REMARK Flexibility Score: inf
ROOT
ATOM      1  C   UNL     1       6.083  -2.397   5.938  1.00  0.00     0.000 C 
ENDROOT
BRANCH   1   2
ATOM      2  C   UNL     1       6.433  -2.836   4.505  1.00  0.00     0.004 C 
BRANCH   2   3
ATOM      3  C   UNL     1       5.516  -2.204   3.447  1.00  0.00     0.027 C 
BRANCH   3   4
ATOM      4  C   UNL     1       4.444  -3.162   3.017  1.00  0.00    -0.025 C 
ATOM      5  C   UNL     1       4.726  -4.428   2.690  1.00  0.00     0.020 C 
BRANCH   5   6
ATOM      6  C   UNL     1       3.694  -5.381   2.252  1.00  0.00     0.064 C 
ATOM      7  O   UNL     1       3.080  -5.220   1.164  1.00  0.00    -0.545 OA
ATOM      8  O   UNL     1       3.392  -6.475   3.052  1.00  0.00    -0.545 OA
ENDBRANCH   5   6
ENDBRANCH   3   4
ENDBRANCH   2   3
ENDBRANCH   1   2
BRANCH   1   9
ATOM      9  C   UNL     1       5.468  -3.497   6.828  1.00  0.00     0.000 C 
BRANCH   9  10
ATOM     10  C   UNL     1       4.109  -3.143   7.457  1.00  0.00     0.000 C 
BRANCH  10  11
ATOM     11  C   UNL     1       2.964  -3.120   6.433  1.00  0.00    -0.000 C 
BRANCH  11  12
ATOM     12  C   UNL     1       2.242  -1.765   6.450  1.00  0.00    -0.000 C 
BRANCH  12  13
ATOM     13  C   UNL     1       2.684  -0.845   5.300  1.00  0.00    -0.003 C 
ATOM     14  C   UNL     1       3.538   0.328   5.778  1.00  0.00     0.004 C 
ENDBRANCH  12  13
ENDBRANCH  11  12
ENDBRANCH  10  11
ENDBRANCH   9  10
ENDBRANCH   1   9
TORSDOF 9
ENDMDL
