MODEL 1
REMARK VINA RESULT:    -2.621      0.000      0.000
REMARK INTER + INTRA:          -6.242
REMARK INTER:                  -5.073
REMARK INTRA:                  -1.169
REMARK UNBOUND:                -1.169
REMARK SMILES CCCCCCCCCCCCCCCCCC(=O)[O-]
REMARK SMILES IDX 10 1 11 2 12 3 13 4 14 5 15 6 16 7 17 8 18 9 19 10 20 11
REMARK SMILES IDX 9 12 8 13 7 14 6 15 5 16 4 17 3 18 2 19 1 20
REMARK H PARENT
REMARK Flexibility Score: inf
ROOT
ATOM      1  C   UNL     1     -20.672   2.039   7.318  1.00  0.00     0.000 C 
ENDROOT
BRANCH   1   2
ATOM      2  C   UNL     1     -21.354   2.528   8.605  1.00  0.00     0.000 C 
BRANCH   2   3
ATOM      3  C   UNL     1     -21.394   1.452   9.702  1.00  0.00     0.000 C 
BRANCH   3   4
ATOM      4  C   UNL     1     -21.179   2.076  11.089  1.00  0.00     0.000 C 
BRANCH   4   5
ATOM      5  C   UNL     1     -21.669   1.173  12.236  1.00  0.00     0.000 C 
BRANCH   5   6
ATOM      6  C   UNL     1     -21.044   1.473  13.611  1.00  0.00     0.000 C 
BRANCH   6   7
ATOM      7  C   UNL     1     -20.504   0.217  14.311  1.00  0.00     0.006 C 
BRANCH   7   8
ATOM      8  C   UNL     1     -21.533  -0.917  14.274  1.00  0.00     0.053 C 
BRANCH   8   9
ATOM      9  C   UNL     1     -21.049  -2.037  13.409  1.00  0.00     0.041 C 
ATOM     10  O   UNL     1     -20.261  -1.806  12.454  1.00  0.00    -0.550 OA
ATOM     11  O   UNL     1     -21.429  -3.344  13.687  1.00  0.00    -0.550 OA
ENDBRANCH   8   9
ENDBRANCH   7   8
ENDBRANCH   6   7
ENDBRANCH   5   6
ENDBRANCH   4   5
ENDBRANCH   3   4
ENDBRANCH   2   3
ENDBRANCH   1   2
BRANCH   1  12
ATOM     12  C   UNL     1     -19.809   0.785   7.544  1.00  0.00     0.000 C 
BRANCH  12  13
ATOM     13  C   UNL     1     -20.221  -0.385   6.624  1.00  0.00    -0.000 C 
BRANCH  13  14
ATOM     14  C   UNL     1     -20.363  -1.731   7.360  1.00  0.00    -0.000 C 
BRANCH  14  15
ATOM     15  C   UNL     1     -20.109  -1.672   8.879  1.00  0.00    -0.000 C 
BRANCH  15  16
ATOM     16  C   UNL     1     -19.508  -2.954   9.487  1.00  0.00    -0.000 C 
BRANCH  16  17
ATOM     17  C   UNL     1     -18.949  -3.914   8.426  1.00  0.00    -0.000 C 
BRANCH  17  18
ATOM     18  C   UNL     1     -19.244  -5.373   8.796  1.00  0.00    -0.000 C 
BRANCH  18  19
ATOM     19  C   UNL     1     -20.629  -5.798   8.295  1.00  0.00    -0.003 C 
ATOM     20  C   UNL     1     -21.509  -6.275   9.446  1.00  0.00     0.004 C 
ENDBRANCH  18  19
ENDBRANCH  17  18
ENDBRANCH  16  17
ENDBRANCH  15  16
ENDBRANCH  14  15
ENDBRANCH  13  14
ENDBRANCH  12  13
ENDBRANCH   1  12
TORSDOF 16
ENDMDL
MODEL 2
REMARK VINA RESULT:    -2.506      1.731      5.616
REMARK INTER + INTRA:          -6.018
REMARK INTER:                  -4.363
REMARK INTRA:                  -1.656
REMARK UNBOUND:                -1.169
REMARK SMILES CCCCCCCCCCCCCCCCCC(=O)[O-]
REMARK SMILES IDX 10 1 11 2 12 3 13 4 14 5 15 6 16 7 17 8 18 9 19 10 20 11
REMARK SMILES IDX 9 12 8 13 7 14 6 15 5 16 4 17 3 18 2 19 1 20
REMARK H PARENT
REMARK Flexibility Score: inf
ROOT
ATOM      1  C   UNL     1     -20.008   0.833   7.725  1.00  0.00     0.000 C 
ENDROOT
BRANCH   1   2
ATOM      2  C   UNL     1     -20.479  -0.288   6.786  1.00  0.00     0.000 C 
BRANCH   2   3
ATOM      3  C   UNL     1     -20.277  -1.689   7.386  1.00  0.00     0.000 C 
BRANCH   3   4
ATOM      4  C   UNL     1     -19.972  -1.603   8.889  1.00  0.00     0.000 C 
BRANCH   4   5
ATOM      5  C   UNL     1     -19.474  -2.936   9.477  1.00  0.00     0.000 C 
BRANCH   5   6
ATOM      6  C   UNL     1     -19.018  -3.976   8.438  1.00  0.00     0.000 C 
BRANCH   6   7
ATOM      7  C   UNL     1     -19.260  -5.423   8.892  1.00  0.00     0.006 C 
BRANCH   7   8
ATOM      8  C   UNL     1     -20.485  -6.020   8.193  1.00  0.00     0.053 C 
BRANCH   8   9
ATOM      9  C   UNL     1     -21.579  -6.277   9.180  1.00  0.00     0.041 C 
ATOM     10  O   UNL     1     -21.558  -5.720  10.309  1.00  0.00    -0.550 OA
ATOM     11  O   UNL     1     -22.649  -7.094   8.835  1.00  0.00    -0.550 OA
ENDBRANCH   8   9
ENDBRANCH   7   8
ENDBRANCH   6   7
ENDBRANCH   5   6
ENDBRANCH   4   5
ENDBRANCH   3   4
ENDBRANCH   2   3
ENDBRANCH   1   2
BRANCH   1  12
ATOM     12  C   UNL     1     -20.829   2.125   7.565  1.00  0.00     0.000 C 
BRANCH  12  13
ATOM     13  C   UNL     1     -21.391   2.635   8.909  1.00  0.00    -0.000 C 
BRANCH  13  14
ATOM     14  C   UNL     1     -21.528   1.536   9.980  1.00  0.00    -0.000 C 
BRANCH  14  15
ATOM     15  C   UNL     1     -21.175   1.977  11.414  1.00  0.00    -0.000 C 
BRANCH  15  16
ATOM     16  C   UNL     1     -21.891   1.192  12.529  1.00  0.00    -0.000 C 
BRANCH  16  17
ATOM     17  C   UNL     1     -21.000   0.948  13.756  1.00  0.00    -0.000 C 
BRANCH  17  18
ATOM     18  C   UNL     1     -20.947  -0.544  14.108  1.00  0.00    -0.000 C 
BRANCH  18  19
ATOM     19  C   UNL     1     -20.325  -1.356  12.967  1.00  0.00    -0.003 C 
ATOM     20  C   UNL     1     -21.109  -2.641  12.713  1.00  0.00     0.004 C 
ENDBRANCH  18  19
ENDBRANCH  17  18
ENDBRANCH  16  17
ENDBRANCH  15  16
ENDBRANCH  14  15
ENDBRANCH  13  14
ENDBRANCH  12  13
ENDBRANCH   1  12
TORSDOF 16
ENDMDL
MODEL 3
REMARK VINA RESULT:    -2.493      1.808      5.541
REMARK INTER + INTRA:          -5.993
REMARK INTER:                  -4.684
REMARK INTRA:                  -1.310
REMARK UNBOUND:                -1.169
REMARK SMILES CCCCCCCCCCCCCCCCCC(=O)[O-]
REMARK SMILES IDX 10 1 11 2 12 3 13 4 14 5 15 6 16 7 17 8 18 9 19 10 20 11
REMARK SMILES IDX 9 12 8 13 7 14 6 15 5 16 4 17 3 18 2 19 1 20
REMARK H PARENT
REMARK Flexibility Score: inf
ROOT
ATOM      1  C   UNL     1     -20.835   2.228   7.610  1.00  0.00     0.000 C 
ENDROOT
BRANCH   1   2
ATOM      2  C   UNL     1     -20.049   0.937   7.883  1.00  0.00     0.000 C 
BRANCH   2   3
ATOM      3  C   UNL     1     -20.251  -0.124   6.789  1.00  0.00     0.000 C 
BRANCH   3   4
ATOM      4  C   UNL     1     -20.401  -1.523   7.404  1.00  0.00     0.000 C 
BRANCH   4   5
ATOM      5  C   UNL     1     -20.075  -1.556   8.909  1.00  0.00     0.000 C 
BRANCH   5   6
ATOM      6  C   UNL     1     -19.340  -2.822   9.387  1.00  0.00     0.000 C 
BRANCH   6   7
ATOM      7  C   UNL     1     -19.221  -3.895   8.294  1.00  0.00     0.006 C 
BRANCH   7   8
ATOM      8  C   UNL     1     -19.272  -5.301   8.898  1.00  0.00     0.053 C 
BRANCH   8   9
ATOM      9  C   UNL     1     -20.670  -5.833   8.870  1.00  0.00     0.041 C 
ATOM     10  O   UNL     1     -21.164  -6.263   7.795  1.00  0.00    -0.550 OA
ATOM     11  O   UNL     1     -21.412  -5.899  10.043  1.00  0.00    -0.550 OA
ENDBRANCH   8   9
ENDBRANCH   7   8
ENDBRANCH   6   7
ENDBRANCH   5   6
ENDBRANCH   4   5
ENDBRANCH   3   4
ENDBRANCH   2   3
ENDBRANCH   1   2
BRANCH   1  12
ATOM     12  C   UNL     1     -21.570   2.749   8.857  1.00  0.00     0.000 C 
BRANCH  12  13
ATOM     13  C   UNL     1     -21.737   1.661   9.939  1.00  0.00    -0.000 C 
BRANCH  13  14
ATOM     14  C   UNL     1     -21.139   2.048  11.305  1.00  0.00    -0.000 C 
BRANCH  14  15
ATOM     15  C   UNL     1     -21.603   1.177  12.488  1.00  0.00    -0.000 C 
BRANCH  15  16
ATOM     16  C   UNL     1     -20.794   1.361  13.787  1.00  0.00    -0.000 C 
BRANCH  16  17
ATOM     17  C   UNL     1     -20.631   0.057  14.581  1.00  0.00    -0.000 C 
BRANCH  17  18
ATOM     18  C   UNL     1     -21.803  -0.897  14.314  1.00  0.00    -0.000 C 
BRANCH  18  19
ATOM     19  C   UNL     1     -21.307  -2.231  13.743  1.00  0.00    -0.003 C 
ATOM     20  C   UNL     1     -20.404  -2.011  12.533  1.00  0.00     0.004 C 
ENDBRANCH  18  19
ENDBRANCH  17  18
ENDBRANCH  16  17
ENDBRANCH  15  16
ENDBRANCH  14  15
ENDBRANCH  13  14
ENDBRANCH  12  13
ENDBRANCH   1  12
TORSDOF 16
ENDMDL
MODEL 4
REMARK VINA RESULT:    -2.435      2.175      5.072
REMARK INTER + INTRA:          -5.882
REMARK INTER:                  -4.299
REMARK INTRA:                  -1.583
REMARK UNBOUND:                -1.169
REMARK SMILES CCCCCCCCCCCCCCCCCC(=O)[O-]
REMARK SMILES IDX 10 1 11 2 12 3 13 4 14 5 15 6 16 7 17 8 18 9 19 10 20 11
REMARK SMILES IDX 9 12 8 13 7 14 6 15 5 16 4 17 3 18 2 19 1 20
REMARK H PARENT
REMARK Flexibility Score: inf
ROOT
ATOM      1  C   UNL     1     -20.699   0.022  14.545  1.00  0.00     0.000 C 
ENDROOT
BRANCH   1   2
ATOM      2  C   UNL     1     -20.809   1.347  13.777  1.00  0.00     0.000 C 
BRANCH   2   3
ATOM      3  C   UNL     1     -21.683   1.234  12.518  1.00  0.00     0.000 C 
BRANCH   3   4
ATOM      4  C   UNL     1     -21.140   2.125  11.391  1.00  0.00     0.000 C 
BRANCH   4   5
ATOM      5  C   UNL     1     -21.522   1.619   9.988  1.00  0.00     0.000 C 
BRANCH   5   6
ATOM      6  C   UNL     1     -21.584   2.706   8.899  1.00  0.00     0.000 C 
BRANCH   6   7
ATOM      7  C   UNL     1     -20.767   2.349   7.649  1.00  0.00     0.006 C 
BRANCH   7   8
ATOM      8  C   UNL     1     -20.032   1.019   7.835  1.00  0.00     0.053 C 
BRANCH   8   9
ATOM      9  C   UNL     1     -20.448   0.039   6.784  1.00  0.00     0.041 C 
ATOM     10  O   UNL     1     -20.068  -1.160   6.849  1.00  0.00    -0.550 OA
ATOM     11  O   UNL     1     -21.295   0.438   5.757  1.00  0.00    -0.550 OA
ENDBRANCH   8   9
ENDBRANCH   7   8
ENDBRANCH   6   7
ENDBRANCH   5   6
ENDBRANCH   4   5
ENDBRANCH   3   4
ENDBRANCH   2   3
ENDBRANCH   1   2
BRANCH   1  12
ATOM     12  C   UNL     1     -21.624  -1.070  13.980  1.00  0.00     0.000 C 
BRANCH  12  13
ATOM     13  C   UNL     1     -20.856  -2.358  13.613  1.00  0.00    -0.000 C 
BRANCH  13  14
ATOM     14  C   UNL     1     -20.783  -2.624  12.097  1.00  0.00    -0.000 C 
BRANCH  14  15
ATOM     15  C   UNL     1     -20.010  -1.565  11.287  1.00  0.00    -0.000 C 
BRANCH  15  16
ATOM     16  C   UNL     1     -19.588  -2.010   9.873  1.00  0.00    -0.000 C 
BRANCH  16  17
ATOM     17  C   UNL     1     -20.054  -3.432   9.530  1.00  0.00    -0.000 C 
BRANCH  17  18
ATOM     18  C   UNL     1     -18.985  -4.180   8.722  1.00  0.00    -0.000 C 
BRANCH  18  19
ATOM     19  C   UNL     1     -19.366  -5.654   8.538  1.00  0.00    -0.003 C 
ATOM     20  C   UNL     1     -20.766  -5.933   9.076  1.00  0.00     0.004 C 
ENDBRANCH  18  19
ENDBRANCH  17  18
ENDBRANCH  16  17
ENDBRANCH  15  16
ENDBRANCH  14  15
ENDBRANCH  13  14
ENDBRANCH  12  13
ENDBRANCH   1  12
TORSDOF 16
ENDMDL
MODEL 5
REMARK VINA RESULT:    -2.422      2.039      5.998
REMARK INTER + INTRA:          -5.856
REMARK INTER:                  -4.507
REMARK INTRA:                  -1.349
REMARK UNBOUND:                -1.169
REMARK SMILES CCCCCCCCCCCCCCCCCC(=O)[O-]
REMARK SMILES IDX 10 1 11 2 12 3 13 4 14 5 15 6 16 7 17 8 18 9 19 10 20 11
REMARK SMILES IDX 9 12 8 13 7 14 6 15 5 16 4 17 3 18 2 19 1 20
REMARK H PARENT
REMARK Flexibility Score: inf
ROOT
ATOM      1  C   UNL     1     -19.991  -2.125   7.451  1.00  0.00     0.000 C 
ENDROOT
BRANCH   1   2
ATOM      2  C   UNL     1     -19.537  -2.752   8.778  1.00  0.00     0.000 C 
BRANCH   2   3
ATOM      3  C   UNL     1     -19.631  -1.775   9.960  1.00  0.00     0.000 C 
BRANCH   3   4
ATOM      4  C   UNL     1     -20.592  -2.305  11.034  1.00  0.00     0.000 C 
BRANCH   4   5
ATOM      5  C   UNL     1     -20.089  -2.052  12.468  1.00  0.00     0.000 C 
BRANCH   5   6
ATOM      6  C   UNL     1     -21.118  -2.338  13.577  1.00  0.00     0.000 C 
BRANCH   6   7
ATOM      7  C   UNL     1     -21.733  -1.060  14.167  1.00  0.00     0.006 C 
BRANCH   7   8
ATOM      8  C   UNL     1     -20.677   0.037  14.322  1.00  0.00     0.053 C 
BRANCH   8   9
ATOM      9  C   UNL     1     -21.016   1.216  13.467  1.00  0.00     0.041 C 
ATOM     10  O   UNL     1     -21.598   1.053  12.363  1.00  0.00    -0.550 OA
ATOM     11  O   UNL     1     -20.733   2.502  13.912  1.00  0.00    -0.550 OA
ENDBRANCH   8   9
ENDBRANCH   7   8
ENDBRANCH   6   7
ENDBRANCH   5   6
ENDBRANCH   4   5
ENDBRANCH   3   4
ENDBRANCH   2   3
ENDBRANCH   1   2
BRANCH   1  12
ATOM     12  C   UNL     1     -20.832  -0.853   7.653  1.00  0.00     0.000 C 
BRANCH  12  13
ATOM     13  C   UNL     1     -20.257   0.359   6.889  1.00  0.00    -0.000 C 
BRANCH  13  14
ATOM     14  C   UNL     1     -20.469   1.704   7.611  1.00  0.00    -0.000 C 
BRANCH  14  15
ATOM     15  C   UNL     1     -21.050   1.594   9.034  1.00  0.00    -0.000 C 
BRANCH  15  16
ATOM     16  C   UNL     1     -21.738   2.871   9.554  1.00  0.00    -0.000 C 
BRANCH  16  17
ATOM     17  C   UNL     1     -21.952   3.924   8.458  1.00  0.00    -0.000 C 
BRANCH  17  18
ATOM     18  C   UNL     1     -21.919   5.341   9.045  1.00  0.00    -0.000 C 
BRANCH  18  19
ATOM     19  C   UNL     1     -20.495   5.909   9.031  1.00  0.00    -0.003 C 
ATOM     20  C   UNL     1     -19.906   5.953  10.438  1.00  0.00     0.004 C 
ENDBRANCH  18  19
ENDBRANCH  17  18
ENDBRANCH  16  17
ENDBRANCH  15  16
ENDBRANCH  14  15
ENDBRANCH  13  14
ENDBRANCH  12  13
ENDBRANCH   1  12
TORSDOF 16
ENDMDL
MODEL 6
REMARK VINA RESULT:    -2.216      1.533      3.229
REMARK INTER + INTRA:          -5.458
REMARK INTER:                  -4.214
REMARK INTRA:                  -1.244
REMARK UNBOUND:                -1.169
REMARK SMILES CCCCCCCCCCCCCCCCCC(=O)[O-]
REMARK SMILES IDX 10 1 11 2 12 3 13 4 14 5 15 6 16 7 17 8 18 9 19 10 20 11
REMARK SMILES IDX 9 12 8 13 7 14 6 15 5 16 4 17 3 18 2 19 1 20
REMARK H PARENT
REMARK Flexibility Score: inf
ROOT
ATOM      1  C   UNL     1     -20.205  -1.578   7.671  1.00  0.00     0.000 C 
ENDROOT
BRANCH   1   2
ATOM      2  C   UNL     1     -20.480  -0.163   7.141  1.00  0.00     0.000 C 
BRANCH   2   3
ATOM      3  C   UNL     1     -20.107   0.933   8.152  1.00  0.00     0.000 C 
BRANCH   3   4
ATOM      4  C   UNL     1     -21.107   2.097   8.090  1.00  0.00     0.000 C 
BRANCH   4   5
ATOM      5  C   UNL     1     -21.615   2.527   9.479  1.00  0.00     0.000 C 
BRANCH   5   6
ATOM      6  C   UNL     1     -21.827   1.375  10.479  1.00  0.00     0.000 C 
BRANCH   6   7
ATOM      7  C   UNL     1     -21.033   1.557  11.780  1.00  0.00     0.006 C 
BRANCH   7   8
ATOM      8  C   UNL     1     -21.732   0.860  12.951  1.00  0.00     0.053 C 
BRANCH   8   9
ATOM      9  C   UNL     1     -20.866  -0.224  13.509  1.00  0.00     0.041 C 
ATOM     10  O   UNL     1     -20.621  -1.254  12.828  1.00  0.00    -0.550 OA
ATOM     11  O   UNL     1     -20.288  -0.076  14.764  1.00  0.00    -0.550 OA
ENDBRANCH   8   9
ENDBRANCH   7   8
ENDBRANCH   6   7
ENDBRANCH   5   6
ENDBRANCH   4   5
ENDBRANCH   3   4
ENDBRANCH   2   3
ENDBRANCH   1   2
BRANCH   1  12
ATOM     12  C   UNL     1     -20.042  -1.618   9.201  1.00  0.00     0.000 C 
BRANCH  12  13
ATOM     13  C   UNL     1     -19.658  -3.021   9.715  1.00  0.00    -0.000 C 
BRANCH  13  14
ATOM     14  C   UNL     1     -19.015  -3.920   8.642  1.00  0.00    -0.000 C 
BRANCH  14  15
ATOM     15  C   UNL     1     -19.368  -5.416   8.749  1.00  0.00    -0.000 C 
BRANCH  15  16
ATOM     16  C   UNL     1     -20.802  -5.713   9.229  1.00  0.00    -0.000 C 
BRANCH  16  17
ATOM     17  C   UNL     1     -21.504  -6.789   8.387  1.00  0.00    -0.000 C 
BRANCH  17  18
ATOM     18  C   UNL     1     -22.907  -7.083   8.933  1.00  0.00    -0.000 C 
BRANCH  18  19
ATOM     19  C   UNL     1     -23.454  -8.397   8.362  1.00  0.00    -0.003 C 
ATOM     20  C   UNL     1     -24.929  -8.266   7.992  1.00  0.00     0.004 C 
ENDBRANCH  18  19
ENDBRANCH  17  18
ENDBRANCH  16  17
ENDBRANCH  15  16
ENDBRANCH  14  15
ENDBRANCH  13  14
ENDBRANCH  12  13
ENDBRANCH   1  12
TORSDOF 16
ENDMDL
MODEL 7
REMARK VINA RESULT:    -2.196      2.827      7.467
REMARK INTER + INTRA:          -5.420
REMARK INTER:                  -4.111
REMARK INTRA:                  -1.309
REMARK UNBOUND:                -1.169
REMARK SMILES CCCCCCCCCCCCCCCCCC(=O)[O-]
REMARK SMILES IDX 10 1 11 2 12 3 13 4 14 5 15 6 16 7 17 8 18 9 19 10 20 11
REMARK SMILES IDX 9 12 8 13 7 14 6 15 5 16 4 17 3 18 2 19 1 20
REMARK H PARENT
REMARK Flexibility Score: inf
ROOT
ATOM      1  C   UNL     1     -21.348  -0.490  14.349  1.00  0.00     0.000 C 
ENDROOT
BRANCH   1   2
ATOM      2  C   UNL     1     -21.401  -1.769  13.499  1.00  0.00     0.000 C 
BRANCH   2   3
ATOM      3  C   UNL     1     -20.147  -1.957  12.631  1.00  0.00     0.000 C 
BRANCH   3   4
ATOM      4  C   UNL     1     -20.520  -2.487  11.238  1.00  0.00     0.000 C 
BRANCH   4   5
ATOM      5  C   UNL     1     -19.611  -1.937  10.123  1.00  0.00     0.000 C 
BRANCH   5   6
ATOM      6  C   UNL     1     -19.473  -2.847   8.888  1.00  0.00     0.000 C 
BRANCH   6   7
ATOM      7  C   UNL     1     -20.070  -2.226   7.617  1.00  0.00     0.006 C 
BRANCH   7   8
ATOM      8  C   UNL     1     -20.668  -0.847   7.908  1.00  0.00     0.053 C 
BRANCH   8   9
ATOM      9  C   UNL     1     -20.186   0.156   6.908  1.00  0.00     0.041 C 
ATOM     10  O   UNL     1     -19.307  -0.162   6.064  1.00  0.00    -0.550 OA
ATOM     11  O   UNL     1     -20.743   1.429   6.876  1.00  0.00    -0.550 OA
ENDBRANCH   8   9
ENDBRANCH   7   8
ENDBRANCH   6   7
ENDBRANCH   5   6
ENDBRANCH   4   5
ENDBRANCH   3   4
ENDBRANCH   2   3
ENDBRANCH   1   2
BRANCH   1  12
ATOM     12  C   UNL     1     -20.675   0.682  13.614  1.00  0.00     0.000 C 
BRANCH  12  13
ATOM     13  C   UNL     1     -21.627   1.374  12.615  1.00  0.00    -0.000 C 
BRANCH  13  14
ATOM     14  C   UNL     1     -21.402   0.951  11.151  1.00  0.00    -0.000 C 
BRANCH  14  15
ATOM     15  C   UNL     1     -22.079   1.854  10.101  1.00  0.00    -0.000 C 
BRANCH  15  16
ATOM     16  C   UNL     1     -21.294   3.131   9.741  1.00  0.00    -0.000 C 
BRANCH  16  17
ATOM     17  C   UNL     1     -22.060   4.052   8.780  1.00  0.00    -0.000 C 
BRANCH  17  18
ATOM     18  C   UNL     1     -21.854   5.525   9.152  1.00  0.00    -0.000 C 
BRANCH  18  19
ATOM     19  C   UNL     1     -20.387   5.936   8.979  1.00  0.00    -0.003 C 
ATOM     20  C   UNL     1     -19.741   6.255  10.324  1.00  0.00     0.004 C 
ENDBRANCH  18  19
ENDBRANCH  17  18
ENDBRANCH  16  17
ENDBRANCH  15  16
ENDBRANCH  14  15
ENDBRANCH  13  14
ENDBRANCH  12  13
ENDBRANCH   1  12
TORSDOF 16
ENDMDL
MODEL 8
REMARK VINA RESULT:    -2.138      1.885      6.253
REMARK INTER + INTRA:          -5.306
REMARK INTER:                  -3.974
REMARK INTRA:                  -1.332
REMARK UNBOUND:                -1.169
REMARK SMILES CCCCCCCCCCCCCCCCCC(=O)[O-]
REMARK SMILES IDX 10 1 11 2 12 3 13 4 14 5 15 6 16 7 17 8 18 9 19 10 20 11
REMARK SMILES IDX 9 12 8 13 7 14 6 15 5 16 4 17 3 18 2 19 1 20
REMARK H PARENT
REMARK Flexibility Score: inf
ROOT
ATOM      1  C   UNL     1     -20.716  -1.267  13.736  1.00  0.00     0.000 C 
ENDROOT
BRANCH   1   2
ATOM      2  C   UNL     1     -20.703  -2.170  12.493  1.00  0.00     0.000 C 
BRANCH   2   3
ATOM      3  C   UNL     1     -20.048  -1.497  11.277  1.00  0.00     0.000 C 
BRANCH   3   4
ATOM      4  C   UNL     1     -20.212  -2.362  10.018  1.00  0.00     0.000 C 
BRANCH   4   5
ATOM      5  C   UNL     1     -18.930  -3.126   9.642  1.00  0.00     0.000 C 
BRANCH   5   6
ATOM      6  C   UNL     1     -19.059  -4.050   8.417  1.00  0.00     0.000 C 
BRANCH   6   7
ATOM      7  C   UNL     1     -19.218  -5.530   8.797  1.00  0.00     0.006 C 
BRANCH   7   8
ATOM      8  C   UNL     1     -20.474  -6.128   8.157  1.00  0.00     0.053 C 
BRANCH   8   9
ATOM      9  C   UNL     1     -21.551  -6.304   9.180  1.00  0.00     0.041 C 
ATOM     10  O   UNL     1     -21.454  -5.749  10.306  1.00  0.00    -0.550 OA
ATOM     11  O   UNL     1     -22.688  -7.043   8.873  1.00  0.00    -0.550 OA
ENDBRANCH   8   9
ENDBRANCH   7   8
ENDBRANCH   6   7
ENDBRANCH   5   6
ENDBRANCH   4   5
ENDBRANCH   3   4
ENDBRANCH   2   3
ENDBRANCH   1   2
BRANCH   1  12
ATOM     12  C   UNL     1     -21.633  -0.042  13.570  1.00  0.00     0.000 C 
BRANCH  12  13
ATOM     13  C   UNL     1     -20.838   1.278  13.471  1.00  0.00    -0.000 C 
BRANCH  13  14
ATOM     14  C   UNL     1     -21.239   2.153  12.268  1.00  0.00    -0.000 C 
BRANCH  14  15
ATOM     15  C   UNL     1     -21.274   1.420  10.913  1.00  0.00    -0.000 C 
BRANCH  15  16
ATOM     16  C   UNL     1     -21.966   2.193   9.774  1.00  0.00    -0.000 C 
BRANCH  16  17
ATOM     17  C   UNL     1     -21.138   2.222   8.481  1.00  0.00    -0.000 C 
BRANCH  17  18
ATOM     18  C   UNL     1     -20.339   0.924   8.312  1.00  0.00    -0.000 C 
BRANCH  18  19
ATOM     19  C   UNL     1     -20.458   0.387   6.881  1.00  0.00    -0.003 C 
ATOM     20  C   UNL     1     -20.400  -1.137   6.857  1.00  0.00     0.004 C 
ENDBRANCH  18  19
ENDBRANCH  17  18
ENDBRANCH  16  17
ENDBRANCH  15  16
ENDBRANCH  14  15
ENDBRANCH  13  14
ENDBRANCH  12  13
ENDBRANCH   1  12
TORSDOF 16
ENDMDL
MODEL 9
REMARK VINA RESULT:    -2.112      3.180      6.405
REMARK INTER + INTRA:          -5.256
REMARK INTER:                  -3.776
REMARK INTRA:                  -1.480
REMARK UNBOUND:                -1.169
REMARK SMILES CCCCCCCCCCCCCCCCCC(=O)[O-]
REMARK SMILES IDX 10 1 11 2 12 3 13 4 14 5 15 6 16 7 17 8 18 9 19 10 20 11
REMARK SMILES IDX 9 12 8 13 7 14 6 15 5 16 4 17 3 18 2 19 1 20
REMARK H PARENT
REMARK Flexibility Score: inf
ROOT
ATOM      1  C   UNL     1     -19.720  -2.803   7.847  1.00  0.00     0.000 C 
ENDROOT
BRANCH   1   2
ATOM      2  C   UNL     1     -20.635  -1.641   7.432  1.00  0.00     0.000 C 
BRANCH   2   3
ATOM      3  C   UNL     1     -19.868  -0.496   6.752  1.00  0.00     0.000 C 
BRANCH   3   4
ATOM      4  C   UNL     1     -20.744   0.762   6.644  1.00  0.00     0.000 C 
BRANCH   4   5
ATOM      5  C   UNL     1     -20.389   1.833   7.692  1.00  0.00     0.000 C 
BRANCH   5   6
ATOM      6  C   UNL     1     -21.131   1.699   9.035  1.00  0.00     0.000 C 
BRANCH   6   7
ATOM      7  C   UNL     1     -21.960   2.943   9.388  1.00  0.00     0.006 C 
BRANCH   7   8
ATOM      8  C   UNL     1     -21.645   4.100   8.436  1.00  0.00     0.053 C 
BRANCH   8   9
ATOM      9  C   UNL     1     -21.507   5.381   9.195  1.00  0.00     0.041 C 
ATOM     10  O   UNL     1     -22.434   6.233   9.175  1.00  0.00    -0.550 OA
ATOM     11  O   UNL     1     -20.374   5.614   9.965  1.00  0.00    -0.550 OA
ENDBRANCH   8   9
ENDBRANCH   7   8
ENDBRANCH   6   7
ENDBRANCH   5   6
ENDBRANCH   4   5
ENDBRANCH   3   4
ENDBRANCH   2   3
ENDBRANCH   1   2
BRANCH   1  12
ATOM     12  C   UNL     1     -19.233  -2.685   9.301  1.00  0.00     0.000 C 
BRANCH  12  13
ATOM     13  C   UNL     1     -20.037  -1.642  10.107  1.00  0.00    -0.000 C 
BRANCH  13  14
ATOM     14  C   UNL     1     -19.847  -1.757  11.631  1.00  0.00    -0.000 C 
BRANCH  14  15
ATOM     15  C   UNL     1     -21.035  -2.379  12.390  1.00  0.00    -0.000 C 
BRANCH  15  16
ATOM     16  C   UNL     1     -21.028  -2.145  13.913  1.00  0.00    -0.000 C 
BRANCH  16  17
ATOM     17  C   UNL     1     -21.660  -0.804  14.315  1.00  0.00    -0.000 C 
BRANCH  17  18
ATOM     18  C   UNL     1     -20.581   0.253  14.583  1.00  0.00    -0.000 C 
BRANCH  18  19
ATOM     19  C   UNL     1     -20.912   1.570  13.872  1.00  0.00    -0.003 C 
ATOM     20  C   UNL     1     -21.497   1.317  12.486  1.00  0.00     0.004 C 
ENDBRANCH  18  19
ENDBRANCH  17  18
ENDBRANCH  16  17
ENDBRANCH  15  16
ENDBRANCH  14  15
ENDBRANCH  13  14
ENDBRANCH  12  13
ENDBRANCH   1  12
TORSDOF 16
ENDMDL
