MODEL 1
REMARK VINA RESULT:    -1.931      0.000      0.000
REMARK INTER + INTRA:          -3.703
REMARK INTER:                  -3.398
REMARK INTRA:                  -0.305
REMARK UNBOUND:                -0.305
REMARK SMILES CCCCCCCCCCCCCCC(=O)[O-]
REMARK SMILES IDX 9 1 10 2 11 3 12 4 13 5 14 6 15 7 16 8 17 9 8 10 7 11 6 12
REMARK SMILES IDX 5 13 4 14 3 15 2 16 1 17
REMARK H PARENT
REMARK Flexibility Score: inf
ROOT
ATOM      1  C   UNL     1      23.402  34.896  18.632  1.00  0.00     0.000 C 
ENDROOT
BRANCH   1   2
ATOM      2  C   UNL     1      23.297  35.236  20.128  1.00  0.00     0.000 C 
BRANCH   2   3
ATOM      3  C   UNL     1      23.253  36.752  20.387  1.00  0.00     0.000 C 
BRANCH   3   4
ATOM      4  C   UNL     1      22.119  37.155  21.342  1.00  0.00     0.000 C 
BRANCH   4   5
ATOM      5  C   UNL     1      22.380  38.497  22.043  1.00  0.00     0.006 C 
BRANCH   5   6
ATOM      6  C   UNL     1      22.383  38.328  23.566  1.00  0.00     0.053 C 
BRANCH   6   7
ATOM      7  C   UNL     1      23.593  38.972  24.164  1.00  0.00     0.041 C 
ATOM      8  O   UNL     1      24.048  38.564  25.265  1.00  0.00    -0.550 OA
ATOM      9  O   UNL     1      24.190  40.054  23.530  1.00  0.00    -0.550 OA
ENDBRANCH   6   7
ENDBRANCH   5   6
ENDBRANCH   4   5
ENDBRANCH   3   4
ENDBRANCH   2   3
ENDBRANCH   1   2
BRANCH   1  10
ATOM     10  C   UNL     1      24.760  35.296  18.030  1.00  0.00     0.000 C 
BRANCH  10  11
ATOM     11  C   UNL     1      24.926  36.819  17.901  1.00  0.00    -0.000 C 
BRANCH  11  12
ATOM     12  C   UNL     1      26.398  37.258  17.875  1.00  0.00    -0.000 C 
BRANCH  12  13
ATOM     13  C   UNL     1      27.333  36.045  17.986  1.00  0.00    -0.000 C 
BRANCH  13  14
ATOM     14  C   UNL     1      28.817  36.441  18.047  1.00  0.00    -0.000 C 
BRANCH  14  15
ATOM     15  C   UNL     1      29.116  37.446  19.173  1.00  0.00    -0.000 C 
BRANCH  15  16
ATOM     16  C   UNL     1      30.270  36.989  20.080  1.00  0.00    -0.003 C 
ATOM     17  C   UNL     1      30.272  35.478  20.321  1.00  0.00     0.004 C 
ENDBRANCH  15  16
ENDBRANCH  14  15
ENDBRANCH  13  14
ENDBRANCH  12  13
ENDBRANCH  11  12
ENDBRANCH  10  11
ENDBRANCH   1  10
TORSDOF 13
ENDMDL
MODEL 2
REMARK VINA RESULT:    -1.448      1.303      1.841
REMARK INTER + INTRA:          -2.854
REMARK INTER:                  -2.404
REMARK INTRA:                  -0.450
REMARK UNBOUND:                -0.305
REMARK SMILES CCCCCCCCCCCCCCC(=O)[O-]
REMARK SMILES IDX 9 1 10 2 11 3 12 4 13 5 14 6 15 7 16 8 17 9 8 10 7 11 6 12
REMARK SMILES IDX 5 13 4 14 3 15 2 16 1 17
REMARK H PARENT
REMARK Flexibility Score: inf
ROOT
ATOM      1  C   UNL     1      23.734  36.681  19.695  1.00  0.00     0.000 C 
ENDROOT
BRANCH   1   2
ATOM      2  C   UNL     1      22.756  36.792  20.877  1.00  0.00     0.000 C 
BRANCH   2   3
ATOM      3  C   UNL     1      22.518  38.249  21.311  1.00  0.00     0.000 C 
BRANCH   3   4
ATOM      4  C   UNL     1      22.566  38.425  22.837  1.00  0.00     0.000 C 
BRANCH   4   5
ATOM      5  C   UNL     1      23.812  39.192  23.307  1.00  0.00     0.006 C 
BRANCH   5   6
ATOM      6  C   UNL     1      23.875  39.248  24.837  1.00  0.00     0.053 C 
BRANCH   6   7
ATOM      7  C   UNL     1      23.340  37.984  25.431  1.00  0.00     0.041 C 
ATOM      8  O   UNL     1      22.240  37.989  26.044  1.00  0.00    -0.550 OA
ATOM      9  O   UNL     1      24.078  36.809  25.350  1.00  0.00    -0.550 OA
ENDBRANCH   6   7
ENDBRANCH   5   6
ENDBRANCH   4   5
ENDBRANCH   3   4
ENDBRANCH   2   3
ENDBRANCH   1   2
BRANCH   1  10
ATOM     10  C   UNL     1      23.820  35.251  19.132  1.00  0.00     0.000 C 
BRANCH  10  11
ATOM     11  C   UNL     1      25.113  35.005  18.338  1.00  0.00    -0.000 C 
BRANCH  11  12
ATOM     12  C   UNL     1      25.792  36.306  17.885  1.00  0.00    -0.000 C 
BRANCH  12  13
ATOM     13  C   UNL     1      27.321  36.159  17.897  1.00  0.00    -0.000 C 
BRANCH  13  14
ATOM     14  C   UNL     1      28.033  37.387  18.485  1.00  0.00    -0.000 C 
BRANCH  14  15
ATOM     15  C   UNL     1      29.565  37.241  18.481  1.00  0.00    -0.000 C 
BRANCH  15  16
ATOM     16  C   UNL     1      30.056  36.166  19.463  1.00  0.00    -0.003 C 
ATOM     17  C   UNL     1      31.222  36.643  20.330  1.00  0.00     0.004 C 
ENDBRANCH  15  16
ENDBRANCH  14  15
ENDBRANCH  13  14
ENDBRANCH  12  13
ENDBRANCH  11  12
ENDBRANCH  10  11
ENDBRANCH   1  10
TORSDOF 13
ENDMDL
MODEL 3
REMARK VINA RESULT:    -1.356      2.957      6.824
REMARK INTER + INTRA:          -2.692
REMARK INTER:                  -1.832
REMARK INTRA:                  -0.860
REMARK UNBOUND:                -0.305
REMARK SMILES CCCCCCCCCCCCCCC(=O)[O-]
REMARK SMILES IDX 9 1 10 2 11 3 12 4 13 5 14 6 15 7 16 8 17 9 8 10 7 11 6 12
REMARK SMILES IDX 5 13 4 14 3 15 2 16 1 17
REMARK H PARENT
REMARK Flexibility Score: inf
ROOT
ATOM      1  C   UNL     1      25.355  35.383  18.196  1.00  0.00     0.000 C 
ENDROOT
BRANCH   1   2
ATOM      2  C   UNL     1      26.073  36.708  17.892  1.00  0.00     0.000 C 
BRANCH   2   3
ATOM      3  C   UNL     1      27.605  36.561  17.879  1.00  0.00     0.000 C 
BRANCH   3   4
ATOM      4  C   UNL     1      28.321  37.787  18.466  1.00  0.00     0.000 C 
BRANCH   4   5
ATOM      5  C   UNL     1      29.845  37.732  18.274  1.00  0.00     0.006 C 
BRANCH   5   6
ATOM      6  C   UNL     1      30.380  36.323  18.551  1.00  0.00     0.053 C 
BRANCH   6   7
ATOM      7  C   UNL     1      30.626  36.132  20.014  1.00  0.00     0.041 C 
ATOM      8  O   UNL     1      31.575  36.735  20.580  1.00  0.00    -0.550 OA
ATOM      9  O   UNL     1      29.836  35.252  20.743  1.00  0.00    -0.550 OA
ENDBRANCH   6   7
ENDBRANCH   5   6
ENDBRANCH   4   5
ENDBRANCH   3   4
ENDBRANCH   2   3
ENDBRANCH   1   2
BRANCH   1  10
ATOM     10  C   UNL     1      23.870  35.582  18.546  1.00  0.00     0.000 C 
BRANCH  10  11
ATOM     11  C   UNL     1      23.494  34.970  19.905  1.00  0.00    -0.000 C 
BRANCH  11  12
ATOM     12  C   UNL     1      22.746  35.954  20.816  1.00  0.00    -0.000 C 
BRANCH  12  13
ATOM     13  C   UNL     1      23.141  37.404  20.497  1.00  0.00    -0.000 C 
BRANCH  13  14
ATOM     14  C   UNL     1      22.918  38.357  21.683  1.00  0.00    -0.000 C 
BRANCH  14  15
ATOM     15  C   UNL     1      22.211  37.673  22.866  1.00  0.00    -0.000 C 
BRANCH  15  16
ATOM     16  C   UNL     1      22.697  38.199  24.226  1.00  0.00    -0.003 C 
ATOM     17  C   UNL     1      23.918  39.113  24.106  1.00  0.00     0.004 C 
ENDBRANCH  15  16
ENDBRANCH  14  15
ENDBRANCH  13  14
ENDBRANCH  12  13
ENDBRANCH  11  12
ENDBRANCH  10  11
ENDBRANCH   1  10
TORSDOF 13
ENDMDL
MODEL 4
REMARK VINA RESULT:    -0.950      3.214      7.202
REMARK INTER + INTRA:          -1.977
REMARK INTER:                  -1.302
REMARK INTRA:                  -0.675
REMARK UNBOUND:                -0.305
REMARK SMILES CCCCCCCCCCCCCCC(=O)[O-]
REMARK SMILES IDX 9 1 10 2 11 3 12 4 13 5 14 6 15 7 16 8 17 9 8 10 7 11 6 12
REMARK SMILES IDX 5 13 4 14 3 15 2 16 1 17
REMARK H PARENT
REMARK Flexibility Score: inf
ROOT
ATOM      1  C   UNL     1      23.737  36.737  19.944  1.00  0.00     0.000 C 
ENDROOT
BRANCH   1   2
ATOM      2  C   UNL     1      23.555  35.337  19.336  1.00  0.00     0.000 C 
BRANCH   2   3
ATOM      3  C   UNL     1      24.722  34.937  18.416  1.00  0.00     0.000 C 
BRANCH   3   4
ATOM      4  C   UNL     1      25.644  36.120  18.084  1.00  0.00     0.000 C 
BRANCH   4   5
ATOM      5  C   UNL     1      27.105  35.694  17.875  1.00  0.00     0.006 C 
BRANCH   5   6
ATOM      6  C   UNL     1      28.065  36.692  18.532  1.00  0.00     0.053 C 
BRANCH   6   7
ATOM      7  C   UNL     1      29.315  36.003  18.978  1.00  0.00     0.041 C 
ATOM      8  O   UNL     1      29.452  35.656  20.181  1.00  0.00    -0.550 OA
ATOM      9  O   UNL     1      30.350  35.786  18.077  1.00  0.00    -0.550 OA
ENDBRANCH   6   7
ENDBRANCH   5   6
ENDBRANCH   4   5
ENDBRANCH   3   4
ENDBRANCH   2   3
ENDBRANCH   1   2
BRANCH   1  10
ATOM     10  C   UNL     1      22.787  36.995  21.127  1.00  0.00     0.000 C 
BRANCH  10  11
ATOM     11  C   UNL     1      22.768  38.469  21.561  1.00  0.00    -0.000 C 
BRANCH  11  12
ATOM     12  C   UNL     1      22.451  38.647  23.053  1.00  0.00    -0.000 C 
BRANCH  12  13
ATOM     13  C   UNL     1      23.613  39.339  23.782  1.00  0.00    -0.000 C 
BRANCH  13  14
ATOM     14  C   UNL     1      24.091  38.558  25.016  1.00  0.00    -0.000 C 
BRANCH  14  15
ATOM     15  C   UNL     1      23.169  37.377  25.363  1.00  0.00    -0.000 C 
BRANCH  15  16
ATOM     16  C   UNL     1      22.087  37.756  26.387  1.00  0.00    -0.003 C 
ATOM     17  C   UNL     1      22.556  38.824  27.377  1.00  0.00     0.004 C 
ENDBRANCH  15  16
ENDBRANCH  14  15
ENDBRANCH  13  14
ENDBRANCH  12  13
ENDBRANCH  11  12
ENDBRANCH  10  11
ENDBRANCH   1  10
TORSDOF 13
ENDMDL
MODEL 5
REMARK VINA RESULT:    -0.875      1.096      1.997
REMARK INTER + INTRA:          -1.844
REMARK INTER:                  -1.751
REMARK INTRA:                  -0.094
REMARK UNBOUND:                -0.305
REMARK SMILES CCCCCCCCCCCCCCC(=O)[O-]
REMARK SMILES IDX 9 1 10 2 11 3 12 4 13 5 14 6 15 7 16 8 17 9 8 10 7 11 6 12
REMARK SMILES IDX 5 13 4 14 3 15 2 16 1 17
REMARK H PARENT
REMARK Flexibility Score: inf
ROOT
ATOM      1  C   UNL     1      23.644  37.001  20.371  1.00  0.00     0.000 C 
ENDROOT
BRANCH   1   2
ATOM      2  C   UNL     1      22.329  37.491  21.000  1.00  0.00     0.000 C 
BRANCH   2   3
ATOM      3  C   UNL     1      22.149  37.001  22.448  1.00  0.00     0.000 C 
BRANCH   3   4
ATOM      4  C   UNL     1      22.179  38.151  23.467  1.00  0.00     0.000 C 
BRANCH   4   5
ATOM      5  C   UNL     1      23.039  37.831  24.699  1.00  0.00     0.006 C 
BRANCH   5   6
ATOM      6  C   UNL     1      23.917  39.028  25.079  1.00  0.00     0.053 C 
BRANCH   6   7
ATOM      7  C   UNL     1      24.063  39.962  23.919  1.00  0.00     0.041 C 
ATOM      8  O   UNL     1      24.498  39.537  22.816  1.00  0.00    -0.550 OA
ATOM      9  O   UNL     1      23.764  41.310  24.069  1.00  0.00    -0.550 OA
ENDBRANCH   6   7
ENDBRANCH   5   6
ENDBRANCH   4   5
ENDBRANCH   3   4
ENDBRANCH   2   3
ENDBRANCH   1   2
BRANCH   1  10
ATOM     10  C   UNL     1      23.459  35.723  19.535  1.00  0.00     0.000 C 
BRANCH  10  11
ATOM     11  C   UNL     1      24.180  35.792  18.179  1.00  0.00    -0.000 C 
BRANCH  11  12
ATOM     12  C   UNL     1      25.479  34.973  18.152  1.00  0.00    -0.000 C 
BRANCH  12  13
ATOM     13  C   UNL     1      26.692  35.879  17.892  1.00  0.00    -0.000 C 
BRANCH  13  14
ATOM     14  C   UNL     1      27.996  35.310  18.473  1.00  0.00    -0.000 C 
BRANCH  14  15
ATOM     15  C   UNL     1      29.214  36.204  18.181  1.00  0.00    -0.000 C 
BRANCH  15  16
ATOM     16  C   UNL     1      29.569  37.119  19.364  1.00  0.00    -0.003 C 
ATOM     17  C   UNL     1      30.359  36.397  20.456  1.00  0.00     0.004 C 
ENDBRANCH  15  16
ENDBRANCH  14  15
ENDBRANCH  13  14
ENDBRANCH  12  13
ENDBRANCH  11  12
ENDBRANCH  10  11
ENDBRANCH   1  10
TORSDOF 13
ENDMDL
MODEL 6
REMARK VINA RESULT:     0.249      1.525      3.726
REMARK INTER + INTRA:           0.133
REMARK INTER:                   0.045
REMARK INTRA:                   0.088
REMARK UNBOUND:                -0.305
REMARK SMILES CCCCCCCCCCCCCCC(=O)[O-]
REMARK SMILES IDX 9 1 10 2 11 3 12 4 13 5 14 6 15 7 16 8 17 9 8 10 7 11 6 12
REMARK SMILES IDX 5 13 4 14 3 15 2 16 1 17
REMARK H PARENT
REMARK Flexibility Score: inf
ROOT
ATOM      1  C   UNL     1      22.074  38.078  22.192  1.00  0.00     0.000 C 
ENDROOT
BRANCH   1   2
ATOM      2  C   UNL     1      21.703  38.108  23.684  1.00  0.00     0.000 C 
BRANCH   2   3
ATOM      3  C   UNL     1      22.525  37.109  24.517  1.00  0.00     0.000 C 
BRANCH   3   4
ATOM      4  C   UNL     1      22.983  37.698  25.861  1.00  0.00     0.000 C 
BRANCH   4   5
ATOM      5  C   UNL     1      23.751  39.019  25.699  1.00  0.00     0.006 C 
BRANCH   5   6
ATOM      6  C   UNL     1      24.359  39.130  24.297  1.00  0.00     0.053 C 
BRANCH   6   7
ATOM      7  C   UNL     1      24.253  40.533  23.789  1.00  0.00     0.041 C 
ATOM      8  O   UNL     1      23.453  41.343  24.327  1.00  0.00    -0.550 OA
ATOM      9  O   UNL     1      25.003  40.933  22.690  1.00  0.00    -0.550 OA
ENDBRANCH   6   7
ENDBRANCH   5   6
ENDBRANCH   4   5
ENDBRANCH   3   4
ENDBRANCH   2   3
ENDBRANCH   1   2
BRANCH   1  10
ATOM     10  C   UNL     1      22.338  36.651  21.679  1.00  0.00     0.000 C 
BRANCH  10  11
ATOM     11  C   UNL     1      23.170  36.632  20.386  1.00  0.00    -0.000 C 
BRANCH  11  12
ATOM     12  C   UNL     1      23.325  35.222  19.797  1.00  0.00    -0.000 C 
BRANCH  12  13
ATOM     13  C   UNL     1      23.588  35.286  18.285  1.00  0.00    -0.000 C 
BRANCH  13  14
ATOM     14  C   UNL     1      24.851  36.088  17.934  1.00  0.00    -0.000 C 
BRANCH  14  15
ATOM     15  C   UNL     1      26.112  35.208  17.875  1.00  0.00    -0.000 C 
BRANCH  15  16
ATOM     16  C   UNL     1      27.408  36.034  17.916  1.00  0.00    -0.003 C 
ATOM     17  C   UNL     1      28.608  35.231  18.423  1.00  0.00     0.004 C 
ENDBRANCH  15  16
ENDBRANCH  14  15
ENDBRANCH  13  14
ENDBRANCH  12  13
ENDBRANCH  11  12
ENDBRANCH  10  11
ENDBRANCH   1  10
TORSDOF 13
ENDMDL
MODEL 7
REMARK VINA RESULT:     0.284      2.983      6.899
REMARK INTER + INTRA:           0.195
REMARK INTER:                  -0.593
REMARK INTRA:                   0.788
REMARK UNBOUND:                -0.305
REMARK SMILES CCCCCCCCCCCCCCC(=O)[O-]
REMARK SMILES IDX 9 1 10 2 11 3 12 4 13 5 14 6 15 7 16 8 17 9 8 10 7 11 6 12
REMARK SMILES IDX 5 13 4 14 3 15 2 16 1 17
REMARK H PARENT
REMARK Flexibility Score: inf
ROOT
ATOM      1  C   UNL     1      23.898  36.739  19.199  1.00  0.00     0.000 C 
ENDROOT
BRANCH   1   2
ATOM      2  C   UNL     1      24.671  36.170  17.997  1.00  0.00     0.000 C 
BRANCH   2   3
ATOM      3  C   UNL     1      25.441  34.884  18.347  1.00  0.00     0.000 C 
BRANCH   3   4
ATOM      4  C   UNL     1      26.903  34.926  17.875  1.00  0.00     0.000 C 
BRANCH   4   5
ATOM      5  C   UNL     1      27.584  36.271  18.170  1.00  0.00     0.006 C 
BRANCH   5   6
ATOM      6  C   UNL     1      29.100  36.097  18.310  1.00  0.00     0.053 C 
BRANCH   6   7
ATOM      7  C   UNL     1      29.783  37.428  18.319  1.00  0.00     0.041 C 
ATOM      8  O   UNL     1      29.103  38.488  18.315  1.00  0.00    -0.550 OA
ATOM      9  O   UNL     1      31.170  37.499  18.284  1.00  0.00    -0.550 OA
ENDBRANCH   6   7
ENDBRANCH   5   6
ENDBRANCH   4   5
ENDBRANCH   3   4
ENDBRANCH   2   3
ENDBRANCH   1   2
BRANCH   1  10
ATOM     10  C   UNL     1      23.194  35.644  20.020  1.00  0.00     0.000 C 
BRANCH  10  11
ATOM     11  C   UNL     1      22.499  36.199  21.274  1.00  0.00    -0.000 C 
BRANCH  11  12
ATOM     12  C   UNL     1      22.406  37.732  21.275  1.00  0.00    -0.000 C 
BRANCH  12  13
ATOM     13  C   UNL     1      22.448  38.282  22.709  1.00  0.00    -0.000 C 
BRANCH  13  14
ATOM     14  C   UNL     1      22.564  37.175  23.768  1.00  0.00    -0.000 C 
BRANCH  14  15
ATOM     15  C   UNL     1      22.843  37.730  25.176  1.00  0.00    -0.000 C 
BRANCH  15  16
ATOM     16  C   UNL     1      23.984  38.760  25.186  1.00  0.00    -0.003 C 
ATOM     17  C   UNL     1      24.003  39.637  23.933  1.00  0.00     0.004 C 
ENDBRANCH  15  16
ENDBRANCH  14  15
ENDBRANCH  13  14
ENDBRANCH  12  13
ENDBRANCH  11  12
ENDBRANCH  10  11
ENDBRANCH   1  10
TORSDOF 13
ENDMDL
MODEL 8
REMARK VINA RESULT:     0.446      3.075      6.842
REMARK INTER + INTRA:           0.480
REMARK INTER:                   0.920
REMARK INTRA:                  -0.440
REMARK UNBOUND:                -0.305
REMARK SMILES CCCCCCCCCCCCCCC(=O)[O-]
REMARK SMILES IDX 9 1 10 2 11 3 12 4 13 5 14 6 15 7 16 8 17 9 8 10 7 11 6 12
REMARK SMILES IDX 5 13 4 14 3 15 2 16 1 17
REMARK H PARENT
REMARK Flexibility Score: inf
ROOT
ATOM      1  C   UNL     1      22.429  38.158  21.067  1.00  0.00     0.000 C 
ENDROOT
BRANCH   1   2
ATOM      2  C   UNL     1      23.060  36.808  20.688  1.00  0.00     0.000 C 
BRANCH   2   3
ATOM      3  C   UNL     1      23.810  36.863  19.346  1.00  0.00     0.000 C 
BRANCH   3   4
ATOM      4  C   UNL     1      24.066  35.467  18.755  1.00  0.00     0.000 C 
BRANCH   4   5
ATOM      5  C   UNL     1      25.360  35.401  17.930  1.00  0.00     0.006 C 
BRANCH   5   6
ATOM      6  C   UNL     1      26.045  36.770  17.875  1.00  0.00     0.053 C 
BRANCH   6   7
ATOM      7  C   UNL     1      27.526  36.623  18.028  1.00  0.00     0.041 C 
ATOM      8  O   UNL     1      28.053  35.480  18.015  1.00  0.00    -0.550 OA
ATOM      9  O   UNL     1      28.319  37.745  18.234  1.00  0.00    -0.550 OA
ENDBRANCH   6   7
ENDBRANCH   5   6
ENDBRANCH   4   5
ENDBRANCH   3   4
ENDBRANCH   2   3
ENDBRANCH   1   2
BRANCH   1  10
ATOM     10  C   UNL     1      22.080  38.247  22.563  1.00  0.00     0.000 C 
BRANCH  10  11
ATOM     11  C   UNL     1      22.366  36.938  23.317  1.00  0.00    -0.000 C 
BRANCH  11  12
ATOM     12  C   UNL     1      22.365  37.116  24.843  1.00  0.00    -0.000 C 
BRANCH  12  13
ATOM     13  C   UNL     1      23.799  37.213  25.384  1.00  0.00    -0.000 C 
BRANCH  13  14
ATOM     14  C   UNL     1      24.410  38.612  25.205  1.00  0.00    -0.000 C 
BRANCH  14  15
ATOM     15  C   UNL     1      23.345  39.697  24.970  1.00  0.00    -0.000 C 
BRANCH  15  16
ATOM     16  C   UNL     1      23.897  40.906  24.198  1.00  0.00    -0.003 C 
ATOM     17  C   UNL     1      24.630  40.508  22.916  1.00  0.00     0.004 C 
ENDBRANCH  15  16
ENDBRANCH  14  15
ENDBRANCH  13  14
ENDBRANCH  12  13
ENDBRANCH  11  12
ENDBRANCH  10  11
ENDBRANCH   1  10
TORSDOF 13
ENDMDL
