MODEL 1
REMARK VINA RESULT:    -4.243      0.000      0.000
REMARK INTER + INTRA:          -5.931
REMARK INTER:                  -5.484
REMARK INTRA:                  -0.447
REMARK UNBOUND:                -0.447
REMARK SMILES C=CC(=O)CCCCC
REMARK SMILES IDX 6 1 7 2 8 3 9 4 5 5 3 6 4 7 2 8 1 9
REMARK H PARENT
REMARK Flexibility Score: inf
ROOT
ATOM      1  C   UNL     1     134.729 133.559 113.911  1.00  0.00     0.008 C 
ENDROOT
BRANCH   1   2
ATOM      2  C   UNL     1     133.572 133.958 114.837  1.00  0.00     0.000 C 
BRANCH   2   3
ATOM      3  C   UNL     1     133.265 135.462 114.784  1.00  0.00    -0.003 C 
ATOM      4  C   UNL     1     132.086 135.793 113.869  1.00  0.00     0.004 C 
ENDBRANCH   2   3
ENDBRANCH   1   2
BRANCH   1   5
ATOM      5  C   UNL     1     136.003 134.341 114.256  1.00  0.00     0.080 C 
BRANCH   5   6
ATOM      6  C   UNL     1     136.593 133.858 115.554  1.00  0.00     0.155 C 
ATOM      7  O   UNL     1     137.038 132.681 115.612  1.00  0.00    -0.295 OA
BRANCH   6   8
ATOM      8  C   UNL     1     136.645 134.688 116.777  1.00  0.00     0.039 C 
ATOM      9  C   UNL     1     135.917 134.455 117.869  1.00  0.00     0.012 C 
ENDBRANCH   6   8
ENDBRANCH   5   6
ENDBRANCH   1   5
TORSDOF 5
ENDMDL
MODEL 2
REMARK VINA RESULT:    -4.194      1.276      1.393
REMARK INTER + INTRA:          -5.867
REMARK INTER:                  -5.293
REMARK INTRA:                  -0.574
REMARK UNBOUND:                -0.447
REMARK SMILES C=CC(=O)CCCCC
REMARK SMILES IDX 6 1 7 2 8 3 9 4 5 5 3 6 4 7 2 8 1 9
REMARK H PARENT
REMARK Flexibility Score: inf
ROOT
ATOM      1  C   UNL     1     135.341 133.453 114.231  1.00  0.00     0.008 C 
ENDROOT
BRANCH   1   2
ATOM      2  C   UNL     1     133.946 133.498 114.870  1.00  0.00     0.000 C 
BRANCH   2   3
ATOM      3  C   UNL     1     133.111 134.691 114.381  1.00  0.00    -0.003 C 
ATOM      4  C   UNL     1     133.457 135.992 115.104  1.00  0.00     0.004 C 
ENDBRANCH   2   3
ENDBRANCH   1   2
BRANCH   1   5
ATOM      5  C   UNL     1     136.433 133.356 115.303  1.00  0.00     0.080 C 
BRANCH   5   6
ATOM      6  C   UNL     1     136.765 134.717 115.853  1.00  0.00     0.155 C 
ATOM      7  O   UNL     1     137.224 135.589 115.067  1.00  0.00    -0.295 OA
BRANCH   6   8
ATOM      8  C   UNL     1     136.612 135.073 117.280  1.00  0.00     0.039 C 
ATOM      9  C   UNL     1     135.703 134.533 118.091  1.00  0.00     0.012 C 
ENDBRANCH   6   8
ENDBRANCH   5   6
ENDBRANCH   1   5
TORSDOF 5
ENDMDL
MODEL 3
REMARK VINA RESULT:    -4.182      9.475     10.629
REMARK INTER + INTRA:          -5.852
REMARK INTER:                  -5.443
REMARK INTRA:                  -0.409
REMARK UNBOUND:                -0.447
REMARK SMILES C=CC(=O)CCCCC
REMARK SMILES IDX 6 1 7 2 8 3 9 4 5 5 3 6 4 7 2 8 1 9
REMARK H PARENT
REMARK Flexibility Score: inf
ROOT
ATOM      1  C   UNL     1     141.718 142.841 113.786  1.00  0.00     0.008 C 
ENDROOT
BRANCH   1   2
ATOM      2  C   UNL     1     142.906 142.492 114.693  1.00  0.00     0.000 C 
BRANCH   2   3
ATOM      3  C   UNL     1     143.252 140.995 114.663  1.00  0.00    -0.003 C 
ATOM      4  C   UNL     1     144.478 140.688 113.804  1.00  0.00     0.004 C 
ENDBRANCH   2   3
ENDBRANCH   1   2
BRANCH   1   5
ATOM      5  C   UNL     1     140.536 143.368 114.609  1.00  0.00     0.080 C 
BRANCH   5   6
ATOM      6  C   UNL     1     139.971 142.285 115.488  1.00  0.00     0.155 C 
ATOM      7  O   UNL     1     139.467 141.267 114.941  1.00  0.00    -0.295 OA
BRANCH   6   8
ATOM      8  C   UNL     1     139.946 142.371 116.964  1.00  0.00     0.039 C 
ATOM      9  C   UNL     1     140.883 141.853 117.758  1.00  0.00     0.012 C 
ENDBRANCH   6   8
ENDBRANCH   5   6
ENDBRANCH   1   5
TORSDOF 5
ENDMDL
MODEL 4
REMARK VINA RESULT:    -4.155      8.575      9.801
REMARK INTER + INTRA:          -5.818
REMARK INTER:                  -5.237
REMARK INTRA:                  -0.580
REMARK UNBOUND:                -0.447
REMARK SMILES C=CC(=O)CCCCC
REMARK SMILES IDX 6 1 7 2 8 3 9 4 5 5 3 6 4 7 2 8 1 9
REMARK H PARENT
REMARK Flexibility Score: inf
ROOT
ATOM      1  C   UNL     1     141.954 140.486 114.515  1.00  0.00     0.008 C 
ENDROOT
BRANCH   1   2
ATOM      2  C   UNL     1     143.212 141.328 114.769  1.00  0.00     0.000 C 
BRANCH   2   3
ATOM      3  C   UNL     1     142.885 142.793 115.099  1.00  0.00    -0.003 C 
ATOM      4  C   UNL     1     141.701 143.330 114.296  1.00  0.00     0.004 C 
ENDBRANCH   2   3
ENDBRANCH   1   2
BRANCH   1   5
ATOM      5  C   UNL     1     141.381 139.944 115.830  1.00  0.00     0.080 C 
BRANCH   5   6
ATOM      6  C   UNL     1     140.053 140.580 116.139  1.00  0.00     0.155 C 
ATOM      7  O   UNL     1     139.103 140.417 115.326  1.00  0.00    -0.295 OA
BRANCH   6   8
ATOM      8  C   UNL     1     139.815 141.418 117.334  1.00  0.00     0.039 C 
ATOM      9  C   UNL     1     140.781 142.010 118.035  1.00  0.00     0.012 C 
ENDBRANCH   6   8
ENDBRANCH   5   6
ENDBRANCH   1   5
TORSDOF 5
ENDMDL
MODEL 5
REMARK VINA RESULT:    -4.119      2.117      3.955
REMARK INTER + INTRA:          -5.770
REMARK INTER:                  -5.213
REMARK INTRA:                  -0.557
REMARK UNBOUND:                -0.447
REMARK SMILES C=CC(=O)CCCCC
REMARK SMILES IDX 6 1 7 2 8 3 9 4 5 5 3 6 4 7 2 8 1 9
REMARK H PARENT
REMARK Flexibility Score: inf
ROOT
ATOM      1  C   UNL     1     134.481 136.523 115.293  1.00  0.00     0.008 C 
ENDROOT
BRANCH   1   2
ATOM      2  C   UNL     1     134.610 136.441 116.820  1.00  0.00     0.000 C 
BRANCH   2   3
ATOM      3  C   UNL     1     135.906 135.746 117.267  1.00  0.00    -0.003 C 
ATOM      4  C   UNL     1     135.649 134.423 117.988  1.00  0.00     0.004 C 
ENDBRANCH   2   3
ENDBRANCH   1   2
BRANCH   1   5
ATOM      5  C   UNL     1     133.215 135.805 114.810  1.00  0.00     0.080 C 
BRANCH   5   6
ATOM      6  C   UNL     1     133.565 134.579 114.011  1.00  0.00     0.155 C 
ATOM      7  O   UNL     1     133.283 134.558 112.783  1.00  0.00    -0.295 OA
BRANCH   6   8
ATOM      8  C   UNL     1     134.197 133.380 114.605  1.00  0.00     0.039 C 
ATOM      9  C   UNL     1     135.483 133.064 114.458  1.00  0.00     0.012 C 
ENDBRANCH   6   8
ENDBRANCH   5   6
ENDBRANCH   1   5
TORSDOF 5
ENDMDL
MODEL 6
REMARK VINA RESULT:    -4.112      1.392      1.747
REMARK INTER + INTRA:          -5.761
REMARK INTER:                  -5.144
REMARK INTRA:                  -0.617
REMARK UNBOUND:                -0.447
REMARK SMILES C=CC(=O)CCCCC
REMARK SMILES IDX 6 1 7 2 8 3 9 4 5 5 3 6 4 7 2 8 1 9
REMARK H PARENT
REMARK Flexibility Score: inf
ROOT
ATOM      1  C   UNL     1     134.688 133.530 113.959  1.00  0.00     0.008 C 
ENDROOT
BRANCH   1   2
ATOM      2  C   UNL     1     133.590 134.011 114.918  1.00  0.00     0.000 C 
BRANCH   2   3
ATOM      3  C   UNL     1     132.820 135.223 114.373  1.00  0.00    -0.003 C 
ATOM      4  C   UNL     1     133.325 135.678 113.004  1.00  0.00     0.004 C 
ENDBRANCH   2   3
ENDBRANCH   1   2
BRANCH   1   5
ATOM      5  C   UNL     1     135.957 133.142 114.729  1.00  0.00     0.080 C 
BRANCH   5   6
ATOM      6  C   UNL     1     136.555 134.341 115.413  1.00  0.00     0.155 C 
ATOM      7  O   UNL     1     136.763 134.285 116.655  1.00  0.00    -0.295 OA
BRANCH   6   8
ATOM      8  C   UNL     1     136.881 135.598 114.706  1.00  0.00     0.039 C 
ATOM      9  C   UNL     1     136.323 136.777 114.981  1.00  0.00     0.012 C 
ENDBRANCH   6   8
ENDBRANCH   5   6
ENDBRANCH   1   5
TORSDOF 5
ENDMDL
MODEL 7
REMARK VINA RESULT:    -4.100      8.847      9.949
REMARK INTER + INTRA:          -5.746
REMARK INTER:                  -5.156
REMARK INTRA:                  -0.591
REMARK UNBOUND:                -0.447
REMARK SMILES C=CC(=O)CCCCC
REMARK SMILES IDX 6 1 7 2 8 3 9 4 5 5 3 6 4 7 2 8 1 9
REMARK H PARENT
REMARK Flexibility Score: inf
ROOT
ATOM      1  C   UNL     1     142.866 142.315 115.229  1.00  0.00     0.008 C 
ENDROOT
BRANCH   1   2
ATOM      2  C   UNL     1     142.174 142.990 114.037  1.00  0.00     0.000 C 
BRANCH   2   3
ATOM      3  C   UNL     1     142.294 142.171 112.742  1.00  0.00    -0.003 C 
ATOM      4  C   UNL     1     140.984 142.106 111.959  1.00  0.00     0.004 C 
ENDBRANCH   2   3
ENDBRANCH   1   2
BRANCH   1   5
ATOM      5  C   UNL     1     142.969 140.799 115.016  1.00  0.00     0.080 C 
BRANCH   5   6
ATOM      6  C   UNL     1     141.880 140.078 115.763  1.00  0.00     0.155 C 
ATOM      7  O   UNL     1     142.091 139.738 116.958  1.00  0.00    -0.295 OA
BRANCH   6   8
ATOM      8  C   UNL     1     140.582 139.717 115.152  1.00  0.00     0.039 C 
ATOM      9  C   UNL     1     139.557 140.559 115.025  1.00  0.00     0.012 C 
ENDBRANCH   6   8
ENDBRANCH   5   6
ENDBRANCH   1   5
TORSDOF 5
ENDMDL
MODEL 8
REMARK VINA RESULT:    -4.091      9.065     10.340
REMARK INTER + INTRA:          -5.735
REMARK INTER:                  -5.131
REMARK INTRA:                  -0.604
REMARK UNBOUND:                -0.447
REMARK SMILES C=CC(=O)CCCCC
REMARK SMILES IDX 6 1 7 2 8 3 9 4 5 5 3 6 4 7 2 8 1 9
REMARK H PARENT
REMARK Flexibility Score: inf
ROOT
ATOM      1  C   UNL     1     141.692 142.891 113.899  1.00  0.00     0.008 C 
ENDROOT
BRANCH   1   2
ATOM      2  C   UNL     1     142.803 142.569 114.907  1.00  0.00     0.000 C 
BRANCH   2   3
ATOM      3  C   UNL     1     143.441 141.193 114.664  1.00  0.00    -0.003 C 
ATOM      4  C   UNL     1     143.383 140.765 113.198  1.00  0.00     0.004 C 
ENDBRANCH   2   3
ENDBRANCH   1   2
BRANCH   1   5
ATOM      5  C   UNL     1     140.389 143.261 114.619  1.00  0.00     0.080 C 
BRANCH   5   6
ATOM      6  C   UNL     1     139.844 142.083 115.380  1.00  0.00     0.155 C 
ATOM      7  O   UNL     1     139.747 142.168 116.634  1.00  0.00    -0.295 OA
BRANCH   6   8
ATOM      8  C   UNL     1     139.447 140.814 114.732  1.00  0.00     0.039 C 
ATOM      9  C   UNL     1     140.078 139.654 114.912  1.00  0.00     0.012 C 
ENDBRANCH   6   8
ENDBRANCH   5   6
ENDBRANCH   1   5
TORSDOF 5
ENDMDL
MODEL 9
REMARK VINA RESULT:    -4.081      1.706      2.756
REMARK INTER + INTRA:          -5.722
REMARK INTER:                  -5.127
REMARK INTRA:                  -0.595
REMARK UNBOUND:                -0.447
REMARK SMILES C=CC(=O)CCCCC
REMARK SMILES IDX 6 1 7 2 8 3 9 4 5 5 3 6 4 7 2 8 1 9
REMARK H PARENT
REMARK Flexibility Score: inf
ROOT
ATOM      1  C   UNL     1     133.826 135.771 115.117  1.00  0.00     0.008 C 
ENDROOT
BRANCH   1   2
ATOM      2  C   UNL     1     133.749 134.258 115.362  1.00  0.00     0.000 C 
BRANCH   2   3
ATOM      3  C   UNL     1     134.421 133.444 114.245  1.00  0.00    -0.003 C 
ATOM      4  C   UNL     1     135.821 132.963 114.624  1.00  0.00     0.004 C 
ENDBRANCH   2   3
ENDBRANCH   1   2
BRANCH   1   5
ATOM      5  C   UNL     1     134.509 136.482 116.292  1.00  0.00     0.080 C 
BRANCH   5   6
ATOM      6  C   UNL     1     135.970 136.127 116.356  1.00  0.00     0.155 C 
ATOM      7  O   UNL     1     136.701 136.400 115.366  1.00  0.00    -0.295 OA
BRANCH   6   8
ATOM      8  C   UNL     1     136.587 135.442 117.513  1.00  0.00     0.039 C 
ATOM      9  C   UNL     1     135.913 134.684 118.378  1.00  0.00     0.012 C 
ENDBRANCH   6   8
ENDBRANCH   5   6
ENDBRANCH   1   5
TORSDOF 5
ENDMDL
