MODEL 1
REMARK VINA RESULT:    -3.820      0.000      0.000
REMARK INTER + INTRA:          -7.809
REMARK INTER:                  -6.500
REMARK INTRA:                  -1.309
REMARK UNBOUND:                -1.309
REMARK SMILES CCCCCCCCCCCCCC(=O)[O-]
REMARK SMILES IDX 8 1 9 2 10 3 11 4 12 5 13 6 14 7 15 8 16 9 7 10 6 11 5 12
REMARK SMILES IDX 4 13 3 14 2 15 1 16
REMARK H PARENT
REMARK Flexibility Score: inf
ROOT
ATOM      1  C   UNL     1     -25.921  29.178 -41.417  1.00  0.00     0.000 C 
ENDROOT
BRANCH   1   2
ATOM      2  C   UNL     1     -24.741  28.342 -41.957  1.00  0.00     0.000 C 
BRANCH   2   3
ATOM      3  C   UNL     1     -23.346  28.886 -41.594  1.00  0.00     0.000 C 
BRANCH   3   4
ATOM      4  C   UNL     1     -22.488  29.261 -42.826  1.00  0.00     0.000 C 
BRANCH   4   5
ATOM      5  C   UNL     1     -21.655  30.539 -42.618  1.00  0.00     0.006 C 
BRANCH   5   6
ATOM      6  C   UNL     1     -20.152  30.272 -42.446  1.00  0.00     0.053 C 
BRANCH   6   7
ATOM      7  C   UNL     1     -19.360  31.544 -42.423  1.00  0.00     0.041 C 
ATOM      8  O   UNL     1     -19.353  32.267 -41.391  1.00  0.00    -0.550 OA
ATOM      9  O   UNL     1     -18.650  31.946 -43.547  1.00  0.00    -0.550 OA
ENDBRANCH   6   7
ENDBRANCH   5   6
ENDBRANCH   4   5
ENDBRANCH   3   4
ENDBRANCH   2   3
ENDBRANCH   1   2
BRANCH   1  10
ATOM     10  C   UNL     1     -25.692  30.702 -41.381  1.00  0.00     0.000 C 
BRANCH  10  11
ATOM     11  C   UNL     1     -25.840  31.357 -39.996  1.00  0.00    -0.000 C 
BRANCH  11  12
ATOM     12  C   UNL     1     -24.508  31.439 -39.230  1.00  0.00    -0.000 C 
BRANCH  12  13
ATOM     13  C   UNL     1     -23.425  32.201 -40.012  1.00  0.00    -0.000 C 
BRANCH  13  14
ATOM     14  C   UNL     1     -22.097  32.305 -39.241  1.00  0.00    -0.000 C 
BRANCH  14  15
ATOM     15  C   UNL     1     -21.692  33.760 -38.963  1.00  0.00    -0.003 C 
ATOM     16  C   UNL     1     -22.528  34.404 -37.857  1.00  0.00     0.004 C 
ENDBRANCH  14  15
ENDBRANCH  13  14
ENDBRANCH  12  13
ENDBRANCH  11  12
ENDBRANCH  10  11
ENDBRANCH   1  10
TORSDOF 12
ENDMDL
MODEL 2
REMARK VINA RESULT:    -3.762      2.255      3.063
REMARK INTER + INTRA:          -7.710
REMARK INTER:                  -5.931
REMARK INTRA:                  -1.779
REMARK UNBOUND:                -1.309
REMARK SMILES CCCCCCCCCCCCCC(=O)[O-]
REMARK SMILES IDX 8 1 9 2 10 3 11 4 12 5 13 6 14 7 15 8 16 9 7 10 6 11 5 12
REMARK SMILES IDX 4 13 3 14 2 15 1 16
REMARK H PARENT
REMARK Flexibility Score: inf
ROOT
ATOM      1  C   UNL     1     -23.157  30.614 -38.953  1.00  0.00     0.000 C 
ENDROOT
BRANCH   1   2
ATOM      2  C   UNL     1     -22.496  30.977 -40.300  1.00  0.00     0.000 C 
BRANCH   2   3
ATOM      3  C   UNL     1     -21.419  29.986 -40.778  1.00  0.00     0.000 C 
BRANCH   3   4
ATOM      4  C   UNL     1     -20.942  30.239 -42.229  1.00  0.00     0.000 C 
BRANCH   4   5
ATOM      5  C   UNL     1     -19.418  30.423 -42.343  1.00  0.00     0.006 C 
BRANCH   5   6
ATOM      6  C   UNL     1     -19.006  31.777 -42.939  1.00  0.00     0.053 C 
BRANCH   6   7
ATOM      7  C   UNL     1     -17.549  32.060 -42.724  1.00  0.00     0.041 C 
ATOM      8  O   UNL     1     -16.903  32.730 -43.573  1.00  0.00    -0.550 OA
ATOM      9  O   UNL     1     -16.899  31.562 -41.602  1.00  0.00    -0.550 OA
ENDBRANCH   6   7
ENDBRANCH   5   6
ENDBRANCH   4   5
ENDBRANCH   3   4
ENDBRANCH   2   3
ENDBRANCH   1   2
BRANCH   1  10
ATOM     10  C   UNL     1     -23.036  31.682 -37.847  1.00  0.00     0.000 C 
BRANCH  10  11
ATOM     11  C   UNL     1     -23.798  32.993 -38.111  1.00  0.00    -0.000 C 
BRANCH  11  12
ATOM     12  C   UNL     1     -22.861  34.195 -38.320  1.00  0.00    -0.000 C 
BRANCH  12  13
ATOM     13  C   UNL     1     -21.381  33.829 -38.123  1.00  0.00    -0.000 C 
BRANCH  13  14
ATOM     14  C   UNL     1     -20.558  33.967 -39.416  1.00  0.00    -0.000 C 
BRANCH  14  15
ATOM     15  C   UNL     1     -19.354  33.013 -39.450  1.00  0.00    -0.003 C 
ATOM     16  C   UNL     1     -19.388  31.979 -38.325  1.00  0.00     0.004 C 
ENDBRANCH  14  15
ENDBRANCH  13  14
ENDBRANCH  12  13
ENDBRANCH  11  12
ENDBRANCH  10  11
ENDBRANCH   1  10
TORSDOF 12
ENDMDL
MODEL 3
REMARK VINA RESULT:    -3.733      2.991      5.386
REMARK INTER + INTRA:          -7.660
REMARK INTER:                  -6.113
REMARK INTRA:                  -1.547
REMARK UNBOUND:                -1.309
REMARK SMILES CCCCCCCCCCCCCC(=O)[O-]
REMARK SMILES IDX 8 1 9 2 10 3 11 4 12 5 13 6 14 7 15 8 16 9 7 10 6 11 5 12
REMARK SMILES IDX 4 13 3 14 2 15 1 16
REMARK H PARENT
REMARK Flexibility Score: inf
ROOT
ATOM      1  C   UNL     1     -18.616  30.367 -41.864  1.00  0.00     0.000 C 
ENDROOT
BRANCH   1   2
ATOM      2  C   UNL     1     -19.810  30.957 -42.645  1.00  0.00     0.000 C 
BRANCH   2   3
ATOM      3  C   UNL     1     -21.177  30.792 -41.956  1.00  0.00     0.000 C 
BRANCH   3   4
ATOM      4  C   UNL     1     -21.155  29.810 -40.760  1.00  0.00     0.000 C 
BRANCH   4   5
ATOM      5  C   UNL     1     -22.291  28.773 -40.806  1.00  0.00     0.006 C 
BRANCH   5   6
ATOM      6  C   UNL     1     -23.281  28.997 -41.959  1.00  0.00     0.053 C 
BRANCH   6   7
ATOM      7  C   UNL     1     -24.698  28.761 -41.530  1.00  0.00     0.041 C 
ATOM      8  O   UNL     1     -25.483  28.112 -42.271  1.00  0.00    -0.550 OA
ATOM      9  O   UNL     1     -25.160  29.279 -40.326  1.00  0.00    -0.550 OA
ENDBRANCH   6   7
ENDBRANCH   5   6
ENDBRANCH   4   5
ENDBRANCH   3   4
ENDBRANCH   2   3
ENDBRANCH   1   2
BRANCH   1  10
ATOM     10  C   UNL     1     -17.503  31.370 -41.500  1.00  0.00     0.000 C 
BRANCH  10  11
ATOM     11  C   UNL     1     -17.872  32.398 -40.415  1.00  0.00    -0.000 C 
BRANCH  11  12
ATOM     12  C   UNL     1     -18.436  31.743 -39.142  1.00  0.00    -0.000 C 
BRANCH  12  13
ATOM     13  C   UNL     1     -19.557  32.575 -38.499  1.00  0.00    -0.000 C 
BRANCH  13  14
ATOM     14  C   UNL     1     -20.283  33.477 -39.513  1.00  0.00    -0.000 C 
BRANCH  14  15
ATOM     15  C   UNL     1     -21.797  33.542 -39.261  1.00  0.00    -0.003 C 
ATOM     16  C   UNL     1     -22.151  34.302 -37.983  1.00  0.00     0.004 C 
ENDBRANCH  14  15
ENDBRANCH  13  14
ENDBRANCH  12  13
ENDBRANCH  11  12
ENDBRANCH  10  11
ENDBRANCH   1  10
TORSDOF 12
ENDMDL
MODEL 4
REMARK VINA RESULT:    -3.726      2.776      4.913
REMARK INTER + INTRA:          -7.649
REMARK INTER:                  -6.027
REMARK INTRA:                  -1.622
REMARK UNBOUND:                -1.309
REMARK SMILES CCCCCCCCCCCCCC(=O)[O-]
REMARK SMILES IDX 8 1 9 2 10 3 11 4 12 5 13 6 14 7 15 8 16 9 7 10 6 11 5 12
REMARK SMILES IDX 4 13 3 14 2 15 1 16
REMARK H PARENT
REMARK Flexibility Score: inf
ROOT
ATOM      1  C   UNL     1     -20.080  31.520 -39.304  1.00  0.00     0.000 C 
ENDROOT
BRANCH   1   2
ATOM      2  C   UNL     1     -20.328  31.913 -40.776  1.00  0.00     0.000 C 
BRANCH   2   3
ATOM      3  C   UNL     1     -21.602  31.312 -41.400  1.00  0.00     0.000 C 
BRANCH   3   4
ATOM      4  C   UNL     1     -21.328  30.105 -42.328  1.00  0.00     0.000 C 
BRANCH   4   5
ATOM      5  C   UNL     1     -22.611  29.396 -42.797  1.00  0.00     0.006 C 
BRANCH   5   6
ATOM      6  C   UNL     1     -23.379  28.704 -41.661  1.00  0.00     0.053 C 
BRANCH   6   7
ATOM      7  C   UNL     1     -24.855  28.952 -41.755  1.00  0.00     0.041 C 
ATOM      8  O   UNL     1     -25.653  27.984 -41.868  1.00  0.00    -0.550 OA
ATOM      9  O   UNL     1     -25.347  30.251 -41.744  1.00  0.00    -0.550 OA
ENDBRANCH   6   7
ENDBRANCH   5   6
ENDBRANCH   4   5
ENDBRANCH   3   4
ENDBRANCH   2   3
ENDBRANCH   1   2
BRANCH   1  10
ATOM     10  C   UNL     1     -20.177  32.674 -38.285  1.00  0.00     0.000 C 
BRANCH  10  11
ATOM     11  C   UNL     1     -20.934  33.921 -38.774  1.00  0.00    -0.000 C 
BRANCH  11  12
ATOM     12  C   UNL     1     -21.964  34.432 -37.752  1.00  0.00    -0.000 C 
BRANCH  12  13
ATOM     13  C   UNL     1     -22.843  33.303 -37.188  1.00  0.00    -0.000 C 
BRANCH  13  14
ATOM     14  C   UNL     1     -24.220  33.226 -37.870  1.00  0.00    -0.000 C 
BRANCH  14  15
ATOM     15  C   UNL     1     -24.333  32.035 -38.833  1.00  0.00    -0.003 C 
ATOM     16  C   UNL     1     -23.640  30.780 -38.303  1.00  0.00     0.004 C 
ENDBRANCH  14  15
ENDBRANCH  13  14
ENDBRANCH  12  13
ENDBRANCH  11  12
ENDBRANCH  10  11
ENDBRANCH   1  10
TORSDOF 12
ENDMDL
MODEL 5
REMARK VINA RESULT:    -3.680      3.003      6.274
REMARK INTER + INTRA:          -7.570
REMARK INTER:                  -5.735
REMARK INTRA:                  -1.835
REMARK UNBOUND:                -1.309
REMARK SMILES CCCCCCCCCCCCCC(=O)[O-]
REMARK SMILES IDX 8 1 9 2 10 3 11 4 12 5 13 6 14 7 15 8 16 9 7 10 6 11 5 12
REMARK SMILES IDX 4 13 3 14 2 15 1 16
REMARK H PARENT
REMARK Flexibility Score: inf
ROOT
ATOM      1  C   UNL     1     -18.346  32.474 -40.305  1.00  0.00     0.000 C 
ENDROOT
BRANCH   1   2
ATOM      2  C   UNL     1     -18.647  32.054 -38.850  1.00  0.00     0.000 C 
BRANCH   2   3
ATOM      3  C   UNL     1     -20.079  32.358 -38.374  1.00  0.00     0.000 C 
BRANCH   3   4
ATOM      4  C   UNL     1     -20.865  33.291 -39.326  1.00  0.00     0.000 C 
BRANCH   4   5
ATOM      5  C   UNL     1     -22.278  32.774 -39.651  1.00  0.00     0.006 C 
BRANCH   5   6
ATOM      6  C   UNL     1     -23.045  32.267 -38.421  1.00  0.00     0.053 C 
BRANCH   6   7
ATOM      7  C   UNL     1     -23.466  33.392 -37.524  1.00  0.00     0.041 C 
ATOM      8  O   UNL     1     -24.477  34.086 -37.813  1.00  0.00    -0.550 OA
ATOM      9  O   UNL     1     -22.729  33.692 -36.386  1.00  0.00    -0.550 OA
ENDBRANCH   6   7
ENDBRANCH   5   6
ENDBRANCH   4   5
ENDBRANCH   3   4
ENDBRANCH   2   3
ENDBRANCH   1   2
BRANCH   1  10
ATOM     10  C   UNL     1     -18.354  31.331 -41.340  1.00  0.00     0.000 C 
BRANCH  10  11
ATOM     11  C   UNL     1     -19.349  31.502 -42.501  1.00  0.00    -0.000 C 
BRANCH  11  12
ATOM     12  C   UNL     1     -20.564  30.564 -42.388  1.00  0.00    -0.000 C 
BRANCH  12  13
ATOM     13  C   UNL     1     -20.548  29.734 -41.093  1.00  0.00    -0.000 C 
BRANCH  13  14
ATOM     14  C   UNL     1     -21.941  29.206 -40.709  1.00  0.00    -0.000 C 
BRANCH  14  15
ATOM     15  C   UNL     1     -23.022  29.611 -41.722  1.00  0.00    -0.003 C 
ATOM     16  C   UNL     1     -24.147  28.580 -41.828  1.00  0.00     0.004 C 
ENDBRANCH  14  15
ENDBRANCH  13  14
ENDBRANCH  12  13
ENDBRANCH  11  12
ENDBRANCH  10  11
ENDBRANCH   1  10
TORSDOF 12
ENDMDL
MODEL 6
REMARK VINA RESULT:    -3.672      2.441      5.196
REMARK INTER + INTRA:          -7.557
REMARK INTER:                  -6.385
REMARK INTRA:                  -1.172
REMARK UNBOUND:                -1.309
REMARK SMILES CCCCCCCCCCCCCC(=O)[O-]
REMARK SMILES IDX 8 1 9 2 10 3 11 4 12 5 13 6 14 7 15 8 16 9 7 10 6 11 5 12
REMARK SMILES IDX 4 13 3 14 2 15 1 16
REMARK H PARENT
REMARK Flexibility Score: inf
ROOT
ATOM      1  C   UNL     1     -17.427  31.357 -40.833  1.00  0.00     0.000 C 
ENDROOT
BRANCH   1   2
ATOM      2  C   UNL     1     -17.626  32.242 -42.082  1.00  0.00     0.000 C 
BRANCH   2   3
ATOM      3  C   UNL     1     -18.713  31.750 -43.056  1.00  0.00     0.000 C 
BRANCH   3   4
ATOM      4  C   UNL     1     -19.507  30.529 -42.533  1.00  0.00     0.000 C 
BRANCH   4   5
ATOM      5  C   UNL     1     -20.949  30.876 -42.121  1.00  0.00     0.006 C 
BRANCH   5   6
ATOM      6  C   UNL     1     -21.777  29.653 -41.697  1.00  0.00     0.053 C 
BRANCH   6   7
ATOM      7  C   UNL     1     -23.247  29.888 -41.875  1.00  0.00     0.041 C 
ATOM      8  O   UNL     1     -24.025  28.914 -42.062  1.00  0.00    -0.550 OA
ATOM      9  O   UNL     1     -23.756  31.180 -41.861  1.00  0.00    -0.550 OA
ENDBRANCH   6   7
ENDBRANCH   5   6
ENDBRANCH   4   5
ENDBRANCH   3   4
ENDBRANCH   2   3
ENDBRANCH   1   2
BRANCH   1  10
ATOM     10  C   UNL     1     -17.931  31.961 -39.507  1.00  0.00     0.000 C 
BRANCH  10  11
ATOM     11  C   UNL     1     -18.958  33.098 -39.650  1.00  0.00    -0.000 C 
BRANCH  11  12
ATOM     12  C   UNL     1     -20.093  33.010 -38.614  1.00  0.00    -0.000 C 
BRANCH  12  13
ATOM     13  C   UNL     1     -21.438  33.502 -39.172  1.00  0.00    -0.000 C 
BRANCH  13  14
ATOM     14  C   UNL     1     -22.200  34.399 -38.179  1.00  0.00    -0.000 C 
BRANCH  14  15
ATOM     15  C   UNL     1     -23.578  33.830 -37.811  1.00  0.00    -0.003 C 
ATOM     16  C   UNL     1     -23.947  32.597 -38.637  1.00  0.00     0.004 C 
ENDBRANCH  14  15
ENDBRANCH  13  14
ENDBRANCH  12  13
ENDBRANCH  11  12
ENDBRANCH  10  11
ENDBRANCH   1  10
TORSDOF 12
ENDMDL
MODEL 7
REMARK VINA RESULT:    -3.658      2.875      5.138
REMARK INTER + INTRA:          -7.532
REMARK INTER:                  -6.170
REMARK INTRA:                  -1.362
REMARK UNBOUND:                -1.309
REMARK SMILES CCCCCCCCCCCCCC(=O)[O-]
REMARK SMILES IDX 8 1 9 2 10 3 11 4 12 5 13 6 14 7 15 8 16 9 7 10 6 11 5 12
REMARK SMILES IDX 4 13 3 14 2 15 1 16
REMARK H PARENT
REMARK Flexibility Score: inf
ROOT
ATOM      1  C   UNL     1     -19.514  30.405 -42.327  1.00  0.00     0.000 C 
ENDROOT
BRANCH   1   2
ATOM      2  C   UNL     1     -21.028  30.123 -42.441  1.00  0.00     0.000 C 
BRANCH   2   3
ATOM      3  C   UNL     1     -21.891  30.778 -41.346  1.00  0.00     0.000 C 
BRANCH   3   4
ATOM      4  C   UNL     1     -23.131  31.523 -41.896  1.00  0.00     0.000 C 
BRANCH   4   5
ATOM      5  C   UNL     1     -24.274  31.637 -40.872  1.00  0.00     0.006 C 
BRANCH   5   6
ATOM      6  C   UNL     1     -24.817  30.278 -40.404  1.00  0.00     0.053 C 
BRANCH   6   7
ATOM      7  C   UNL     1     -25.366  29.476 -41.545  1.00  0.00     0.041 C 
ATOM      8  O   UNL     1     -26.539  29.682 -41.956  1.00  0.00    -0.550 OA
ATOM      9  O   UNL     1     -24.595  28.483 -42.137  1.00  0.00    -0.550 OA
ENDBRANCH   6   7
ENDBRANCH   5   6
ENDBRANCH   4   5
ENDBRANCH   3   4
ENDBRANCH   2   3
ENDBRANCH   1   2
BRANCH   1  10
ATOM     10  C   UNL     1     -19.135  31.866 -42.014  1.00  0.00     0.000 C 
BRANCH  10  11
ATOM     11  C   UNL     1     -18.049  32.048 -40.938  1.00  0.00    -0.000 C 
BRANCH  11  12
ATOM     12  C   UNL     1     -18.578  32.736 -39.668  1.00  0.00    -0.000 C 
BRANCH  12  13
ATOM     13  C   UNL     1     -19.944  33.405 -39.887  1.00  0.00    -0.000 C 
BRANCH  13  14
ATOM     14  C   UNL     1     -20.625  33.811 -38.567  1.00  0.00    -0.000 C 
BRANCH  14  15
ATOM     15  C   UNL     1     -21.999  33.149 -38.387  1.00  0.00    -0.003 C 
ATOM     16  C   UNL     1     -23.110  34.162 -38.109  1.00  0.00     0.004 C 
ENDBRANCH  14  15
ENDBRANCH  13  14
ENDBRANCH  12  13
ENDBRANCH  11  12
ENDBRANCH  10  11
ENDBRANCH   1  10
TORSDOF 12
ENDMDL
MODEL 8
REMARK VINA RESULT:    -3.651      2.829      5.225
REMARK INTER + INTRA:          -7.522
REMARK INTER:                  -5.541
REMARK INTRA:                  -1.981
REMARK UNBOUND:                -1.309
REMARK SMILES CCCCCCCCCCCCCC(=O)[O-]
REMARK SMILES IDX 8 1 9 2 10 3 11 4 12 5 13 6 14 7 15 8 16 9 7 10 6 11 5 12
REMARK SMILES IDX 4 13 3 14 2 15 1 16
REMARK H PARENT
REMARK Flexibility Score: inf
ROOT
ATOM      1  C   UNL     1     -19.963  30.310 -41.894  1.00  0.00     0.000 C 
ENDROOT
BRANCH   1   2
ATOM      2  C   UNL     1     -19.563  31.800 -41.893  1.00  0.00     0.000 C 
BRANCH   2   3
ATOM      3  C   UNL     1     -19.398  32.424 -40.495  1.00  0.00     0.000 C 
BRANCH   3   4
ATOM      4  C   UNL     1     -20.667  33.148 -39.985  1.00  0.00     0.000 C 
BRANCH   4   5
ATOM      5  C   UNL     1     -20.503  33.736 -38.572  1.00  0.00     0.006 C 
BRANCH   5   6
ATOM      6  C   UNL     1     -21.748  34.483 -38.070  1.00  0.00     0.053 C 
BRANCH   6   7
ATOM      7  C   UNL     1     -22.726  33.556 -37.413  1.00  0.00     0.041 C 
ATOM      8  O   UNL     1     -22.315  32.625 -36.671  1.00  0.00    -0.550 OA
ATOM      9  O   UNL     1     -24.089  33.702 -37.641  1.00  0.00    -0.550 OA
ENDBRANCH   6   7
ENDBRANCH   5   6
ENDBRANCH   4   5
ENDBRANCH   3   4
ENDBRANCH   2   3
ENDBRANCH   1   2
BRANCH   1  10
ATOM     10  C   UNL     1     -21.285  29.979 -42.616  1.00  0.00     0.000 C 
BRANCH  10  11
ATOM     11  C   UNL     1     -22.429  30.984 -42.387  1.00  0.00    -0.000 C 
BRANCH  11  12
ATOM     12  C   UNL     1     -23.560  30.409 -41.516  1.00  0.00    -0.000 C 
BRANCH  12  13
ATOM     13  C   UNL     1     -23.742  31.186 -40.201  1.00  0.00    -0.000 C 
BRANCH  13  14
ATOM     14  C   UNL     1     -23.736  30.270 -38.964  1.00  0.00    -0.000 C 
BRANCH  14  15
ATOM     15  C   UNL     1     -22.599  29.238 -39.003  1.00  0.00    -0.003 C 
ATOM     16  C   UNL     1     -21.276  29.798 -38.480  1.00  0.00     0.004 C 
ENDBRANCH  14  15
ENDBRANCH  13  14
ENDBRANCH  12  13
ENDBRANCH  11  12
ENDBRANCH  10  11
ENDBRANCH   1  10
TORSDOF 12
ENDMDL
MODEL 9
REMARK VINA RESULT:    -3.611      1.462      2.311
REMARK INTER + INTRA:          -7.453
REMARK INTER:                  -5.594
REMARK INTRA:                  -1.859
REMARK UNBOUND:                -1.309
REMARK SMILES CCCCCCCCCCCCCC(=O)[O-]
REMARK SMILES IDX 8 1 9 2 10 3 11 4 12 5 13 6 14 7 15 8 16 9 7 10 6 11 5 12
REMARK SMILES IDX 4 13 3 14 2 15 1 16
REMARK H PARENT
REMARK Flexibility Score: inf
ROOT
ATOM      1  C   UNL     1     -24.671  31.626 -39.604  1.00  0.00     0.000 C 
ENDROOT
BRANCH   1   2
ATOM      2  C   UNL     1     -24.618  31.501 -41.142  1.00  0.00     0.000 C 
BRANCH   2   3
ATOM      3  C   UNL     1     -23.199  31.471 -41.739  1.00  0.00     0.000 C 
BRANCH   3   4
ATOM      4  C   UNL     1     -22.737  30.058 -42.170  1.00  0.00     0.000 C 
BRANCH   4   5
ATOM      5  C   UNL     1     -21.276  30.018 -42.650  1.00  0.00     0.006 C 
BRANCH   5   6
ATOM      6  C   UNL     1     -20.318  30.839 -41.774  1.00  0.00     0.053 C 
BRANCH   6   7
ATOM      7  C   UNL     1     -18.976  31.005 -42.421  1.00  0.00     0.041 C 
ATOM      8  O   UNL     1     -17.983  30.358 -41.993  1.00  0.00    -0.550 OA
ATOM      9  O   UNL     1     -18.814  31.893 -43.476  1.00  0.00    -0.550 OA
ENDBRANCH   6   7
ENDBRANCH   5   6
ENDBRANCH   4   5
ENDBRANCH   3   4
ENDBRANCH   2   3
ENDBRANCH   1   2
BRANCH   1  10
ATOM     10  C   UNL     1     -24.483  30.307 -38.826  1.00  0.00     0.000 C 
BRANCH  10  11
ATOM     11  C   UNL     1     -23.361  30.320 -37.773  1.00  0.00    -0.000 C 
BRANCH  11  12
ATOM     12  C   UNL     1     -21.962  30.148 -38.390  1.00  0.00    -0.000 C 
BRANCH  12  13
ATOM     13  C   UNL     1     -21.041  31.345 -38.105  1.00  0.00    -0.000 C 
BRANCH  13  14
ATOM     14  C   UNL     1     -21.723  32.428 -37.249  1.00  0.00    -0.000 C 
BRANCH  14  15
ATOM     15  C   UNL     1     -21.645  33.820 -37.891  1.00  0.00    -0.003 C 
ATOM     16  C   UNL     1     -21.429  33.761 -39.404  1.00  0.00     0.004 C 
ENDBRANCH  14  15
ENDBRANCH  13  14
ENDBRANCH  12  13
ENDBRANCH  11  12
ENDBRANCH  10  11
ENDBRANCH   1  10
TORSDOF 12
ENDMDL
