MODEL 1
REMARK VINA RESULT:    -4.990      0.000      0.000
REMARK INTER + INTRA:          -7.143
REMARK INTER:                  -6.740
REMARK INTRA:                  -0.404
REMARK UNBOUND:                -0.404
REMARK SMILES CCCCCCC=CC(=O)[O-]
REMARK SMILES IDX 5 1 6 2 7 3 8 4 9 5 10 6 11 7 4 8 3 9 2 10 1 11
REMARK H PARENT
REMARK Flexibility Score: inf
ROOT
ATOM      1  C   UNL     1      25.757  11.315  34.568  1.00  0.00     0.004 C 
ENDROOT
BRANCH   1   2
ATOM      2  C   UNL     1      24.976  11.473  35.884  1.00  0.00     0.027 C 
BRANCH   2   3
ATOM      3  C   UNL     1      23.754  12.336  35.733  1.00  0.00    -0.025 C 
ATOM      4  C   UNL     1      22.558  11.810  35.447  1.00  0.00     0.020 C 
BRANCH   4   5
ATOM      5  C   UNL     1      21.355  12.642  35.300  1.00  0.00     0.064 C 
ATOM      6  O   UNL     1      20.327  12.373  35.975  1.00  0.00    -0.545 OA
ATOM      7  O   UNL     1      21.333  13.722  34.425  1.00  0.00    -0.545 OA
ENDBRANCH   4   5
ENDBRANCH   2   3
ENDBRANCH   1   2
BRANCH   1   8
ATOM      8  C   UNL     1      27.281  11.202  34.749  1.00  0.00     0.000 C 
BRANCH   8   9
ATOM      9  C   UNL     1      28.053  12.280  33.969  1.00  0.00    -0.000 C 
BRANCH   9  10
ATOM     10  C   UNL     1      27.275  13.600  33.864  1.00  0.00    -0.003 C 
ATOM     11  C   UNL     1      27.419  14.470  35.113  1.00  0.00     0.004 C 
ENDBRANCH   9  10
ENDBRANCH   8   9
ENDBRANCH   1   8
TORSDOF 6
ENDMDL
MODEL 2
REMARK VINA RESULT:    -4.959      3.879      5.741
REMARK INTER + INTRA:          -7.103
REMARK INTER:                  -6.698
REMARK INTRA:                  -0.405
REMARK UNBOUND:                -0.404
REMARK SMILES CCCCCCC=CC(=O)[O-]
REMARK SMILES IDX 5 1 6 2 7 3 8 4 9 5 10 6 11 7 4 8 3 9 2 10 1 11
REMARK H PARENT
REMARK Flexibility Score: inf
ROOT
ATOM      1  C   UNL     1      26.342  12.992  35.148  1.00  0.00     0.004 C 
ENDROOT
BRANCH   1   2
ATOM      2  C   UNL     1      27.442  11.915  35.142  1.00  0.00     0.027 C 
BRANCH   2   3
ATOM      3  C   UNL     1      28.088  11.754  33.795  1.00  0.00    -0.025 C 
ATOM      4  C   UNL     1      27.394  11.916  32.663  1.00  0.00     0.020 C 
BRANCH   4   5
ATOM      5  C   UNL     1      28.015  11.764  31.340  1.00  0.00     0.064 C 
ATOM      6  O   UNL     1      27.813  10.714  30.675  1.00  0.00    -0.545 OA
ATOM      7  O   UNL     1      28.825  12.762  30.808  1.00  0.00    -0.545 OA
ENDBRANCH   4   5
ENDBRANCH   2   3
ENDBRANCH   1   2
BRANCH   1   8
ATOM      8  C   UNL     1      25.101  12.622  35.982  1.00  0.00     0.000 C 
BRANCH   8   9
ATOM      9  C   UNL     1      24.743  11.129  35.882  1.00  0.00    -0.000 C 
BRANCH   9  10
ATOM     10  C   UNL     1      23.250  10.900  35.601  1.00  0.00    -0.003 C 
ATOM     11  C   UNL     1      22.473  12.207  35.445  1.00  0.00     0.004 C 
ENDBRANCH   9  10
ENDBRANCH   8   9
ENDBRANCH   1   8
TORSDOF 6
ENDMDL
MODEL 3
REMARK VINA RESULT:    -4.776      1.335      1.767
REMARK INTER + INTRA:          -6.856
REMARK INTER:                  -6.478
REMARK INTRA:                  -0.377
REMARK UNBOUND:                -0.404
REMARK SMILES CCCCCCC=CC(=O)[O-]
REMARK SMILES IDX 5 1 6 2 7 3 8 4 9 5 10 6 11 7 4 8 3 9 2 10 1 11
REMARK H PARENT
REMARK Flexibility Score: inf
ROOT
ATOM      1  C   UNL     1      25.174  11.299  35.809  1.00  0.00     0.004 C 
ENDROOT
BRANCH   1   2
ATOM      2  C   UNL     1      24.223  12.490  35.595  1.00  0.00     0.027 C 
BRANCH   2   3
ATOM      3  C   UNL     1      22.780  12.075  35.531  1.00  0.00    -0.025 C 
ATOM      4  C   UNL     1      22.414  10.795  35.664  1.00  0.00     0.020 C 
BRANCH   4   5
ATOM      5  C   UNL     1      21.007  10.377  35.606  1.00  0.00     0.064 C 
ATOM      6  O   UNL     1      20.726   9.167  35.401  1.00  0.00    -0.545 OA
ATOM      7  O   UNL     1      19.977  11.297  35.774  1.00  0.00    -0.545 OA
ENDBRANCH   4   5
ENDBRANCH   2   3
ENDBRANCH   1   2
BRANCH   1   8
ATOM      8  C   UNL     1      26.270  11.167  34.735  1.00  0.00     0.000 C 
BRANCH   8   9
ATOM      9  C   UNL     1      27.526  11.992  35.065  1.00  0.00    -0.000 C 
BRANCH   9  10
ATOM     10  C   UNL     1      27.577  13.319  34.294  1.00  0.00    -0.003 C 
ATOM     11  C   UNL     1      27.376  14.535  35.198  1.00  0.00     0.004 C 
ENDBRANCH   9  10
ENDBRANCH   8   9
ENDBRANCH   1   8
TORSDOF 6
ENDMDL
MODEL 4
REMARK VINA RESULT:    -4.622      1.565      2.116
REMARK INTER + INTRA:          -6.647
REMARK INTER:                  -6.127
REMARK INTRA:                  -0.520
REMARK UNBOUND:                -0.404
REMARK SMILES CCCCCCC=CC(=O)[O-]
REMARK SMILES IDX 5 1 6 2 7 3 8 4 9 5 10 6 11 7 4 8 3 9 2 10 1 11
REMARK H PARENT
REMARK Flexibility Score: inf
ROOT
ATOM      1  C   UNL     1      27.195  11.118  34.711  1.00  0.00     0.004 C 
ENDROOT
BRANCH   1   2
ATOM      2  C   UNL     1      26.283  12.099  35.469  1.00  0.00     0.027 C 
BRANCH   2   3
ATOM      3  C   UNL     1      24.909  11.541  35.713  1.00  0.00    -0.025 C 
ATOM      4  C   UNL     1      23.808  12.247  35.432  1.00  0.00     0.020 C 
BRANCH   4   5
ATOM      5  C   UNL     1      22.459  11.712  35.663  1.00  0.00     0.064 C 
ATOM      6  O   UNL     1      22.312  10.491  35.935  1.00  0.00    -0.545 OA
ATOM      7  O   UNL     1      21.338  12.532  35.583  1.00  0.00    -0.545 OA
ENDBRANCH   4   5
ENDBRANCH   2   3
ENDBRANCH   1   2
BRANCH   1   8
ATOM      8  C   UNL     1      28.343  11.793  33.938  1.00  0.00     0.000 C 
BRANCH   8   9
ATOM      9  C   UNL     1      27.841  12.683  32.788  1.00  0.00    -0.000 C 
BRANCH   9  10
ATOM     10  C   UNL     1      26.818  11.966  31.894  1.00  0.00    -0.003 C 
ATOM     11  C   UNL     1      25.558  12.798  31.657  1.00  0.00     0.004 C 
ENDBRANCH   9  10
ENDBRANCH   8   9
ENDBRANCH   1   8
TORSDOF 6
ENDMDL
MODEL 5
REMARK VINA RESULT:    -4.610      0.874      1.515
REMARK INTER + INTRA:          -6.630
REMARK INTER:                  -6.310
REMARK INTRA:                  -0.320
REMARK UNBOUND:                -0.404
REMARK SMILES CCCCCCC=CC(=O)[O-]
REMARK SMILES IDX 5 1 6 2 7 3 8 4 9 5 10 6 11 7 4 8 3 9 2 10 1 11
REMARK H PARENT
REMARK Flexibility Score: inf
ROOT
ATOM      1  C   UNL     1      25.056  11.483  35.934  1.00  0.00     0.004 C 
ENDROOT
BRANCH   1   2
ATOM      2  C   UNL     1      23.721  11.180  35.230  1.00  0.00     0.027 C 
BRANCH   2   3
ATOM      3  C   UNL     1      22.779  12.350  35.246  1.00  0.00    -0.025 C 
ATOM      4  C   UNL     1      21.452  12.180  35.269  1.00  0.00     0.020 C 
BRANCH   4   5
ATOM      5  C   UNL     1      20.520  13.316  35.288  1.00  0.00     0.064 C 
ATOM      6  O   UNL     1      20.716  14.293  34.520  1.00  0.00    -0.545 OA
ATOM      7  O   UNL     1      19.424  13.330  36.144  1.00  0.00    -0.545 OA
ENDBRANCH   4   5
ENDBRANCH   2   3
ENDBRANCH   1   2
BRANCH   1   8
ATOM      8  C   UNL     1      26.291  11.369  35.021  1.00  0.00     0.000 C 
BRANCH   8   9
ATOM      9  C   UNL     1      26.292  12.412  33.891  1.00  0.00    -0.000 C 
BRANCH   9  10
ATOM     10  C   UNL     1      27.493  13.366  33.973  1.00  0.00    -0.003 C 
ATOM     11  C   UNL     1      27.334  14.423  35.065  1.00  0.00     0.004 C 
ENDBRANCH   9  10
ENDBRANCH   8   9
ENDBRANCH   1   8
TORSDOF 6
ENDMDL
MODEL 6
REMARK VINA RESULT:    -4.535      3.562      5.898
REMARK INTER + INTRA:          -6.530
REMARK INTER:                  -6.210
REMARK INTRA:                  -0.320
REMARK UNBOUND:                -0.404
REMARK SMILES CCCCCCC=CC(=O)[O-]
REMARK SMILES IDX 5 1 6 2 7 3 8 4 9 5 10 6 11 7 4 8 3 9 2 10 1 11
REMARK H PARENT
REMARK Flexibility Score: inf
ROOT
ATOM      1  C   UNL     1      24.295  12.455  35.874  1.00  0.00     0.004 C 
ENDROOT
BRANCH   1   2
ATOM      2  C   UNL     1      25.140  11.173  35.776  1.00  0.00     0.027 C 
BRANCH   2   3
ATOM      3  C   UNL     1      26.281  11.303  34.806  1.00  0.00    -0.025 C 
ATOM      4  C   UNL     1      26.115  11.863  33.603  1.00  0.00     0.020 C 
BRANCH   4   5
ATOM      5  C   UNL     1      27.224  11.999  32.647  1.00  0.00     0.064 C 
ATOM      6  O   UNL     1      28.013  12.975  32.746  1.00  0.00    -0.545 OA
ATOM      7  O   UNL     1      27.414  11.068  31.632  1.00  0.00    -0.545 OA
ENDBRANCH   4   5
ENDBRANCH   2   3
ENDBRANCH   1   2
BRANCH   1   8
ATOM      8  C   UNL     1      22.811  12.262  35.513  1.00  0.00     0.000 C 
BRANCH   8   9
ATOM      9  C   UNL     1      22.374  10.788  35.572  1.00  0.00    -0.000 C 
BRANCH   9  10
ATOM     10  C   UNL     1      20.846  10.629  35.588  1.00  0.00    -0.003 C 
ATOM     11  C   UNL     1      20.406   9.186  35.832  1.00  0.00     0.004 C 
ENDBRANCH   9  10
ENDBRANCH   8   9
ENDBRANCH   1   8
TORSDOF 6
ENDMDL
MODEL 7
REMARK VINA RESULT:    -4.533      3.493      5.636
REMARK INTER + INTRA:          -6.527
REMARK INTER:                  -6.218
REMARK INTRA:                  -0.309
REMARK UNBOUND:                -0.404
REMARK SMILES CCCCCCC=CC(=O)[O-]
REMARK SMILES IDX 5 1 6 2 7 3 8 4 9 5 10 6 11 7 4 8 3 9 2 10 1 11
REMARK H PARENT
REMARK Flexibility Score: inf
ROOT
ATOM      1  C   UNL     1      23.424  11.097  34.938  1.00  0.00     0.004 C 
ENDROOT
BRANCH   1   2
ATOM      2  C   UNL     1      24.623  11.070  35.903  1.00  0.00     0.027 C 
BRANCH   2   3
ATOM      3  C   UNL     1      25.857  11.692  35.312  1.00  0.00    -0.025 C 
ATOM      4  C   UNL     1      26.385  11.245  34.166  1.00  0.00     0.020 C 
BRANCH   4   5
ATOM      5  C   UNL     1      27.589  11.846  33.576  1.00  0.00     0.064 C 
ATOM      6  O   UNL     1      28.258  12.680  34.242  1.00  0.00    -0.545 OA
ATOM      7  O   UNL     1      28.002  11.511  32.291  1.00  0.00    -0.545 OA
ENDBRANCH   4   5
ENDBRANCH   2   3
ENDBRANCH   1   2
BRANCH   1   8
ATOM      8  C   UNL     1      22.069  10.808  35.609  1.00  0.00     0.000 C 
BRANCH   8   9
ATOM      9  C   UNL     1      21.129  12.025  35.597  1.00  0.00    -0.000 C 
BRANCH   9  10
ATOM     10  C   UNL     1      21.641  13.154  34.689  1.00  0.00    -0.003 C 
ATOM     11  C   UNL     1      20.538  14.132  34.285  1.00  0.00     0.004 C 
ENDBRANCH   9  10
ENDBRANCH   8   9
ENDBRANCH   1   8
TORSDOF 6
ENDMDL
MODEL 8
REMARK VINA RESULT:    -4.508      3.081      5.717
REMARK INTER + INTRA:          -6.493
REMARK INTER:                  -6.237
REMARK INTRA:                  -0.256
REMARK UNBOUND:                -0.404
REMARK SMILES CCCCCCC=CC(=O)[O-]
REMARK SMILES IDX 5 1 6 2 7 3 8 4 9 5 10 6 11 7 4 8 3 9 2 10 1 11
REMARK H PARENT
REMARK Flexibility Score: inf
ROOT
ATOM      1  C   UNL     1      22.368  12.080  35.510  1.00  0.00     0.004 C 
ENDROOT
BRANCH   1   2
ATOM      2  C   UNL     1      23.120  10.763  35.772  1.00  0.00     0.027 C 
BRANCH   2   3
ATOM      3  C   UNL     1      24.610  10.948  35.831  1.00  0.00    -0.025 C 
ATOM      4  C   UNL     1      25.243  11.792  35.009  1.00  0.00     0.020 C 
BRANCH   4   5
ATOM      5  C   UNL     1      26.699  11.985  35.059  1.00  0.00     0.064 C 
ATOM      6  O   UNL     1      27.462  11.002  34.870  1.00  0.00    -0.545 OA
ATOM      7  O   UNL     1      27.248  13.237  35.313  1.00  0.00    -0.545 OA
ENDBRANCH   4   5
ENDBRANCH   2   3
ENDBRANCH   1   2
BRANCH   1   8
ATOM      8  C   UNL     1      20.837  11.967  35.633  1.00  0.00     0.000 C 
BRANCH   8   9
ATOM      9  C   UNL     1      20.133  13.332  35.544  1.00  0.00    -0.000 C 
BRANCH   9  10
ATOM     10  C   UNL     1      20.692  14.210  34.414  1.00  0.00    -0.003 C 
ATOM     11  C   UNL     1      19.933  14.032  33.100  1.00  0.00     0.004 C 
ENDBRANCH   9  10
ENDBRANCH   8   9
ENDBRANCH   1   8
TORSDOF 6
ENDMDL
MODEL 9
REMARK VINA RESULT:    -4.265      3.443      5.496
REMARK INTER + INTRA:          -6.165
REMARK INTER:                  -5.664
REMARK INTRA:                  -0.501
REMARK UNBOUND:                -0.404
REMARK SMILES CCCCCCC=CC(=O)[O-]
REMARK SMILES IDX 5 1 6 2 7 3 8 4 9 5 10 6 11 7 4 8 3 9 2 10 1 11
REMARK H PARENT
REMARK Flexibility Score: inf
ROOT
ATOM      1  C   UNL     1      23.489  11.532  35.512  1.00  0.00     0.004 C 
ENDROOT
BRANCH   1   2
ATOM      2  C   UNL     1      24.665  12.396  36.002  1.00  0.00     0.027 C 
BRANCH   2   3
ATOM      3  C   UNL     1      25.951  12.082  35.291  1.00  0.00    -0.025 C 
ATOM      4  C   UNL     1      25.977  11.808  33.982  1.00  0.00     0.020 C 
BRANCH   4   5
ATOM      5  C   UNL     1      27.229  11.502  33.275  1.00  0.00     0.064 C 
ATOM      6  O   UNL     1      27.203  11.274  32.037  1.00  0.00    -0.545 OA
ATOM      7  O   UNL     1      28.443  11.459  33.951  1.00  0.00    -0.545 OA
ENDBRANCH   4   5
ENDBRANCH   2   3
ENDBRANCH   1   2
BRANCH   1   8
ATOM      8  C   UNL     1      22.130  12.256  35.515  1.00  0.00     0.000 C 
BRANCH   8   9
ATOM      9  C   UNL     1      21.807  12.919  34.165  1.00  0.00    -0.000 C 
BRANCH   9  10
ATOM     10  C   UNL     1      22.483  12.205  32.984  1.00  0.00    -0.003 C 
ATOM     11  C   UNL     1      21.529  11.281  32.230  1.00  0.00     0.004 C 
ENDBRANCH   9  10
ENDBRANCH   8   9
ENDBRANCH   1   8
TORSDOF 6
ENDMDL
