MODEL 1
REMARK VINA RESULT:    -4.949      0.000      0.000
REMARK INTER + INTRA:          -4.949
REMARK INTER:                  -4.949
REMARK INTRA:                   0.000
REMARK UNBOUND:                 0.000
REMARK SMILES O=c1ccc2ccc3occc3c2o1
REMARK SMILES IDX 6 1 7 2 8 3 12 4 11 5 10 6 9 7 13 8 5 9 4 10 3 11 2 12 1 13
REMARK SMILES IDX 14 14
REMARK H PARENT
REMARK Flexibility Score: inf
ROOT
ATOM      1  C   UNL     1     -60.367  18.560 -16.675  1.00  0.00     0.016 A 
ATOM      2  C   UNL     1     -59.256  19.370 -16.370  1.00  0.00     0.048 A 
ATOM      3  C   UNL     1     -58.036  19.061 -16.970  1.00  0.00     0.137 A 
ATOM      4  C   UNL     1     -57.899  18.005 -17.831  1.00  0.00     0.064 A 
ATOM      5  C   UNL     1     -56.584  17.985 -18.234  1.00  0.00     0.054 A 
ATOM      6  C   UNL     1     -55.998  19.057 -17.570  1.00  0.00     0.196 A 
ATOM      7  O   UNL     1     -56.891  19.681 -16.822  1.00  0.00    -0.464 OA
ATOM      8  C   UNL     1     -58.974  17.181 -18.157  1.00  0.00     0.149 A 
ATOM      9  C   UNL     1     -60.232  17.468 -17.566  1.00  0.00     0.018 A 
ATOM     10  C   UNL     1     -61.313  16.644 -17.889  1.00  0.00     0.019 A 
ATOM     11  C   UNL     1     -61.125  15.581 -18.774  1.00  0.00     0.094 A 
ATOM     12  C   UNL     1     -59.853  15.362 -19.317  1.00  0.00     0.336 A 
ATOM     13  O   UNL     1     -59.668  14.408 -20.116  1.00  0.00    -0.246 OA
ATOM     14  O   UNL     1     -58.836  16.158 -18.996  1.00  0.00    -0.422 OA
ENDROOT
TORSDOF 0
ENDMDL
MODEL 2
REMARK VINA RESULT:    -4.810      1.596      4.065
REMARK INTER + INTRA:          -4.810
REMARK INTER:                  -4.810
REMARK INTRA:                   0.000
REMARK UNBOUND:                 0.000
REMARK SMILES O=c1ccc2ccc3occc3c2o1
REMARK SMILES IDX 6 1 7 2 8 3 12 4 11 5 10 6 9 7 13 8 5 9 4 10 3 11 2 12 1 13
REMARK SMILES IDX 14 14
REMARK H PARENT
REMARK Flexibility Score: inf
ROOT
ATOM      1  C   UNL     1     -58.944  19.009 -16.735  1.00  0.00     0.016 A 
ATOM      2  C   UNL     1     -60.226  18.429 -16.771  1.00  0.00     0.048 A 
ATOM      3  C   UNL     1     -60.452  17.393 -17.675  1.00  0.00     0.137 A 
ATOM      4  C   UNL     1     -59.470  16.937 -18.514  1.00  0.00     0.064 A 
ATOM      5  C   UNL     1     -60.021  15.923 -19.263  1.00  0.00     0.054 A 
ATOM      6  C   UNL     1     -61.335  15.833 -18.815  1.00  0.00     0.196 A 
ATOM      7  O   UNL     1     -61.563  16.724 -17.867  1.00  0.00    -0.464 OA
ATOM      8  C   UNL     1     -58.189  17.484 -18.508  1.00  0.00     0.149 A 
ATOM      9  C   UNL     1     -57.924  18.541 -17.599  1.00  0.00     0.018 A 
ATOM     10  C   UNL     1     -56.641  19.095 -17.590  1.00  0.00     0.019 A 
ATOM     11  C   UNL     1     -55.673  18.595 -18.463  1.00  0.00     0.094 A 
ATOM     12  C   UNL     1     -56.010  17.550 -19.331  1.00  0.00     0.336 A 
ATOM     13  O   UNL     1     -55.148  17.089 -20.123  1.00  0.00    -0.246 OA
ATOM     14  O   UNL     1     -57.238  17.036 -19.324  1.00  0.00    -0.422 OA
ENDROOT
TORSDOF 0
ENDMDL
MODEL 3
REMARK VINA RESULT:    -4.729     18.150     20.080
REMARK INTER + INTRA:          -4.729
REMARK INTER:                  -4.729
REMARK INTRA:                   0.000
REMARK UNBOUND:                 0.000
REMARK SMILES O=c1ccc2ccc3occc3c2o1
REMARK SMILES IDX 6 1 7 2 8 3 12 4 11 5 10 6 9 7 13 8 5 9 4 10 3 11 2 12 1 13
REMARK SMILES IDX 14 14
REMARK H PARENT
REMARK Flexibility Score: inf
ROOT
ATOM      1  C   UNL     1     -46.066  23.033  -6.231  1.00  0.00     0.016 A 
ATOM      2  C   UNL     1     -47.109  22.407  -5.523  1.00  0.00     0.048 A 
ATOM      3  C   UNL     1     -47.696  23.103  -4.467  1.00  0.00     0.137 A 
ATOM      4  C   UNL     1     -47.283  24.360  -4.111  1.00  0.00     0.064 A 
ATOM      5  C   UNL     1     -48.062  24.750  -3.046  1.00  0.00     0.054 A 
ATOM      6  C   UNL     1     -48.914  23.674  -2.823  1.00  0.00     0.196 A 
ATOM      7  O   UNL     1     -48.671  22.705  -3.688  1.00  0.00    -0.464 OA
ATOM      8  C   UNL     1     -46.254  25.012  -4.787  1.00  0.00     0.149 A 
ATOM      9  C   UNL     1     -45.636  24.333  -5.868  1.00  0.00     0.018 A 
ATOM     10  C   UNL     1     -44.603  24.982  -6.548  1.00  0.00     0.019 A 
ATOM     11  C   UNL     1     -44.218  26.263  -6.149  1.00  0.00     0.094 A 
ATOM     12  C   UNL     1     -44.877  26.870  -5.073  1.00  0.00     0.336 A 
ATOM     13  O   UNL     1     -44.542  28.024  -4.701  1.00  0.00    -0.246 OA
ATOM     14  O   UNL     1     -45.859  26.234  -4.438  1.00  0.00    -0.422 OA
ENDROOT
TORSDOF 0
ENDMDL
MODEL 4
REMARK VINA RESULT:    -4.677      1.713      2.924
REMARK INTER + INTRA:          -4.677
REMARK INTER:                  -4.677
REMARK INTRA:                   0.000
REMARK UNBOUND:                 0.000
REMARK SMILES O=c1ccc2ccc3occc3c2o1
REMARK SMILES IDX 6 1 7 2 8 3 12 4 11 5 10 6 9 7 13 8 5 9 4 10 3 11 2 12 1 13
REMARK SMILES IDX 14 14
REMARK H PARENT
REMARK Flexibility Score: inf
ROOT
ATOM      1  C   UNL     1     -57.022  19.375 -16.902  1.00  0.00     0.016 A 
ATOM      2  C   UNL     1     -55.822  18.905 -17.471  1.00  0.00     0.048 A 
ATOM      3  C   UNL     1     -55.870  17.733 -18.224  1.00  0.00     0.137 A 
ATOM      4  C   UNL     1     -57.037  17.042 -18.416  1.00  0.00     0.064 A 
ATOM      5  C   UNL     1     -56.732  15.949 -19.195  1.00  0.00     0.054 A 
ATOM      6  C   UNL     1     -55.365  16.056 -19.427  1.00  0.00     0.196 A 
ATOM      7  O   UNL     1     -54.878  17.131 -18.833  1.00  0.00    -0.464 OA
ATOM      8  C   UNL     1     -58.243  17.475 -17.869  1.00  0.00     0.149 A 
ATOM      9  C   UNL     1     -58.231  18.665 -17.098  1.00  0.00     0.018 A 
ATOM     10  C   UNL     1     -59.438  19.103 -16.546  1.00  0.00     0.019 A 
ATOM     11  C   UNL     1     -60.602  18.365 -16.771  1.00  0.00     0.094 A 
ATOM     12  C   UNL     1     -60.533  17.200 -17.544  1.00  0.00     0.336 A 
ATOM     13  O   UNL     1     -61.573  16.525 -17.755  1.00  0.00    -0.246 OA
ATOM     14  O   UNL     1     -59.374  16.800 -18.060  1.00  0.00    -0.422 OA
ENDROOT
TORSDOF 0
ENDMDL
MODEL 5
REMARK VINA RESULT:    -4.650      8.586      9.931
REMARK INTER + INTRA:          -4.650
REMARK INTER:                  -4.650
REMARK INTRA:                   0.000
REMARK UNBOUND:                 0.000
REMARK SMILES O=c1ccc2ccc3occc3c2o1
REMARK SMILES IDX 6 1 7 2 8 3 12 4 11 5 10 6 9 7 13 8 5 9 4 10 3 11 2 12 1 13
REMARK SMILES IDX 14 14
REMARK H PARENT
REMARK Flexibility Score: inf
ROOT
ATOM      1  C   UNL     1     -58.193  27.659 -16.751  1.00  0.00     0.016 A 
ATOM      2  C   UNL     1     -59.367  27.980 -16.042  1.00  0.00     0.048 A 
ATOM      3  C   UNL     1     -59.645  27.267 -14.877  1.00  0.00     0.137 A 
ATOM      4  C   UNL     1     -58.815  26.279 -14.417  1.00  0.00     0.064 A 
ATOM      5  C   UNL     1     -59.379  25.789 -13.262  1.00  0.00     0.054 A 
ATOM      6  C   UNL     1     -60.542  26.532 -13.097  1.00  0.00     0.196 A 
ATOM      7  O   UNL     1     -60.674  27.407 -14.078  1.00  0.00    -0.464 OA
ATOM      8  C   UNL     1     -57.646  25.933 -15.090  1.00  0.00     0.149 A 
ATOM      9  C   UNL     1     -57.331  26.639 -16.280  1.00  0.00     0.018 A 
ATOM     10  C   UNL     1     -56.160  26.295 -16.959  1.00  0.00     0.019 A 
ATOM     11  C   UNL     1     -55.345  25.281 -16.451  1.00  0.00     0.094 A 
ATOM     12  C   UNL     1     -55.723  24.629 -15.270  1.00  0.00     0.336 A 
ATOM     13  O   UNL     1     -54.999  23.714 -14.799  1.00  0.00    -0.246 OA
ATOM     14  O   UNL     1     -56.843  24.973 -14.638  1.00  0.00    -0.422 OA
ENDROOT
TORSDOF 0
ENDMDL
MODEL 6
REMARK VINA RESULT:    -4.526      8.313      9.605
REMARK INTER + INTRA:          -4.526
REMARK INTER:                  -4.526
REMARK INTRA:                   0.000
REMARK UNBOUND:                 0.000
REMARK SMILES O=c1ccc2ccc3occc3c2o1
REMARK SMILES IDX 6 1 7 2 8 3 12 4 11 5 10 6 9 7 13 8 5 9 4 10 3 11 2 12 1 13
REMARK SMILES IDX 14 14
REMARK H PARENT
REMARK Flexibility Score: inf
ROOT
ATOM      1  C   UNL     1     -56.147  26.366 -17.063  1.00  0.00     0.016 A 
ATOM      2  C   UNL     1     -55.240  25.379 -16.632  1.00  0.00     0.048 A 
ATOM      3  C   UNL     1     -55.546  24.669 -15.471  1.00  0.00     0.137 A 
ATOM      4  C   UNL     1     -56.688  24.909 -14.755  1.00  0.00     0.064 A 
ATOM      5  C   UNL     1     -56.678  24.047 -13.684  1.00  0.00     0.054 A 
ATOM      6  C   UNL     1     -55.499  23.324 -13.828  1.00  0.00     0.196 A 
ATOM      7  O   UNL     1     -54.843  23.719 -14.905  1.00  0.00    -0.464 OA
ATOM      8  C   UNL     1     -57.609  25.877 -15.149  1.00  0.00     0.149 A 
ATOM      9  C   UNL     1     -57.331  26.618 -16.326  1.00  0.00     0.018 A 
ATOM     10  C   UNL     1     -58.251  27.591 -16.725  1.00  0.00     0.019 A 
ATOM     11  C   UNL     1     -59.402  27.799 -15.962  1.00  0.00     0.094 A 
ATOM     12  C   UNL     1     -59.608  27.027 -14.812  1.00  0.00     0.336 A 
ATOM     13  O   UNL     1     -60.640  27.203 -14.115  1.00  0.00    -0.246 OA
ATOM     14  O   UNL     1     -58.718  26.106 -14.450  1.00  0.00    -0.422 OA
ENDROOT
TORSDOF 0
ENDMDL
MODEL 7
REMARK VINA RESULT:    -4.461     17.977     19.067
REMARK INTER + INTRA:          -4.461
REMARK INTER:                  -4.461
REMARK INTRA:                   0.000
REMARK UNBOUND:                 0.000
REMARK SMILES O=c1ccc2ccc3occc3c2o1
REMARK SMILES IDX 6 1 7 2 8 3 12 4 11 5 10 6 9 7 13 8 5 9 4 10 3 11 2 12 1 13
REMARK SMILES IDX 14 14
REMARK H PARENT
REMARK Flexibility Score: inf
ROOT
ATOM      1  C   UNL     1     -45.737  25.512  -5.288  1.00  0.00     0.016 A 
ATOM      2  C   UNL     1     -45.004  24.923  -6.336  1.00  0.00     0.048 A 
ATOM      3  C   UNL     1     -45.249  23.584  -6.636  1.00  0.00     0.137 A 
ATOM      4  C   UNL     1     -46.171  22.844  -5.944  1.00  0.00     0.064 A 
ATOM      5  C   UNL     1     -46.161  21.581  -6.490  1.00  0.00     0.054 A 
ATOM      6  C   UNL     1     -45.209  21.644  -7.502  1.00  0.00     0.196 A 
ATOM      7  O   UNL     1     -44.681  22.854  -7.564  1.00  0.00    -0.464 OA
ATOM      8  C   UNL     1     -46.915  23.390  -4.901  1.00  0.00     0.149 A 
ATOM      9  C   UNL     1     -46.692  24.751  -4.569  1.00  0.00     0.018 A 
ATOM     10  C   UNL     1     -47.436  25.304  -3.523  1.00  0.00     0.019 A 
ATOM     11  C   UNL     1     -48.364  24.510  -2.849  1.00  0.00     0.094 A 
ATOM     12  C   UNL     1     -48.529  23.174  -3.235  1.00  0.00     0.336 A 
ATOM     13  O   UNL     1     -49.362  22.445  -2.636  1.00  0.00    -0.246 OA
ATOM     14  O   UNL     1     -47.810  22.667  -4.234  1.00  0.00    -0.422 OA
ENDROOT
TORSDOF 0
ENDMDL
MODEL 8
REMARK VINA RESULT:    -4.455      9.109      9.724
REMARK INTER + INTRA:          -4.455
REMARK INTER:                  -4.455
REMARK INTRA:                   0.000
REMARK UNBOUND:                 0.000
REMARK SMILES O=c1ccc2ccc3occc3c2o1
REMARK SMILES IDX 6 1 7 2 8 3 12 4 11 5 10 6 9 7 13 8 5 9 4 10 3 11 2 12 1 13
REMARK SMILES IDX 14 14
REMARK H PARENT
REMARK Flexibility Score: inf
ROOT
ATOM      1  C   UNL     1     -59.278  27.578 -15.864  1.00  0.00     0.016 A 
ATOM      2  C   UNL     1     -58.256  27.509 -16.831  1.00  0.00     0.048 A 
ATOM      3  C   UNL     1     -57.183  26.653 -16.590  1.00  0.00     0.137 A 
ATOM      4  C   UNL     1     -57.104  25.893 -15.453  1.00  0.00     0.064 A 
ATOM      5  C   UNL     1     -55.934  25.173 -15.533  1.00  0.00     0.054 A 
ATOM      6  C   UNL     1     -55.369  25.557 -16.745  1.00  0.00     0.196 A 
ATOM      7  O   UNL     1     -56.138  26.443 -17.353  1.00  0.00    -0.464 OA
ATOM      8  C   UNL     1     -58.094  25.934 -14.474  1.00  0.00     0.149 A 
ATOM      9  C   UNL     1     -59.201  26.794 -14.687  1.00  0.00     0.018 A 
ATOM     10  C   UNL     1     -60.197  26.840 -13.708  1.00  0.00     0.019 A 
ATOM     11  C   UNL     1     -60.073  26.045 -12.567  1.00  0.00     0.094 A 
ATOM     12  C   UNL     1     -58.949  25.221 -12.428  1.00  0.00     0.336 A 
ATOM     13  O   UNL     1     -58.823  24.499 -11.405  1.00  0.00    -0.246 OA
ATOM     14  O   UNL     1     -58.012  25.192 -13.372  1.00  0.00    -0.422 OA
ENDROOT
TORSDOF 0
ENDMDL
MODEL 9
REMARK VINA RESULT:    -4.345      8.138      9.411
REMARK INTER + INTRA:          -4.345
REMARK INTER:                  -4.345
REMARK INTRA:                   0.000
REMARK UNBOUND:                 0.000
REMARK SMILES O=c1ccc2ccc3occc3c2o1
REMARK SMILES IDX 6 1 7 2 8 3 12 4 11 5 10 6 9 7 13 8 5 9 4 10 3 11 2 12 1 13
REMARK SMILES IDX 14 14
REMARK H PARENT
REMARK Flexibility Score: inf
ROOT
ATOM      1  C   UNL     1     -55.639  25.386 -16.403  1.00  0.00     0.016 A 
ATOM      2  C   UNL     1     -56.281  26.509 -16.960  1.00  0.00     0.048 A 
ATOM      3  C   UNL     1     -57.459  26.954 -16.362  1.00  0.00     0.137 A 
ATOM      4  C   UNL     1     -57.996  26.331 -15.267  1.00  0.00     0.064 A 
ATOM      5  C   UNL     1     -59.142  27.016 -14.939  1.00  0.00     0.054 A 
ATOM      6  C   UNL     1     -59.225  28.034 -15.883  1.00  0.00     0.196 A 
ATOM      7  O   UNL     1     -58.205  27.970 -16.721  1.00  0.00    -0.464 OA
ATOM      8  C   UNL     1     -57.391  25.217 -14.688  1.00  0.00     0.149 A 
ATOM      9  C   UNL     1     -56.189  24.739 -15.270  1.00  0.00     0.018 A 
ATOM     10  C   UNL     1     -55.578  23.621 -14.693  1.00  0.00     0.019 A 
ATOM     11  C   UNL     1     -56.163  23.021 -13.577  1.00  0.00     0.094 A 
ATOM     12  C   UNL     1     -57.350  23.552 -13.059  1.00  0.00     0.336 A 
ATOM     13  O   UNL     1     -57.889  23.023 -12.053  1.00  0.00    -0.246 OA
ATOM     14  O   UNL     1     -57.916  24.617 -13.623  1.00  0.00    -0.422 OA
ENDROOT
TORSDOF 0
ENDMDL
