MODEL 1
REMARK VINA RESULT:    -5.682      0.000      0.000
REMARK INTER + INTRA:          -5.682
REMARK INTER:                  -5.682
REMARK INTRA:                   0.000
REMARK UNBOUND:                 0.000
REMARK SMILES O=c1ccc2ccccc2o1
REMARK SMILES IDX 7 1 8 2 9 3 10 4 5 5 6 6 4 7 3 8 2 9 1 10 11 11
REMARK H PARENT
REMARK Flexibility Score: inf
ROOT
ATOM      1  C   UNL     1      50.123  61.375  94.120  1.00  0.00     0.001 A 
ATOM      2  C   UNL     1      49.416  60.474  94.924  1.00  0.00     0.004 A 
ATOM      3  C   UNL     1      49.760  59.118  94.931  1.00  0.00     0.048 A 
ATOM      4  C   UNL     1      50.815  58.658  94.133  1.00  0.00     0.138 A 
ATOM      5  C   UNL     1      51.529  59.568  93.321  1.00  0.00     0.018 A 
ATOM      6  C   UNL     1      51.179  60.926  93.319  1.00  0.00     0.012 A 
ATOM      7  C   UNL     1      52.576  59.080  92.535  1.00  0.00     0.019 A 
ATOM      8  C   UNL     1      52.884  57.720  92.574  1.00  0.00     0.094 A 
ATOM      9  C   UNL     1      52.133  56.877  93.401  1.00  0.00     0.336 A 
ATOM     10  O   UNL     1      52.396  55.647  93.449  1.00  0.00    -0.246 OA
ATOM     11  O   UNL     1      51.141  57.368  94.139  1.00  0.00    -0.423 OA
ENDROOT
TORSDOF 0
ENDMDL
MODEL 2
REMARK VINA RESULT:    -5.616      8.567      9.431
REMARK INTER + INTRA:          -5.616
REMARK INTER:                  -5.616
REMARK INTRA:                   0.000
REMARK UNBOUND:                 0.000
REMARK SMILES O=c1ccc2ccccc2o1
REMARK SMILES IDX 7 1 8 2 9 3 10 4 5 5 6 6 4 7 3 8 2 9 1 10 11 11
REMARK H PARENT
REMARK Flexibility Score: inf
ROOT
ATOM      1  C   UNL     1      52.606  67.913  94.884  1.00  0.00     0.001 A 
ATOM      2  C   UNL     1      52.720  67.376  93.597  1.00  0.00     0.004 A 
ATOM      3  C   UNL     1      51.572  67.032  92.874  1.00  0.00     0.048 A 
ATOM      4  C   UNL     1      50.305  67.225  93.437  1.00  0.00     0.138 A 
ATOM      5  C   UNL     1      50.191  67.768  94.737  1.00  0.00     0.018 A 
ATOM      6  C   UNL     1      51.345  68.111  95.456  1.00  0.00     0.012 A 
ATOM      7  C   UNL     1      48.912  67.949  95.273  1.00  0.00     0.019 A 
ATOM      8  C   UNL     1      47.796  67.592  94.517  1.00  0.00     0.094 A 
ATOM      9  C   UNL     1      47.986  67.059  93.237  1.00  0.00     0.336 A 
ATOM     10  O   UNL     1      46.992  66.731  92.539  1.00  0.00    -0.246 OA
ATOM     11  O   UNL     1      49.214  66.898  92.750  1.00  0.00    -0.423 OA
ENDROOT
TORSDOF 0
ENDMDL
MODEL 3
REMARK VINA RESULT:    -5.465      8.055      8.883
REMARK INTER + INTRA:          -5.465
REMARK INTER:                  -5.465
REMARK INTRA:                   0.000
REMARK UNBOUND:                 0.000
REMARK SMILES O=c1ccc2ccccc2o1
REMARK SMILES IDX 7 1 8 2 9 3 10 4 5 5 6 6 4 7 3 8 2 9 1 10 11 11
REMARK H PARENT
REMARK Flexibility Score: inf
ROOT
ATOM      1  C   UNL     1      47.418  66.634  90.887  1.00  0.00     0.001 A 
ATOM      2  C   UNL     1      47.433  65.935  92.098  1.00  0.00     0.004 A 
ATOM      3  C   UNL     1      48.570  65.964  92.914  1.00  0.00     0.048 A 
ATOM      4  C   UNL     1      49.697  66.695  92.520  1.00  0.00     0.138 A 
ATOM      5  C   UNL     1      49.682  67.401  91.296  1.00  0.00     0.018 A 
ATOM      6  C   UNL     1      48.540  67.368  90.483  1.00  0.00     0.012 A 
ATOM      7  C   UNL     1      50.822  68.121  90.929  1.00  0.00     0.019 A 
ATOM      8  C   UNL     1      51.933  68.122  91.773  1.00  0.00     0.094 A 
ATOM      9  C   UNL     1      51.876  67.399  92.969  1.00  0.00     0.336 A 
ATOM     10  O   UNL     1      52.867  67.387  93.744  1.00  0.00    -0.246 OA
ATOM     11  O   UNL     1      50.778  66.722  93.295  1.00  0.00    -0.423 OA
ENDROOT
TORSDOF 0
ENDMDL
MODEL 4
REMARK VINA RESULT:    -5.459      2.006      4.382
REMARK INTER + INTRA:          -5.459
REMARK INTER:                  -5.459
REMARK INTRA:                   0.000
REMARK UNBOUND:                 0.000
REMARK SMILES O=c1ccc2ccccc2o1
REMARK SMILES IDX 7 1 8 2 9 3 10 4 5 5 6 6 4 7 3 8 2 9 1 10 11 11
REMARK H PARENT
REMARK Flexibility Score: inf
ROOT
ATOM      1  C   UNL     1      52.592  57.058  93.685  1.00  0.00     0.001 A 
ATOM      2  C   UNL     1      53.143  57.956  92.765  1.00  0.00     0.004 A 
ATOM      3  C   UNL     1      52.580  59.226  92.597  1.00  0.00     0.048 A 
ATOM      4  C   UNL     1      51.462  59.602  93.352  1.00  0.00     0.138 A 
ATOM      5  C   UNL     1      50.907  58.695  94.282  1.00  0.00     0.018 A 
ATOM      6  C   UNL     1      51.475  57.424  94.445  1.00  0.00     0.012 A 
ATOM      7  C   UNL     1      49.791  59.099  95.022  1.00  0.00     0.019 A 
ATOM      8  C   UNL     1      49.263  60.374  94.822  1.00  0.00     0.094 A 
ATOM      9  C   UNL     1      49.866  61.219  93.883  1.00  0.00     0.336 A 
ATOM     10  O   UNL     1      49.404  62.373  93.689  1.00  0.00    -0.246 OA
ATOM     11  O   UNL     1      50.927  60.810  93.193  1.00  0.00    -0.423 OA
ENDROOT
TORSDOF 0
ENDMDL
MODEL 5
REMARK VINA RESULT:    -5.440      2.213      4.202
REMARK INTER + INTRA:          -5.440
REMARK INTER:                  -5.440
REMARK INTRA:                   0.000
REMARK UNBOUND:                 0.000
REMARK SMILES O=c1ccc2ccccc2o1
REMARK SMILES IDX 7 1 8 2 9 3 10 4 5 5 6 6 4 7 3 8 2 9 1 10 11 11
REMARK H PARENT
REMARK Flexibility Score: inf
ROOT
ATOM      1  C   UNL     1      50.725  56.618  92.615  1.00  0.00     0.001 A 
ATOM      2  C   UNL     1      52.001  56.734  92.056  1.00  0.00     0.004 A 
ATOM      3  C   UNL     1      52.667  57.965  92.072  1.00  0.00     0.048 A 
ATOM      4  C   UNL     1      52.057  59.084  92.649  1.00  0.00     0.138 A 
ATOM      5  C   UNL     1      50.768  58.967  93.215  1.00  0.00     0.018 A 
ATOM      6  C   UNL     1      50.105  57.731  93.196  1.00  0.00     0.012 A 
ATOM      7  C   UNL     1      50.184  60.102  93.785  1.00  0.00     0.019 A 
ATOM      8  C   UNL     1      50.884  61.308  93.778  1.00  0.00     0.094 A 
ATOM      9  C   UNL     1      52.158  61.350  93.199  1.00  0.00     0.336 A 
ATOM     10  O   UNL     1      52.805  62.429  93.184  1.00  0.00    -0.246 OA
ATOM     11  O   UNL     1      52.691  60.254  92.664  1.00  0.00    -0.423 OA
ENDROOT
TORSDOF 0
ENDMDL
MODEL 6
REMARK VINA RESULT:    -5.420      8.350      8.990
REMARK INTER + INTRA:          -5.420
REMARK INTER:                  -5.420
REMARK INTRA:                   0.000
REMARK UNBOUND:                 0.000
REMARK SMILES O=c1ccc2ccccc2o1
REMARK SMILES IDX 7 1 8 2 9 3 10 4 5 5 6 6 4 7 3 8 2 9 1 10 11 11
REMARK H PARENT
REMARK Flexibility Score: inf
ROOT
ATOM      1  C   UNL     1      47.810  67.048  93.736  1.00  0.00     0.001 A 
ATOM      2  C   UNL     1      48.304  66.531  92.534  1.00  0.00     0.004 A 
ATOM      3  C   UNL     1      49.680  66.524  92.283  1.00  0.00     0.048 A 
ATOM      4  C   UNL     1      50.569  67.036  93.237  1.00  0.00     0.138 A 
ATOM      5  C   UNL     1      50.069  67.558  94.451  1.00  0.00     0.018 A 
ATOM      6  C   UNL     1      48.689  67.562  94.696  1.00  0.00     0.012 A 
ATOM      7  C   UNL     1      50.981  68.062  95.384  1.00  0.00     0.019 A 
ATOM      8  C   UNL     1      52.344  68.035  95.092  1.00  0.00     0.094 A 
ATOM      9  C   UNL     1      52.766  67.503  93.868  1.00  0.00     0.336 A 
ATOM     10  O   UNL     1      53.992  67.470  93.586  1.00  0.00    -0.246 OA
ATOM     11  O   UNL     1      51.878  67.029  92.998  1.00  0.00    -0.423 OA
ENDROOT
TORSDOF 0
ENDMDL
MODEL 7
REMARK VINA RESULT:    -5.301      9.110      9.333
REMARK INTER + INTRA:          -5.301
REMARK INTER:                  -5.301
REMARK INTRA:                   0.000
REMARK UNBOUND:                 0.000
REMARK SMILES O=c1ccc2ccccc2o1
REMARK SMILES IDX 7 1 8 2 9 3 10 4 5 5 6 6 4 7 3 8 2 9 1 10 11 11
REMARK H PARENT
REMARK Flexibility Score: inf
ROOT
ATOM      1  C   UNL     1      52.542  67.812  94.516  1.00  0.00     0.001 A 
ATOM      2  C   UNL     1      51.420  67.869  95.349  1.00  0.00     0.004 A 
ATOM      3  C   UNL     1      50.134  67.773  94.805  1.00  0.00     0.048 A 
ATOM      4  C   UNL     1      49.967  67.619  93.423  1.00  0.00     0.138 A 
ATOM      5  C   UNL     1      51.101  67.561  92.582  1.00  0.00     0.018 A 
ATOM      6  C   UNL     1      52.387  67.658  93.133  1.00  0.00     0.012 A 
ATOM      7  C   UNL     1      50.903  67.407  91.207  1.00  0.00     0.019 A 
ATOM      8  C   UNL     1      49.603  67.316  90.709  1.00  0.00     0.094 A 
ATOM      9  C   UNL     1      48.528  67.382  91.602  1.00  0.00     0.336 A 
ATOM     10  O   UNL     1      47.348  67.302  91.172  1.00  0.00    -0.246 OA
ATOM     11  O   UNL     1      48.744  67.528  92.907  1.00  0.00    -0.423 OA
ENDROOT
TORSDOF 0
ENDMDL
MODEL 8
REMARK VINA RESULT:    -5.270     10.637     11.280
REMARK INTER + INTRA:          -5.270
REMARK INTER:                  -5.270
REMARK INTRA:                   0.000
REMARK UNBOUND:                 0.000
REMARK SMILES O=c1ccc2ccccc2o1
REMARK SMILES IDX 7 1 8 2 9 3 10 4 5 5 6 6 4 7 3 8 2 9 1 10 11 11
REMARK H PARENT
REMARK Flexibility Score: inf
ROOT
ATOM      1  C   UNL     1      53.046  47.875  91.474  1.00  0.00     0.001 A 
ATOM      2  C   UNL     1      52.346  48.227  92.633  1.00  0.00     0.004 A 
ATOM      3  C   UNL     1      53.042  48.587  93.792  1.00  0.00     0.048 A 
ATOM      4  C   UNL     1      54.442  48.597  93.796  1.00  0.00     0.138 A 
ATOM      5  C   UNL     1      55.148  48.242  92.624  1.00  0.00     0.018 A 
ATOM      6  C   UNL     1      54.446  47.882  91.465  1.00  0.00     0.012 A 
ATOM      7  C   UNL     1      56.545  48.262  92.658  1.00  0.00     0.019 A 
ATOM      8  C   UNL     1      57.197  48.628  93.836  1.00  0.00     0.094 A 
ATOM      9  C   UNL     1      56.431  48.966  94.957  1.00  0.00     0.336 A 
ATOM     10  O   UNL     1      57.001  49.299  96.029  1.00  0.00    -0.246 OA
ATOM     11  O   UNL     1      55.102  48.940  94.899  1.00  0.00    -0.423 OA
ENDROOT
TORSDOF 0
ENDMDL
MODEL 9
REMARK VINA RESULT:    -5.239     10.719     11.275
REMARK INTER + INTRA:          -5.239
REMARK INTER:                  -5.239
REMARK INTRA:                   0.000
REMARK UNBOUND:                 0.000
REMARK SMILES O=c1ccc2ccccc2o1
REMARK SMILES IDX 7 1 8 2 9 3 10 4 5 5 6 6 4 7 3 8 2 9 1 10 11 11
REMARK H PARENT
REMARK Flexibility Score: inf
ROOT
ATOM      1  C   UNL     1      57.046  48.625  93.758  1.00  0.00     0.001 A 
ATOM      2  C   UNL     1      56.357  48.998  94.917  1.00  0.00     0.004 A 
ATOM      3  C   UNL     1      54.958  48.998  94.934  1.00  0.00     0.048 A 
ATOM      4  C   UNL     1      54.243  48.622  93.791  1.00  0.00     0.138 A 
ATOM      5  C   UNL     1      54.939  48.245  92.621  1.00  0.00     0.018 A 
ATOM      6  C   UNL     1      56.341  48.248  92.609  1.00  0.00     0.012 A 
ATOM      7  C   UNL     1      54.198  47.875  91.495  1.00  0.00     0.019 A 
ATOM      8  C   UNL     1      52.804  47.889  91.558  1.00  0.00     0.094 A 
ATOM      9  C   UNL     1      52.183  48.275  92.751  1.00  0.00     0.336 A 
ATOM     10  O   UNL     1      50.927  48.294  92.827  1.00  0.00    -0.246 OA
ATOM     11  O   UNL     1      52.912  48.622  93.808  1.00  0.00    -0.423 OA
ENDROOT
TORSDOF 0
ENDMDL
