MODEL 1
REMARK VINA RESULT:     3.491      0.000      0.000
REMARK INTER + INTRA:           5.732
REMARK INTER:                   5.328
REMARK INTRA:                   0.404
REMARK UNBOUND:                 0.404
REMARK SMILES COc1cc(C=CCOC(=O)C=Cc2ccc(O)c(OC)c2)ccc1O
REMARK SMILES IDX 9 1 8 2 7 3 6 4 5 5 3 6 25 7 4 8 24 9 23 10 2 11 1 12 26 13
REMARK SMILES IDX 10 15 11 16 12 17 13 18 14 19 22 20 15 21 19 22 16 23 17 24
REMARK SMILES IDX 20 25 21 26 18 27
REMARK H PARENT 26 14 18 28
REMARK Flexibility Score: inf
ROOT
ATOM      1  O   UNL     1      29.406  65.637   4.199  1.00  0.00    -0.458 OA
ENDROOT
BRANCH   1   2
ATOM      2  C   UNL     1      30.611  64.890   4.041  1.00  0.00     0.261 C 
BRANCH   2   3
ATOM      3  C   UNL     1      31.767  65.610   4.669  1.00  0.00     0.015 C 
ATOM      4  C   UNL     1      31.926  65.631   5.998  1.00  0.00     0.007 C 
BRANCH   4   5
ATOM      5  C   UNL     1      33.028  66.344   6.688  1.00  0.00    -0.022 A 
ATOM      6  C   UNL     1      34.817  68.016   6.758  1.00  0.00     0.161 A 
ATOM      7  C   UNL     1      35.121  67.623   8.073  1.00  0.00     0.157 A 
ATOM      8  C   UNL     1      33.772  67.369   6.069  1.00  0.00     0.058 A 
ATOM      9  C   UNL     1      34.394  66.595   8.682  1.00  0.00     0.051 A 
ATOM     10  C   UNL     1      33.361  65.958   7.994  1.00  0.00     0.012 A 
BRANCH   6  11
ATOM     11  O   UNL     1      35.572  69.045   6.170  1.00  0.00    -0.493 OA
ATOM     12  C   UNL     1      35.604  69.329   4.775  1.00  0.00     0.278 C 
ENDBRANCH   6  11
BRANCH   7  13
ATOM     13  O   UNL     1      36.145  68.239   8.793  1.00  0.00    -0.504 OA
ATOM     14  H   UNL     1      36.642  69.048   8.440  1.00  0.00     0.293 HD
ENDBRANCH   7  13
ENDBRANCH   4   5
ENDBRANCH   2   3
ENDBRANCH   1   2
BRANCH   1  15
ATOM     15  C   UNL     1      28.297  65.166   4.914  1.00  0.00     0.331 C 
ATOM     16  O   UNL     1      28.395  64.902   6.142  1.00  0.00    -0.247 OA
BRANCH  15  17
ATOM     17  C   UNL     1      27.004  64.971   4.241  1.00  0.00     0.094 C 
ATOM     18  C   UNL     1      25.877  65.539   4.694  1.00  0.00     0.016 C 
BRANCH  18  19
ATOM     19  C   UNL     1      24.551  65.364   4.052  1.00  0.00    -0.021 A 
ATOM     20  C   UNL     1      24.390  65.300   2.654  1.00  0.00     0.058 A 
ATOM     21  C   UNL     1      23.414  65.299   4.870  1.00  0.00     0.012 A 
ATOM     22  C   UNL     1      23.111  65.143   2.083  1.00  0.00     0.161 A 
ATOM     23  C   UNL     1      22.145  65.142   4.311  1.00  0.00     0.051 A 
ATOM     24  C   UNL     1      21.988  65.060   2.925  1.00  0.00     0.157 A 
BRANCH  22  25
ATOM     25  O   UNL     1      22.918  65.069   0.693  1.00  0.00    -0.493 OA
ATOM     26  C   UNL     1      21.650  65.131   0.048  1.00  0.00     0.278 C 
ENDBRANCH  22  25
BRANCH  24  27
ATOM     27  O   UNL     1      20.704  64.901   2.403  1.00  0.00    -0.504 OA
ATOM     28  H   UNL     1      19.881  64.863   2.992  1.00  0.00     0.293 HD
ENDBRANCH  24  27
ENDBRANCH  18  19
ENDBRANCH  15  17
ENDBRANCH   1  15
TORSDOF 10
ENDMDL
MODEL 2
REMARK VINA RESULT:     6.137      1.200      2.184
REMARK INTER + INTRA:           9.770
REMARK INTER:                  10.334
REMARK INTRA:                  -0.564
REMARK UNBOUND:                 0.404
REMARK SMILES COc1cc(C=CCOC(=O)C=Cc2ccc(O)c(OC)c2)ccc1O
REMARK SMILES IDX 9 1 8 2 7 3 6 4 5 5 3 6 25 7 4 8 24 9 23 10 2 11 1 12 26 13
REMARK SMILES IDX 10 15 11 16 12 17 13 18 14 19 22 20 15 21 19 22 16 23 17 24
REMARK SMILES IDX 20 25 21 26 18 27
REMARK H PARENT 26 14 18 28
REMARK Flexibility Score: inf
ROOT
ATOM      1  O   UNL     1      28.684  65.760   4.454  1.00  0.00    -0.458 OA
ENDROOT
BRANCH   1   2
ATOM      2  C   UNL     1      29.759  64.883   4.124  1.00  0.00     0.261 C 
BRANCH   2   3
ATOM      3  C   UNL     1      30.897  65.055   5.086  1.00  0.00     0.015 C 
ATOM      4  C   UNL     1      31.388  66.269   5.364  1.00  0.00     0.007 C 
BRANCH   4   5
ATOM      5  C   UNL     1      32.527  66.510   6.282  1.00  0.00    -0.022 A 
ATOM      6  C   UNL     1      33.795  66.054   8.328  1.00  0.00     0.161 A 
ATOM      7  C   UNL     1      34.710  67.061   7.974  1.00  0.00     0.157 A 
ATOM      8  C   UNL     1      32.702  65.788   7.480  1.00  0.00     0.058 A 
ATOM      9  C   UNL     1      34.528  67.790   6.795  1.00  0.00     0.051 A 
ATOM     10  C   UNL     1      33.444  67.521   5.959  1.00  0.00     0.012 A 
BRANCH   6  11
ATOM     11  O   UNL     1      33.999  65.346   9.524  1.00  0.00    -0.493 OA
ATOM     12  C   UNL     1      33.203  65.490  10.696  1.00  0.00     0.278 C 
ENDBRANCH   6  11
BRANCH   7  13
ATOM     13  O   UNL     1      35.808  67.355   8.783  1.00  0.00    -0.504 OA
ATOM     14  H   UNL     1      36.462  66.643   9.087  1.00  0.00     0.293 HD
ENDBRANCH   7  13
ENDBRANCH   4   5
ENDBRANCH   2   3
ENDBRANCH   1   2
BRANCH   1  15
ATOM     15  C   UNL     1      27.493  65.327   5.051  1.00  0.00     0.331 C 
ATOM     16  O   UNL     1      27.441  65.114   6.292  1.00  0.00    -0.247 OA
BRANCH  15  17
ATOM     17  C   UNL     1      26.286  65.112   4.238  1.00  0.00     0.094 C 
ATOM     18  C   UNL     1      25.103  65.649   4.570  1.00  0.00     0.016 C 
BRANCH  18  19
ATOM     19  C   UNL     1      23.860  65.452   3.784  1.00  0.00    -0.021 A 
ATOM     20  C   UNL     1      23.800  65.678   2.395  1.00  0.00     0.058 A 
ATOM     21  C   UNL     1      22.695  65.065   4.460  1.00  0.00     0.012 A 
ATOM     22  C   UNL     1      22.596  65.489   1.686  1.00  0.00     0.161 A 
ATOM     23  C   UNL     1      21.500  64.876   3.764  1.00  0.00     0.051 A 
ATOM     24  C   UNL     1      21.445  65.081   2.383  1.00  0.00     0.157 A 
BRANCH  22  25
ATOM     25  O   UNL     1      22.506  65.699   0.300  1.00  0.00    -0.493 OA
ATOM     26  C   UNL     1      23.177  64.915  -0.682  1.00  0.00     0.278 C 
ENDBRANCH  22  25
BRANCH  24  27
ATOM     27  O   UNL     1      20.234  64.880   1.722  1.00  0.00    -0.504 OA
ATOM     28  H   UNL     1      20.093  64.114   1.074  1.00  0.00     0.293 HD
ENDBRANCH  24  27
ENDBRANCH  18  19
ENDBRANCH  15  17
ENDBRANCH   1  15
TORSDOF 10
ENDMDL
