MODEL 1
REMARK VINA RESULT:    -3.783      0.000      0.000
REMARK INTER + INTRA:          -5.643
REMARK INTER:                  -5.331
REMARK INTRA:                  -0.313
REMARK UNBOUND:                -0.313
REMARK SMILES CC1=CCC(=C(C)C)CCC(C)=CCC1
REMARK SMILES IDX 5 1 6 2 7 3 8 4 9 5 10 6 11 7 12 8 13 9 4 11 3 12 2 13 1 14
REMARK SMILES IDX 15 15 14 16
REMARK H PARENT
REMARK Flexibility Score: 60.00
ROOT
ATOM      1  C   UNL     1     139.993 144.141 132.989  1.00  0.00    -0.067 C 
ATOM      2  C   UNL     1     139.598 143.823 131.710  1.00  0.00    -0.077 C 
ATOM      3  C   UNL     1     138.206 143.299 131.412  1.00  0.00     0.039 C 
ATOM      4  C   UNL     1     140.517 144.001 130.518  1.00  0.00     0.039 C 
ENDROOT
BRANCH   1   5
ATOM      5  C   UNL     1     139.038 144.006 134.179  1.00  0.00     0.035 C 
BRANCH   5   6
ATOM      6  C   UNL     1     139.233 142.723 135.010  1.00  0.00     0.035 C 
BRANCH   6   7
ATOM      7  C   UNL     1     139.520 142.995 136.476  1.00  0.00    -0.077 C 
ATOM      8  C   UNL     1     138.430 143.587 137.332  1.00  0.00     0.039 C 
ATOM      9  C   UNL     1     140.732 142.804 137.043  1.00  0.00    -0.028 CG0
ATOM     10  G   UNL     1     141.996 142.399 136.317  1.00  0.00     0.000 G0
ENDBRANCH   6   7
ENDBRANCH   5   6
ENDBRANCH   1   5
BRANCH   1  11
ATOM     11  C   UNL     1     141.320 144.846 133.261  1.00  0.00     0.058 C 
BRANCH  11  12
ATOM     12  C   UNL     1     142.515 143.914 133.211  1.00  0.00    -0.024 C 
ATOM     13  C   UNL     1     143.158 143.355 134.265  1.00  0.00    -0.077 C 
ATOM     14  C   UNL     1     144.315 142.431 133.978  1.00  0.00     0.039 C 
BRANCH  13  15
ATOM     15  C   UNL     1     142.777 143.585 135.714  1.00  0.00     0.034 C 
BRANCH  15  16
ATOM     16  C   UNL     1     142.000 142.409 136.335  1.00  0.00     0.032 CG0
ATOM     17  G   UNL     1     140.723 142.790 137.053  1.00  0.00     0.000 G0
ENDBRANCH  15  16
ENDBRANCH  13  15
ENDBRANCH  11  12
ENDBRANCH   1  11
TORSDOF 0
ENDMDL
MODEL 2
REMARK VINA RESULT:    -3.771      3.711      6.163
REMARK INTER + INTRA:          -5.627
REMARK INTER:                  -5.409
REMARK INTRA:                  -0.218
REMARK UNBOUND:                -0.313
REMARK SMILES CC1=CCC(=C(C)C)CCC(C)=CCC1
REMARK SMILES IDX 5 1 6 2 7 3 8 4 9 5 10 6 11 7 12 8 13 9 4 11 3 12 2 13 1 14
REMARK SMILES IDX 15 15 14 16
REMARK H PARENT
REMARK Flexibility Score: 60.00
ROOT
ATOM      1  C   UNL     1     137.831 140.369 134.320  1.00  0.00    -0.067 C 
ATOM      2  C   UNL     1     138.143 140.435 135.659  1.00  0.00    -0.077 C 
ATOM      3  C   UNL     1     138.884 139.314 136.361  1.00  0.00     0.039 C 
ATOM      4  C   UNL     1     137.791 141.641 136.507  1.00  0.00     0.039 C 
ENDROOT
BRANCH   1   5
ATOM      5  C   UNL     1     138.239 139.167 133.461  1.00  0.00     0.035 C 
BRANCH   5   6
ATOM      6  C   UNL     1     139.329 139.472 132.416  1.00  0.00     0.035 C 
BRANCH   6   7
ATOM      7  C   UNL     1     138.837 139.350 130.984  1.00  0.00    -0.077 C 
ATOM      8  C   UNL     1     138.420 137.995 130.471  1.00  0.00     0.039 C 
ATOM      9  C   UNL     1     138.821 140.384 130.114  1.00  0.00    -0.028 CG0
ATOM     10  G   UNL     1     139.370 141.770 130.375  1.00  0.00     0.000 G0
ENDBRANCH   6   7
ENDBRANCH   5   6
ENDBRANCH   1   5
BRANCH   1  11
ATOM     11  C   UNL     1     137.261 141.573 133.574  1.00  0.00     0.058 C 
BRANCH  11  12
ATOM     12  C   UNL     1     138.240 142.725 133.458  1.00  0.00    -0.024 C 
ATOM     13  C   UNL     1     138.731 143.266 132.317  1.00  0.00    -0.077 C 
ATOM     14  C   UNL     1     139.680 144.432 132.439  1.00  0.00     0.039 C 
BRANCH  13  15
ATOM     15  C   UNL     1     138.374 142.786 130.924  1.00  0.00     0.034 C 
BRANCH  15  16
ATOM     16  C   UNL     1     139.379 141.768 130.352  1.00  0.00     0.032 CG0
ATOM     17  G   UNL     1     138.827 140.379 130.119  1.00  0.00     0.000 G0
ENDBRANCH  15  16
ENDBRANCH  13  15
ENDBRANCH  11  12
ENDBRANCH   1  11
TORSDOF 0
ENDMDL
MODEL 3
REMARK VINA RESULT:    -3.733      2.923      4.051
REMARK INTER + INTRA:          -5.573
REMARK INTER:                  -5.248
REMARK INTRA:                  -0.326
REMARK UNBOUND:                -0.313
REMARK SMILES CC1=CCC(=C(C)C)CCC(C)=CCC1
REMARK SMILES IDX 5 1 6 2 7 3 8 4 9 5 10 6 11 7 12 8 13 9 4 11 3 12 2 13 1 14
REMARK SMILES IDX 15 15 14 16
REMARK H PARENT
REMARK Flexibility Score: 60.00
ROOT
ATOM      1  C   UNL     1     138.146 140.044 133.059  1.00  0.00    -0.067 C 
ATOM      2  C   UNL     1     138.379 139.659 131.758  1.00  0.00    -0.077 C 
ATOM      3  C   UNL     1     138.869 138.267 131.414  1.00  0.00     0.039 C 
ATOM      4  C   UNL     1     138.132 140.592 130.589  1.00  0.00     0.039 C 
ENDROOT
BRANCH   1   5
ATOM      5  C   UNL     1     138.349 139.074 134.228  1.00  0.00     0.035 C 
BRANCH   5   6
ATOM      6  C   UNL     1     139.619 139.336 135.060  1.00  0.00     0.035 C 
BRANCH   6   7
ATOM      7  C   UNL     1     139.331 139.604 136.526  1.00  0.00    -0.077 C 
ATOM      8  C   UNL     1     138.751 138.497 137.367  1.00  0.00     0.039 C 
ATOM      9  C   UNL     1     139.500 140.813 137.107  1.00  0.00    -0.028 CG0
ATOM     10  G   UNL     1     139.890 142.091 136.397  1.00  0.00     0.000 G0
ENDBRANCH   6   7
ENDBRANCH   5   6
ENDBRANCH   1   5
BRANCH   1  11
ATOM     11  C   UNL     1     137.472 141.373 133.389  1.00  0.00     0.058 C 
BRANCH  11  12
ATOM     12  C   UNL     1     138.411 142.560 133.297  1.00  0.00    -0.024 C 
ATOM     13  C   UNL     1     138.978 143.233 134.328  1.00  0.00    -0.077 C 
ATOM     14  C   UNL     1     139.907 144.374 134.000  1.00  0.00     0.039 C 
BRANCH  13  15
ATOM     15  C   UNL     1     138.752 142.900 135.789  1.00  0.00     0.034 C 
BRANCH  15  16
ATOM     16  C   UNL     1     139.906 142.097 136.419  1.00  0.00     0.032 CG0
ATOM     17  G   UNL     1     139.498 140.807 137.096  1.00  0.00     0.000 G0
ENDBRANCH  15  16
ENDBRANCH  13  15
ENDBRANCH  11  12
ENDBRANCH   1  11
TORSDOF 0
ENDMDL
MODEL 4
REMARK VINA RESULT:    -3.689      2.954      4.104
REMARK INTER + INTRA:          -5.511
REMARK INTER:                  -5.189
REMARK INTRA:                  -0.323
REMARK UNBOUND:                -0.313
REMARK SMILES CC1=CCC(=C(C)C)CCC(C)=CCC1
REMARK SMILES IDX 5 1 6 2 7 3 8 4 9 5 10 6 11 7 12 8 13 9 4 11 3 12 2 13 1 14
REMARK SMILES IDX 15 15 14 16
REMARK H PARENT
REMARK Flexibility Score: 60.00
ROOT
ATOM      1  C   UNL     1     144.009 142.344 133.221  1.00  0.00    -0.067 C 
ATOM      2  C   UNL     1     143.834 142.759 131.920  1.00  0.00    -0.077 C 
ATOM      3  C   UNL     1     143.316 144.144 131.588  1.00  0.00     0.039 C 
ATOM      4  C   UNL     1     144.173 141.869 130.741  1.00  0.00     0.039 C 
ENDROOT
BRANCH   1   5
ATOM      5  C   UNL     1     143.711 143.271 134.403  1.00  0.00     0.035 C 
BRANCH   5   6
ATOM      6  C   UNL     1     142.524 142.825 135.279  1.00  0.00     0.035 C 
BRANCH   6   7
ATOM      7  C   UNL     1     142.918 142.528 136.715  1.00  0.00    -0.077 C 
ATOM      8  C   UNL     1     143.528 143.629 137.545  1.00  0.00     0.039 C 
ATOM      9  C   UNL     1     142.818 141.301 137.274  1.00  0.00    -0.028 CG0
ATOM     10  G   UNL     1     142.410 140.032 136.557  1.00  0.00     0.000 G0
ENDBRANCH   6   7
ENDBRANCH   5   6
ENDBRANCH   1   5
BRANCH   1  11
ATOM     11  C   UNL     1     144.709 141.028 133.550  1.00  0.00     0.058 C 
BRANCH  11  12
ATOM     12  C   UNL     1     143.811 139.815 133.392  1.00  0.00    -0.024 C 
ATOM     13  C   UNL     1     143.298 139.046 134.382  1.00  0.00    -0.077 C 
ATOM     14  C   UNL     1     142.402 137.897 133.992  1.00  0.00     0.039 C 
BRANCH  13  15
ATOM     15  C   UNL     1     143.554 139.276 135.858  1.00  0.00     0.034 C 
BRANCH  15  16
ATOM     16  C   UNL     1     142.412 140.030 136.566  1.00  0.00     0.032 CG0
ATOM     17  G   UNL     1     142.824 141.298 137.280  1.00  0.00     0.000 G0
ENDBRANCH  15  16
ENDBRANCH  13  15
ENDBRANCH  11  12
ENDBRANCH   1  11
TORSDOF 0
ENDMDL
MODEL 5
REMARK VINA RESULT:    -3.655      2.314      5.171
REMARK INTER + INTRA:          -5.463
REMARK INTER:                  -5.136
REMARK INTRA:                  -0.327
REMARK UNBOUND:                -0.313
REMARK SMILES CC1=CCC(=C(C)C)CCC(C)=CCC1
REMARK SMILES IDX 5 1 6 2 7 3 8 4 9 5 10 6 11 7 12 8 13 9 4 11 3 12 2 13 1 14
REMARK SMILES IDX 15 15 14 16
REMARK H PARENT
REMARK Flexibility Score: 60.00
ROOT
ATOM      1  C   UNL     1     142.391 143.898 135.635  1.00  0.00    -0.067 C 
ATOM      2  C   UNL     1     142.445 144.386 136.921  1.00  0.00    -0.077 C 
ATOM      3  C   UNL     1     143.579 144.029 137.862  1.00  0.00     0.039 C 
ATOM      4  C   UNL     1     141.392 145.331 137.466  1.00  0.00     0.039 C 
ENDROOT
BRANCH   1   5
ATOM      5  C   UNL     1     143.489 142.985 135.079  1.00  0.00     0.035 C 
BRANCH   5   6
ATOM      6  C   UNL     1     143.166 141.480 135.156  1.00  0.00     0.035 C 
BRANCH   6   7
ATOM      7  C   UNL     1     143.320 140.765 133.826  1.00  0.00    -0.077 C 
ATOM      8  C   UNL     1     144.704 140.571 133.261  1.00  0.00     0.039 C 
ATOM      9  C   UNL     1     142.272 140.354 133.077  1.00  0.00    -0.028 CG0
ATOM     10  G   UNL     1     140.813 140.620 133.375  1.00  0.00     0.000 G0
ENDBRANCH   6   7
ENDBRANCH   5   6
ENDBRANCH   1   5
BRANCH   1  11
ATOM     11  C   UNL     1     141.359 144.408 134.632  1.00  0.00     0.058 C 
BRANCH  11  12
ATOM     12  C   UNL     1     140.002 143.747 134.779  1.00  0.00    -0.024 C 
ATOM     13  C   UNL     1     139.524 142.700 134.065  1.00  0.00    -0.077 C 
ATOM     14  C   UNL     1     138.147 142.185 134.401  1.00  0.00     0.039 C 
BRANCH  13  15
ATOM     15  C   UNL     1     140.291 142.000 132.960  1.00  0.00     0.034 C 
BRANCH  15  16
ATOM     16  C   UNL     1     140.815 140.610 133.366  1.00  0.00     0.032 CG0
ATOM     17  G   UNL     1     142.275 140.357 133.059  1.00  0.00     0.000 G0
ENDBRANCH  15  16
ENDBRANCH  13  15
ENDBRANCH  11  12
ENDBRANCH   1  11
TORSDOF 0
ENDMDL
MODEL 6
REMARK VINA RESULT:    -3.608      3.655      6.145
REMARK INTER + INTRA:          -5.397
REMARK INTER:                  -5.176
REMARK INTRA:                  -0.221
REMARK UNBOUND:                -0.313
REMARK SMILES CC1=CCC(=C(C)C)CCC(C)=CCC1
REMARK SMILES IDX 5 1 6 2 7 3 8 4 9 5 10 6 11 7 12 8 13 9 4 11 3 12 2 13 1 14
REMARK SMILES IDX 15 15 14 16
REMARK H PARENT
REMARK Flexibility Score: 60.00
ROOT
ATOM      1  C   UNL     1     144.237 142.009 134.608  1.00  0.00    -0.067 C 
ATOM      2  C   UNL     1     143.765 142.230 135.881  1.00  0.00    -0.077 C 
ATOM      3  C   UNL     1     143.028 143.502 136.250  1.00  0.00     0.039 C 
ATOM      4  C   UNL     1     143.926 141.204 136.986  1.00  0.00     0.039 C 
ENDROOT
BRANCH   1   5
ATOM      5  C   UNL     1     144.022 143.031 133.487  1.00  0.00     0.035 C 
BRANCH   5   6
ATOM      6  C   UNL     1     142.829 142.721 132.562  1.00  0.00     0.035 C 
BRANCH   6   7
ATOM      7  C   UNL     1     143.227 142.551 131.107  1.00  0.00    -0.077 C 
ATOM      8  C   UNL     1     143.635 143.767 130.317  1.00  0.00     0.039 C 
ATOM      9  C   UNL     1     143.165 141.368 130.454  1.00  0.00    -0.028 CG0
ATOM     10  G   UNL     1     142.608 140.077 131.011  1.00  0.00     0.000 G0
ENDBRANCH   6   7
ENDBRANCH   5   6
ENDBRANCH   1   5
BRANCH   1  11
ATOM     11  C   UNL     1     144.804 140.654 134.191  1.00  0.00     0.058 C 
BRANCH  11  12
ATOM     12  C   UNL     1     143.778 139.538 134.231  1.00  0.00    -0.024 C 
ATOM     13  C   UNL     1     143.255 138.873 133.173  1.00  0.00    -0.077 C 
ATOM     14  C   UNL     1     142.261 137.773 133.451  1.00  0.00     0.039 C 
BRANCH  13  15
ATOM     15  C   UNL     1     143.617 139.152 131.728  1.00  0.00     0.034 C 
BRANCH  15  16
ATOM     16  C   UNL     1     142.601 140.059 131.008  1.00  0.00     0.032 CG0
ATOM     17  G   UNL     1     143.168 141.348 130.454  1.00  0.00     0.000 G0
ENDBRANCH  15  16
ENDBRANCH  13  15
ENDBRANCH  11  12
ENDBRANCH   1  11
TORSDOF 0
ENDMDL
MODEL 7
REMARK VINA RESULT:    -3.578      2.599      5.079
REMARK INTER + INTRA:          -5.355
REMARK INTER:                  -5.099
REMARK INTRA:                  -0.255
REMARK UNBOUND:                -0.313
REMARK SMILES CC1=CCC(=C(C)C)CCC(C)=CCC1
REMARK SMILES IDX 5 1 6 2 7 3 8 4 9 5 10 6 11 7 12 8 13 9 4 11 3 12 2 13 1 14
REMARK SMILES IDX 15 15 14 16
REMARK H PARENT
REMARK Flexibility Score: 60.00
ROOT
ATOM      1  C   UNL     1     138.287 142.426 135.665  1.00  0.00    -0.067 C 
ATOM      2  C   UNL     1     137.957 142.485 137.000  1.00  0.00    -0.077 C 
ATOM      3  C   UNL     1     138.597 143.490 137.937  1.00  0.00     0.039 C 
ATOM      4  C   UNL     1     136.915 141.569 137.610  1.00  0.00     0.039 C 
ENDROOT
BRANCH   1   5
ATOM      5  C   UNL     1     139.305 143.393 135.049  1.00  0.00     0.035 C 
BRANCH   5   6
ATOM      6  C   UNL     1     140.724 142.813 134.900  1.00  0.00     0.035 C 
BRANCH   6   7
ATOM      7  C   UNL     1     141.398 143.205 133.597  1.00  0.00    -0.077 C 
ATOM      8  C   UNL     1     141.792 144.644 133.387  1.00  0.00     0.039 C 
ATOM      9  C   UNL     1     141.600 142.342 132.576  1.00  0.00    -0.028 CG0
ATOM     10  G   UNL     1     141.111 140.911 132.516  1.00  0.00     0.000 G0
ENDBRANCH   6   7
ENDBRANCH   5   6
ENDBRANCH   1   5
BRANCH   1  11
ATOM     11  C   UNL     1     137.507 141.550 134.689  1.00  0.00     0.058 C 
BRANCH  11  12
ATOM     12  C   UNL     1     138.124 140.178 134.490  1.00  0.00    -0.024 C 
ATOM     13  C   UNL     1     139.017 139.816 133.538  1.00  0.00    -0.077 C 
ATOM     14  C   UNL     1     139.520 138.395 133.544  1.00  0.00     0.039 C 
BRANCH  13  15
ATOM     15  C   UNL     1     139.558 140.754 132.476  1.00  0.00     0.034 C 
BRANCH  15  16
ATOM     16  C   UNL     1     141.090 140.903 132.516  1.00  0.00     0.032 CG0
ATOM     17  G   UNL     1     141.597 142.327 132.583  1.00  0.00     0.000 G0
ENDBRANCH  15  16
ENDBRANCH  13  15
ENDBRANCH  11  12
ENDBRANCH   1  11
TORSDOF 0
ENDMDL
MODEL 8
REMARK VINA RESULT:    -3.522      3.263      5.138
REMARK INTER + INTRA:          -5.276
REMARK INTER:                  -4.933
REMARK INTRA:                  -0.342
REMARK UNBOUND:                -0.313
REMARK SMILES CC1=CCC(=C(C)C)CCC(C)=CCC1
REMARK SMILES IDX 5 1 6 2 7 3 8 4 9 5 10 6 11 7 12 8 13 9 4 11 3 12 2 13 1 14
REMARK SMILES IDX 15 15 14 16
REMARK H PARENT
REMARK Flexibility Score: 60.00
ROOT
ATOM      1  C   UNL     1     140.637 143.035 132.631  1.00  0.00    -0.067 C 
ATOM      2  C   UNL     1     141.667 143.888 132.956  1.00  0.00    -0.077 C 
ATOM      3  C   UNL     1     143.096 143.609 132.537  1.00  0.00     0.039 C 
ATOM      4  C   UNL     1     141.432 145.172 133.727  1.00  0.00     0.039 C 
ENDROOT
BRANCH   1   5
ATOM      5  C   UNL     1     140.879 141.766 131.807  1.00  0.00     0.035 C 
BRANCH   5   6
ATOM      6  C   UNL     1     140.953 140.471 132.638  1.00  0.00     0.035 C 
BRANCH   6   7
ATOM      7  C   UNL     1     140.108 139.345 132.070  1.00  0.00    -0.077 C 
ATOM      8  C   UNL     1     140.494 138.744 130.742  1.00  0.00     0.039 C 
ATOM      9  C   UNL     1     138.977 138.896 132.658  1.00  0.00    -0.028 CG0
ATOM     10  G   UNL     1     138.321 139.489 133.886  1.00  0.00     0.000 G0
ENDBRANCH   6   7
ENDBRANCH   5   6
ENDBRANCH   1   5
BRANCH   1  11
ATOM     11  C   UNL     1     139.179 143.412 132.884  1.00  0.00     0.058 C 
BRANCH  11  12
ATOM     12  C   UNL     1     138.693 143.031 134.270  1.00  0.00    -0.024 C 
ATOM     13  C   UNL     1     138.006 141.915 134.615  1.00  0.00    -0.077 C 
ATOM     14  C   UNL     1     137.646 141.728 136.067  1.00  0.00     0.039 C 
BRANCH  13  15
ATOM     15  C   UNL     1     137.590 140.834 133.637  1.00  0.00     0.034 C 
BRANCH  15  16
ATOM     16  C   UNL     1     138.301 139.488 133.875  1.00  0.00     0.032 CG0
ATOM     17  G   UNL     1     138.973 138.891 132.659  1.00  0.00     0.000 G0
ENDBRANCH  15  16
ENDBRANCH  13  15
ENDBRANCH  11  12
ENDBRANCH   1  11
TORSDOF 0
ENDMDL
MODEL 9
REMARK VINA RESULT:    -3.503      2.774      4.467
REMARK INTER + INTRA:          -5.249
REMARK INTER:                  -5.036
REMARK INTRA:                  -0.213
REMARK UNBOUND:                -0.313
REMARK SMILES CC1=CCC(=C(C)C)CCC(C)=CCC1
REMARK SMILES IDX 5 1 6 2 7 3 8 4 9 5 10 6 11 7 12 8 13 9 4 11 3 12 2 13 1 14
REMARK SMILES IDX 15 15 14 16
REMARK H PARENT
REMARK Flexibility Score: 60.00
ROOT
ATOM      1  C   UNL     1     143.934 139.341 133.318  1.00  0.00    -0.067 C 
ATOM      2  C   UNL     1     143.532 138.820 132.109  1.00  0.00    -0.077 C 
ATOM      3  C   UNL     1     142.577 137.646 132.025  1.00  0.00     0.039 C 
ATOM      4  C   UNL     1     143.997 139.403 130.789  1.00  0.00     0.039 C 
ENDROOT
BRANCH   1   5
ATOM      5  C   UNL     1     143.416 138.776 134.644  1.00  0.00     0.035 C 
BRANCH   5   6
ATOM      6  C   UNL     1     142.204 139.529 135.228  1.00  0.00     0.035 C 
BRANCH   6   7
ATOM      7  C   UNL     1     142.455 140.081 136.620  1.00  0.00    -0.077 C 
ATOM      8  C   UNL     1     142.500 139.125 137.784  1.00  0.00     0.039 C 
ATOM      9  C   UNL     1     142.568 141.402 136.885  1.00  0.00    -0.028 CG0
ATOM     10  G   UNL     1     142.366 142.525 135.893  1.00  0.00     0.000 G0
ENDBRANCH   6   7
ENDBRANCH   5   6
ENDBRANCH   1   5
BRANCH   1  11
ATOM     11  C   UNL     1     144.737 140.637 133.400  1.00  0.00     0.058 C 
BRANCH  11  12
ATOM     12  C   UNL     1     143.978 141.847 132.890  1.00  0.00    -0.024 C 
ATOM     13  C   UNL     1     143.492 142.875 133.626  1.00  0.00    -0.077 C 
ATOM     14  C   UNL     1     142.787 143.993 132.901  1.00  0.00     0.039 C 
BRANCH  13  15
ATOM     15  C   UNL     1     143.629 142.982 135.132  1.00  0.00     0.034 C 
BRANCH  15  16
ATOM     16  C   UNL     1     142.365 142.539 135.894  1.00  0.00     0.032 CG0
ATOM     17  G   UNL     1     142.569 141.403 136.872  1.00  0.00     0.000 G0
ENDBRANCH  15  16
ENDBRANCH  13  15
ENDBRANCH  11  12
ENDBRANCH   1  11
TORSDOF 0
ENDMDL
