MODEL 1
REMARK VINA RESULT:    -6.451      0.000      0.000
REMARK INTER + INTRA:         -10.900
REMARK INTER:                  -9.090
REMARK INTRA:                  -1.810
REMARK UNBOUND:                -1.810
REMARK SMILES OCC1=C[C@H](O)[C@H]2C=CO[C@@H](O[C@@H]3O[C@H](CO)[C@@H](O)[C@H](O)[C@@H]3O)[C@H]12
REMARK SMILES IDX 12 1 11 2 8 3 9 4 7 5 10 6 24 7 5 8 3 9 4 10 6 11 2 13 1 14
REMARK SMILES IDX 13 16 22 17 14 18 20 19 15 20 18 21 23 22 21 24 16 26 17 27
REMARK SMILES IDX 19 29
REMARK H PARENT 6 12 1 15 23 23 21 25 17 28 19 30
REMARK Flexibility Score: inf
ROOT
ATOM      1  O   UNL     1      93.712 -63.611 102.626  1.00  0.00    -0.310 OA
ENDROOT
BRANCH   1   2
ATOM      2  C   UNL     1      94.971 -63.105 103.036  1.00  0.00     0.316 C 
ATOM      3  C   UNL     1      96.594 -62.615 105.414  1.00  0.00     0.018 C 
ATOM      4  C   UNL     1      96.438 -63.866 104.956  1.00  0.00     0.186 C 
ATOM      5  C   UNL     1      96.109 -61.511 104.534  1.00  0.00     0.061 C 
ATOM      6  O   UNL     1      95.697 -64.118 103.775  1.00  0.00    -0.472 OA
ATOM      7  C   UNL     1      94.755 -61.898 103.958  1.00  0.00     0.096 C 
ATOM      8  C   UNL     1      95.861 -60.120 105.114  1.00  0.00     0.145 C 
ATOM      9  C   UNL     1      94.288 -60.581 103.428  1.00  0.00    -0.036 C 
ATOM     10  C   UNL     1      94.844 -59.593 104.140  1.00  0.00     0.007 C 
BRANCH   8  11
ATOM     11  O   UNL     1      97.020 -59.334 105.079  1.00  0.00    -0.388 OA
ATOM     12  H   UNL     1      97.416 -59.384 105.989  1.00  0.00     0.211 HD
ENDBRANCH   8  11
BRANCH   9  13
ATOM     13  C   UNL     1      93.171 -60.376 102.446  1.00  0.00     0.187 C 
BRANCH  13  14
ATOM     14  O   UNL     1      92.106 -61.238 102.739  1.00  0.00    -0.392 OA
ATOM     15  H   UNL     1      91.281 -60.783 102.426  1.00  0.00     0.211 HD
ENDBRANCH  13  14
ENDBRANCH   9  13
ENDBRANCH   1   2
BRANCH   1  16
ATOM     16  C   UNL     1      93.534 -64.966 103.020  1.00  0.00     0.286 C 
ATOM     17  C   UNL     1      92.456 -65.117 104.139  1.00  0.00     0.202 C 
ATOM     18  O   UNL     1      93.297 -65.775 101.871  1.00  0.00    -0.341 OA
ATOM     19  C   UNL     1      91.475 -66.255 103.815  1.00  0.00     0.179 C 
ATOM     20  C   UNL     1      91.969 -65.732 101.357  1.00  0.00     0.178 C 
ATOM     21  C   UNL     1      90.868 -66.057 102.414  1.00  0.00     0.177 C 
BRANCH  17  22
ATOM     22  O   UNL     1      91.783 -63.906 104.407  1.00  0.00    -0.385 OA
ATOM     23  H   UNL     1      91.138 -64.064 105.141  1.00  0.00     0.211 HD
ENDBRANCH  17  22
BRANCH  19  24
ATOM     24  O   UNL     1      90.478 -66.374 104.801  1.00  0.00    -0.387 OA
ATOM     25  H   UNL     1      89.645 -66.691 104.362  1.00  0.00     0.211 HD
ENDBRANCH  19  24
BRANCH  20  26
ATOM     26  C   UNL     1      91.678 -64.438 100.569  1.00  0.00     0.191 C 
BRANCH  26  27
ATOM     27  O   UNL     1      90.979 -63.522 101.365  1.00  0.00    -0.394 OA
ATOM     28  H   UNL     1      91.217 -63.722 102.308  1.00  0.00     0.210 HD
ENDBRANCH  26  27
ENDBRANCH  20  26
BRANCH  21  29
ATOM     29  O   UNL     1      90.125 -67.193 102.037  1.00  0.00    -0.387 OA
ATOM     30  H   UNL     1      90.705 -67.756 101.461  1.00  0.00     0.211 HD
ENDBRANCH  21  29
ENDBRANCH   1  16
TORSDOF 10
ENDMDL
MODEL 2
REMARK VINA RESULT:    -6.293      1.956      3.783
REMARK INTER + INTRA:         -10.678
REMARK INTER:                  -9.368
REMARK INTRA:                  -1.310
REMARK UNBOUND:                -1.810
REMARK SMILES OCC1=C[C@H](O)[C@H]2C=CO[C@@H](O[C@@H]3O[C@H](CO)[C@@H](O)[C@H](O)[C@@H]3O)[C@H]12
REMARK SMILES IDX 12 1 11 2 8 3 9 4 7 5 10 6 24 7 5 8 3 9 4 10 6 11 2 13 1 14
REMARK SMILES IDX 13 16 22 17 14 18 20 19 15 20 18 21 23 22 21 24 16 26 17 27
REMARK SMILES IDX 19 29
REMARK H PARENT 6 12 1 15 23 23 21 25 17 28 19 30
REMARK Flexibility Score: inf
ROOT
ATOM      1  O   UNL     1      93.855 -63.049 103.313  1.00  0.00    -0.310 OA
ENDROOT
BRANCH   1   2
ATOM      2  C   UNL     1      94.323 -61.776 102.901  1.00  0.00     0.316 C 
ATOM      3  C   UNL     1      94.112 -58.931 103.525  1.00  0.00     0.018 C 
ATOM      4  C   UNL     1      94.834 -59.738 104.316  1.00  0.00     0.186 C 
ATOM      5  C   UNL     1      93.643 -59.503 102.228  1.00  0.00     0.061 C 
ATOM      6  O   UNL     1      94.990 -61.111 104.002  1.00  0.00    -0.472 OA
ATOM      7  C   UNL     1      93.128 -60.914 102.469  1.00  0.00     0.096 C 
ATOM      8  C   UNL     1      92.501 -58.837 101.464  1.00  0.00     0.145 C 
ATOM      9  C   UNL     1      92.400 -61.170 101.190  1.00  0.00    -0.036 C 
ATOM     10  C   UNL     1      91.974 -60.007 100.681  1.00  0.00     0.007 C 
BRANCH   8  11
ATOM     11  O   UNL     1      92.973 -57.844 100.595  1.00  0.00    -0.388 OA
ATOM     12  H   UNL     1      92.171 -57.359 100.267  1.00  0.00     0.211 HD
ENDBRANCH   8  11
BRANCH   9  13
ATOM     13  C   UNL     1      91.962 -62.513 100.682  1.00  0.00     0.187 C 
BRANCH  13  14
ATOM     14  O   UNL     1      91.179 -63.162 101.646  1.00  0.00    -0.392 OA
ATOM     15  H   UNL     1      90.373 -63.498 101.174  1.00  0.00     0.211 HD
ENDBRANCH  13  14
ENDBRANCH   9  13
ENDBRANCH   1   2
BRANCH   1  16
ATOM     16  C   UNL     1      94.884 -64.030 103.267  1.00  0.00     0.286 C 
ATOM     17  C   UNL     1      95.517 -64.286 104.671  1.00  0.00     0.202 C 
ATOM     18  O   UNL     1      94.401 -65.206 102.624  1.00  0.00    -0.341 OA
ATOM     19  C   UNL     1      95.641 -65.791 104.958  1.00  0.00     0.179 C 
ATOM     20  C   UNL     1      93.600 -66.061 103.434  1.00  0.00     0.178 C 
ATOM     21  C   UNL     1      94.279 -66.485 104.773  1.00  0.00     0.177 C 
BRANCH  17  22
ATOM     22  O   UNL     1      94.833 -63.610 105.703  1.00  0.00    -0.385 OA
ATOM     23  H   UNL     1      95.143 -63.971 106.571  1.00  0.00     0.211 HD
ENDBRANCH  17  22
BRANCH  19  24
ATOM     24  O   UNL     1      96.177 -66.030 106.236  1.00  0.00    -0.387 OA
ATOM     25  H   UNL     1      95.578 -66.667 106.709  1.00  0.00     0.211 HD
ENDBRANCH  19  24
BRANCH  20  26
ATOM     26  C   UNL     1      92.169 -65.520 103.634  1.00  0.00     0.191 C 
BRANCH  26  27
ATOM     27  O   UNL     1      92.057 -64.865 104.867  1.00  0.00    -0.394 OA
ATOM     28  H   UNL     1      92.069 -63.891 104.675  1.00  0.00     0.210 HD
ENDBRANCH  26  27
ENDBRANCH  20  26
BRANCH  21  29
ATOM     29  O   UNL     1      94.429 -67.884 104.843  1.00  0.00    -0.387 OA
ATOM     30  H   UNL     1      93.825 -68.218 105.556  1.00  0.00     0.211 HD
ENDBRANCH  21  29
ENDBRANCH   1  16
TORSDOF 10
ENDMDL
MODEL 3
REMARK VINA RESULT:    -6.268      1.386      2.152
REMARK INTER + INTRA:         -10.643
REMARK INTER:                  -9.537
REMARK INTRA:                  -1.106
REMARK UNBOUND:                -1.810
REMARK SMILES OCC1=C[C@H](O)[C@H]2C=CO[C@@H](O[C@@H]3O[C@H](CO)[C@@H](O)[C@H](O)[C@@H]3O)[C@H]12
REMARK SMILES IDX 12 1 11 2 8 3 9 4 7 5 10 6 24 7 5 8 3 9 4 10 6 11 2 13 1 14
REMARK SMILES IDX 13 16 22 17 14 18 20 19 15 20 18 21 23 22 21 24 16 26 17 27
REMARK SMILES IDX 19 29
REMARK H PARENT 6 12 1 15 23 23 21 25 17 28 19 30
REMARK Flexibility Score: inf
ROOT
ATOM      1  O   UNL     1      94.374 -62.916 103.741  1.00  0.00    -0.310 OA
ENDROOT
BRANCH   1   2
ATOM      2  C   UNL     1      95.785 -62.786 103.745  1.00  0.00     0.316 C 
ATOM      3  C   UNL     1      98.132 -63.181 105.439  1.00  0.00     0.018 C 
ATOM      4  C   UNL     1      97.510 -64.239 104.897  1.00  0.00     0.186 C 
ATOM      5  C   UNL     1      97.715 -61.834 104.947  1.00  0.00     0.061 C 
ATOM      6  O   UNL     1      96.402 -64.066 104.032  1.00  0.00    -0.472 OA
ATOM      7  C   UNL     1      96.199 -61.794 104.841  1.00  0.00     0.096 C 
ATOM      8  C   UNL     1      98.044 -60.585 105.764  1.00  0.00     0.145 C 
ATOM      9  C   UNL     1      95.965 -60.326 104.696  1.00  0.00    -0.036 C 
ATOM     10  C   UNL     1      96.958 -59.657 105.295  1.00  0.00     0.007 C 
BRANCH   8  11
ATOM     11  O   UNL     1      99.303 -60.068 105.430  1.00  0.00    -0.388 OA
ATOM     12  H   UNL     1      99.497 -59.359 106.098  1.00  0.00     0.211 HD
ENDBRANCH   8  11
BRANCH   9  13
ATOM     13  C   UNL     1      94.698 -59.682 104.211  1.00  0.00     0.187 C 
BRANCH  13  14
ATOM     14  O   UNL     1      94.549 -58.414 104.791  1.00  0.00    -0.392 OA
ATOM     15  H   UNL     1      94.293 -57.797 104.057  1.00  0.00     0.211 HD
ENDBRANCH  13  14
ENDBRANCH   9  13
ENDBRANCH   1   2
BRANCH   1  16
ATOM     16  C   UNL     1      93.954 -64.086 103.050  1.00  0.00     0.286 C 
ATOM     17  C   UNL     1      92.716 -64.757 103.725  1.00  0.00     0.202 C 
ATOM     18  O   UNL     1      93.773 -63.792 101.667  1.00  0.00    -0.341 OA
ATOM     19  C   UNL     1      91.643 -65.116 102.685  1.00  0.00     0.179 C 
ATOM     20  C   UNL     1      92.551 -63.137 101.337  1.00  0.00     0.178 C 
ATOM     21  C   UNL     1      91.276 -63.879 101.845  1.00  0.00     0.177 C 
BRANCH  17  22
ATOM     22  O   UNL     1      92.188 -63.979 104.776  1.00  0.00    -0.385 OA
ATOM     23  H   UNL     1      91.221 -64.176 104.855  1.00  0.00     0.211 HD
ENDBRANCH  17  22
BRANCH  19  24
ATOM     24  O   UNL     1      90.509 -65.688 103.290  1.00  0.00    -0.387 OA
ATOM     25  H   UNL     1      89.795 -64.998 103.324  1.00  0.00     0.211 HD
ENDBRANCH  19  24
BRANCH  20  26
ATOM     26  C   UNL     1      92.560 -61.640 101.708  1.00  0.00     0.191 C 
BRANCH  26  27
ATOM     27  O   UNL     1      92.007 -61.444 102.980  1.00  0.00    -0.394 OA
ATOM     28  H   UNL     1      92.764 -61.431 103.622  1.00  0.00     0.210 HD
ENDBRANCH  26  27
ENDBRANCH  20  26
BRANCH  21  29
ATOM     29  O   UNL     1      90.444 -64.247 100.769  1.00  0.00    -0.387 OA
ATOM     30  H   UNL     1      90.826 -65.065 100.358  1.00  0.00     0.211 HD
ENDBRANCH  21  29
ENDBRANCH   1  16
TORSDOF 10
ENDMDL
MODEL 4
REMARK VINA RESULT:    -6.170      1.368      3.575
REMARK INTER + INTRA:         -10.505
REMARK INTER:                  -9.375
REMARK INTRA:                  -1.130
REMARK UNBOUND:                -1.810
REMARK SMILES OCC1=C[C@H](O)[C@H]2C=CO[C@@H](O[C@@H]3O[C@H](CO)[C@@H](O)[C@H](O)[C@@H]3O)[C@H]12
REMARK SMILES IDX 12 1 11 2 8 3 9 4 7 5 10 6 24 7 5 8 3 9 4 10 6 11 2 13 1 14
REMARK SMILES IDX 13 16 22 17 14 18 20 19 15 20 18 21 23 22 21 24 16 26 17 27
REMARK SMILES IDX 19 29
REMARK H PARENT 6 12 1 15 23 23 21 25 17 28 19 30
REMARK Flexibility Score: inf
ROOT
ATOM      1  O   UNL     1      93.103 -63.131 101.904  1.00  0.00    -0.310 OA
ENDROOT
BRANCH   1   2
ATOM      2  C   UNL     1      92.778 -61.881 102.487  1.00  0.00     0.316 C 
ATOM      3  C   UNL     1      93.151 -59.006 102.135  1.00  0.00     0.018 C 
ATOM      4  C   UNL     1      92.297 -59.672 101.344  1.00  0.00     0.186 C 
ATOM      5  C   UNL     1      93.694 -59.746 103.313  1.00  0.00     0.061 C 
ATOM      6  O   UNL     1      92.064 -61.057 101.533  1.00  0.00    -0.472 OA
ATOM      7  C   UNL     1      94.071 -61.154 102.880  1.00  0.00     0.096 C 
ATOM      8  C   UNL     1      94.952 -59.245 104.021  1.00  0.00     0.145 C 
ATOM      9  C   UNL     1      94.894 -61.596 104.046  1.00  0.00    -0.036 C 
ATOM     10  C   UNL     1      95.456 -60.527 104.624  1.00  0.00     0.007 C 
BRANCH   8  11
ATOM     11  O   UNL     1      94.642 -58.322 105.029  1.00  0.00    -0.388 OA
ATOM     12  H   UNL     1      93.753 -57.946 104.795  1.00  0.00     0.211 HD
ENDBRANCH   8  11
BRANCH   9  13
ATOM     13  C   UNL     1      95.272 -63.013 104.369  1.00  0.00     0.187 C 
BRANCH  13  14
ATOM     14  O   UNL     1      94.686 -63.404 105.580  1.00  0.00    -0.392 OA
ATOM     15  H   UNL     1      94.636 -64.396 105.561  1.00  0.00     0.211 HD
ENDBRANCH  13  14
ENDBRANCH   9  13
ENDBRANCH   1   2
BRANCH   1  16
ATOM     16  C   UNL     1      92.007 -63.677 101.180  1.00  0.00     0.286 C 
ATOM     17  C   UNL     1      92.461 -64.760 100.151  1.00  0.00     0.202 C 
ATOM     18  O   UNL     1      91.004 -64.123 102.089  1.00  0.00    -0.341 OA
ATOM     19  C   UNL     1      91.578 -66.015 100.240  1.00  0.00     0.179 C 
ATOM     20  C   UNL     1      91.251 -65.386 102.701  1.00  0.00     0.178 C 
ATOM     21  C   UNL     1      91.533 -66.538 101.687  1.00  0.00     0.177 C 
BRANCH  17  22
ATOM     22  O   UNL     1      93.832 -65.074 100.269  1.00  0.00    -0.385 OA
ATOM     23  H   UNL     1      94.339 -64.493  99.648  1.00  0.00     0.211 HD
ENDBRANCH  17  22
BRANCH  19  24
ATOM     24  O   UNL     1      92.003 -67.010  99.341  1.00  0.00    -0.387 OA
ATOM     25  H   UNL     1      91.332 -67.075  98.611  1.00  0.00     0.211 HD
ENDBRANCH  19  24
BRANCH  20  26
ATOM     26  C   UNL     1      92.305 -65.305 103.824  1.00  0.00     0.191 C 
BRANCH  26  27
ATOM     27  O   UNL     1      91.987 -64.281 104.726  1.00  0.00    -0.394 OA
ATOM     28  H   UNL     1      91.154 -64.557 105.190  1.00  0.00     0.210 HD
ENDBRANCH  26  27
ENDBRANCH  20  26
BRANCH  21  29
ATOM     29  O   UNL     1      90.575 -67.563 101.808  1.00  0.00    -0.387 OA
ATOM     30  H   UNL     1      90.076 -67.613 100.951  1.00  0.00     0.211 HD
ENDBRANCH  21  29
ENDBRANCH   1  16
TORSDOF 10
ENDMDL
MODEL 5
REMARK VINA RESULT:    -6.089      1.461      3.052
REMARK INTER + INTRA:         -10.390
REMARK INTER:                  -8.854
REMARK INTRA:                  -1.537
REMARK UNBOUND:                -1.810
REMARK SMILES OCC1=C[C@H](O)[C@H]2C=CO[C@@H](O[C@@H]3O[C@H](CO)[C@@H](O)[C@H](O)[C@@H]3O)[C@H]12
REMARK SMILES IDX 12 1 11 2 8 3 9 4 7 5 10 6 24 7 5 8 3 9 4 10 6 11 2 13 1 14
REMARK SMILES IDX 13 16 22 17 14 18 20 19 15 20 18 21 23 22 21 24 16 26 17 27
REMARK SMILES IDX 19 29
REMARK H PARENT 6 12 1 15 23 23 21 25 17 28 19 30
REMARK Flexibility Score: inf
ROOT
ATOM      1  O   UNL     1      93.070 -63.319 102.330  1.00  0.00    -0.310 OA
ENDROOT
BRANCH   1   2
ATOM      2  C   UNL     1      92.798 -62.004 102.786  1.00  0.00     0.316 C 
ATOM      3  C   UNL     1      93.325 -59.198 102.172  1.00  0.00     0.018 C 
ATOM      4  C   UNL     1      92.453 -59.894 101.428  1.00  0.00     0.186 C 
ATOM      5  C   UNL     1      93.807 -59.848 103.427  1.00  0.00     0.061 C 
ATOM      6  O   UNL     1      92.146 -61.241 101.741  1.00  0.00    -0.472 OA
ATOM      7  C   UNL     1      94.120 -61.308 103.138  1.00  0.00     0.096 C 
ATOM      8  C   UNL     1      95.076 -59.345 104.113  1.00  0.00     0.145 C 
ATOM      9  C   UNL     1      94.898 -61.677 104.359  1.00  0.00    -0.036 C 
ATOM     10  C   UNL     1      95.503 -60.586 104.846  1.00  0.00     0.007 C 
BRANCH   8  11
ATOM     11  O   UNL     1      94.796 -58.315 105.022  1.00  0.00    -0.388 OA
ATOM     12  H   UNL     1      94.018 -58.623 105.557  1.00  0.00     0.211 HD
ENDBRANCH   8  11
BRANCH   9  13
ATOM     13  C   UNL     1      95.196 -63.073 104.822  1.00  0.00     0.187 C 
BRANCH  13  14
ATOM     14  O   UNL     1      95.681 -63.843 103.757  1.00  0.00    -0.392 OA
ATOM     15  H   UNL     1      96.630 -63.579 103.628  1.00  0.00     0.211 HD
ENDBRANCH  13  14
ENDBRANCH   9  13
ENDBRANCH   1   2
BRANCH   1  16
ATOM     16  C   UNL     1      92.370 -64.296 103.091  1.00  0.00     0.286 C 
ATOM     17  C   UNL     1      90.908 -64.501 102.583  1.00  0.00     0.202 C 
ATOM     18  O   UNL     1      93.137 -65.495 103.157  1.00  0.00    -0.341 OA
ATOM     19  C   UNL     1      90.574 -65.996 102.445  1.00  0.00     0.179 C 
ATOM     20  C   UNL     1      93.074 -66.326 102.001  1.00  0.00     0.178 C 
ATOM     21  C   UNL     1      91.623 -66.702 101.567  1.00  0.00     0.177 C 
BRANCH  17  22
ATOM     22  O   UNL     1      90.647 -63.794 101.391  1.00  0.00    -0.385 OA
ATOM     23  H   UNL     1      91.286 -63.040 101.329  1.00  0.00     0.211 HD
ENDBRANCH  17  22
BRANCH  19  24
ATOM     24  O   UNL     1      89.270 -66.189 101.953  1.00  0.00    -0.387 OA
ATOM     25  H   UNL     1      89.316 -66.836 101.200  1.00  0.00     0.211 HD
ENDBRANCH  19  24
BRANCH  20  26
ATOM     26  C   UNL     1      93.926 -65.785 100.834  1.00  0.00     0.191 C 
BRANCH  26  27
ATOM     27  O   UNL     1      93.120 -65.118  99.903  1.00  0.00    -0.394 OA
ATOM     28  H   UNL     1      92.890 -65.779  99.199  1.00  0.00     0.210 HD
ENDBRANCH  26  27
ENDBRANCH  20  26
BRANCH  21  29
ATOM     29  O   UNL     1      91.431 -68.096 101.601  1.00  0.00    -0.387 OA
ATOM     30  H   UNL     1      90.675 -68.312 100.995  1.00  0.00     0.211 HD
ENDBRANCH  21  29
ENDBRANCH   1  16
TORSDOF 10
ENDMDL
MODEL 6
REMARK VINA RESULT:    -6.007      2.707      5.790
REMARK INTER + INTRA:         -10.275
REMARK INTER:                  -8.689
REMARK INTRA:                  -1.587
REMARK UNBOUND:                -1.810
REMARK SMILES OCC1=C[C@H](O)[C@H]2C=CO[C@@H](O[C@@H]3O[C@H](CO)[C@@H](O)[C@H](O)[C@@H]3O)[C@H]12
REMARK SMILES IDX 12 1 11 2 8 3 9 4 7 5 10 6 24 7 5 8 3 9 4 10 6 11 2 13 1 14
REMARK SMILES IDX 13 16 22 17 14 18 20 19 15 20 18 21 23 22 21 24 16 26 17 27
REMARK SMILES IDX 19 29
REMARK H PARENT 6 12 1 15 23 23 21 25 17 28 19 30
REMARK Flexibility Score: inf
ROOT
ATOM      1  O   UNL     1      96.397 -62.904 104.516  1.00  0.00    -0.310 OA
ENDROOT
BRANCH   1   2
ATOM      2  C   UNL     1      95.042 -62.592 104.243  1.00  0.00     0.316 C 
ATOM      3  C   UNL     1      93.225 -61.923 102.056  1.00  0.00     0.018 C 
ATOM      4  C   UNL     1      93.653 -63.185 102.209  1.00  0.00     0.186 C 
ATOM      5  C   UNL     1      93.527 -60.971 103.166  1.00  0.00     0.061 C 
ATOM      6  O   UNL     1      94.493 -63.539 103.294  1.00  0.00    -0.472 OA
ATOM      7  C   UNL     1      94.960 -61.189 103.626  1.00  0.00     0.096 C 
ATOM      8  C   UNL     1      93.460 -59.464 102.924  1.00  0.00     0.145 C 
ATOM      9  C   UNL     1      95.183 -59.959 104.445  1.00  0.00    -0.036 C 
ATOM     10  C   UNL     1      94.403 -58.972 103.986  1.00  0.00     0.007 C 
BRANCH   8  11
ATOM     11  O   UNL     1      92.170 -58.965 103.149  1.00  0.00    -0.388 OA
ATOM     12  H   UNL     1      91.920 -58.464 102.328  1.00  0.00     0.211 HD
ENDBRANCH   8  11
BRANCH   9  13
ATOM     13  C   UNL     1      96.288 -59.754 105.440  1.00  0.00     0.187 C 
BRANCH  13  14
ATOM     14  O   UNL     1      97.514 -60.152 104.889  1.00  0.00    -0.392 OA
ATOM     15  H   UNL     1      97.594 -61.128 105.055  1.00  0.00     0.211 HD
ENDBRANCH  13  14
ENDBRANCH   9  13
ENDBRANCH   1   2
BRANCH   1  16
ATOM     16  C   UNL     1      96.593 -63.260 105.879  1.00  0.00     0.286 C 
ATOM     17  C   UNL     1      96.358 -64.783 106.130  1.00  0.00     0.202 C 
ATOM     18  O   UNL     1      97.861 -62.786 106.324  1.00  0.00    -0.341 OA
ATOM     19  C   UNL     1      97.491 -65.386 106.976  1.00  0.00     0.179 C 
ATOM     20  C   UNL     1      98.980 -63.579 105.938  1.00  0.00     0.178 C 
ATOM     21  C   UNL     1      98.858 -65.083 106.336  1.00  0.00     0.177 C 
BRANCH  17  22
ATOM     22  O   UNL     1      96.158 -65.502 104.933  1.00  0.00    -0.385 OA
ATOM     23  H   UNL     1      95.262 -65.272 104.578  1.00  0.00     0.211 HD
ENDBRANCH  17  22
BRANCH  19  24
ATOM     24  O   UNL     1      97.306 -66.766 107.177  1.00  0.00    -0.387 OA
ATOM     25  H   UNL     1      98.064 -67.246 106.748  1.00  0.00     0.211 HD
ENDBRANCH  19  24
BRANCH  20  26
ATOM     26  C   UNL     1      99.367 -63.381 104.459  1.00  0.00     0.191 C 
BRANCH  26  27
ATOM     27  O   UNL     1      99.330 -62.023 104.117  1.00  0.00    -0.394 OA
ATOM     28  H   UNL     1      98.487 -61.877 103.614  1.00  0.00     0.210 HD
ENDBRANCH  26  27
ENDBRANCH  20  26
BRANCH  21  29
ATOM     29  O   UNL     1      99.900 -65.461 107.205  1.00  0.00    -0.387 OA
ATOM     30  H   UNL     1     100.581 -64.739 107.194  1.00  0.00     0.211 HD
ENDBRANCH  21  29
ENDBRANCH   1  16
TORSDOF 10
ENDMDL
MODEL 7
REMARK VINA RESULT:    -5.923      2.325      3.840
REMARK INTER + INTRA:         -10.157
REMARK INTER:                  -8.357
REMARK INTRA:                  -1.800
REMARK UNBOUND:                -1.810
REMARK SMILES OCC1=C[C@H](O)[C@H]2C=CO[C@@H](O[C@@H]3O[C@H](CO)[C@@H](O)[C@H](O)[C@@H]3O)[C@H]12
REMARK SMILES IDX 12 1 11 2 8 3 9 4 7 5 10 6 24 7 5 8 3 9 4 10 6 11 2 13 1 14
REMARK SMILES IDX 13 16 22 17 14 18 20 19 15 20 18 21 23 22 21 24 16 26 17 27
REMARK SMILES IDX 19 29
REMARK H PARENT 6 12 1 15 23 23 21 25 17 28 19 30
REMARK Flexibility Score: inf
ROOT
ATOM      1  O   UNL     1      96.216 -62.419 103.410  1.00  0.00    -0.310 OA
ENDROOT
BRANCH   1   2
ATOM      2  C   UNL     1      97.567 -62.836 103.510  1.00  0.00     0.316 C 
ATOM      3  C   UNL     1      99.294 -64.741 104.895  1.00  0.00     0.018 C 
ATOM      4  C   UNL     1      98.485 -65.163 103.912  1.00  0.00     0.186 C 
ATOM      5  C   UNL     1      99.430 -63.264 105.067  1.00  0.00     0.061 C 
ATOM      6  O   UNL     1      97.678 -64.246 103.194  1.00  0.00    -0.472 OA
ATOM      7  C   UNL     1      98.056 -62.625 104.950  1.00  0.00     0.096 C 
ATOM      8  C   UNL     1      99.975 -62.691 106.374  1.00  0.00     0.145 C 
ATOM      9  C   UNL     1      98.333 -61.260 105.490  1.00  0.00    -0.036 C 
ATOM     10  C   UNL     1      99.352 -61.323 106.356  1.00  0.00     0.007 C 
BRANCH   8  11
ATOM     11  O   UNL     1     101.373 -62.590 106.348  1.00  0.00    -0.388 OA
ATOM     12  H   UNL     1     101.591 -61.685 106.695  1.00  0.00     0.211 HD
ENDBRANCH   8  11
BRANCH   9  13
ATOM     13  C   UNL     1      97.455 -60.053 105.322  1.00  0.00     0.187 C 
BRANCH  13  14
ATOM     14  O   UNL     1      96.106 -60.430 105.349  1.00  0.00    -0.392 OA
ATOM     15  H   UNL     1      96.027 -61.146 106.032  1.00  0.00     0.211 HD
ENDBRANCH  13  14
ENDBRANCH   9  13
ENDBRANCH   1   2
BRANCH   1  16
ATOM     16  C   UNL     1      95.362 -63.488 103.020  1.00  0.00     0.286 C 
ATOM     17  C   UNL     1      94.393 -63.916 104.167  1.00  0.00     0.202 C 
ATOM     18  O   UNL     1      94.707 -63.160 101.797  1.00  0.00    -0.341 OA
ATOM     19  C   UNL     1      92.953 -64.064 103.650  1.00  0.00     0.179 C 
ATOM     20  C   UNL     1      93.587 -62.287 101.919  1.00  0.00     0.178 C 
ATOM     21  C   UNL     1      92.506 -62.778 102.931  1.00  0.00     0.177 C 
BRANCH  17  22
ATOM     22  O   UNL     1      94.464 -63.056 105.282  1.00  0.00    -0.385 OA
ATOM     23  H   UNL     1      93.549 -62.936 105.642  1.00  0.00     0.211 HD
ENDBRANCH  17  22
BRANCH  19  24
ATOM     24  O   UNL     1      92.067 -64.415 104.685  1.00  0.00    -0.387 OA
ATOM     25  H   UNL     1      91.276 -64.859 104.279  1.00  0.00     0.211 HD
ENDBRANCH  19  24
BRANCH  20  26
ATOM     26  C   UNL     1      94.001 -60.819 102.150  1.00  0.00     0.191 C 
BRANCH  26  27
ATOM     27  O   UNL     1      93.931 -60.496 103.512  1.00  0.00    -0.394 OA
ATOM     28  H   UNL     1      92.974 -60.335 103.719  1.00  0.00     0.210 HD
ENDBRANCH  26  27
ENDBRANCH  20  26
BRANCH  21  29
ATOM     29  O   UNL     1      91.269 -62.980 102.290  1.00  0.00    -0.387 OA
ATOM     30  H   UNL     1      91.444 -63.453 101.436  1.00  0.00     0.211 HD
ENDBRANCH  21  29
ENDBRANCH   1  16
TORSDOF 10
ENDMDL
MODEL 8
REMARK VINA RESULT:    -5.883      2.067      4.205
REMARK INTER + INTRA:         -10.100
REMARK INTER:                  -8.709
REMARK INTRA:                  -1.391
REMARK UNBOUND:                -1.810
REMARK SMILES OCC1=C[C@H](O)[C@H]2C=CO[C@@H](O[C@@H]3O[C@H](CO)[C@@H](O)[C@H](O)[C@@H]3O)[C@H]12
REMARK SMILES IDX 12 1 11 2 8 3 9 4 7 5 10 6 24 7 5 8 3 9 4 10 6 11 2 13 1 14
REMARK SMILES IDX 13 16 22 17 14 18 20 19 15 20 18 21 23 22 21 24 16 26 17 27
REMARK SMILES IDX 19 29
REMARK H PARENT 6 12 1 15 23 23 21 25 17 28 19 30
REMARK Flexibility Score: inf
ROOT
ATOM      1  O   UNL     1      95.147 -62.341 103.773  1.00  0.00    -0.310 OA
ENDROOT
BRANCH   1   2
ATOM      2  C   UNL     1      95.736 -61.611 104.836  1.00  0.00     0.316 C 
ATOM      3  C   UNL     1      97.421 -59.288 105.380  1.00  0.00     0.018 C 
ATOM      4  C   UNL     1      96.142 -59.117 105.016  1.00  0.00     0.186 C 
ATOM      5  C   UNL     1      97.845 -60.681 105.712  1.00  0.00     0.061 C 
ATOM      6  O   UNL     1      95.295 -60.232 104.797  1.00  0.00    -0.472 OA
ATOM      7  C   UNL     1      97.263 -61.633 104.679  1.00  0.00     0.096 C 
ATOM      8  C   UNL     1      99.329 -61.047 105.732  1.00  0.00     0.145 C 
ATOM      9  C   UNL     1      98.060 -62.867 104.952  1.00  0.00    -0.036 C 
ATOM     10  C   UNL     1      99.252 -62.523 105.458  1.00  0.00     0.007 C 
BRANCH   8  11
ATOM     11  O   UNL     1      99.898 -60.815 106.991  1.00  0.00    -0.388 OA
ATOM     12  H   UNL     1      99.987 -61.705 107.422  1.00  0.00     0.211 HD
ENDBRANCH   8  11
BRANCH   9  13
ATOM     13  C   UNL     1      97.721 -64.254 104.488  1.00  0.00     0.187 C 
BRANCH  13  14
ATOM     14  O   UNL     1      97.523 -64.264 103.101  1.00  0.00    -0.392 OA
ATOM     15  H   UNL     1      98.171 -63.617 102.719  1.00  0.00     0.211 HD
ENDBRANCH  13  14
ENDBRANCH   9  13
ENDBRANCH   1   2
BRANCH   1  16
ATOM     16  C   UNL     1      93.740 -62.144 103.715  1.00  0.00     0.286 C 
ATOM     17  C   UNL     1      93.327 -61.176 102.563  1.00  0.00     0.202 C 
ATOM     18  O   UNL     1      93.077 -63.405 103.680  1.00  0.00    -0.341 OA
ATOM     19  C   UNL     1      92.151 -61.746 101.753  1.00  0.00     0.179 C 
ATOM     20  C   UNL     1      93.057 -64.050 102.409  1.00  0.00     0.178 C 
ATOM     21  C   UNL     1      92.479 -63.167 101.260  1.00  0.00     0.177 C 
BRANCH  17  22
ATOM     22  O   UNL     1      94.415 -60.829 101.734  1.00  0.00    -0.385 OA
ATOM     23  H   UNL     1      94.360 -59.861 101.536  1.00  0.00     0.211 HD
ENDBRANCH  17  22
BRANCH  19  24
ATOM     24  O   UNL     1      91.797 -60.896 100.689  1.00  0.00    -0.387 OA
ATOM     25  H   UNL     1      91.368 -60.085 101.070  1.00  0.00     0.211 HD
ENDBRANCH  19  24
BRANCH  20  26
ATOM     26  C   UNL     1      94.411 -64.693 102.048  1.00  0.00     0.191 C 
BRANCH  26  27
ATOM     27  O   UNL     1      95.156 -63.842 101.221  1.00  0.00    -0.394 OA
ATOM     28  H   UNL     1      95.870 -63.446 101.787  1.00  0.00     0.210 HD
ENDBRANCH  26  27
ENDBRANCH  20  26
BRANCH  21  29
ATOM     29  O   UNL     1      91.337 -63.763 100.690  1.00  0.00    -0.387 OA
ATOM     30  H   UNL     1      90.963 -63.127 100.026  1.00  0.00     0.211 HD
ENDBRANCH  21  29
ENDBRANCH   1  16
TORSDOF 10
ENDMDL
MODEL 9
REMARK VINA RESULT:    -5.867      2.817      6.222
REMARK INTER + INTRA:         -10.078
REMARK INTER:                  -8.310
REMARK INTRA:                  -1.768
REMARK UNBOUND:                -1.810
REMARK SMILES OCC1=C[C@H](O)[C@H]2C=CO[C@@H](O[C@@H]3O[C@H](CO)[C@@H](O)[C@H](O)[C@@H]3O)[C@H]12
REMARK SMILES IDX 12 1 11 2 8 3 9 4 7 5 10 6 24 7 5 8 3 9 4 10 6 11 2 13 1 14
REMARK SMILES IDX 13 16 22 17 14 18 20 19 15 20 18 21 23 22 21 24 16 26 17 27
REMARK SMILES IDX 19 29
REMARK H PARENT 6 12 1 15 23 23 21 25 17 28 19 30
REMARK Flexibility Score: inf
ROOT
ATOM      1  O   UNL     1      96.586 -62.647 105.176  1.00  0.00    -0.310 OA
ENDROOT
BRANCH   1   2
ATOM      2  C   UNL     1      95.223 -62.376 104.897  1.00  0.00     0.316 C 
ATOM      3  C   UNL     1      93.331 -62.108 102.688  1.00  0.00     0.018 C 
ATOM      4  C   UNL     1      93.760 -63.324 103.059  1.00  0.00     0.186 C 
ATOM      5  C   UNL     1      93.677 -60.969 103.590  1.00  0.00     0.061 C 
ATOM      6  O   UNL     1      94.638 -63.478 104.160  1.00  0.00    -0.472 OA
ATOM      7  C   UNL     1      95.125 -61.112 104.032  1.00  0.00     0.096 C 
ATOM      8  C   UNL     1      93.606 -59.533 103.074  1.00  0.00     0.145 C 
ATOM      9  C   UNL     1      95.381 -59.754 104.600  1.00  0.00    -0.036 C 
ATOM     10  C   UNL     1      94.588 -58.862 103.993  1.00  0.00     0.007 C 
BRANCH   8  11
ATOM     11  O   UNL     1      92.327 -58.987 103.247  1.00  0.00    -0.388 OA
ATOM     12  H   UNL     1      91.853 -59.112 102.383  1.00  0.00     0.211 HD
ENDBRANCH   8  11
BRANCH   9  13
ATOM     13  C   UNL     1      96.522 -59.378 105.500  1.00  0.00     0.187 C 
BRANCH  13  14
ATOM     14  O   UNL     1      97.681 -60.071 105.125  1.00  0.00    -0.392 OA
ATOM     15  H   UNL     1      98.300 -60.025 105.900  1.00  0.00     0.211 HD
ENDBRANCH  13  14
ENDBRANCH   9  13
ENDBRANCH   1   2
BRANCH   1  16
ATOM     16  C   UNL     1      97.007 -63.879 104.604  1.00  0.00     0.286 C 
ATOM     17  C   UNL     1      98.203 -63.692 103.618  1.00  0.00     0.202 C 
ATOM     18  O   UNL     1      97.247 -64.832 105.635  1.00  0.00    -0.341 OA
ATOM     19  C   UNL     1      99.308 -64.729 103.883  1.00  0.00     0.179 C 
ATOM     20  C   UNL     1      98.494 -64.701 106.312  1.00  0.00     0.178 C 
ATOM     21  C   UNL     1      99.733 -64.692 105.363  1.00  0.00     0.177 C 
BRANCH  17  22
ATOM     22  O   UNL     1      98.708 -62.375 103.625  1.00  0.00    -0.385 OA
ATOM     23  H   UNL     1      99.641 -62.400 103.957  1.00  0.00     0.211 HD
ENDBRANCH  17  22
BRANCH  19  24
ATOM     24  O   UNL     1     100.406 -64.544 103.023  1.00  0.00    -0.387 OA
ATOM     25  H   UNL     1     100.059 -64.423 102.100  1.00  0.00     0.211 HD
ENDBRANCH  19  24
BRANCH  20  26
ATOM     26  C   UNL     1      98.503 -63.533 107.319  1.00  0.00     0.191 C 
BRANCH  26  27
ATOM     27  O   UNL     1      99.047 -62.381 106.734  1.00  0.00    -0.394 OA
ATOM     28  H   UNL     1     100.029 -62.519 106.689  1.00  0.00     0.210 HD
ENDBRANCH  26  27
ENDBRANCH  20  26
BRANCH  21  29
ATOM     29  O   UNL     1     100.597 -65.766 105.650  1.00  0.00    -0.387 OA
ATOM     30  H   UNL     1     100.970 -66.093 104.791  1.00  0.00     0.211 HD
ENDBRANCH  21  29
ENDBRANCH   1  16
TORSDOF 10
ENDMDL
