MODEL 1
REMARK VINA RESULT:    -5.291      0.000      0.000
REMARK INTER + INTRA:         -10.217
REMARK INTER:                  -9.002
REMARK INTRA:                  -1.215
REMARK UNBOUND:                -1.215
REMARK SMILES CCCCCCCCCCCCCC(=O)[O-]
REMARK SMILES IDX 8 1 9 2 10 3 11 4 12 5 13 6 14 7 15 8 16 9 7 10 6 11 5 12
REMARK SMILES IDX 4 13 3 14 2 15 1 16
REMARK H PARENT
REMARK Flexibility Score: inf
ROOT
ATOM      1  C   UNL     1     -10.828 -16.023  27.408  1.00  0.00     0.000 C 
ENDROOT
BRANCH   1   2
ATOM      2  C   UNL     1     -10.416 -15.240  26.149  1.00  0.00     0.000 C 
BRANCH   2   3
ATOM      3  C   UNL     1      -9.152 -14.377  26.343  1.00  0.00     0.000 C 
BRANCH   3   4
ATOM      4  C   UNL     1      -7.870 -15.222  26.377  1.00  0.00     0.000 C 
BRANCH   4   5
ATOM      5  C   UNL     1      -6.911 -14.725  27.469  1.00  0.00     0.006 C 
BRANCH   5   6
ATOM      6  C   UNL     1      -7.634 -14.436  28.791  1.00  0.00     0.053 C 
BRANCH   6   7
ATOM      7  C   UNL     1      -6.738 -13.750  29.776  1.00  0.00     0.041 C 
ATOM      8  O   UNL     1      -7.128 -13.547  30.954  1.00  0.00    -0.550 OA
ATOM      9  O   UNL     1      -5.482 -13.307  29.380  1.00  0.00    -0.550 OA
ENDBRANCH   6   7
ENDBRANCH   5   6
ENDBRANCH   4   5
ENDBRANCH   3   4
ENDBRANCH   2   3
ENDBRANCH   1   2
BRANCH   1  10
ATOM     10  C   UNL     1     -12.342 -16.280  27.481  1.00  0.00     0.000 C 
BRANCH  10  11
ATOM     11  C   UNL     1     -12.908 -16.064  28.894  1.00  0.00    -0.000 C 
BRANCH  11  12
ATOM     12  C   UNL     1     -13.174 -17.389  29.629  1.00  0.00    -0.000 C 
BRANCH  12  13
ATOM     13  C   UNL     1     -12.502 -17.446  31.012  1.00  0.00    -0.000 C 
BRANCH  13  14
ATOM     14  C   UNL     1     -11.499 -18.606  31.132  1.00  0.00    -0.000 C 
BRANCH  14  15
ATOM     15  C   UNL     1     -10.158 -18.296  30.449  1.00  0.00    -0.003 C 
ATOM     16  C   UNL     1      -9.636 -16.897  30.773  1.00  0.00     0.004 C 
ENDBRANCH  14  15
ENDBRANCH  13  14
ENDBRANCH  12  13
ENDBRANCH  11  12
ENDBRANCH  10  11
ENDBRANCH   1  10
TORSDOF 12
ENDMDL
MODEL 2
REMARK VINA RESULT:    -5.263      1.409      4.465
REMARK INTER + INTRA:         -10.170
REMARK INTER:                  -8.883
REMARK INTRA:                  -1.288
REMARK UNBOUND:                -1.215
REMARK SMILES CCCCCCCCCCCCCC(=O)[O-]
REMARK SMILES IDX 8 1 9 2 10 3 11 4 12 5 13 6 14 7 15 8 16 9 7 10 6 11 5 12
REMARK SMILES IDX 4 13 3 14 2 15 1 16
REMARK H PARENT
REMARK Flexibility Score: inf
ROOT
ATOM      1  C   UNL     1     -13.532 -17.135  29.945  1.00  0.00     0.000 C 
ENDROOT
BRANCH   1   2
ATOM      2  C   UNL     1     -12.619 -18.316  30.317  1.00  0.00     0.000 C 
BRANCH   2   3
ATOM      3  C   UNL     1     -11.679 -18.755  29.174  1.00  0.00     0.000 C 
BRANCH   3   4
ATOM      4  C   UNL     1     -10.198 -18.663  29.571  1.00  0.00     0.000 C 
BRANCH   4   5
ATOM      5  C   UNL     1      -9.997 -17.665  30.720  1.00  0.00     0.006 C 
BRANCH   5   6
ATOM      6  C   UNL     1      -9.547 -16.286  30.221  1.00  0.00     0.053 C 
BRANCH   6   7
ATOM      7  C   UNL     1      -8.281 -15.841  30.887  1.00  0.00     0.041 C 
ATOM      8  O   UNL     1      -7.560 -14.958  30.354  1.00  0.00    -0.550 OA
ATOM      9  O   UNL     1      -7.882 -16.427  32.082  1.00  0.00    -0.550 OA
ENDBRANCH   6   7
ENDBRANCH   5   6
ENDBRANCH   4   5
ENDBRANCH   3   4
ENDBRANCH   2   3
ENDBRANCH   1   2
BRANCH   1  10
ATOM     10  C   UNL     1     -12.818 -16.078  29.086  1.00  0.00     0.000 C 
BRANCH  10  11
ATOM     11  C   UNL     1     -13.357 -16.027  27.647  1.00  0.00    -0.000 C 
BRANCH  11  12
ATOM     12  C   UNL     1     -12.236 -16.112  26.596  1.00  0.00    -0.000 C 
BRANCH  12  13
ATOM     13  C   UNL     1     -10.941 -15.418  27.052  1.00  0.00    -0.000 C 
BRANCH  13  14
ATOM     14  C   UNL     1     -10.167 -14.787  25.883  1.00  0.00    -0.000 C 
BRANCH  14  15
ATOM     15  C   UNL     1      -8.814 -14.204  26.321  1.00  0.00    -0.003 C 
ATOM     16  C   UNL     1      -7.818 -15.279  26.755  1.00  0.00     0.004 C 
ENDBRANCH  14  15
ENDBRANCH  13  14
ENDBRANCH  12  13
ENDBRANCH  11  12
ENDBRANCH  10  11
ENDBRANCH   1  10
TORSDOF 12
ENDMDL
MODEL 3
REMARK VINA RESULT:    -5.254      2.612      5.491
REMARK INTER + INTRA:         -10.155
REMARK INTER:                  -9.055
REMARK INTRA:                  -1.100
REMARK UNBOUND:                -1.215
REMARK SMILES CCCCCCCCCCCCCC(=O)[O-]
REMARK SMILES IDX 8 1 9 2 10 3 11 4 12 5 13 6 14 7 15 8 16 9 7 10 6 11 5 12
REMARK SMILES IDX 4 13 3 14 2 15 1 16
REMARK H PARENT
REMARK Flexibility Score: inf
ROOT
ATOM      1  C   UNL     1      -8.256 -15.015  27.100  1.00  0.00     0.000 C 
ENDROOT
BRANCH   1   2
ATOM      2  C   UNL     1      -9.436 -14.653  26.181  1.00  0.00     0.000 C 
BRANCH   2   3
ATOM      3  C   UNL     1     -10.748 -15.381  26.541  1.00  0.00     0.000 C 
BRANCH   3   4
ATOM      4  C   UNL     1     -10.598 -16.268  27.786  1.00  0.00     0.000 C 
BRANCH   4   5
ATOM      5  C   UNL     1     -11.923 -16.966  28.128  1.00  0.00     0.006 C 
BRANCH   5   6
ATOM      6  C   UNL     1     -11.707 -18.330  28.794  1.00  0.00     0.053 C 
BRANCH   6   7
ATOM      7  C   UNL     1     -10.969 -18.204  30.091  1.00  0.00     0.041 C 
ATOM      8  O   UNL     1      -9.991 -18.955  30.342  1.00  0.00    -0.550 OA
ATOM      9  O   UNL     1     -11.384 -17.275  31.038  1.00  0.00    -0.550 OA
ENDBRANCH   6   7
ENDBRANCH   5   6
ENDBRANCH   4   5
ENDBRANCH   3   4
ENDBRANCH   2   3
ENDBRANCH   1   2
BRANCH   1  10
ATOM     10  C   UNL     1      -6.925 -14.408  26.627  1.00  0.00     0.000 C 
BRANCH  10  11
ATOM     11  C   UNL     1      -5.817 -14.524  27.686  1.00  0.00    -0.000 C 
BRANCH  11  12
ATOM     12  C   UNL     1      -5.989 -13.511  28.831  1.00  0.00    -0.000 C 
BRANCH  12  13
ATOM     13  C   UNL     1      -5.779 -14.142  30.218  1.00  0.00    -0.000 C 
BRANCH  13  14
ATOM     14  C   UNL     1      -7.073 -14.187  31.048  1.00  0.00    -0.000 C 
BRANCH  14  15
ATOM     15  C   UNL     1      -7.981 -15.364  30.656  1.00  0.00    -0.003 C 
ATOM     16  C   UNL     1      -8.030 -16.457  31.723  1.00  0.00     0.004 C 
ENDBRANCH  14  15
ENDBRANCH  13  14
ENDBRANCH  12  13
ENDBRANCH  11  12
ENDBRANCH  10  11
ENDBRANCH   1  10
TORSDOF 12
ENDMDL
MODEL 4
REMARK VINA RESULT:    -5.189      2.346      5.441
REMARK INTER + INTRA:         -10.045
REMARK INTER:                  -9.125
REMARK INTRA:                  -0.920
REMARK UNBOUND:                -1.215
REMARK SMILES CCCCCCCCCCCCCC(=O)[O-]
REMARK SMILES IDX 8 1 9 2 10 3 11 4 12 5 13 6 14 7 15 8 16 9 7 10 6 11 5 12
REMARK SMILES IDX 4 13 3 14 2 15 1 16
REMARK H PARENT
REMARK Flexibility Score: inf
ROOT
ATOM      1  C   UNL     1     -10.354 -14.920  26.135  1.00  0.00     0.000 C 
ENDROOT
BRANCH   1   2
ATOM      2  C   UNL     1     -10.819 -15.871  27.251  1.00  0.00     0.000 C 
BRANCH   2   3
ATOM      3  C   UNL     1     -12.338 -16.142  27.240  1.00  0.00     0.000 C 
BRANCH   3   4
ATOM      4  C   UNL     1     -12.913 -16.298  28.656  1.00  0.00     0.000 C 
BRANCH   4   5
ATOM      5  C   UNL     1     -11.810 -16.165  29.716  1.00  0.00     0.006 C 
BRANCH   5   6
ATOM      6  C   UNL     1     -11.728 -17.396  30.627  1.00  0.00     0.053 C 
BRANCH   6   7
ATOM      7  C   UNL     1     -10.595 -18.297  30.244  1.00  0.00     0.041 C 
ATOM      8  O   UNL     1     -10.666 -18.998  29.201  1.00  0.00    -0.550 OA
ATOM      9  O   UNL     1      -9.472 -18.384  31.057  1.00  0.00    -0.550 OA
ENDBRANCH   6   7
ENDBRANCH   5   6
ENDBRANCH   4   5
ENDBRANCH   3   4
ENDBRANCH   2   3
ENDBRANCH   1   2
BRANCH   1  10
ATOM     10  C   UNL     1      -8.990 -14.275  26.432  1.00  0.00     0.000 C 
BRANCH  10  11
ATOM     11  C   UNL     1      -7.912 -15.311  26.786  1.00  0.00    -0.000 C 
BRANCH  11  12
ATOM     12  C   UNL     1      -6.634 -14.664  27.346  1.00  0.00    -0.000 C 
BRANCH  12  13
ATOM     13  C   UNL     1      -6.899 -13.823  28.607  1.00  0.00    -0.000 C 
BRANCH  13  14
ATOM     14  C   UNL     1      -7.237 -14.688  29.833  1.00  0.00    -0.000 C 
BRANCH  14  15
ATOM     15  C   UNL     1      -6.107 -14.694  30.875  1.00  0.00    -0.003 C 
ATOM     16  C   UNL     1      -6.476 -13.942  32.154  1.00  0.00     0.004 C 
ENDBRANCH  14  15
ENDBRANCH  13  14
ENDBRANCH  12  13
ENDBRANCH  11  12
ENDBRANCH  10  11
ENDBRANCH   1  10
TORSDOF 12
ENDMDL
MODEL 5
REMARK VINA RESULT:    -5.179      1.189      2.538
REMARK INTER + INTRA:         -10.028
REMARK INTER:                  -8.868
REMARK INTRA:                  -1.159
REMARK UNBOUND:                -1.215
REMARK SMILES CCCCCCCCCCCCCC(=O)[O-]
REMARK SMILES IDX 8 1 9 2 10 3 11 4 12 5 13 6 14 7 15 8 16 9 7 10 6 11 5 12
REMARK SMILES IDX 4 13 3 14 2 15 1 16
REMARK H PARENT
REMARK Flexibility Score: inf
ROOT
ATOM      1  C   UNL     1      -8.769 -14.272  26.239  1.00  0.00     0.000 C 
ENDROOT
BRANCH   1   2
ATOM      2  C   UNL     1      -7.735 -15.218  26.873  1.00  0.00     0.000 C 
BRANCH   2   3
ATOM      3  C   UNL     1      -6.431 -14.512  27.302  1.00  0.00     0.000 C 
BRANCH   3   4
ATOM      4  C   UNL     1      -6.523 -13.931  28.720  1.00  0.00     0.000 C 
BRANCH   4   5
ATOM      5  C   UNL     1      -7.548 -14.701  29.566  1.00  0.00     0.006 C 
BRANCH   5   6
ATOM      6  C   UNL     1      -6.992 -15.090  30.941  1.00  0.00     0.053 C 
BRANCH   6   7
ATOM      7  C   UNL     1      -6.275 -13.949  31.594  1.00  0.00     0.041 C 
ATOM      8  O   UNL     1      -5.048 -14.038  31.859  1.00  0.00    -0.550 OA
ATOM      9  O   UNL     1      -6.973 -12.798  31.939  1.00  0.00    -0.550 OA
ENDBRANCH   6   7
ENDBRANCH   5   6
ENDBRANCH   4   5
ENDBRANCH   3   4
ENDBRANCH   2   3
ENDBRANCH   1   2
BRANCH   1  10
ATOM     10  C   UNL     1     -10.191 -14.858  26.237  1.00  0.00     0.000 C 
BRANCH  10  11
ATOM     11  C   UNL     1     -10.399 -15.902  27.345  1.00  0.00    -0.000 C 
BRANCH  11  12
ATOM     12  C   UNL     1     -11.874 -16.312  27.497  1.00  0.00    -0.000 C 
BRANCH  12  13
ATOM     13  C   UNL     1     -12.162 -17.001  28.842  1.00  0.00    -0.000 C 
BRANCH  13  14
ATOM     14  C   UNL     1     -11.476 -16.296  30.025  1.00  0.00    -0.000 C 
BRANCH  14  15
ATOM     15  C   UNL     1     -10.394 -17.169  30.681  1.00  0.00    -0.003 C 
ATOM     16  C   UNL     1     -10.350 -18.587  30.112  1.00  0.00     0.004 C 
ENDBRANCH  14  15
ENDBRANCH  13  14
ENDBRANCH  12  13
ENDBRANCH  11  12
ENDBRANCH  10  11
ENDBRANCH   1  10
TORSDOF 12
ENDMDL
MODEL 6
REMARK VINA RESULT:    -5.158      1.288      4.042
REMARK INTER + INTRA:          -9.991
REMARK INTER:                  -8.881
REMARK INTRA:                  -1.109
REMARK UNBOUND:                -1.215
REMARK SMILES CCCCCCCCCCCCCC(=O)[O-]
REMARK SMILES IDX 8 1 9 2 10 3 11 4 12 5 13 6 14 7 15 8 16 9 7 10 6 11 5 12
REMARK SMILES IDX 4 13 3 14 2 15 1 16
REMARK H PARENT
REMARK Flexibility Score: inf
ROOT
ATOM      1  C   UNL     1     -11.083 -18.386  29.072  1.00  0.00     0.000 C 
ENDROOT
BRANCH   1   2
ATOM      2  C   UNL     1     -10.138 -18.749  30.231  1.00  0.00     0.000 C 
BRANCH   2   3
ATOM      3  C   UNL     1      -9.933 -17.603  31.244  1.00  0.00     0.000 C 
BRANCH   3   4
ATOM      4  C   UNL     1      -9.113 -16.445  30.656  1.00  0.00     0.000 C 
BRANCH   4   5
ATOM      5  C   UNL     1      -7.916 -16.106  31.556  1.00  0.00     0.006 C 
BRANCH   5   6
ATOM      6  C   UNL     1      -6.973 -15.084  30.908  1.00  0.00     0.053 C 
BRANCH   6   7
ATOM      7  C   UNL     1      -6.755 -13.893  31.789  1.00  0.00     0.041 C 
ATOM      8  O   UNL     1      -7.020 -12.736  31.369  1.00  0.00    -0.550 OA
ATOM      9  O   UNL     1      -6.228 -14.059  33.064  1.00  0.00    -0.550 OA
ENDBRANCH   6   7
ENDBRANCH   5   6
ENDBRANCH   4   5
ENDBRANCH   3   4
ENDBRANCH   2   3
ENDBRANCH   1   2
BRANCH   1  10
ATOM     10  C   UNL     1     -12.302 -17.568  29.530  1.00  0.00     0.000 C 
BRANCH  10  11
ATOM     11  C   UNL     1     -12.550 -16.335  28.646  1.00  0.00    -0.000 C 
BRANCH  11  12
ATOM     12  C   UNL     1     -12.094 -16.552  27.193  1.00  0.00    -0.000 C 
BRANCH  12  13
ATOM     13  C   UNL     1     -11.203 -15.411  26.674  1.00  0.00    -0.000 C 
BRANCH  13  14
ATOM     14  C   UNL     1      -9.767 -15.489  27.220  1.00  0.00    -0.000 C 
BRANCH  14  15
ATOM     15  C   UNL     1      -8.758 -14.749  26.328  1.00  0.00    -0.003 C 
ATOM     16  C   UNL     1      -7.329 -14.815  26.866  1.00  0.00     0.004 C 
ENDBRANCH  14  15
ENDBRANCH  13  14
ENDBRANCH  12  13
ENDBRANCH  11  12
ENDBRANCH  10  11
ENDBRANCH   1  10
TORSDOF 12
ENDMDL
MODEL 7
REMARK VINA RESULT:    -5.098      2.899      5.974
REMARK INTER + INTRA:          -9.889
REMARK INTER:                  -9.069
REMARK INTRA:                  -0.820
REMARK UNBOUND:                -1.215
REMARK SMILES CCCCCCCCCCCCCC(=O)[O-]
REMARK SMILES IDX 8 1 9 2 10 3 11 4 12 5 13 6 14 7 15 8 16 9 7 10 6 11 5 12
REMARK SMILES IDX 4 13 3 14 2 15 1 16
REMARK H PARENT
REMARK Flexibility Score: inf
ROOT
ATOM      1  C   UNL     1      -8.120 -15.242  26.611  1.00  0.00     0.000 C 
ENDROOT
BRANCH   1   2
ATOM      2  C   UNL     1      -9.335 -14.550  25.969  1.00  0.00     0.000 C 
BRANCH   2   3
ATOM      3  C   UNL     1     -10.680 -15.232  26.297  1.00  0.00     0.000 C 
BRANCH   3   4
ATOM      4  C   UNL     1     -10.616 -16.054  27.592  1.00  0.00     0.000 C 
BRANCH   4   5
ATOM      5  C   UNL     1     -12.021 -16.294  28.163  1.00  0.00     0.006 C 
BRANCH   5   6
ATOM      6  C   UNL     1     -12.000 -16.542  29.676  1.00  0.00     0.053 C 
BRANCH   6   7
ATOM      7  C   UNL     1     -12.025 -18.004  30.001  1.00  0.00     0.041 C 
ATOM      8  O   UNL     1     -13.037 -18.698  29.721  1.00  0.00    -0.550 OA
ATOM      9  O   UNL     1     -10.942 -18.592  30.642  1.00  0.00    -0.550 OA
ENDBRANCH   6   7
ENDBRANCH   5   6
ENDBRANCH   4   5
ENDBRANCH   3   4
ENDBRANCH   2   3
ENDBRANCH   1   2
BRANCH   1  10
ATOM     10  C   UNL     1      -6.988 -14.260  26.956  1.00  0.00     0.000 C 
BRANCH  10  11
ATOM     11  C   UNL     1      -6.412 -14.495  28.361  1.00  0.00    -0.000 C 
BRANCH  11  12
ATOM     12  C   UNL     1      -7.509 -14.727  29.415  1.00  0.00    -0.000 C 
BRANCH  12  13
ATOM     13  C   UNL     1      -7.214 -14.014  30.746  1.00  0.00    -0.000 C 
BRANCH  13  14
ATOM     14  C   UNL     1      -6.304 -12.787  30.567  1.00  0.00    -0.000 C 
BRANCH  14  15
ATOM     15  C   UNL     1      -6.250 -11.908  31.828  1.00  0.00    -0.003 C 
ATOM     16  C   UNL     1      -4.886 -11.945  32.518  1.00  0.00     0.004 C 
ENDBRANCH  14  15
ENDBRANCH  13  14
ENDBRANCH  12  13
ENDBRANCH  11  12
ENDBRANCH  10  11
ENDBRANCH   1  10
TORSDOF 12
ENDMDL
MODEL 8
REMARK VINA RESULT:    -4.988      3.560      6.331
REMARK INTER + INTRA:          -9.702
REMARK INTER:                  -8.958
REMARK INTRA:                  -0.743
REMARK UNBOUND:                -1.215
REMARK SMILES CCCCCCCCCCCCCC(=O)[O-]
REMARK SMILES IDX 8 1 9 2 10 3 11 4 12 5 13 6 14 7 15 8 16 9 7 10 6 11 5 12
REMARK SMILES IDX 4 13 3 14 2 15 1 16
REMARK H PARENT
REMARK Flexibility Score: inf
ROOT
ATOM      1  C   UNL     1     -10.959 -16.196  28.047  1.00  0.00     0.000 C 
ENDROOT
BRANCH   1   2
ATOM      2  C   UNL     1     -12.005 -17.279  28.366  1.00  0.00     0.000 C 
BRANCH   2   3
ATOM      3  C   UNL     1     -11.396 -18.579  28.932  1.00  0.00     0.000 C 
BRANCH   3   4
ATOM      4  C   UNL     1     -10.327 -18.305  30.000  1.00  0.00     0.000 C 
BRANCH   4   5
ATOM      5  C   UNL     1     -10.702 -18.959  31.337  1.00  0.00     0.006 C 
BRANCH   5   6
ATOM      6  C   UNL     1     -12.211 -18.901  31.610  1.00  0.00     0.053 C 
BRANCH   6   7
ATOM      7  C   UNL     1     -12.547 -19.395  32.983  1.00  0.00     0.041 C 
ATOM      8  O   UNL     1     -12.005 -20.437  33.434  1.00  0.00    -0.550 OA
ATOM      9  O   UNL     1     -13.484 -18.718  33.754  1.00  0.00    -0.550 OA
ENDBRANCH   6   7
ENDBRANCH   5   6
ENDBRANCH   4   5
ENDBRANCH   3   4
ENDBRANCH   2   3
ENDBRANCH   1   2
BRANCH   1  10
ATOM     10  C   UNL     1     -11.120 -15.608  26.636  1.00  0.00     0.000 C 
BRANCH  10  11
ATOM     11  C   UNL     1      -9.821 -14.982  26.106  1.00  0.00    -0.000 C 
BRANCH  11  12
ATOM     12  C   UNL     1      -8.614 -15.275  27.014  1.00  0.00    -0.000 C 
BRANCH  12  13
ATOM     13  C   UNL     1      -7.355 -14.494  26.599  1.00  0.00    -0.000 C 
BRANCH  13  14
ATOM     14  C   UNL     1      -6.334 -14.371  27.742  1.00  0.00    -0.000 C 
BRANCH  14  15
ATOM     15  C   UNL     1      -6.957 -14.651  29.119  1.00  0.00    -0.003 C 
ATOM     16  C   UNL     1      -6.824 -13.471  30.081  1.00  0.00     0.004 C 
ENDBRANCH  14  15
ENDBRANCH  13  14
ENDBRANCH  12  13
ENDBRANCH  11  12
ENDBRANCH  10  11
ENDBRANCH   1  10
TORSDOF 12
ENDMDL
MODEL 9
REMARK VINA RESULT:    -4.973      4.277      7.482
REMARK INTER + INTRA:          -9.677
REMARK INTER:                  -9.106
REMARK INTRA:                  -0.571
REMARK UNBOUND:                -1.215
REMARK SMILES CCCCCCCCCCCCCC(=O)[O-]
REMARK SMILES IDX 8 1 9 2 10 3 11 4 12 5 13 6 14 7 15 8 16 9 7 10 6 11 5 12
REMARK SMILES IDX 4 13 3 14 2 15 1 16
REMARK H PARENT
REMARK Flexibility Score: inf
ROOT
ATOM      1  C   UNL     1     -11.640 -18.084  28.937  1.00  0.00     0.000 C 
ENDROOT
BRANCH   1   2
ATOM      2  C   UNL     1     -11.066 -18.254  30.354  1.00  0.00     0.000 C 
BRANCH   2   3
ATOM      3  C   UNL     1     -12.015 -17.767  31.469  1.00  0.00     0.000 C 
BRANCH   3   4
ATOM      4  C   UNL     1     -13.004 -18.857  31.910  1.00  0.00     0.000 C 
BRANCH   4   5
ATOM      5  C   UNL     1     -12.363 -19.799  32.940  1.00  0.00     0.006 C 
BRANCH   5   6
ATOM      6  C   UNL     1     -13.379 -20.775  33.545  1.00  0.00     0.053 C 
BRANCH   6   7
ATOM      7  C   UNL     1     -12.722 -21.762  34.461  1.00  0.00     0.041 C 
ATOM      8  O   UNL     1     -11.515 -21.621  34.787  1.00  0.00    -0.550 OA
ATOM      9  O   UNL     1     -13.438 -22.858  34.928  1.00  0.00    -0.550 OA
ENDBRANCH   6   7
ENDBRANCH   5   6
ENDBRANCH   4   5
ENDBRANCH   3   4
ENDBRANCH   2   3
ENDBRANCH   1   2
BRANCH   1  10
ATOM     10  C   UNL     1     -12.370 -16.744  28.746  1.00  0.00     0.000 C 
BRANCH  10  11
ATOM     11  C   UNL     1     -12.101 -16.118  27.368  1.00  0.00    -0.000 C 
BRANCH  11  12
ATOM     12  C   UNL     1     -10.605 -15.848  27.127  1.00  0.00    -0.000 C 
BRANCH  12  13
ATOM     13  C   UNL     1     -10.363 -14.779  26.049  1.00  0.00    -0.000 C 
BRANCH  13  14
ATOM     14  C   UNL     1      -8.956 -14.163  26.135  1.00  0.00    -0.000 C 
BRANCH  14  15
ATOM     15  C   UNL     1      -7.903 -15.171  26.625  1.00  0.00    -0.003 C 
ATOM     16  C   UNL     1      -7.069 -14.638  27.789  1.00  0.00     0.004 C 
ENDBRANCH  14  15
ENDBRANCH  13  14
ENDBRANCH  12  13
ENDBRANCH  11  12
ENDBRANCH  10  11
ENDBRANCH   1  10
TORSDOF 12
ENDMDL
