MODEL 1
REMARK VINA RESULT:    -5.462      0.000      0.000
REMARK INTER + INTRA:          -7.595
REMARK INTER:                  -7.378
REMARK INTRA:                  -0.217
REMARK UNBOUND:                -0.217
REMARK SMILES CCCCCCCC(=O)[O-]
REMARK SMILES IDX 5 1 6 2 7 3 8 4 9 5 10 6 4 7 3 8 2 9 1 10
REMARK H PARENT
REMARK Flexibility Score: inf
ROOT
ATOM      1  C   UNL     1      94.855 121.198 119.947  1.00  0.00     0.000 C 
ENDROOT
BRANCH   1   2
ATOM      2  C   UNL     1      93.834 121.512 121.053  1.00  0.00     0.006 C 
BRANCH   2   3
ATOM      3  C   UNL     1      94.438 121.425 122.461  1.00  0.00     0.053 C 
BRANCH   3   4
ATOM      4  C   UNL     1      94.353 122.751 123.147  1.00  0.00     0.041 C 
ATOM      5  O   UNL     1      95.380 123.470 123.267  1.00  0.00    -0.550 OA
ATOM      6  O   UNL     1      93.150 123.172 123.699  1.00  0.00    -0.550 OA
ENDBRANCH   3   4
ENDBRANCH   2   3
ENDBRANCH   1   2
BRANCH   1   7
ATOM      7  C   UNL     1      94.192 120.974 118.578  1.00  0.00     0.000 C 
BRANCH   7   8
ATOM      8  C   UNL     1      92.808 121.637 118.477  1.00  0.00    -0.000 C 
BRANCH   8   9
ATOM      9  C   UNL     1      92.442 122.029 117.037  1.00  0.00    -0.003 C 
ATOM     10  C   UNL     1      92.712 120.879 116.071  1.00  0.00     0.004 C 
ENDBRANCH   8   9
ENDBRANCH   7   8
ENDBRANCH   1   7
TORSDOF 6
ENDMDL
MODEL 2
REMARK VINA RESULT:    -5.421      0.883      1.740
REMARK INTER + INTRA:          -7.539
REMARK INTER:                  -7.303
REMARK INTRA:                  -0.236
REMARK UNBOUND:                -0.217
REMARK SMILES CCCCCCCC(=O)[O-]
REMARK SMILES IDX 5 1 6 2 7 3 8 4 9 5 10 6 4 7 3 8 2 9 1 10
REMARK H PARENT
REMARK Flexibility Score: inf
ROOT
ATOM      1  C   UNL     1      93.786 121.394 120.977  1.00  0.00     0.000 C 
ENDROOT
BRANCH   1   2
ATOM      2  C   UNL     1      94.262 121.507 122.435  1.00  0.00     0.006 C 
BRANCH   2   3
ATOM      3  C   UNL     1      95.475 122.433 122.592  1.00  0.00     0.053 C 
BRANCH   3   4
ATOM      4  C   UNL     1      95.244 123.410 123.701  1.00  0.00     0.041 C 
ATOM      5  O   UNL     1      94.189 123.355 124.386  1.00  0.00    -0.550 OA
ATOM      6  O   UNL     1      96.173 124.414 123.947  1.00  0.00    -0.550 OA
ENDBRANCH   3   4
ENDBRANCH   2   3
ENDBRANCH   1   2
BRANCH   1   7
ATOM      7  C   UNL     1      94.947 121.163 119.995  1.00  0.00     0.000 C 
BRANCH   7   8
ATOM      8  C   UNL     1      94.462 120.875 118.564  1.00  0.00    -0.000 C 
BRANCH   8   9
ATOM      9  C   UNL     1      93.086 121.495 118.270  1.00  0.00    -0.003 C 
ATOM     10  C   UNL     1      92.586 121.085 116.887  1.00  0.00     0.004 C 
ENDBRANCH   8   9
ENDBRANCH   7   8
ENDBRANCH   1   7
TORSDOF 6
ENDMDL
MODEL 3
REMARK VINA RESULT:    -5.244      3.383      5.559
REMARK INTER + INTRA:          -7.300
REMARK INTER:                  -7.038
REMARK INTRA:                  -0.262
REMARK UNBOUND:                -0.217
REMARK SMILES CCCCCCCC(=O)[O-]
REMARK SMILES IDX 5 1 6 2 7 3 8 4 9 5 10 6 4 7 3 8 2 9 1 10
REMARK H PARENT
REMARK Flexibility Score: inf
ROOT
ATOM      1  C   UNL     1      94.934 121.154 119.954  1.00  0.00     0.000 C 
ENDROOT
BRANCH   1   2
ATOM      2  C   UNL     1      94.429 121.059 118.505  1.00  0.00     0.006 C 
BRANCH   2   3
ATOM      3  C   UNL     1      92.927 121.352 118.380  1.00  0.00     0.053 C 
BRANCH   3   4
ATOM      4  C   UNL     1      92.630 121.997 117.064  1.00  0.00     0.041 C 
ATOM      5  O   UNL     1      92.459 121.290 116.035  1.00  0.00    -0.550 OA
ATOM      6  O   UNL     1      92.588 123.382 116.962  1.00  0.00    -0.550 OA
ENDBRANCH   3   4
ENDBRANCH   2   3
ENDBRANCH   1   2
BRANCH   1   7
ATOM      7  C   UNL     1      93.788 121.308 120.969  1.00  0.00     0.000 C 
BRANCH   7   8
ATOM      8  C   UNL     1      94.277 121.795 122.342  1.00  0.00    -0.000 C 
BRANCH   8   9
ATOM      9  C   UNL     1      95.740 122.264 122.318  1.00  0.00    -0.003 C 
ATOM     10  C   UNL     1      95.965 123.410 123.300  1.00  0.00     0.004 C 
ENDBRANCH   8   9
ENDBRANCH   7   8
ENDBRANCH   1   7
TORSDOF 6
ENDMDL
MODEL 4
REMARK VINA RESULT:    -5.170      3.089      5.546
REMARK INTER + INTRA:          -7.200
REMARK INTER:                  -6.970
REMARK INTRA:                  -0.231
REMARK UNBOUND:                -0.217
REMARK SMILES CCCCCCCC(=O)[O-]
REMARK SMILES IDX 5 1 6 2 7 3 8 4 9 5 10 6 4 7 3 8 2 9 1 10
REMARK H PARENT
REMARK Flexibility Score: inf
ROOT
ATOM      1  C   UNL     1      95.217 121.587 120.942  1.00  0.00     0.000 C 
ENDROOT
BRANCH   1   2
ATOM      2  C   UNL     1      94.127 120.891 120.110  1.00  0.00     0.006 C 
BRANCH   2   3
ATOM      3  C   UNL     1      94.436 120.894 118.607  1.00  0.00     0.053 C 
BRANCH   3   4
ATOM      4  C   UNL     1      93.231 121.316 117.828  1.00  0.00     0.041 C 
ATOM      5  O   UNL     1      92.332 122.008 118.375  1.00  0.00    -0.550 OA
ATOM      6  O   UNL     1      93.076 120.904 116.510  1.00  0.00    -0.550 OA
ENDBRANCH   3   4
ENDBRANCH   2   3
ENDBRANCH   1   2
BRANCH   1   7
ATOM      7  C   UNL     1      94.871 121.640 122.440  1.00  0.00     0.000 C 
BRANCH   7   8
ATOM      8  C   UNL     1      93.489 122.261 122.704  1.00  0.00    -0.000 C 
BRANCH   8   9
ATOM      9  C   UNL     1      93.442 123.065 124.013  1.00  0.00    -0.003 C 
ATOM     10  C   UNL     1      94.816 123.632 124.359  1.00  0.00     0.004 C 
ENDBRANCH   8   9
ENDBRANCH   7   8
ENDBRANCH   1   7
TORSDOF 6
ENDMDL
MODEL 5
REMARK VINA RESULT:    -4.873      2.900      5.652
REMARK INTER + INTRA:          -6.799
REMARK INTER:                  -6.523
REMARK INTRA:                  -0.276
REMARK UNBOUND:                -0.217
REMARK SMILES CCCCCCCC(=O)[O-]
REMARK SMILES IDX 5 1 6 2 7 3 8 4 9 5 10 6 4 7 3 8 2 9 1 10
REMARK H PARENT
REMARK Flexibility Score: inf
ROOT
ATOM      1  C   UNL     1      93.781 122.308 122.550  1.00  0.00     0.000 C 
ENDROOT
BRANCH   1   2
ATOM      2  C   UNL     1      93.053 121.938 121.247  1.00  0.00     0.006 C 
BRANCH   2   3
ATOM      3  C   UNL     1      93.830 120.919 120.402  1.00  0.00     0.053 C 
BRANCH   3   4
ATOM      4  C   UNL     1      93.672 121.221 118.946  1.00  0.00     0.041 C 
ATOM      5  O   UNL     1      94.562 120.875 118.125  1.00  0.00    -0.550 OA
ATOM      6  O   UNL     1      92.561 121.926 118.499  1.00  0.00    -0.550 OA
ENDBRANCH   3   4
ENDBRANCH   2   3
ENDBRANCH   1   2
BRANCH   1   7
ATOM      7  C   UNL     1      95.136 121.593 122.691  1.00  0.00     0.000 C 
BRANCH   7   8
ATOM      8  C   UNL     1      96.221 122.499 123.294  1.00  0.00    -0.000 C 
BRANCH   8   9
ATOM      9  C   UNL     1      95.643 123.768 123.939  1.00  0.00    -0.003 C 
ATOM     10  C   UNL     1      96.590 124.325 124.999  1.00  0.00     0.004 C 
ENDBRANCH   8   9
ENDBRANCH   7   8
ENDBRANCH   1   7
TORSDOF 6
ENDMDL
MODEL 6
REMARK VINA RESULT:    -4.856      1.453      2.022
REMARK INTER + INTRA:          -6.776
REMARK INTER:                  -6.649
REMARK INTRA:                  -0.127
REMARK UNBOUND:                -0.217
REMARK SMILES CCCCCCCC(=O)[O-]
REMARK SMILES IDX 5 1 6 2 7 3 8 4 9 5 10 6 4 7 3 8 2 9 1 10
REMARK H PARENT
REMARK Flexibility Score: inf
ROOT
ATOM      1  C   UNL     1      94.592 121.291 122.049  1.00  0.00     0.000 C 
ENDROOT
BRANCH   1   2
ATOM      2  C   UNL     1      95.654 122.401 122.100  1.00  0.00     0.006 C 
BRANCH   2   3
ATOM      3  C   UNL     1      96.377 122.468 123.452  1.00  0.00     0.053 C 
BRANCH   3   4
ATOM      4  C   UNL     1      95.824 123.581 124.284  1.00  0.00     0.041 C 
ATOM      5  O   UNL     1      96.595 124.302 124.972  1.00  0.00    -0.550 OA
ATOM      6  O   UNL     1      94.452 123.794 124.337  1.00  0.00    -0.550 OA
ENDBRANCH   3   4
ENDBRANCH   2   3
ENDBRANCH   1   2
BRANCH   1   7
ATOM      7  C   UNL     1      93.458 121.605 121.057  1.00  0.00     0.000 C 
BRANCH   7   8
ATOM      8  C   UNL     1      93.788 121.157 119.624  1.00  0.00    -0.000 C 
BRANCH   8   9
ATOM      9  C   UNL     1      92.793 121.705 118.588  1.00  0.00    -0.003 C 
ATOM     10  C   UNL     1      92.988 121.034 117.231  1.00  0.00     0.004 C 
ENDBRANCH   8   9
ENDBRANCH   7   8
ENDBRANCH   1   7
TORSDOF 6
ENDMDL
MODEL 7
REMARK VINA RESULT:    -4.840      2.980      6.393
REMARK INTER + INTRA:          -6.755
REMARK INTER:                  -6.554
REMARK INTRA:                  -0.201
REMARK UNBOUND:                -0.217
REMARK SMILES CCCCCCCC(=O)[O-]
REMARK SMILES IDX 5 1 6 2 7 3 8 4 9 5 10 6 4 7 3 8 2 9 1 10
REMARK H PARENT
REMARK Flexibility Score: inf
ROOT
ATOM      1  C   UNL     1      94.157 123.431 123.954  1.00  0.00     0.000 C 
ENDROOT
BRANCH   1   2
ATOM      2  C   UNL     1      93.435 122.321 123.172  1.00  0.00     0.006 C 
BRANCH   2   3
ATOM      3  C   UNL     1      94.402 121.424 122.387  1.00  0.00     0.053 C 
BRANCH   3   4
ATOM      4  C   UNL     1      94.004 121.363 120.947  1.00  0.00     0.041 C 
ATOM      5  O   UNL     1      94.829 120.977 120.076  1.00  0.00    -0.550 OA
ATOM      6  O   UNL     1      92.736 121.776 120.558  1.00  0.00    -0.550 OA
ENDBRANCH   3   4
ENDBRANCH   2   3
ENDBRANCH   1   2
BRANCH   1   7
ATOM      7  C   UNL     1      95.684 123.377 123.780  1.00  0.00     0.000 C 
BRANCH   7   8
ATOM      8  C   UNL     1      96.394 124.577 124.428  1.00  0.00    -0.000 C 
BRANCH   8   9
ATOM      9  C   UNL     1      97.042 124.225 125.777  1.00  0.00    -0.003 C 
ATOM     10  C   UNL     1      97.845 125.402 126.323  1.00  0.00     0.004 C 
ENDBRANCH   8   9
ENDBRANCH   7   8
ENDBRANCH   1   7
TORSDOF 6
ENDMDL
MODEL 8
REMARK VINA RESULT:    -4.706      3.273      6.745
REMARK INTER + INTRA:          -6.573
REMARK INTER:                  -6.405
REMARK INTRA:                  -0.168
REMARK UNBOUND:                -0.217
REMARK SMILES CCCCCCCC(=O)[O-]
REMARK SMILES IDX 5 1 6 2 7 3 8 4 9 5 10 6 4 7 3 8 2 9 1 10
REMARK H PARENT
REMARK Flexibility Score: inf
ROOT
ATOM      1  C   UNL     1      94.985 123.530 123.897  1.00  0.00     0.000 C 
ENDROOT
BRANCH   1   2
ATOM      2  C   UNL     1      95.393 122.578 122.760  1.00  0.00     0.006 C 
BRANCH   2   3
ATOM      3  C   UNL     1      94.356 121.474 122.510  1.00  0.00     0.053 C 
BRANCH   3   4
ATOM      4  C   UNL     1      94.018 121.397 121.055  1.00  0.00     0.041 C 
ATOM      5  O   UNL     1      92.845 121.630 120.663  1.00  0.00    -0.550 OA
ATOM      6  O   UNL     1      94.989 121.020 120.135  1.00  0.00    -0.550 OA
ENDBRANCH   3   4
ENDBRANCH   2   3
ENDBRANCH   1   2
BRANCH   1   7
ATOM      7  C   UNL     1      96.134 124.453 124.334  1.00  0.00     0.000 C 
BRANCH   7   8
ATOM      8  C   UNL     1      96.880 123.923 125.569  1.00  0.00    -0.000 C 
BRANCH   8   9
ATOM      9  C   UNL     1      97.820 124.969 126.189  1.00  0.00    -0.003 C 
ATOM     10  C   UNL     1      97.835 126.251 125.360  1.00  0.00     0.004 C 
ENDBRANCH   8   9
ENDBRANCH   7   8
ENDBRANCH   1   7
TORSDOF 6
ENDMDL
MODEL 9
REMARK VINA RESULT:    -4.654      2.965      4.483
REMARK INTER + INTRA:          -6.503
REMARK INTER:                  -6.213
REMARK INTRA:                  -0.291
REMARK UNBOUND:                -0.217
REMARK SMILES CCCCCCCC(=O)[O-]
REMARK SMILES IDX 5 1 6 2 7 3 8 4 9 5 10 6 4 7 3 8 2 9 1 10
REMARK H PARENT
REMARK Flexibility Score: inf
ROOT
ATOM      1  C   UNL     1      94.254 123.496 123.981  1.00  0.00     0.000 C 
ENDROOT
BRANCH   1   2
ATOM      2  C   UNL     1      95.781 123.438 123.817  1.00  0.00     0.006 C 
BRANCH   2   3
ATOM      3  C   UNL     1      96.508 124.512 124.638  1.00  0.00     0.053 C 
BRANCH   3   4
ATOM      4  C   UNL     1      97.252 123.884 125.774  1.00  0.00     0.041 C 
ATOM      5  O   UNL     1      97.354 124.486 126.875  1.00  0.00    -0.550 OA
ATOM      6  O   UNL     1      97.876 122.655 125.601  1.00  0.00    -0.550 OA
ENDBRANCH   3   4
ENDBRANCH   2   3
ENDBRANCH   1   2
BRANCH   1   7
ATOM      7  C   UNL     1      93.536 122.370 123.220  1.00  0.00     0.000 C 
BRANCH   7   8
ATOM      8  C   UNL     1      94.513 121.437 122.486  1.00  0.00    -0.000 C 
BRANCH   8   9
ATOM      9  C   UNL     1      94.143 121.233 121.009  1.00  0.00    -0.003 C 
ATOM     10  C   UNL     1      92.799 121.882 120.686  1.00  0.00     0.004 C 
ENDBRANCH   8   9
ENDBRANCH   7   8
ENDBRANCH   1   7
TORSDOF 6
ENDMDL
