MODEL 1
REMARK VINA RESULT:    -2.441      0.000      0.000
REMARK INTER + INTRA:          -2.441
REMARK INTER:                  -2.441
REMARK INTRA:                   0.000
REMARK UNBOUND:                 0.000
REMARK SMILES CC(=O)[O-]
REMARK SMILES IDX 1 1 2 2 3 3 4 4
REMARK H PARENT
REMARK Flexibility Score: inf
ROOT
ATOM      1  C   UNL     1      99.943  50.651   9.623  1.00  0.00     0.063 C 
ATOM      2  C   UNL     1     100.419  49.340   9.096  1.00  0.00     0.038 C 
ATOM      3  O   UNL     1     101.645  49.156   8.875  1.00  0.00    -0.550 OA
ATOM      4  O   UNL     1      99.520  48.300   8.900  1.00  0.00    -0.550 OA
ENDROOT
TORSDOF 0
ENDMDL
MODEL 2
REMARK VINA RESULT:    -2.138     13.734     14.002
REMARK INTER + INTRA:          -2.138
REMARK INTER:                  -2.138
REMARK INTRA:                   0.000
REMARK UNBOUND:                 0.000
REMARK SMILES CC(=O)[O-]
REMARK SMILES IDX 1 1 2 2 3 3 4 4
REMARK H PARENT
REMARK Flexibility Score: inf
ROOT
ATOM      1  C   UNL     1     100.834  52.922  23.863  1.00  0.00     0.063 C 
ATOM      2  C   UNL     1     100.979  51.946  22.746  1.00  0.00     0.038 C 
ATOM      3  O   UNL     1     100.082  51.086  22.539  1.00  0.00    -0.550 OA
ATOM      4  O   UNL     1     102.074  52.017  21.896  1.00  0.00    -0.550 OA
ENDROOT
TORSDOF 0
ENDMDL
MODEL 3
REMARK VINA RESULT:    -2.110     21.375     21.698
REMARK INTER + INTRA:          -2.110
REMARK INTER:                  -2.110
REMARK INTRA:                   0.000
REMARK UNBOUND:                 0.000
REMARK SMILES CC(=O)[O-]
REMARK SMILES IDX 1 1 2 2 3 3 4 4
REMARK H PARENT
REMARK Flexibility Score: inf
ROOT
ATOM      1  C   UNL     1     118.001  51.975  21.368  1.00  0.00     0.063 C 
ATOM      2  C   UNL     1     118.636  50.826  20.661  1.00  0.00     0.038 C 
ATOM      3  O   UNL     1     118.776  50.854  19.410  1.00  0.00    -0.550 OA
ATOM      4  O   UNL     1     119.125  49.747  21.385  1.00  0.00    -0.550 OA
ENDROOT
TORSDOF 0
ENDMDL
MODEL 4
REMARK VINA RESULT:    -2.091      8.636      9.193
REMARK INTER + INTRA:          -2.091
REMARK INTER:                  -2.091
REMARK INTRA:                   0.000
REMARK UNBOUND:                 0.000
REMARK SMILES CC(=O)[O-]
REMARK SMILES IDX 1 1 2 2 3 3 4 4
REMARK H PARENT
REMARK Flexibility Score: inf
ROOT
ATOM      1  C   UNL     1     109.353  49.996  12.433  1.00  0.00     0.063 C 
ATOM      2  C   UNL     1     108.969  51.103  11.511  1.00  0.00     0.038 C 
ATOM      3  O   UNL     1     109.822  51.962  11.166  1.00  0.00    -0.550 OA
ATOM      4  O   UNL     1     107.684  51.158  10.986  1.00  0.00    -0.550 OA
ENDROOT
TORSDOF 0
ENDMDL
MODEL 5
REMARK VINA RESULT:    -2.063     20.633     21.060
REMARK INTER + INTRA:          -2.063
REMARK INTER:                  -2.063
REMARK INTRA:                   0.000
REMARK UNBOUND:                 0.000
REMARK SMILES CC(=O)[O-]
REMARK SMILES IDX 1 1 2 2 3 3 4 4
REMARK H PARENT
REMARK Flexibility Score: inf
ROOT
ATOM      1  C   UNL     1     118.005  52.006  21.548  1.00  0.00     0.063 C 
ATOM      2  C   UNL     1     117.997  50.921  20.526  1.00  0.00     0.038 C 
ATOM      3  O   UNL     1     118.928  50.840  19.683  1.00  0.00    -0.550 OA
ATOM      4  O   UNL     1     116.991  49.963  20.535  1.00  0.00    -0.550 OA
ENDROOT
TORSDOF 0
ENDMDL
MODEL 6
REMARK VINA RESULT:    -2.057     20.794     21.274
REMARK INTER + INTRA:          -2.057
REMARK INTER:                  -2.057
REMARK INTRA:                   0.000
REMARK UNBOUND:                 0.000
REMARK SMILES CC(=O)[O-]
REMARK SMILES IDX 1 1 2 2 3 3 4 4
REMARK H PARENT
REMARK Flexibility Score: inf
ROOT
ATOM      1  C   UNL     1     118.299  51.727  22.142  1.00  0.00     0.063 C 
ATOM      2  C   UNL     1     117.899  51.064  20.869  1.00  0.00     0.038 C 
ATOM      3  O   UNL     1     116.703  50.717  20.686  1.00  0.00    -0.550 OA
ATOM      4  O   UNL     1     118.833  50.878  19.857  1.00  0.00    -0.550 OA
ENDROOT
TORSDOF 0
ENDMDL
MODEL 7
REMARK VINA RESULT:    -2.054     20.792     21.170
REMARK INTER + INTRA:          -2.054
REMARK INTER:                  -2.054
REMARK INTRA:                   0.000
REMARK UNBOUND:                 0.000
REMARK SMILES CC(=O)[O-]
REMARK SMILES IDX 1 1 2 2 3 3 4 4
REMARK H PARENT
REMARK Flexibility Score: inf
ROOT
ATOM      1  C   UNL     1     116.624  50.441  20.945  1.00  0.00     0.063 C 
ATOM      2  C   UNL     1     117.870  51.248  20.809  1.00  0.00     0.038 C 
ATOM      3  O   UNL     1     118.085  52.214  21.588  1.00  0.00    -0.550 OA
ATOM      4  O   UNL     1     118.824  50.902  19.861  1.00  0.00    -0.550 OA
ENDROOT
TORSDOF 0
ENDMDL
MODEL 8
REMARK VINA RESULT:    -2.033     14.648     14.917
REMARK INTER + INTRA:          -2.033
REMARK INTER:                  -2.033
REMARK INTRA:                   0.000
REMARK UNBOUND:                 0.000
REMARK SMILES CC(=O)[O-]
REMARK SMILES IDX 1 1 2 2 3 3 4 4
REMARK H PARENT
REMARK Flexibility Score: inf
ROOT
ATOM      1  C   UNL     1     100.134  51.227  22.689  1.00  0.00     0.063 C 
ATOM      2  C   UNL     1      99.994  52.437  23.548  1.00  0.00     0.038 C 
ATOM      3  O   UNL     1      98.922  52.645  24.175  1.00  0.00    -0.550 OA
ATOM      4  O   UNL     1     101.064  53.308  23.705  1.00  0.00    -0.550 OA
ENDROOT
TORSDOF 0
ENDMDL
MODEL 9
REMARK VINA RESULT:    -2.010     11.730     11.938
REMARK INTER + INTRA:          -2.010
REMARK INTER:                  -2.010
REMARK INTRA:                   0.000
REMARK UNBOUND:                 0.000
REMARK SMILES CC(=O)[O-]
REMARK SMILES IDX 1 1 2 2 3 3 4 4
REMARK H PARENT
REMARK Flexibility Score: inf
ROOT
ATOM      1  C   UNL     1     106.684  47.120  20.187  1.00  0.00     0.063 C 
ATOM      2  C   UNL     1     105.538  47.875  19.606  1.00  0.00     0.038 C 
ATOM      3  O   UNL     1     104.943  48.748  20.292  1.00  0.00    -0.550 OA
ATOM      4  O   UNL     1     105.159  47.660  18.287  1.00  0.00    -0.550 OA
ENDROOT
TORSDOF 0
ENDMDL
