MODEL 1
REMARK VINA RESULT:    -4.120      0.000      0.000
REMARK INTER + INTRA:          -7.537
REMARK INTER:                  -6.046
REMARK INTRA:                  -1.491
REMARK UNBOUND:                -1.491
REMARK SMILES CC(C)COC(=O)c1ccccc1C(=O)OCC(C)C
REMARK SMILES IDX 8 1 9 2 10 3 11 4 12 5 13 6 6 7 7 8 5 9 4 10 2 11 1 12 3 13
REMARK SMILES IDX 14 14 15 15 16 16 17 17 18 18 19 19 20 20
REMARK H PARENT
REMARK Flexibility Score: inf
ROOT
ATOM      1  C   UNL     1       9.063 -29.495  15.367  1.00  0.00     0.074 A 
ATOM      2  C   UNL     1      10.025 -28.811  16.131  1.00  0.00     0.016 A 
ATOM      3  C   UNL     1      11.190 -28.321  15.541  1.00  0.00     0.001 A 
ATOM      4  C   UNL     1      11.413 -28.504  14.179  1.00  0.00     0.001 A 
ATOM      5  C   UNL     1      10.462 -29.160  13.395  1.00  0.00     0.016 A 
ATOM      6  C   UNL     1       9.271 -29.646  13.967  1.00  0.00     0.074 A 
ENDROOT
BRANCH   1   7
ATOM      7  C   UNL     1       7.906 -30.084  16.076  1.00  0.00     0.339 C 
ATOM      8  O   UNL     1       6.799 -29.480  16.100  1.00  0.00    -0.246 OA
BRANCH   7   9
ATOM      9  O   UNL     1       8.034 -31.342  16.672  1.00  0.00    -0.462 OA
BRANCH   9  10
ATOM     10  C   UNL     1       6.913 -32.110  17.099  1.00  0.00     0.236 C 
BRANCH  10  11
ATOM     11  C   UNL     1       6.774 -33.365  16.226  1.00  0.00     0.021 C 
ATOM     12  C   UNL     1       6.176 -34.519  17.040  1.00  0.00     0.011 C 
ATOM     13  C   UNL     1       5.911 -33.084  14.988  1.00  0.00     0.011 C 
ENDBRANCH  10  11
ENDBRANCH   9  10
ENDBRANCH   7   9
ENDBRANCH   1   7
BRANCH   6  14
ATOM     14  C   UNL     1       8.245 -30.220  13.067  1.00  0.00     0.339 C 
ATOM     15  O   UNL     1       7.339 -29.479  12.595  1.00  0.00    -0.246 OA
BRANCH  14  16
ATOM     16  O   UNL     1       8.253 -31.593  12.783  1.00  0.00    -0.462 OA
BRANCH  16  17
ATOM     17  C   UNL     1       9.165 -32.216  11.878  1.00  0.00     0.236 C 
BRANCH  17  18
ATOM     18  C   UNL     1      10.224 -33.049  12.624  1.00  0.00     0.021 C 
ATOM     19  C   UNL     1       9.895 -33.196  14.114  1.00  0.00     0.011 C 
ATOM     20  C   UNL     1      11.627 -32.460  12.434  1.00  0.00     0.011 C 
ENDBRANCH  17  18
ENDBRANCH  16  17
ENDBRANCH  14  16
ENDBRANCH   6  14
TORSDOF 8
ENDMDL
MODEL 2
REMARK VINA RESULT:    -4.062      0.662      3.965
REMARK INTER + INTRA:          -7.453
REMARK INTER:                  -5.987
REMARK INTRA:                  -1.466
REMARK UNBOUND:                -1.491
REMARK SMILES CC(C)COC(=O)c1ccccc1C(=O)OCC(C)C
REMARK SMILES IDX 8 1 9 2 10 3 11 4 12 5 13 6 6 7 7 8 5 9 4 10 2 11 1 12 3 13
REMARK SMILES IDX 14 14 15 15 16 16 17 17 18 18 19 19 20 20
REMARK H PARENT
REMARK Flexibility Score: inf
ROOT
ATOM      1  C   UNL     1       9.133 -29.828  14.148  1.00  0.00     0.074 A 
ATOM      2  C   UNL     1      10.326 -29.418  13.526  1.00  0.00     0.016 A 
ATOM      3  C   UNL     1      11.283 -28.688  14.229  1.00  0.00     0.001 A 
ATOM      4  C   UNL     1      11.067 -28.355  15.564  1.00  0.00     0.001 A 
ATOM      5  C   UNL     1       9.901 -28.772  16.209  1.00  0.00     0.016 A 
ATOM      6  C   UNL     1       8.930 -29.526  15.524  1.00  0.00     0.074 A 
ENDROOT
BRANCH   1   7
ATOM      7  C   UNL     1       8.114 -30.502  13.315  1.00  0.00     0.339 C 
ATOM      8  O   UNL     1       7.242 -29.826  12.702  1.00  0.00    -0.246 OA
BRANCH   7   9
ATOM      9  O   UNL     1       8.158 -31.892  13.166  1.00  0.00    -0.462 OA
BRANCH   9  10
ATOM     10  C   UNL     1       8.968 -32.537  12.188  1.00  0.00     0.236 C 
BRANCH  10  11
ATOM     11  C   UNL     1       9.746 -33.694  12.832  1.00  0.00     0.021 C 
ATOM     12  C   UNL     1      10.736 -33.159  13.873  1.00  0.00     0.011 C 
ATOM     13  C   UNL     1       8.793 -34.709  13.475  1.00  0.00     0.011 C 
ENDBRANCH  10  11
ENDBRANCH   9  10
ENDBRANCH   7   9
ENDBRANCH   1   7
BRANCH   6  14
ATOM     14  C   UNL     1       7.775 -30.044  16.291  1.00  0.00     0.339 C 
ATOM     15  O   UNL     1       6.665 -29.445  16.234  1.00  0.00    -0.246 OA
BRANCH  14  16
ATOM     16  O   UNL     1       7.931 -31.165  17.118  1.00  0.00    -0.462 OA
BRANCH  16  17
ATOM     17  C   UNL     1       7.911 -32.514  16.648  1.00  0.00     0.236 C 
BRANCH  17  18
ATOM     18  C   UNL     1       6.488 -33.101  16.671  1.00  0.00     0.021 C 
ATOM     19  C   UNL     1       6.453 -34.498  17.303  1.00  0.00     0.011 C 
ATOM     20  C   UNL     1       5.875 -33.128  15.265  1.00  0.00     0.011 C 
ENDBRANCH  17  18
ENDBRANCH  16  17
ENDBRANCH  14  16
ENDBRANCH   6  14
TORSDOF 8
ENDMDL
MODEL 3
REMARK VINA RESULT:    -3.970      1.638      3.990
REMARK INTER + INTRA:          -7.317
REMARK INTER:                  -6.435
REMARK INTRA:                  -0.883
REMARK UNBOUND:                -1.491
REMARK SMILES CC(C)COC(=O)c1ccccc1C(=O)OCC(C)C
REMARK SMILES IDX 8 1 9 2 10 3 11 4 12 5 13 6 6 7 7 8 5 9 4 10 2 11 1 12 3 13
REMARK SMILES IDX 14 14 15 15 16 16 17 17 18 18 19 19 20 20
REMARK H PARENT
REMARK Flexibility Score: inf
ROOT
ATOM      1  C   UNL     1       9.062 -31.928  13.532  1.00  0.00     0.074 A 
ATOM      2  C   UNL     1      10.361 -32.260  13.106  1.00  0.00     0.016 A 
ATOM      3  C   UNL     1      11.328 -31.271  12.927  1.00  0.00     0.001 A 
ATOM      4  C   UNL     1      11.015 -29.936  13.171  1.00  0.00     0.001 A 
ATOM      5  C   UNL     1       9.740 -29.586  13.617  1.00  0.00     0.016 A 
ATOM      6  C   UNL     1       8.755 -30.570  13.823  1.00  0.00     0.074 A 
ENDROOT
BRANCH   1   7
ATOM      7  C   UNL     1       8.057 -33.011  13.595  1.00  0.00     0.339 C 
ATOM      8  O   UNL     1       7.555 -33.478  12.535  1.00  0.00    -0.246 OA
BRANCH   7   9
ATOM      9  O   UNL     1       7.707 -33.553  14.835  1.00  0.00    -0.462 OA
BRANCH   9  10
ATOM     10  C   UNL     1       6.355 -33.723  15.249  1.00  0.00     0.236 C 
BRANCH  10  11
ATOM     11  C   UNL     1       6.265 -33.679  16.781  1.00  0.00     0.021 C 
ATOM     12  C   UNL     1       5.876 -35.054  17.335  1.00  0.00     0.011 C 
ATOM     13  C   UNL     1       7.591 -33.212  17.398  1.00  0.00     0.011 C 
ENDBRANCH  10  11
ENDBRANCH   9  10
ENDBRANCH   7   9
ENDBRANCH   1   7
BRANCH   6  14
ATOM     14  C   UNL     1       7.462 -30.155  14.415  1.00  0.00     0.339 C 
ATOM     15  O   UNL     1       6.452 -30.008  13.672  1.00  0.00    -0.246 OA
BRANCH  14  16
ATOM     16  O   UNL     1       7.378 -29.875  15.785  1.00  0.00    -0.462 OA
BRANCH  16  17
ATOM     17  C   UNL     1       8.510 -29.765  16.649  1.00  0.00     0.236 C 
BRANCH  17  18
ATOM     18  C   UNL     1       8.089 -29.699  18.129  1.00  0.00     0.021 C 
ATOM     19  C   UNL     1       6.595 -29.397  18.289  1.00  0.00     0.011 C 
ATOM     20  C   UNL     1       8.934 -28.678  18.901  1.00  0.00     0.011 C 
ENDBRANCH  17  18
ENDBRANCH  16  17
ENDBRANCH  14  16
ENDBRANCH   6  14
TORSDOF 8
ENDMDL
MODEL 4
REMARK VINA RESULT:    -3.939      1.695      3.033
REMARK INTER + INTRA:          -7.272
REMARK INTER:                  -5.987
REMARK INTRA:                  -1.285
REMARK UNBOUND:                -1.491
REMARK SMILES CC(C)COC(=O)c1ccccc1C(=O)OCC(C)C
REMARK SMILES IDX 8 1 9 2 10 3 11 4 12 5 13 6 6 7 7 8 5 9 4 10 2 11 1 12 3 13
REMARK SMILES IDX 14 14 15 15 16 16 17 17 18 18 19 19 20 20
REMARK H PARENT
REMARK Flexibility Score: inf
ROOT
ATOM      1  C   UNL     1       7.087 -30.063  15.276  1.00  0.00     0.074 A 
ATOM      2  C   UNL     1       5.999 -29.867  16.145  1.00  0.00     0.016 A 
ATOM      3  C   UNL     1       6.204 -29.630  17.504  1.00  0.00     0.001 A 
ATOM      4  C   UNL     1       7.497 -29.584  18.018  1.00  0.00     0.001 A 
ATOM      5  C   UNL     1       8.594 -29.753  17.170  1.00  0.00     0.016 A 
ATOM      6  C   UNL     1       8.410 -29.974  15.792  1.00  0.00     0.074 A 
ENDROOT
BRANCH   1   7
ATOM      7  C   UNL     1       6.794 -30.420  13.871  1.00  0.00     0.339 C 
ATOM      8  O   UNL     1       6.750 -29.525  12.982  1.00  0.00    -0.246 OA
BRANCH   7   9
ATOM      9  O   UNL     1       6.623 -31.763  13.524  1.00  0.00    -0.462 OA
BRANCH   9  10
ATOM     10  C   UNL     1       5.917 -32.688  14.347  1.00  0.00     0.236 C 
BRANCH  10  11
ATOM     11  C   UNL     1       6.911 -33.562  15.125  1.00  0.00     0.021 C 
ATOM     12  C   UNL     1       6.561 -33.570  16.618  1.00  0.00     0.011 C 
ATOM     13  C   UNL     1       6.933 -34.994  14.576  1.00  0.00     0.011 C 
ENDBRANCH  10  11
ENDBRANCH   9  10
ENDBRANCH   7   9
ENDBRANCH   1   7
BRANCH   6  14
ATOM     14  C   UNL     1       9.609 -30.022  14.924  1.00  0.00     0.339 C 
ATOM     15  O   UNL     1      10.317 -28.987  14.777  1.00  0.00    -0.246 OA
BRANCH  14  16
ATOM     16  O   UNL     1       9.923 -31.197  14.229  1.00  0.00    -0.462 OA
BRANCH  16  17
ATOM     17  C   UNL     1      10.288 -31.237  12.850  1.00  0.00     0.236 C 
BRANCH  17  18
ATOM     18  C   UNL     1      10.615 -32.670  12.391  1.00  0.00     0.021 C 
ATOM     19  C   UNL     1       9.350 -33.474  12.071  1.00  0.00     0.011 C 
ATOM     20  C   UNL     1      11.475 -33.402  13.428  1.00  0.00     0.011 C 
ENDBRANCH  17  18
ENDBRANCH  16  17
ENDBRANCH  14  16
ENDBRANCH   6  14
TORSDOF 8
ENDMDL
MODEL 5
REMARK VINA RESULT:    -3.906      1.629      3.948
REMARK INTER + INTRA:          -7.223
REMARK INTER:                  -6.455
REMARK INTRA:                  -0.768
REMARK UNBOUND:                -1.491
REMARK SMILES CC(C)COC(=O)c1ccccc1C(=O)OCC(C)C
REMARK SMILES IDX 8 1 9 2 10 3 11 4 12 5 13 6 6 7 7 8 5 9 4 10 2 11 1 12 3 13
REMARK SMILES IDX 14 14 15 15 16 16 17 17 18 18 19 19 20 20
REMARK H PARENT
REMARK Flexibility Score: inf
ROOT
ATOM      1  C   UNL     1       8.861 -30.452  13.926  1.00  0.00     0.074 A 
ATOM      2  C   UNL     1       9.894 -29.509  13.782  1.00  0.00     0.016 A 
ATOM      3  C   UNL     1      11.160 -29.899  13.346  1.00  0.00     0.001 A 
ATOM      4  C   UNL     1      11.416 -31.235  13.047  1.00  0.00     0.001 A 
ATOM      5  C   UNL     1      10.399 -32.185  13.160  1.00  0.00     0.016 A 
ATOM      6  C   UNL     1       9.108 -31.810  13.580  1.00  0.00     0.074 A 
ENDROOT
BRANCH   1   7
ATOM      7  C   UNL     1       7.577 -29.990  14.497  1.00  0.00     0.339 C 
ATOM      8  O   UNL     1       6.539 -29.947  13.781  1.00  0.00    -0.246 OA
BRANCH   7   9
ATOM      9  O   UNL     1       7.510 -29.653  15.852  1.00  0.00    -0.462 OA
BRANCH   9  10
ATOM     10  C   UNL     1       8.625 -29.766  16.732  1.00  0.00     0.236 C 
BRANCH  10  11
ATOM     11  C   UNL     1       8.155 -29.677  18.190  1.00  0.00     0.021 C 
ATOM     12  C   UNL     1       8.940 -28.595  18.941  1.00  0.00     0.011 C 
ATOM     13  C   UNL     1       6.649 -29.393  18.267  1.00  0.00     0.011 C 
ENDBRANCH  10  11
ENDBRANCH   9  10
ENDBRANCH   7   9
ENDBRANCH   1   7
BRANCH   6  14
ATOM     14  C   UNL     1       8.040 -32.835  13.562  1.00  0.00     0.339 C 
ATOM     15  O   UNL     1       7.421 -33.076  12.489  1.00  0.00    -0.246 OA
BRANCH  14  16
ATOM     16  O   UNL     1       7.687 -33.497  14.745  1.00  0.00    -0.462 OA
BRANCH  16  17
ATOM     17  C   UNL     1       6.342 -33.669  15.194  1.00  0.00     0.236 C 
BRANCH  17  18
ATOM     18  C   UNL     1       6.252 -33.664  16.731  1.00  0.00     0.021 C 
ATOM     19  C   UNL     1       7.547 -33.164  17.381  1.00  0.00     0.011 C 
ATOM     20  C   UNL     1       5.875 -35.050  17.269  1.00  0.00     0.011 C 
ENDBRANCH  17  18
ENDBRANCH  16  17
ENDBRANCH  14  16
ENDBRANCH   6  14
TORSDOF 8
ENDMDL
MODEL 6
REMARK VINA RESULT:    -3.884      1.753      4.080
REMARK INTER + INTRA:          -7.191
REMARK INTER:                  -5.857
REMARK INTRA:                  -1.334
REMARK UNBOUND:                -1.491
REMARK SMILES CC(C)COC(=O)c1ccccc1C(=O)OCC(C)C
REMARK SMILES IDX 8 1 9 2 10 3 11 4 12 5 13 6 6 7 7 8 5 9 4 10 2 11 1 12 3 13
REMARK SMILES IDX 14 14 15 15 16 16 17 17 18 18 19 19 20 20
REMARK H PARENT
REMARK Flexibility Score: inf
ROOT
ATOM      1  C   UNL     1       7.664 -32.645  14.327  1.00  0.00     0.074 A 
ATOM      2  C   UNL     1       8.031 -34.002  14.290  1.00  0.00     0.016 A 
ATOM      3  C   UNL     1       8.172 -34.670  13.074  1.00  0.00     0.001 A 
ATOM      4  C   UNL     1       7.951 -33.995  11.876  1.00  0.00     0.001 A 
ATOM      5  C   UNL     1       7.610 -32.642  11.887  1.00  0.00     0.016 A 
ATOM      6  C   UNL     1       7.480 -31.943  13.103  1.00  0.00     0.074 A 
ENDROOT
BRANCH   1   7
ATOM      7  C   UNL     1       7.424 -32.029  15.650  1.00  0.00     0.339 C 
ATOM      8  O   UNL     1       6.292 -32.119  16.200  1.00  0.00    -0.246 OA
BRANCH   7   9
ATOM      9  O   UNL     1       8.478 -31.392  16.312  1.00  0.00    -0.462 OA
BRANCH   9  10
ATOM     10  C   UNL     1       8.466 -30.002  16.625  1.00  0.00     0.236 C 
BRANCH  10  11
ATOM     11  C   UNL     1       8.102 -29.800  18.103  1.00  0.00     0.021 C 
ATOM     12  C   UNL     1       9.017 -28.748  18.740  1.00  0.00     0.011 C 
ATOM     13  C   UNL     1       6.631 -29.391  18.258  1.00  0.00     0.011 C 
ENDBRANCH  10  11
ENDBRANCH   9  10
ENDBRANCH   7   9
ENDBRANCH   1   7
BRANCH   6  14
ATOM     14  C   UNL     1       7.239 -30.483  13.049  1.00  0.00     0.339 C 
ATOM     15  O   UNL     1       6.061 -30.048  12.915  1.00  0.00    -0.246 OA
BRANCH  14  16
ATOM     16  O   UNL     1       8.320 -29.594  13.095  1.00  0.00    -0.462 OA
BRANCH  16  17
ATOM     17  C   UNL     1       9.379 -29.572  12.137  1.00  0.00     0.236 C 
BRANCH  17  18
ATOM     18  C   UNL     1      10.741 -29.871  12.790  1.00  0.00     0.021 C 
ATOM     19  C   UNL     1      10.965 -31.374  12.990  1.00  0.00     0.011 C 
ATOM     20  C   UNL     1      10.897 -29.118  14.118  1.00  0.00     0.011 C 
ENDBRANCH  17  18
ENDBRANCH  16  17
ENDBRANCH  14  16
ENDBRANCH   6  14
TORSDOF 8
ENDMDL
MODEL 7
REMARK VINA RESULT:    -3.823      1.765      5.621
REMARK INTER + INTRA:          -7.102
REMARK INTER:                  -5.758
REMARK INTRA:                  -1.345
REMARK UNBOUND:                -1.491
REMARK SMILES CC(C)COC(=O)c1ccccc1C(=O)OCC(C)C
REMARK SMILES IDX 8 1 9 2 10 3 11 4 12 5 13 6 6 7 7 8 5 9 4 10 2 11 1 12 3 13
REMARK SMILES IDX 14 14 15 15 16 16 17 17 18 18 19 19 20 20
REMARK H PARENT
REMARK Flexibility Score: inf
ROOT
ATOM      1  C   UNL     1       7.550 -31.869  13.083  1.00  0.00     0.074 A 
ATOM      2  C   UNL     1       7.768 -32.615  11.911  1.00  0.00     0.016 A 
ATOM      3  C   UNL     1       8.111 -33.965  11.977  1.00  0.00     0.001 A 
ATOM      4  C   UNL     1       8.241 -34.593  13.213  1.00  0.00     0.001 A 
ATOM      5  C   UNL     1       8.006 -33.879  14.389  1.00  0.00     0.016 A 
ATOM      6  C   UNL     1       7.640 -32.521  14.345  1.00  0.00     0.074 A 
ENDROOT
BRANCH   1   7
ATOM      7  C   UNL     1       7.298 -30.418  12.944  1.00  0.00     0.339 C 
ATOM      8  O   UNL     1       6.136 -29.993  12.697  1.00  0.00    -0.246 OA
BRANCH   7   9
ATOM      9  O   UNL     1       8.348 -29.517  13.143  1.00  0.00    -0.462 OA
BRANCH   9  10
ATOM     10  C   UNL     1       9.403 -29.342  12.201  1.00  0.00     0.236 C 
BRANCH  10  11
ATOM     11  C   UNL     1      10.756 -29.629  12.869  1.00  0.00     0.021 C 
ATOM     12  C   UNL     1      10.786 -29.047  14.288  1.00  0.00     0.011 C 
ATOM     13  C   UNL     1      11.045 -31.135  12.905  1.00  0.00     0.011 C 
ENDBRANCH  10  11
ENDBRANCH   9  10
ENDBRANCH   7   9
ENDBRANCH   1   7
BRANCH   6  14
ATOM     14  C   UNL     1       7.282 -31.849  15.616  1.00  0.00     0.339 C 
ATOM     15  O   UNL     1       6.070 -31.754  15.954  1.00  0.00    -0.246 OA
BRANCH  14  16
ATOM     16  O   UNL     1       8.285 -31.278  16.410  1.00  0.00    -0.462 OA
BRANCH  16  17
ATOM     17  C   UNL     1       8.347 -29.891  16.745  1.00  0.00     0.236 C 
BRANCH  17  18
ATOM     18  C   UNL     1       7.947 -29.643  18.212  1.00  0.00     0.021 C 
ATOM     19  C   UNL     1       6.498 -29.161  18.338  1.00  0.00     0.011 C 
ATOM     20  C   UNL     1       8.908 -28.657  18.889  1.00  0.00     0.011 C 
ENDBRANCH  17  18
ENDBRANCH  16  17
ENDBRANCH  14  16
ENDBRANCH   6  14
TORSDOF 8
ENDMDL
