MODEL 1
REMARK VINA RESULT:    -5.318      0.000      0.000
REMARK INTER + INTRA:          -6.534
REMARK INTER:                  -6.251
REMARK INTRA:                  -0.284
REMARK UNBOUND:                -0.284
REMARK SMILES O=c1c(O)c(-c2ccc(O)cc2)oc2cc(O)cc(O)c12
REMARK SMILES IDX 5 1 3 2 2 3 1 4 21 5 19 6 18 7 16 8 15 9 14 10 13 11 6 12
REMARK SMILES IDX 7 13 8 14 9 15 12 16 11 17 10 18 4 20 20 22 17 24
REMARK H PARENT 10 19 4 21 20 23 17 25
REMARK Flexibility Score: inf
ROOT
ATOM      1  C   UNL     1     146.840 141.862 136.656  1.00  0.00     0.180 A 
ATOM      2  C   UNL     1     146.244 140.661 136.236  1.00  0.00     0.208 A 
ATOM      3  C   UNL     1     144.850 140.519 136.343  1.00  0.00     0.238 A 
ATOM      4  O   UNL     1     144.316 139.463 135.916  1.00  0.00    -0.285 OA
ATOM      5  C   UNL     1     144.074 141.573 136.882  1.00  0.00     0.111 A 
ATOM      6  C   UNL     1     142.660 141.523 137.074  1.00  0.00     0.134 A 
ATOM      7  C   UNL     1     141.979 142.672 137.493  1.00  0.00     0.093 A 
ATOM      8  C   UNL     1     142.665 143.848 137.790  1.00  0.00     0.123 A 
ATOM      9  C   UNL     1     144.055 143.891 137.664  1.00  0.00     0.094 A 
ATOM     10  C   UNL     1     144.758 142.772 137.213  1.00  0.00     0.146 A 
ATOM     11  O   UNL     1     146.078 142.857 137.097  1.00  0.00    -0.452 OA
ENDROOT
BRANCH   1  12
ATOM     12  C   UNL     1     148.304 142.077 136.599  1.00  0.00     0.021 A 
ATOM     13  C   UNL     1     148.933 142.538 135.427  1.00  0.00     0.016 A 
ATOM     14  C   UNL     1     150.320 142.711 135.390  1.00  0.00     0.047 A 
ATOM     15  C   UNL     1     151.097 142.415 136.514  1.00  0.00     0.115 A 
ATOM     16  C   UNL     1     149.094 141.762 137.717  1.00  0.00     0.016 A 
ATOM     17  C   UNL     1     150.481 141.937 137.677  1.00  0.00     0.047 A 
BRANCH  15  18
ATOM     18  O   UNL     1     152.477 142.592 136.462  1.00  0.00    -0.508 OA
ATOM     19  H   UNL     1     153.113 141.804 136.462  1.00  0.00     0.293 HD
ENDBRANCH  15  18
ENDBRANCH   1  12
BRANCH   2  20
ATOM     20  O   UNL     1     147.025 139.641 135.687  1.00  0.00    -0.502 OA
ATOM     21  H   UNL     1     147.686 139.106 136.237  1.00  0.00     0.293 HD
ENDBRANCH   2  20
BRANCH   6  22
ATOM     22  O   UNL     1     141.889 140.371 136.893  1.00  0.00    -0.507 OA
ATOM     23  H   UNL     1     140.923 140.277 137.167  1.00  0.00     0.293 HD
ENDBRANCH   6  22
BRANCH   8  24
ATOM     24  O   UNL     1     141.957 144.968 138.220  1.00  0.00    -0.508 OA
ATOM     25  H   UNL     1     142.290 145.908 138.039  1.00  0.00     0.293 HD
ENDBRANCH   8  24
TORSDOF 5
ENDMDL
MODEL 2
REMARK VINA RESULT:    -5.309      4.933      7.719
REMARK INTER + INTRA:          -6.524
REMARK INTER:                  -6.239
REMARK INTRA:                  -0.285
REMARK UNBOUND:                -0.284
REMARK SMILES O=c1c(O)c(-c2ccc(O)cc2)oc2cc(O)cc(O)c12
REMARK SMILES IDX 5 1 3 2 2 3 1 4 21 5 19 6 18 7 16 8 15 9 14 10 13 11 6 12
REMARK SMILES IDX 7 13 8 14 9 15 12 16 11 17 10 18 4 20 20 22 17 24
REMARK H PARENT 10 19 4 21 20 23 17 25
REMARK Flexibility Score: inf
ROOT
ATOM      1  C   UNL     1     141.888 145.584 136.607  1.00  0.00     0.180 A 
ATOM      2  C   UNL     1     140.679 146.185 136.218  1.00  0.00     0.208 A 
ATOM      3  C   UNL     1     140.549 147.580 136.321  1.00  0.00     0.238 A 
ATOM      4  O   UNL     1     139.484 148.118 135.921  1.00  0.00    -0.285 OA
ATOM      5  C   UNL     1     141.622 148.353 136.825  1.00  0.00     0.111 A 
ATOM      6  C   UNL     1     141.586 149.768 137.010  1.00  0.00     0.134 A 
ATOM      7  C   UNL     1     142.751 150.445 137.392  1.00  0.00     0.093 A 
ATOM      8  C   UNL     1     143.931 149.753 137.660  1.00  0.00     0.123 A 
ATOM      9  C   UNL     1     143.962 148.362 137.541  1.00  0.00     0.094 A 
ATOM     10  C   UNL     1     142.826 147.663 137.126  1.00  0.00     0.146 A 
ATOM     11  O   UNL     1     142.900 146.342 137.014  1.00  0.00    -0.452 OA
ENDROOT
BRANCH   1  12
ATOM     12  C   UNL     1     142.093 144.118 136.552  1.00  0.00     0.021 A 
ATOM     13  C   UNL     1     141.883 143.306 137.682  1.00  0.00     0.016 A 
ATOM     14  C   UNL     1     142.106 141.927 137.613  1.00  0.00     0.047 A 
ATOM     15  C   UNL     1     142.551 141.345 136.422  1.00  0.00     0.115 A 
ATOM     16  C   UNL     1     142.561 143.528 135.366  1.00  0.00     0.016 A 
ATOM     17  C   UNL     1     142.782 142.149 135.299  1.00  0.00     0.047 A 
BRANCH  15  18
ATOM     18  O   UNL     1     142.768 139.970 136.368  1.00  0.00    -0.508 OA
ATOM     19  H   UNL     1     143.141 139.525 135.538  1.00  0.00     0.293 HD
ENDBRANCH  15  18
ENDBRANCH   1  12
BRANCH   2  20
ATOM     20  O   UNL     1     139.640 145.407 135.703  1.00  0.00    -0.502 OA
ATOM     21  H   UNL     1     139.783 144.727 134.967  1.00  0.00     0.293 HD
ENDBRANCH   2  20
BRANCH   6  22
ATOM     22  O   UNL     1     140.434 150.545 136.858  1.00  0.00    -0.507 OA
ATOM     23  H   UNL     1     140.167 151.303 137.469  1.00  0.00     0.293 HD
ENDBRANCH   6  22
BRANCH   8  24
ATOM     24  O   UNL     1     145.066 150.456 138.053  1.00  0.00    -0.508 OA
ATOM     25  H   UNL     1     145.287 150.604 139.032  1.00  0.00     0.293 HD
ENDBRANCH   8  24
TORSDOF 5
ENDMDL
MODEL 3
REMARK VINA RESULT:    -5.303      7.514     11.004
REMARK INTER + INTRA:          -6.517
REMARK INTER:                  -6.228
REMARK INTRA:                  -0.289
REMARK UNBOUND:                -0.284
REMARK SMILES O=c1c(O)c(-c2ccc(O)cc2)oc2cc(O)cc(O)c12
REMARK SMILES IDX 5 1 3 2 2 3 1 4 21 5 19 6 18 7 16 8 15 9 14 10 13 11 6 12
REMARK SMILES IDX 7 13 8 14 9 15 12 16 11 17 10 18 4 20 20 22 17 24
REMARK H PARENT 10 19 4 21 20 23 17 25
REMARK Flexibility Score: inf
ROOT
ATOM      1  C   UNL     1     145.592 150.709 136.598  1.00  0.00     0.180 A 
ATOM      2  C   UNL     1     146.187 151.921 136.210  1.00  0.00     0.208 A 
ATOM      3  C   UNL     1     147.582 152.058 136.314  1.00  0.00     0.238 A 
ATOM      4  O   UNL     1     148.114 153.126 135.915  1.00  0.00    -0.285 OA
ATOM      5  C   UNL     1     148.359 150.988 136.818  1.00  0.00     0.111 A 
ATOM      6  C   UNL     1     149.774 151.031 137.004  1.00  0.00     0.134 A 
ATOM      7  C   UNL     1     150.456 149.870 137.386  1.00  0.00     0.093 A 
ATOM      8  C   UNL     1     149.770 148.686 137.652  1.00  0.00     0.123 A 
ATOM      9  C   UNL     1     148.379 148.648 137.532  1.00  0.00     0.094 A 
ATOM     10  C   UNL     1     147.675 149.781 137.118  1.00  0.00     0.146 A 
ATOM     11  O   UNL     1     146.355 149.700 137.005  1.00  0.00    -0.452 OA
ENDROOT
BRANCH   1  12
ATOM     12  C   UNL     1     144.127 150.497 136.542  1.00  0.00     0.021 A 
ATOM     13  C   UNL     1     143.309 150.726 137.665  1.00  0.00     0.016 A 
ATOM     14  C   UNL     1     141.932 150.497 137.595  1.00  0.00     0.047 A 
ATOM     15  C   UNL     1     141.356 150.024 136.412  1.00  0.00     0.115 A 
ATOM     16  C   UNL     1     143.543 150.002 135.364  1.00  0.00     0.016 A 
ATOM     17  C   UNL     1     142.165 149.774 135.297  1.00  0.00     0.047 A 
BRANCH  15  18
ATOM     18  O   UNL     1     139.982 149.801 136.357  1.00  0.00    -0.508 OA
ATOM     19  H   UNL     1     139.599 148.864 136.305  1.00  0.00     0.293 HD
ENDBRANCH  15  18
ENDBRANCH   1  12
BRANCH   2  20
ATOM     20  O   UNL     1     145.404 152.957 135.695  1.00  0.00    -0.502 OA
ATOM     21  H   UNL     1     145.168 153.781 136.234  1.00  0.00     0.293 HD
ENDBRANCH   2  20
BRANCH   6  22
ATOM     22  O   UNL     1     150.545 152.187 136.854  1.00  0.00    -0.507 OA
ATOM     23  H   UNL     1     151.085 152.618 137.589  1.00  0.00     0.293 HD
ENDBRANCH   6  22
BRANCH   8  24
ATOM     24  O   UNL     1     150.479 147.554 138.045  1.00  0.00    -0.508 OA
ATOM     25  H   UNL     1     150.709 146.817 137.388  1.00  0.00     0.293 HD
ENDBRANCH   8  24
TORSDOF 5
ENDMDL
MODEL 4
REMARK VINA RESULT:    -5.291      5.036      7.738
REMARK INTER + INTRA:          -6.503
REMARK INTER:                  -6.218
REMARK INTRA:                  -0.285
REMARK UNBOUND:                -0.284
REMARK SMILES O=c1c(O)c(-c2ccc(O)cc2)oc2cc(O)cc(O)c12
REMARK SMILES IDX 5 1 3 2 2 3 1 4 21 5 19 6 18 7 16 8 15 9 14 10 13 11 6 12
REMARK SMILES IDX 7 13 8 14 9 15 12 16 11 17 10 18 4 20 20 22 17 24
REMARK H PARENT 10 19 4 21 20 23 17 25
REMARK Flexibility Score: inf
ROOT
ATOM      1  C   UNL     1     150.616 146.882 136.693  1.00  0.00     0.180 A 
ATOM      2  C   UNL     1     151.826 146.282 136.304  1.00  0.00     0.208 A 
ATOM      3  C   UNL     1     151.963 144.889 136.422  1.00  0.00     0.238 A 
ATOM      4  O   UNL     1     153.029 144.352 136.022  1.00  0.00    -0.285 OA
ATOM      5  C   UNL     1     150.896 144.117 136.939  1.00  0.00     0.111 A 
ATOM      6  C   UNL     1     150.941 142.704 137.140  1.00  0.00     0.134 A 
ATOM      7  C   UNL     1     149.781 142.025 137.535  1.00  0.00     0.093 A 
ATOM      8  C   UNL     1     148.599 142.715 137.800  1.00  0.00     0.123 A 
ATOM      9  C   UNL     1     148.560 144.104 137.667  1.00  0.00     0.094 A 
ATOM     10  C   UNL     1     149.691 144.804 137.239  1.00  0.00     0.146 A 
ATOM     11  O   UNL     1     149.610 146.123 137.113  1.00  0.00    -0.452 OA
ENDROOT
BRANCH   1  12
ATOM     12  C   UNL     1     150.404 148.346 136.623  1.00  0.00     0.021 A 
ATOM     13  C   UNL     1     149.956 148.966 135.441  1.00  0.00     0.016 A 
ATOM     14  C   UNL     1     149.786 150.353 135.392  1.00  0.00     0.047 A 
ATOM     15  C   UNL     1     150.071 151.138 136.513  1.00  0.00     0.115 A 
ATOM     16  C   UNL     1     150.709 149.144 137.738  1.00  0.00     0.016 A 
ATOM     17  C   UNL     1     150.536 150.530 137.686  1.00  0.00     0.047 A 
BRANCH  15  18
ATOM     18  O   UNL     1     149.897 152.518 136.450  1.00  0.00    -0.508 OA
ATOM     19  H   UNL     1     149.113 152.974 136.901  1.00  0.00     0.293 HD
ENDBRANCH  15  18
ENDBRANCH   1  12
BRANCH   2  20
ATOM     20  O   UNL     1     152.859 147.060 135.776  1.00  0.00    -0.502 OA
ATOM     21  H   UNL     1     153.831 146.908 136.014  1.00  0.00     0.293 HD
ENDBRANCH   2  20
BRANCH   6  22
ATOM     22  O   UNL     1     152.096 141.931 136.991  1.00  0.00    -0.507 OA
ATOM     23  H   UNL     1     153.029 142.303 136.897  1.00  0.00     0.293 HD
ENDBRANCH   6  22
BRANCH   8  24
ATOM     24  O   UNL     1     147.469 142.010 138.207  1.00  0.00    -0.508 OA
ATOM     25  H   UNL     1     146.815 142.397 138.879  1.00  0.00     0.293 HD
ENDBRANCH   8  24
TORSDOF 5
ENDMDL
MODEL 5
REMARK VINA RESULT:    -5.182      4.445      7.311
REMARK INTER + INTRA:          -6.375
REMARK INTER:                  -6.075
REMARK INTRA:                  -0.300
REMARK UNBOUND:                -0.284
REMARK SMILES O=c1c(O)c(-c2ccc(O)cc2)oc2cc(O)cc(O)c12
REMARK SMILES IDX 5 1 3 2 2 3 1 4 21 5 19 6 18 7 16 8 15 9 14 10 13 11 6 12
REMARK SMILES IDX 7 13 8 14 9 15 12 16 11 17 10 18 4 20 20 22 17 24
REMARK H PARENT 10 19 4 21 20 23 17 25
REMARK Flexibility Score: inf
ROOT
ATOM      1  C   UNL     1     143.223 145.445 137.258  1.00  0.00     0.180 A 
ATOM      2  C   UNL     1     144.560 145.813 137.488  1.00  0.00     0.208 A 
ATOM      3  C   UNL     1     144.895 147.178 137.512  1.00  0.00     0.238 A 
ATOM      4  O   UNL     1     146.083 147.502 137.771  1.00  0.00    -0.285 OA
ATOM      5  C   UNL     1     143.894 148.153 137.291  1.00  0.00     0.111 A 
ATOM      6  C   UNL     1     144.129 149.561 137.252  1.00  0.00     0.134 A 
ATOM      7  C   UNL     1     143.043 150.440 137.156  1.00  0.00     0.093 A 
ATOM      8  C   UNL     1     141.739 149.962 137.031  1.00  0.00     0.123 A 
ATOM      9  C   UNL     1     141.503 148.587 137.006  1.00  0.00     0.094 A 
ATOM     10  C   UNL     1     142.563 147.686 137.137  1.00  0.00     0.146 A 
ATOM     11  O   UNL     1     142.295 146.386 137.119  1.00  0.00    -0.452 OA
ENDROOT
BRANCH   1  12
ATOM     12  C   UNL     1     142.796 144.028 137.194  1.00  0.00     0.021 A 
ATOM     13  C   UNL     1     142.813 143.312 135.982  1.00  0.00     0.016 A 
ATOM     14  C   UNL     1     142.382 141.983 135.941  1.00  0.00     0.047 A 
ATOM     15  C   UNL     1     141.919 141.356 137.102  1.00  0.00     0.115 A 
ATOM     16  C   UNL     1     142.309 143.399 138.351  1.00  0.00     0.016 A 
ATOM     17  C   UNL     1     141.880 142.069 138.307  1.00  0.00     0.047 A 
BRANCH  15  18
ATOM     18  O   UNL     1     141.494 140.031 137.046  1.00  0.00    -0.508 OA
ATOM     19  H   UNL     1     142.060 139.277 137.415  1.00  0.00     0.293 HD
ENDBRANCH  15  18
ENDBRANCH   1  12
BRANCH   2  20
ATOM     20  O   UNL     1     145.528 144.835 137.726  1.00  0.00    -0.502 OA
ATOM     21  H   UNL     1     145.821 144.176 137.016  1.00  0.00     0.293 HD
ENDBRANCH   2  20
BRANCH   6  22
ATOM     22  O   UNL     1     145.400 150.141 137.278  1.00  0.00    -0.507 OA
ATOM     23  H   UNL     1     145.580 151.130 137.364  1.00  0.00     0.293 HD
ENDBRANCH   6  22
BRANCH   8  24
ATOM     24  O   UNL     1     140.684 150.865 136.921  1.00  0.00    -0.508 OA
ATOM     25  H   UNL     1     140.381 151.221 136.021  1.00  0.00     0.293 HD
ENDBRANCH   8  24
TORSDOF 5
ENDMDL
MODEL 6
REMARK VINA RESULT:    -5.160      6.336      9.699
REMARK INTER + INTRA:          -6.349
REMARK INTER:                  -6.050
REMARK INTRA:                  -0.299
REMARK UNBOUND:                -0.284
REMARK SMILES O=c1c(O)c(-c2ccc(O)cc2)oc2cc(O)cc(O)c12
REMARK SMILES IDX 5 1 3 2 2 3 1 4 21 5 19 6 18 7 16 8 15 9 14 10 13 11 6 12
REMARK SMILES IDX 7 13 8 14 9 15 12 16 11 17 10 18 4 20 20 22 17 24
REMARK H PARENT 10 19 4 21 20 23 17 25
REMARK Flexibility Score: inf
ROOT
ATOM      1  C   UNL     1     145.504 149.076 137.149  1.00  0.00     0.180 A 
ATOM      2  C   UNL     1     145.950 147.779 137.459  1.00  0.00     0.208 A 
ATOM      3  C   UNL     1     147.331 147.543 137.569  1.00  0.00     0.238 A 
ATOM      4  O   UNL     1     147.722 146.394 137.899  1.00  0.00    -0.285 OA
ATOM      5  C   UNL     1     148.246 148.601 137.353  1.00  0.00     0.111 A 
ATOM      6  C   UNL     1     149.667 148.466 137.399  1.00  0.00     0.134 A 
ATOM      7  C   UNL     1     150.473 149.607 137.299  1.00  0.00     0.093 A 
ATOM      8  C   UNL     1     149.914 150.866 137.089  1.00  0.00     0.123 A 
ATOM      9  C   UNL     1     148.529 151.002 136.982  1.00  0.00     0.094 A 
ATOM     10  C   UNL     1     147.698 149.888 137.114  1.00  0.00     0.146 A 
ATOM     11  O   UNL     1     146.385 150.061 137.017  1.00  0.00    -0.452 OA
ENDROOT
BRANCH   1  12
ATOM     12  C   UNL     1     144.067 149.398 136.992  1.00  0.00     0.021 A 
ATOM     13  C   UNL     1     143.414 149.247 135.754  1.00  0.00     0.016 A 
ATOM     14  C   UNL     1     142.062 149.580 135.624  1.00  0.00     0.047 A 
ATOM     15  C   UNL     1     141.350 150.078 136.719  1.00  0.00     0.115 A 
ATOM     16  C   UNL     1     143.351 149.919 138.082  1.00  0.00     0.016 A 
ATOM     17  C   UNL     1     141.999 150.250 137.948  1.00  0.00     0.047 A 
BRANCH  15  18
ATOM     18  O   UNL     1     140.004 150.406 136.574  1.00  0.00    -0.508 OA
ATOM     19  H   UNL     1     139.318 149.715 136.295  1.00  0.00     0.293 HD
ENDBRANCH  15  18
ENDBRANCH   1  12
BRANCH   2  20
ATOM     20  O   UNL     1     145.030 146.755 137.690  1.00  0.00    -0.502 OA
ATOM     21  H   UNL     1     145.019 146.216 138.547  1.00  0.00     0.293 HD
ENDBRANCH   2  20
BRANCH   6  22
ATOM     22  O   UNL     1     150.330 147.241 137.513  1.00  0.00    -0.507 OA
ATOM     23  H   UNL     1     150.945 146.853 136.814  1.00  0.00     0.293 HD
ENDBRANCH   6  22
BRANCH   8  24
ATOM     24  O   UNL     1     150.747 151.978 136.978  1.00  0.00    -0.508 OA
ATOM     25  H   UNL     1     150.969 152.557 137.780  1.00  0.00     0.293 HD
ENDBRANCH   8  24
TORSDOF 5
ENDMDL
MODEL 7
REMARK VINA RESULT:    -5.116      5.097      7.301
REMARK INTER + INTRA:          -6.297
REMARK INTER:                  -6.003
REMARK INTRA:                  -0.295
REMARK UNBOUND:                -0.284
REMARK SMILES O=c1c(O)c(-c2ccc(O)cc2)oc2cc(O)cc(O)c12
REMARK SMILES IDX 5 1 3 2 2 3 1 4 21 5 19 6 18 7 16 8 15 9 14 10 13 11 6 12
REMARK SMILES IDX 7 13 8 14 9 15 12 16 11 17 10 18 4 20 20 22 17 24
REMARK H PARENT 10 19 4 21 20 23 17 25
REMARK Flexibility Score: inf
ROOT
ATOM      1  C   UNL     1     149.434 147.000 137.171  1.00  0.00     0.180 A 
ATOM      2  C   UNL     1     148.091 146.612 137.314  1.00  0.00     0.208 A 
ATOM      3  C   UNL     1     147.774 145.243 137.313  1.00  0.00     0.238 A 
ATOM      4  O   UNL     1     146.577 144.901 137.496  1.00  0.00    -0.285 OA
ATOM      5  C   UNL     1     148.801 144.283 137.154  1.00  0.00     0.111 A 
ATOM      6  C   UNL     1     148.590 142.872 137.098  1.00  0.00     0.134 A 
ATOM      7  C   UNL     1     149.693 142.009 137.069  1.00  0.00     0.093 A 
ATOM      8  C   UNL     1     150.995 142.505 137.029  1.00  0.00     0.123 A 
ATOM      9  C   UNL     1     151.212 143.884 137.022  1.00  0.00     0.094 A 
ATOM     10  C   UNL     1     150.133 144.769 137.087  1.00  0.00     0.146 A 
ATOM     11  O   UNL     1     150.382 146.073 137.090  1.00  0.00    -0.452 OA
ENDROOT
BRANCH   1  12
ATOM     12  C   UNL     1     149.844 148.423 137.137  1.00  0.00     0.021 A 
ATOM     13  C   UNL     1     149.948 149.127 135.923  1.00  0.00     0.016 A 
ATOM     14  C   UNL     1     150.359 150.463 135.914  1.00  0.00     0.047 A 
ATOM     15  C   UNL     1     150.684 151.108 137.111  1.00  0.00     0.115 A 
ATOM     16  C   UNL     1     150.192 149.072 138.334  1.00  0.00     0.016 A 
ATOM     17  C   UNL     1     150.602 150.408 138.321  1.00  0.00     0.047 A 
BRANCH  15  18
ATOM     18  O   UNL     1     151.092 152.440 137.086  1.00  0.00    -0.508 OA
ATOM     19  H   UNL     1     152.057 152.702 137.253  1.00  0.00     0.293 HD
ENDBRANCH  15  18
ENDBRANCH   1  12
BRANCH   2  20
ATOM     20  O   UNL     1     147.095 147.575 137.492  1.00  0.00    -0.502 OA
ATOM     21  H   UNL     1     146.257 147.399 138.033  1.00  0.00     0.293 HD
ENDBRANCH   2  20
BRANCH   6  22
ATOM     22  O   UNL     1     147.328 142.274 137.042  1.00  0.00    -0.507 OA
ATOM     23  H   UNL     1     147.108 141.445 136.510  1.00  0.00     0.293 HD
ENDBRANCH   6  22
BRANCH   8  24
ATOM     24  O   UNL     1     152.068 141.619 136.984  1.00  0.00    -0.508 OA
ATOM     25  H   UNL     1     152.218 140.930 137.713  1.00  0.00     0.293 HD
ENDBRANCH   8  24
TORSDOF 5
ENDMDL
MODEL 8
REMARK VINA RESULT:    -5.077      1.379      3.181
REMARK INTER + INTRA:          -6.251
REMARK INTER:                  -5.950
REMARK INTRA:                  -0.300
REMARK UNBOUND:                -0.284
REMARK SMILES O=c1c(O)c(-c2ccc(O)cc2)oc2cc(O)cc(O)c12
REMARK SMILES IDX 5 1 3 2 2 3 1 4 21 5 19 6 18 7 16 8 15 9 14 10 13 11 6 12
REMARK SMILES IDX 7 13 8 14 9 15 12 16 11 17 10 18 4 20 20 22 17 24
REMARK H PARENT 10 19 4 21 20 23 17 25
REMARK Flexibility Score: inf
ROOT
ATOM      1  C   UNL     1     146.968 143.616 137.060  1.00  0.00     0.180 A 
ATOM      2  C   UNL     1     146.496 144.908 137.350  1.00  0.00     0.208 A 
ATOM      3  C   UNL     1     145.113 145.111 137.490  1.00  0.00     0.238 A 
ATOM      4  O   UNL     1     144.701 146.258 137.803  1.00  0.00    -0.285 OA
ATOM      5  C   UNL     1     144.221 144.025 137.324  1.00  0.00     0.111 A 
ATOM      6  C   UNL     1     142.799 144.125 137.404  1.00  0.00     0.134 A 
ATOM      7  C   UNL     1     142.021 142.961 137.353  1.00  0.00     0.093 A 
ATOM      8  C   UNL     1     142.607 141.711 137.159  1.00  0.00     0.123 A 
ATOM      9  C   UNL     1     143.992 141.608 137.019  1.00  0.00     0.094 A 
ATOM     10  C   UNL     1     144.797 142.747 137.102  1.00  0.00     0.146 A 
ATOM     11  O   UNL     1     146.111 142.605 136.975  1.00  0.00    -0.452 OA
ENDROOT
BRANCH   1  12
ATOM     12  C   UNL     1     148.409 143.327 136.872  1.00  0.00     0.021 A 
ATOM     13  C   UNL     1     149.019 143.434 135.608  1.00  0.00     0.016 A 
ATOM     14  C   UNL     1     150.375 143.133 135.451  1.00  0.00     0.047 A 
ATOM     15  C   UNL     1     151.135 142.711 136.546  1.00  0.00     0.115 A 
ATOM     16  C   UNL     1     149.174 142.882 137.963  1.00  0.00     0.016 A 
ATOM     17  C   UNL     1     150.530 142.583 137.803  1.00  0.00     0.047 A 
BRANCH  15  18
ATOM     18  O   UNL     1     152.485 142.415 136.374  1.00  0.00    -0.508 OA
ATOM     19  H   UNL     1     152.791 141.505 136.053  1.00  0.00     0.293 HD
ENDBRANCH  15  18
ENDBRANCH   1  12
BRANCH   2  20
ATOM     20  O   UNL     1     147.395 145.961 137.531  1.00  0.00    -0.502 OA
ATOM     21  H   UNL     1     147.680 146.282 138.448  1.00  0.00     0.293 HD
ENDBRANCH   2  20
BRANCH   6  22
ATOM     22  O   UNL     1     142.106 145.334 137.507  1.00  0.00    -0.507 OA
ATOM     23  H   UNL     1     142.402 146.203 137.088  1.00  0.00     0.293 HD
ENDBRANCH   6  22
BRANCH   8  24
ATOM     24  O   UNL     1     141.802 140.577 137.097  1.00  0.00    -0.508 OA
ATOM     25  H   UNL     1     141.694 140.048 136.239  1.00  0.00     0.293 HD
ENDBRANCH   8  24
TORSDOF 5
ENDMDL
MODEL 9
REMARK VINA RESULT:    -5.047      5.138      7.308
REMARK INTER + INTRA:          -6.215
REMARK INTER:                  -5.989
REMARK INTRA:                  -0.226
REMARK UNBOUND:                -0.284
REMARK SMILES O=c1c(O)c(-c2ccc(O)cc2)oc2cc(O)cc(O)c12
REMARK SMILES IDX 5 1 3 2 2 3 1 4 21 5 19 6 18 7 16 8 15 9 14 10 13 11 6 12
REMARK SMILES IDX 7 13 8 14 9 15 12 16 11 17 10 18 4 20 20 22 17 24
REMARK H PARENT 10 19 4 21 20 23 17 25
REMARK Flexibility Score: inf
ROOT
ATOM      1  C   UNL     1     149.760 145.699 137.015  1.00  0.00     0.180 A 
ATOM      2  C   UNL     1     148.432 146.071 136.746  1.00  0.00     0.208 A 
ATOM      3  C   UNL     1     148.062 147.419 136.883  1.00  0.00     0.238 A 
ATOM      4  O   UNL     1     146.885 147.755 136.589  1.00  0.00    -0.285 OA
ATOM      5  C   UNL     1     149.020 148.374 137.300  1.00  0.00     0.111 A 
ATOM      6  C   UNL     1     148.745 149.759 137.511  1.00  0.00     0.134 A 
ATOM      7  C   UNL     1     149.799 150.636 137.798  1.00  0.00     0.093 A 
ATOM      8  C   UNL     1     151.104 150.169 137.946  1.00  0.00     0.123 A 
ATOM      9  C   UNL     1     151.374 148.807 137.803  1.00  0.00     0.094 A 
ATOM     10  C   UNL     1     150.351 147.914 137.480  1.00  0.00     0.146 A 
ATOM     11  O   UNL     1     150.651 146.628 137.341  1.00  0.00    -0.452 OA
ENDROOT
BRANCH   1  12
ATOM     12  C   UNL     1     150.220 144.294 136.918  1.00  0.00     0.021 A 
ATOM     13  C   UNL     1     149.840 143.331 137.870  1.00  0.00     0.016 A 
ATOM     14  C   UNL     1     150.305 142.016 137.771  1.00  0.00     0.047 A 
ATOM     15  C   UNL     1     151.165 141.650 136.731  1.00  0.00     0.115 A 
ATOM     16  C   UNL     1     151.101 143.924 135.888  1.00  0.00     0.016 A 
ATOM     17  C   UNL     1     151.564 142.608 135.791  1.00  0.00     0.047 A 
BRANCH  15  18
ATOM     18  O   UNL     1     151.621 140.337 136.645  1.00  0.00    -0.508 OA
ATOM     19  H   UNL     1     150.979 139.557 136.565  1.00  0.00     0.293 HD
ENDBRANCH  15  18
ENDBRANCH   1  12
BRANCH   2  20
ATOM     20  O   UNL     1     147.507 145.117 136.314  1.00  0.00    -0.502 OA
ATOM     21  H   UNL     1     146.558 145.356 136.058  1.00  0.00     0.293 HD
ENDBRANCH   2  20
BRANCH   6  22
ATOM     22  O   UNL     1     147.463 150.314 137.476  1.00  0.00    -0.507 OA
ATOM     23  H   UNL     1     146.609 149.800 137.636  1.00  0.00     0.293 HD
ENDBRANCH   6  22
BRANCH   8  24
ATOM     24  O   UNL     1     152.125 151.067 138.247  1.00  0.00    -0.508 OA
ATOM     25  H   UNL     1     153.047 150.749 138.523  1.00  0.00     0.293 HD
ENDBRANCH   8  24
TORSDOF 5
ENDMDL
