MODEL 1
REMARK VINA RESULT:    -3.473      0.000      0.000
REMARK INTER + INTRA:          -6.092
REMARK INTER:                  -5.300
REMARK INTRA:                  -0.792
REMARK UNBOUND:                -0.792
REMARK SMILES O=C([O-])CCCCCCCCC(=O)[O-]
REMARK SMILES IDX 7 1 6 2 5 3 4 4 2 5 1 6 3 7 8 8 9 9 10 10 11 11 12 12 13 13
REMARK SMILES IDX 14 14
REMARK H PARENT
REMARK Flexibility Score: inf
ROOT
ATOM      1  C   UNL     1     -34.605   5.429  -1.914  1.00  0.00     0.000 C 
ENDROOT
BRANCH   1   2
ATOM      2  C   UNL     1     -33.514   5.372  -0.835  1.00  0.00     0.000 C 
BRANCH   2   3
ATOM      3  C   UNL     1     -32.757   6.704  -0.681  1.00  0.00     0.006 C 
BRANCH   3   4
ATOM      4  C   UNL     1     -32.198   7.269  -1.997  1.00  0.00     0.053 C 
BRANCH   4   5
ATOM      5  C   UNL     1     -30.781   7.731  -1.852  1.00  0.00     0.041 C 
ATOM      6  O   UNL     1     -30.392   8.254  -0.775  1.00  0.00    -0.550 OA
ATOM      7  O   UNL     1     -29.899   7.612  -2.918  1.00  0.00    -0.550 OA
ENDBRANCH   4   5
ENDBRANCH   3   4
ENDBRANCH   2   3
ENDBRANCH   1   2
BRANCH   1   8
ATOM      8  C   UNL     1     -35.932   5.927  -1.328  1.00  0.00     0.000 C 
BRANCH   8   9
ATOM      9  C   UNL     1     -36.232   7.363  -1.786  1.00  0.00     0.000 C 
BRANCH   9  10
ATOM     10  C   UNL     1     -35.774   7.632  -3.228  1.00  0.00     0.006 C 
BRANCH  10  11
ATOM     11  C   UNL     1     -35.190   9.039  -3.409  1.00  0.00     0.053 C 
BRANCH  11  12
ATOM     12  C   UNL     1     -36.119   9.889  -4.216  1.00  0.00     0.041 C 
ATOM     13  O   UNL     1     -36.356   9.602  -5.419  1.00  0.00    -0.550 OA
ATOM     14  O   UNL     1     -36.686  11.026  -3.655  1.00  0.00    -0.550 OA
ENDBRANCH  11  12
ENDBRANCH  10  11
ENDBRANCH   9  10
ENDBRANCH   8   9
ENDBRANCH   1   8
TORSDOF 9
ENDMDL
MODEL 2
REMARK VINA RESULT:    -3.419      6.903      8.450
REMARK INTER + INTRA:          -6.010
REMARK INTER:                  -5.593
REMARK INTRA:                  -0.418
REMARK UNBOUND:                -0.792
REMARK SMILES O=C([O-])CCCCCCCCC(=O)[O-]
REMARK SMILES IDX 7 1 6 2 5 3 4 4 2 5 1 6 3 7 8 8 9 9 10 10 11 11 12 12 13 13
REMARK SMILES IDX 14 14
REMARK H PARENT
REMARK Flexibility Score: inf
ROOT
ATOM      1  C   UNL     1     -28.242   3.510  -0.617  1.00  0.00     0.000 C 
ENDROOT
BRANCH   1   2
ATOM      2  C   UNL     1     -27.450   3.274   0.678  1.00  0.00     0.000 C 
BRANCH   2   3
ATOM      3  C   UNL     1     -26.476   4.423   0.999  1.00  0.00     0.006 C 
BRANCH   3   4
ATOM      4  C   UNL     1     -25.001   3.997   1.081  1.00  0.00     0.053 C 
BRANCH   4   5
ATOM      5  C   UNL     1     -24.280   4.685   2.198  1.00  0.00     0.041 C 
ATOM      6  O   UNL     1     -24.387   5.931   2.349  1.00  0.00    -0.550 OA
ATOM      7  O   UNL     1     -23.464   3.955   3.053  1.00  0.00    -0.550 OA
ENDBRANCH   4   5
ENDBRANCH   3   4
ENDBRANCH   2   3
ENDBRANCH   1   2
BRANCH   1   8
ATOM      8  C   UNL     1     -27.714   4.739  -1.367  1.00  0.00     0.000 C 
BRANCH   8   9
ATOM      9  C   UNL     1     -28.649   5.120  -2.525  1.00  0.00     0.000 C 
BRANCH   9  10
ATOM     10  C   UNL     1     -29.159   3.896  -3.301  1.00  0.00     0.006 C 
BRANCH  10  11
ATOM     11  C   UNL     1     -28.159   3.406  -4.356  1.00  0.00     0.053 C 
BRANCH  11  12
ATOM     12  C   UNL     1     -28.518   3.943  -5.705  1.00  0.00     0.041 C 
ATOM     13  O   UNL     1     -29.720   4.191  -5.989  1.00  0.00    -0.550 OA
ATOM     14  O   UNL     1     -27.534   4.125  -6.667  1.00  0.00    -0.550 OA
ENDBRANCH  11  12
ENDBRANCH  10  11
ENDBRANCH   9  10
ENDBRANCH   8   9
ENDBRANCH   1   8
TORSDOF 9
ENDMDL
MODEL 3
REMARK VINA RESULT:    -3.409      1.202      5.864
REMARK INTER + INTRA:          -5.995
REMARK INTER:                  -5.453
REMARK INTRA:                  -0.541
REMARK UNBOUND:                -0.792
REMARK SMILES O=C([O-])CCCCCCCCC(=O)[O-]
REMARK SMILES IDX 7 1 6 2 5 3 4 4 2 5 1 6 3 7 8 8 9 9 10 10 11 11 12 12 13 13
REMARK SMILES IDX 14 14
REMARK H PARENT
REMARK Flexibility Score: inf
ROOT
ATOM      1  C   UNL     1     -35.553   7.230  -1.341  1.00  0.00     0.000 C 
ENDROOT
BRANCH   1   2
ATOM      2  C   UNL     1     -35.895   7.382  -2.831  1.00  0.00     0.000 C 
BRANCH   2   3
ATOM      3  C   UNL     1     -34.814   8.146  -3.616  1.00  0.00     0.006 C 
BRANCH   3   4
ATOM      4  C   UNL     1     -34.957   9.676  -3.562  1.00  0.00     0.053 C 
BRANCH   4   5
ATOM      5  C   UNL     1     -36.159  10.154  -4.317  1.00  0.00     0.041 C 
ATOM      6  O   UNL     1     -36.918  11.025  -3.815  1.00  0.00    -0.550 OA
ATOM      7  O   UNL     1     -36.459   9.614  -5.561  1.00  0.00    -0.550 OA
ENDBRANCH   4   5
ENDBRANCH   3   4
ENDBRANCH   2   3
ENDBRANCH   1   2
BRANCH   1   8
ATOM      8  C   UNL     1     -34.059   6.939  -1.148  1.00  0.00     0.000 C 
BRANCH   8   9
ATOM      9  C   UNL     1     -33.805   5.429  -1.023  1.00  0.00     0.000 C 
BRANCH   9  10
ATOM     10  C   UNL     1     -32.480   5.108  -0.315  1.00  0.00     0.006 C 
BRANCH  10  11
ATOM     11  C   UNL     1     -31.607   6.352  -0.103  1.00  0.00     0.053 C 
BRANCH  11  12
ATOM     12  C   UNL     1     -30.359   6.259  -0.922  1.00  0.00     0.041 C 
ATOM     13  O   UNL     1     -29.347   5.663  -0.469  1.00  0.00    -0.550 OA
ATOM     14  O   UNL     1     -30.296   6.872  -2.166  1.00  0.00    -0.550 OA
ENDBRANCH  11  12
ENDBRANCH  10  11
ENDBRANCH   9  10
ENDBRANCH   8   9
ENDBRANCH   1   8
TORSDOF 9
ENDMDL
MODEL 4
REMARK VINA RESULT:    -3.354      0.871      5.376
REMARK INTER + INTRA:          -5.910
REMARK INTER:                  -5.329
REMARK INTRA:                  -0.581
REMARK UNBOUND:                -0.792
REMARK SMILES O=C([O-])CCCCCCCCC(=O)[O-]
REMARK SMILES IDX 7 1 6 2 5 3 4 4 2 5 1 6 3 7 8 8 9 9 10 10 11 11 12 12 13 13
REMARK SMILES IDX 14 14
REMARK H PARENT
REMARK Flexibility Score: inf
ROOT
ATOM      1  C   UNL     1     -35.635   5.909  -1.316  1.00  0.00     0.000 C 
ENDROOT
BRANCH   1   2
ATOM      2  C   UNL     1     -36.091   7.340  -1.639  1.00  0.00     0.000 C 
BRANCH   2   3
ATOM      3  C   UNL     1     -35.931   7.694  -3.128  1.00  0.00     0.006 C 
BRANCH   3   4
ATOM      4  C   UNL     1     -35.080   8.947  -3.392  1.00  0.00     0.053 C 
BRANCH   4   5
ATOM      5  C   UNL     1     -35.791   9.935  -4.264  1.00  0.00     0.041 C 
ATOM      6  O   UNL     1     -35.608   9.927  -5.510  1.00  0.00    -0.550 OA
ATOM      7  O   UNL     1     -36.631  10.885  -3.697  1.00  0.00    -0.550 OA
ENDBRANCH   4   5
ENDBRANCH   3   4
ENDBRANCH   2   3
ENDBRANCH   1   2
BRANCH   1   8
ATOM      8  C   UNL     1     -34.173   5.692  -1.726  1.00  0.00     0.000 C 
BRANCH   8   9
ATOM      9  C   UNL     1     -33.234   6.597  -0.915  1.00  0.00     0.000 C 
BRANCH   9  10
ATOM     10  C   UNL     1     -31.962   6.977  -1.689  1.00  0.00     0.006 C 
BRANCH  10  11
ATOM     11  C   UNL     1     -30.814   7.404  -0.765  1.00  0.00     0.053 C 
BRANCH  11  12
ATOM     12  C   UNL     1     -30.210   8.687  -1.242  1.00  0.00     0.041 C 
ATOM     13  O   UNL     1     -30.583   9.196  -2.332  1.00  0.00    -0.550 OA
ATOM     14  O   UNL     1     -29.200   9.296  -0.509  1.00  0.00    -0.550 OA
ENDBRANCH  11  12
ENDBRANCH  10  11
ENDBRANCH   9  10
ENDBRANCH   8   9
ENDBRANCH   1   8
TORSDOF 9
ENDMDL
MODEL 5
REMARK VINA RESULT:    -3.352      4.063      5.326
REMARK INTER + INTRA:          -5.908
REMARK INTER:                  -5.590
REMARK INTRA:                  -0.318
REMARK UNBOUND:                -0.792
REMARK SMILES O=C([O-])CCCCCCCCC(=O)[O-]
REMARK SMILES IDX 7 1 6 2 5 3 4 4 2 5 1 6 3 7 8 8 9 9 10 10 11 11 12 12 13 13
REMARK SMILES IDX 14 14
REMARK H PARENT
REMARK Flexibility Score: inf
ROOT
ATOM      1  C   UNL     1     -36.624   5.139  -2.648  1.00  0.00     0.000 C 
ENDROOT
BRANCH   1   2
ATOM      2  C   UNL     1     -35.801   3.846  -2.734  1.00  0.00     0.000 C 
BRANCH   2   3
ATOM      3  C   UNL     1     -36.075   3.049  -4.022  1.00  0.00     0.006 C 
BRANCH   3   4
ATOM      4  C   UNL     1     -35.580   1.594  -3.983  1.00  0.00     0.053 C 
BRANCH   4   5
ATOM      5  C   UNL     1     -35.647   0.942  -5.328  1.00  0.00     0.041 C 
ATOM      6  O   UNL     1     -34.919  -0.052  -5.588  1.00  0.00    -0.550 OA
ATOM      7  O   UNL     1     -36.491   1.452  -6.307  1.00  0.00    -0.550 OA
ENDBRANCH   4   5
ENDBRANCH   3   4
ENDBRANCH   2   3
ENDBRANCH   1   2
BRANCH   1   8
ATOM      8  C   UNL     1     -36.291   5.919  -1.370  1.00  0.00     0.000 C 
BRANCH   8   9
ATOM      9  C   UNL     1     -36.056   7.406  -1.678  1.00  0.00     0.000 C 
BRANCH   9  10
ATOM     10  C   UNL     1     -35.802   7.668  -3.170  1.00  0.00     0.006 C 
BRANCH  10  11
ATOM     11  C   UNL     1     -35.093   9.006  -3.422  1.00  0.00     0.053 C 
BRANCH  11  12
ATOM     12  C   UNL     1     -35.993   9.940  -4.167  1.00  0.00     0.041 C 
ATOM     13  O   UNL     1     -36.543  10.902  -3.569  1.00  0.00    -0.550 OA
ATOM     14  O   UNL     1     -36.263   9.722  -5.512  1.00  0.00    -0.550 OA
ENDBRANCH  11  12
ENDBRANCH  10  11
ENDBRANCH   9  10
ENDBRANCH   8   9
ENDBRANCH   1   8
TORSDOF 9
ENDMDL
MODEL 6
REMARK VINA RESULT:    -3.326      8.688     10.826
REMARK INTER + INTRA:          -5.867
REMARK INTER:                  -5.512
REMARK INTRA:                  -0.355
REMARK UNBOUND:                -0.792
REMARK SMILES O=C([O-])CCCCCCCCC(=O)[O-]
REMARK SMILES IDX 7 1 6 2 5 3 4 4 2 5 1 6 3 7 8 8 9 9 10 10 11 11 12 12 13 13
REMARK SMILES IDX 14 14
REMARK H PARENT
REMARK Flexibility Score: inf
ROOT
ATOM      1  C   UNL     1     -24.805   3.393   1.269  1.00  0.00     0.000 C 
ENDROOT
BRANCH   1   2
ATOM      2  C   UNL     1     -24.868   2.346   2.391  1.00  0.00     0.000 C 
BRANCH   2   3
ATOM      3  C   UNL     1     -24.123   1.047   2.037  1.00  0.00     0.006 C 
BRANCH   3   4
ATOM      4  C   UNL     1     -22.997   0.677   3.016  1.00  0.00     0.053 C 
BRANCH   4   5
ATOM      5  C   UNL     1     -22.162  -0.457   2.508  1.00  0.00     0.041 C 
ATOM      6  O   UNL     1     -22.040  -0.649   1.269  1.00  0.00    -0.550 OA
ATOM      7  O   UNL     1     -21.546  -1.323   3.403  1.00  0.00    -0.550 OA
ENDBRANCH   4   5
ENDBRANCH   3   4
ENDBRANCH   2   3
ENDBRANCH   1   2
BRANCH   1   8
ATOM      8  C   UNL     1     -26.170   4.065   1.068  1.00  0.00     0.000 C 
BRANCH   8   9
ATOM      9  C   UNL     1     -27.282   3.017   0.917  1.00  0.00     0.000 C 
BRANCH   9  10
ATOM     10  C   UNL     1     -28.308   3.394  -0.163  1.00  0.00     0.006 C 
BRANCH  10  11
ATOM     11  C   UNL     1     -27.787   4.472  -1.122  1.00  0.00     0.053 C 
BRANCH  11  12
ATOM     12  C   UNL     1     -28.461   4.356  -2.453  1.00  0.00     0.041 C 
ATOM     13  O   UNL     1     -28.695   3.222  -2.948  1.00  0.00    -0.550 OA
ATOM     14  O   UNL     1     -28.789   5.499  -3.168  1.00  0.00    -0.550 OA
ENDBRANCH  11  12
ENDBRANCH  10  11
ENDBRANCH   9  10
ENDBRANCH   8   9
ENDBRANCH   1   8
TORSDOF 9
ENDMDL
MODEL 7
REMARK VINA RESULT:    -3.317      4.102      5.967
REMARK INTER + INTRA:          -5.854
REMARK INTER:                  -4.731
REMARK INTRA:                  -1.123
REMARK UNBOUND:                -0.792
REMARK SMILES O=C([O-])CCCCCCCCC(=O)[O-]
REMARK SMILES IDX 7 1 6 2 5 3 4 4 2 5 1 6 3 7 8 8 9 9 10 10 11 11 12 12 13 13
REMARK SMILES IDX 14 14
REMARK H PARENT
REMARK Flexibility Score: inf
ROOT
ATOM      1  C   UNL     1     -36.729   5.789  -2.155  1.00  0.00     0.000 C 
ENDROOT
BRANCH   1   2
ATOM      2  C   UNL     1     -36.240   5.813  -3.611  1.00  0.00     0.000 C 
BRANCH   2   3
ATOM      3  C   UNL     1     -35.920   4.409  -4.155  1.00  0.00     0.006 C 
BRANCH   3   4
ATOM      4  C   UNL     1     -36.387   3.258  -3.249  1.00  0.00     0.053 C 
BRANCH   4   5
ATOM      5  C   UNL     1     -35.579   2.015  -3.458  1.00  0.00     0.041 C 
ATOM      6  O   UNL     1     -35.495   1.153  -2.544  1.00  0.00    -0.550 OA
ATOM      7  O   UNL     1     -34.891   1.825  -4.650  1.00  0.00    -0.550 OA
ENDBRANCH   4   5
ENDBRANCH   3   4
ENDBRANCH   2   3
ENDBRANCH   1   2
BRANCH   1   8
ATOM      8  C   UNL     1     -36.171   6.982  -1.368  1.00  0.00     0.000 C 
BRANCH   8   9
ATOM      9  C   UNL     1     -34.766   7.358  -1.863  1.00  0.00     0.000 C 
BRANCH   9  10
ATOM     10  C   UNL     1     -33.652   6.785  -0.973  1.00  0.00     0.006 C 
BRANCH  10  11
ATOM     11  C   UNL     1     -32.770   5.769  -1.710  1.00  0.00     0.053 C 
BRANCH  11  12
ATOM     12  C   UNL     1     -33.224   4.375  -1.416  1.00  0.00     0.041 C 
ATOM     13  O   UNL     1     -34.066   4.161  -0.504  1.00  0.00    -0.550 OA
ATOM     14  O   UNL     1     -32.681   3.305  -2.115  1.00  0.00    -0.550 OA
ENDBRANCH  11  12
ENDBRANCH  10  11
ENDBRANCH   9  10
ENDBRANCH   8   9
ENDBRANCH   1   8
TORSDOF 9
ENDMDL
MODEL 8
REMARK VINA RESULT:    -3.300      3.511      4.425
REMARK INTER + INTRA:          -5.828
REMARK INTER:                  -4.734
REMARK INTRA:                  -1.093
REMARK UNBOUND:                -0.792
REMARK SMILES O=C([O-])CCCCCCCCC(=O)[O-]
REMARK SMILES IDX 7 1 6 2 5 3 4 4 2 5 1 6 3 7 8 8 9 9 10 10 11 11 12 12 13 13
REMARK SMILES IDX 14 14
REMARK H PARENT
REMARK Flexibility Score: inf
ROOT
ATOM      1  C   UNL     1     -34.001   7.705  -2.351  1.00  0.00     0.000 C 
ENDROOT
BRANCH   1   2
ATOM      2  C   UNL     1     -33.685   7.089  -0.980  1.00  0.00     0.000 C 
BRANCH   2   3
ATOM      3  C   UNL     1     -32.688   5.920  -1.067  1.00  0.00     0.006 C 
BRANCH   3   4
ATOM      4  C   UNL     1     -33.322   4.533  -0.875  1.00  0.00     0.053 C 
BRANCH   4   5
ATOM      5  C   UNL     1     -33.387   3.762  -2.157  1.00  0.00     0.041 C 
ATOM      6  O   UNL     1     -33.587   2.519  -2.140  1.00  0.00    -0.550 OA
ATOM      7  O   UNL     1     -33.192   4.412  -3.369  1.00  0.00    -0.550 OA
ENDBRANCH   4   5
ENDBRANCH   3   4
ENDBRANCH   2   3
ENDBRANCH   1   2
BRANCH   1   8
ATOM      8  C   UNL     1     -35.513   7.727  -2.608  1.00  0.00     0.000 C 
BRANCH   8   9
ATOM      9  C   UNL     1     -36.261   6.892  -1.558  1.00  0.00     0.000 C 
BRANCH   9  10
ATOM     10  C   UNL     1     -36.706   5.523  -2.098  1.00  0.00     0.006 C 
BRANCH  10  11
ATOM     11  C   UNL     1     -36.649   5.445  -3.629  1.00  0.00     0.053 C 
BRANCH  11  12
ATOM     12  C   UNL     1     -36.636   4.018  -4.078  1.00  0.00     0.041 C 
ATOM     13  O   UNL     1     -36.739   3.088  -3.236  1.00  0.00    -0.550 OA
ATOM     14  O   UNL     1     -36.462   3.714  -5.422  1.00  0.00    -0.550 OA
ENDBRANCH  11  12
ENDBRANCH  10  11
ENDBRANCH   9  10
ENDBRANCH   8   9
ENDBRANCH   1   8
TORSDOF 9
ENDMDL
MODEL 9
REMARK VINA RESULT:    -3.269      6.215      8.500
REMARK INTER + INTRA:          -5.782
REMARK INTER:                  -5.166
REMARK INTRA:                  -0.616
REMARK UNBOUND:                -0.792
REMARK SMILES O=C([O-])CCCCCCCCC(=O)[O-]
REMARK SMILES IDX 7 1 6 2 5 3 4 4 2 5 1 6 3 7 8 8 9 9 10 10 11 11 12 12 13 13
REMARK SMILES IDX 14 14
REMARK H PARENT
REMARK Flexibility Score: inf
ROOT
ATOM      1  C   UNL     1     -27.347   3.435   0.876  1.00  0.00     0.000 C 
ENDROOT
BRANCH   1   2
ATOM      2  C   UNL     1     -26.137   2.901   1.656  1.00  0.00     0.000 C 
BRANCH   2   3
ATOM      3  C   UNL     1     -24.821   3.599   1.265  1.00  0.00     0.006 C 
BRANCH   3   4
ATOM      4  C   UNL     1     -24.002   4.116   2.459  1.00  0.00     0.053 C 
BRANCH   4   5
ATOM      5  C   UNL     1     -24.742   5.160   3.237  1.00  0.00     0.041 C 
ATOM      6  O   UNL     1     -25.063   4.947   4.436  1.00  0.00    -0.550 OA
ATOM      7  O   UNL     1     -25.105   6.354   2.627  1.00  0.00    -0.550 OA
ENDBRANCH   4   5
ENDBRANCH   3   4
ENDBRANCH   2   3
ENDBRANCH   1   2
BRANCH   1   8
ATOM      8  C   UNL     1     -26.984   4.711   0.105  1.00  0.00     0.000 C 
BRANCH   8   9
ATOM      9  C   UNL     1     -27.940   4.930  -1.078  1.00  0.00     0.000 C 
BRANCH   9  10
ATOM     10  C   UNL     1     -28.528   3.616  -1.615  1.00  0.00     0.006 C 
BRANCH  10  11
ATOM     11  C   UNL     1     -28.619   3.591  -3.146  1.00  0.00     0.053 C 
BRANCH  11  12
ATOM     12  C   UNL     1     -29.819   4.355  -3.610  1.00  0.00     0.041 C 
ATOM     13  O   UNL     1     -29.771   5.022  -4.677  1.00  0.00    -0.550 OA
ATOM     14  O   UNL     1     -30.974   4.369  -2.840  1.00  0.00    -0.550 OA
ENDBRANCH  11  12
ENDBRANCH  10  11
ENDBRANCH   9  10
ENDBRANCH   8   9
ENDBRANCH   1   8
TORSDOF 9
ENDMDL
