MODEL 1
REMARK VINA RESULT:    -3.535      0.000      0.000
REMARK INTER + INTRA:          -8.421
REMARK INTER:                  -6.429
REMARK INTRA:                  -1.993
REMARK UNBOUND:                -1.993
REMARK SMILES CCCCCCCCCCCCCCCC(=O)[O-]
REMARK SMILES IDX 9 1 10 2 11 3 12 4 13 5 14 6 15 7 16 8 17 9 18 10 8 11 7 12
REMARK SMILES IDX 6 13 5 14 4 15 3 16 2 17 1 18
REMARK H PARENT
REMARK Flexibility Score: inf
ROOT
ATOM      1  C   UNL     1       5.833  -7.839   8.074  1.00  0.00     0.000 C 
ENDROOT
BRANCH   1   2
ATOM      2  C   UNL     1       4.445  -8.466   8.282  1.00  0.00     0.000 C 
BRANCH   2   3
ATOM      3  C   UNL     1       4.400  -9.952   7.894  1.00  0.00     0.000 C 
BRANCH   3   4
ATOM      4  C   UNL     1       3.039 -10.316   7.282  1.00  0.00     0.000 C 
BRANCH   4   5
ATOM      5  C   UNL     1       3.076 -10.376   5.745  1.00  0.00     0.000 C 
BRANCH   5   6
ATOM      6  C   UNL     1       4.492 -10.628   5.197  1.00  0.00     0.006 C 
BRANCH   6   7
ATOM      7  C   UNL     1       4.493 -10.848   3.678  1.00  0.00     0.053 C 
BRANCH   7   8
ATOM      8  C   UNL     1       4.498  -9.551   2.927  1.00  0.00     0.041 C 
ATOM      9  O   UNL     1       3.553  -9.270   2.145  1.00  0.00    -0.550 OA
ATOM     10  O   UNL     1       5.533  -8.643   3.113  1.00  0.00    -0.550 OA
ENDBRANCH   7   8
ENDBRANCH   6   7
ENDBRANCH   5   6
ENDBRANCH   4   5
ENDBRANCH   3   4
ENDBRANCH   2   3
ENDBRANCH   1   2
BRANCH   1  11
ATOM     11  C   UNL     1       6.224  -7.750   6.589  1.00  0.00     0.000 C 
BRANCH  11  12
ATOM     12  C   UNL     1       7.502  -8.544   6.270  1.00  0.00    -0.000 C 
BRANCH  12  13
ATOM     13  C   UNL     1       8.093  -9.241   7.508  1.00  0.00    -0.000 C 
BRANCH  13  14
ATOM     14  C   UNL     1       9.568  -8.875   7.749  1.00  0.00    -0.000 C 
BRANCH  14  15
ATOM     15  C   UNL     1       9.814  -7.900   8.918  1.00  0.00    -0.000 C 
BRANCH  15  16
ATOM     16  C   UNL     1       9.775  -6.408   8.544  1.00  0.00    -0.000 C 
BRANCH  16  17
ATOM     17  C   UNL     1       8.557  -5.678   9.131  1.00  0.00    -0.003 C 
ATOM     18  C   UNL     1       8.010  -4.645   8.150  1.00  0.00     0.004 C 
ENDBRANCH  16  17
ENDBRANCH  15  16
ENDBRANCH  14  15
ENDBRANCH  13  14
ENDBRANCH  12  13
ENDBRANCH  11  12
ENDBRANCH   1  11
TORSDOF 14
ENDMDL
MODEL 2
REMARK VINA RESULT:    -3.403      1.573      4.096
REMARK INTER + INTRA:          -8.181
REMARK INTER:                  -6.276
REMARK INTRA:                  -1.905
REMARK UNBOUND:                -1.993
REMARK SMILES CCCCCCCCCCCCCCCC(=O)[O-]
REMARK SMILES IDX 9 1 10 2 11 3 12 4 13 5 14 6 15 7 16 8 17 9 18 10 8 11 7 12
REMARK SMILES IDX 6 13 5 14 4 15 3 16 2 17 1 18
REMARK H PARENT
REMARK Flexibility Score: inf
ROOT
ATOM      1  C   UNL     1       6.950  -7.201   6.793  1.00  0.00     0.000 C 
ENDROOT
BRANCH   1   2
ATOM      2  C   UNL     1       6.332  -8.375   6.016  1.00  0.00     0.000 C 
BRANCH   2   3
ATOM      3  C   UNL     1       6.598  -9.734   6.681  1.00  0.00     0.000 C 
BRANCH   3   4
ATOM      4  C   UNL     1       5.472 -10.729   6.361  1.00  0.00     0.000 C 
BRANCH   4   5
ATOM      5  C   UNL     1       4.178 -10.034   5.903  1.00  0.00     0.000 C 
BRANCH   5   6
ATOM      6  C   UNL     1       3.464 -10.799   4.775  1.00  0.00     0.006 C 
BRANCH   6   7
ATOM      7  C   UNL     1       4.314 -10.876   3.500  1.00  0.00     0.053 C 
BRANCH   7   8
ATOM      8  C   UNL     1       4.383  -9.556   2.795  1.00  0.00     0.041 C 
ATOM      9  O   UNL     1       5.391  -8.815   2.938  1.00  0.00    -0.550 OA
ATOM     10  O   UNL     1       3.348  -9.157   1.959  1.00  0.00    -0.550 OA
ENDBRANCH   7   8
ENDBRANCH   6   7
ENDBRANCH   5   6
ENDBRANCH   4   5
ENDBRANCH   3   4
ENDBRANCH   2   3
ENDBRANCH   1   2
BRANCH   1  11
ATOM     11  C   UNL     1       7.915  -7.666   7.896  1.00  0.00     0.000 C 
BRANCH  11  12
ATOM     12  C   UNL     1       7.495  -7.172   9.291  1.00  0.00    -0.000 C 
BRANCH  12  13
ATOM     13  C   UNL     1       6.129  -6.465   9.284  1.00  0.00    -0.000 C 
BRANCH  13  14
ATOM     14  C   UNL     1       5.045  -7.259  10.033  1.00  0.00    -0.000 C 
BRANCH  14  15
ATOM     15  C   UNL     1       4.182  -8.180   9.146  1.00  0.00    -0.000 C 
BRANCH  15  16
ATOM     16  C   UNL     1       2.752  -7.677   8.879  1.00  0.00    -0.000 C 
BRANCH  16  17
ATOM     17  C   UNL     1       1.867  -8.731   8.196  1.00  0.00    -0.003 C 
ATOM     18  C   UNL     1       1.937 -10.067   8.929  1.00  0.00     0.004 C 
ENDBRANCH  16  17
ENDBRANCH  15  16
ENDBRANCH  14  15
ENDBRANCH  13  14
ENDBRANCH  12  13
ENDBRANCH  11  12
ENDBRANCH   1  11
TORSDOF 14
ENDMDL
MODEL 3
REMARK VINA RESULT:    -3.393      1.830      4.960
REMARK INTER + INTRA:          -8.162
REMARK INTER:                  -6.557
REMARK INTRA:                  -1.605
REMARK UNBOUND:                -1.993
REMARK SMILES CCCCCCCCCCCCCCCC(=O)[O-]
REMARK SMILES IDX 9 1 10 2 11 3 12 4 13 5 14 6 15 7 16 8 17 9 18 10 8 11 7 12
REMARK SMILES IDX 6 13 5 14 4 15 3 16 2 17 1 18
REMARK H PARENT
REMARK Flexibility Score: inf
ROOT
ATOM      1  C   UNL     1       7.534  -7.945   8.456  1.00  0.00     0.000 C 
ENDROOT
BRANCH   1   2
ATOM      2  C   UNL     1       6.981  -7.174   7.246  1.00  0.00     0.000 C 
BRANCH   2   3
ATOM      3  C   UNL     1       6.725  -8.079   6.030  1.00  0.00     0.000 C 
BRANCH   3   4
ATOM      4  C   UNL     1       5.400  -8.839   6.186  1.00  0.00     0.000 C 
BRANCH   4   5
ATOM      5  C   UNL     1       5.512 -10.318   5.777  1.00  0.00     0.000 C 
BRANCH   5   6
ATOM      6  C   UNL     1       4.802 -10.619   4.445  1.00  0.00     0.006 C 
BRANCH   6   7
ATOM      7  C   UNL     1       4.798  -9.406   3.505  1.00  0.00     0.053 C 
BRANCH   7   8
ATOM      8  C   UNL     1       3.606  -9.407   2.598  1.00  0.00     0.041 C 
ATOM      9  O   UNL     1       3.364  -8.408   1.870  1.00  0.00    -0.550 OA
ATOM     10  O   UNL     1       2.778 -10.521   2.536  1.00  0.00    -0.550 OA
ENDBRANCH   7   8
ENDBRANCH   6   7
ENDBRANCH   5   6
ENDBRANCH   4   5
ENDBRANCH   3   4
ENDBRANCH   2   3
ENDBRANCH   1   2
BRANCH   1  11
ATOM     11  C   UNL     1       6.740  -7.670   9.744  1.00  0.00     0.000 C 
BRANCH  11  12
ATOM     12  C   UNL     1       5.396  -6.975   9.469  1.00  0.00    -0.000 C 
BRANCH  12  13
ATOM     13  C   UNL     1       4.188  -7.831   9.887  1.00  0.00    -0.000 C 
BRANCH  13  14
ATOM     14  C   UNL     1       3.047  -7.793   8.855  1.00  0.00    -0.000 C 
BRANCH  14  15
ATOM     15  C   UNL     1       1.681  -8.287   9.375  1.00  0.00    -0.000 C 
BRANCH  15  16
ATOM     16  C   UNL     1       1.100  -9.502   8.631  1.00  0.00    -0.000 C 
BRANCH  16  17
ATOM     17  C   UNL     1       2.171 -10.317   7.891  1.00  0.00    -0.003 C 
ATOM     18  C   UNL     1       1.768 -10.566   6.441  1.00  0.00     0.004 C 
ENDBRANCH  16  17
ENDBRANCH  15  16
ENDBRANCH  14  15
ENDBRANCH  13  14
ENDBRANCH  12  13
ENDBRANCH  11  12
ENDBRANCH   1  11
TORSDOF 14
ENDMDL
MODEL 4
REMARK VINA RESULT:    -3.327     16.673     19.524
REMARK INTER + INTRA:          -8.043
REMARK INTER:                  -6.065
REMARK INTRA:                  -1.978
REMARK UNBOUND:                -1.993
REMARK SMILES CCCCCCCCCCCCCCCC(=O)[O-]
REMARK SMILES IDX 9 1 10 2 11 3 12 4 13 5 14 6 15 7 16 8 17 9 18 10 8 11 7 12
REMARK SMILES IDX 6 13 5 14 4 15 3 16 2 17 1 18
REMARK H PARENT
REMARK Flexibility Score: inf
ROOT
ATOM      1  C   UNL     1      -5.193  -8.805  -7.046  1.00  0.00     0.000 C 
ENDROOT
BRANCH   1   2
ATOM      2  C   UNL     1      -5.581  -9.698  -8.236  1.00  0.00     0.000 C 
BRANCH   2   3
ATOM      3  C   UNL     1      -7.080 -10.031  -8.266  1.00  0.00     0.000 C 
BRANCH   3   4
ATOM      4  C   UNL     1      -7.833  -9.081  -9.209  1.00  0.00     0.000 C 
BRANCH   4   5
ATOM      5  C   UNL     1      -9.134  -8.540  -8.592  1.00  0.00     0.000 C 
BRANCH   5   6
ATOM      6  C   UNL     1      -9.298  -7.023  -8.792  1.00  0.00     0.006 C 
BRANCH   6   7
ATOM      7  C   UNL     1      -7.952  -6.321  -9.017  1.00  0.00     0.053 C 
BRANCH   7   8
ATOM      8  C   UNL     1      -7.566  -5.468  -7.848  1.00  0.00     0.041 C 
ATOM      9  O   UNL     1      -6.381  -5.475  -7.423  1.00  0.00    -0.550 OA
ATOM     10  O   UNL     1      -8.508  -4.643  -7.246  1.00  0.00    -0.550 OA
ENDBRANCH   7   8
ENDBRANCH   6   7
ENDBRANCH   5   6
ENDBRANCH   4   5
ENDBRANCH   3   4
ENDBRANCH   2   3
ENDBRANCH   1   2
BRANCH   1  11
ATOM     11  C   UNL     1      -6.255  -8.810  -5.933  1.00  0.00     0.000 C 
BRANCH  11  12
ATOM     12  C   UNL     1      -5.840  -9.672  -4.729  1.00  0.00    -0.000 C 
BRANCH  12  13
ATOM     13  C   UNL     1      -6.423  -9.156  -3.401  1.00  0.00    -0.000 C 
BRANCH  13  14
ATOM     14  C   UNL     1      -7.418 -10.142  -2.766  1.00  0.00    -0.000 C 
BRANCH  14  15
ATOM     15  C   UNL     1      -8.877  -9.644  -2.700  1.00  0.00    -0.000 C 
BRANCH  15  16
ATOM     16  C   UNL     1      -9.853 -10.352  -3.657  1.00  0.00    -0.000 C 
BRANCH  16  17
ATOM     17  C   UNL     1      -9.831  -9.761  -5.075  1.00  0.00    -0.003 C 
ATOM     18  C   UNL     1     -10.121  -8.264  -5.050  1.00  0.00     0.004 C 
ENDBRANCH  16  17
ENDBRANCH  15  16
ENDBRANCH  14  15
ENDBRANCH  13  14
ENDBRANCH  12  13
ENDBRANCH  11  12
ENDBRANCH   1  11
TORSDOF 14
ENDMDL
MODEL 5
REMARK VINA RESULT:    -3.237      2.693      6.161
REMARK INTER + INTRA:          -7.879
REMARK INTER:                  -5.885
REMARK INTRA:                  -1.994
REMARK UNBOUND:                -1.993
REMARK SMILES CCCCCCCCCCCCCCCC(=O)[O-]
REMARK SMILES IDX 9 1 10 2 11 3 12 4 13 5 14 6 15 7 16 8 17 9 18 10 8 11 7 12
REMARK SMILES IDX 6 13 5 14 4 15 3 16 2 17 1 18
REMARK H PARENT
REMARK Flexibility Score: inf
ROOT
ATOM      1  C   UNL     1       6.489  -7.982   5.776  1.00  0.00     0.000 C 
ENDROOT
BRANCH   1   2
ATOM      2  C   UNL     1       7.767  -8.601   6.367  1.00  0.00     0.000 C 
BRANCH   2   3
ATOM      3  C   UNL     1       7.478  -9.563   7.530  1.00  0.00     0.000 C 
BRANCH   3   4
ATOM      4  C   UNL     1       7.963  -8.971   8.861  1.00  0.00     0.000 C 
BRANCH   4   5
ATOM      5  C   UNL     1       9.238  -8.124   8.706  1.00  0.00     0.000 C 
BRANCH   5   6
ATOM      6  C   UNL     1       9.118  -6.744   9.376  1.00  0.00     0.006 C 
BRANCH   6   7
ATOM      7  C   UNL     1       8.985  -5.612   8.349  1.00  0.00     0.053 C 
BRANCH   7   8
ATOM      8  C   UNL     1       7.692  -4.870   8.501  1.00  0.00     0.041 C 
ATOM      9  O   UNL     1       6.669  -5.464   8.932  1.00  0.00    -0.550 OA
ATOM     10  O   UNL     1       7.626  -3.517   8.193  1.00  0.00    -0.550 OA
ENDBRANCH   7   8
ENDBRANCH   6   7
ENDBRANCH   5   6
ENDBRANCH   4   5
ENDBRANCH   3   4
ENDBRANCH   2   3
ENDBRANCH   1   2
BRANCH   1  11
ATOM     11  C   UNL     1       6.426  -8.111   4.244  1.00  0.00     0.000 C 
BRANCH  11  12
ATOM     12  C   UNL     1       5.298  -9.047   3.779  1.00  0.00    -0.000 C 
BRANCH  12  13
ATOM     13  C   UNL     1       4.974 -10.143   4.809  1.00  0.00    -0.000 C 
BRANCH  13  14
ATOM     14  C   UNL     1       3.474 -10.480   4.867  1.00  0.00    -0.000 C 
BRANCH  14  15
ATOM     15  C   UNL     1       2.900 -10.658   6.288  1.00  0.00    -0.000 C 
BRANCH  15  16
ATOM     16  C   UNL     1       3.769 -10.082   7.420  1.00  0.00    -0.000 C 
BRANCH  16  17
ATOM     17  C   UNL     1       3.371  -8.649   7.807  1.00  0.00    -0.003 C 
ATOM     18  C   UNL     1       4.319  -8.081   8.859  1.00  0.00     0.004 C 
ENDBRANCH  16  17
ENDBRANCH  15  16
ENDBRANCH  14  15
ENDBRANCH  13  14
ENDBRANCH  12  13
ENDBRANCH  11  12
ENDBRANCH   1  11
TORSDOF 14
ENDMDL
MODEL 6
REMARK VINA RESULT:    -3.220     16.500     19.353
REMARK INTER + INTRA:          -7.848
REMARK INTER:                  -6.343
REMARK INTRA:                  -1.505
REMARK UNBOUND:                -1.993
REMARK SMILES CCCCCCCCCCCCCCCC(=O)[O-]
REMARK SMILES IDX 9 1 10 2 11 3 12 4 13 5 14 6 15 7 16 8 17 9 18 10 8 11 7 12
REMARK SMILES IDX 6 13 5 14 4 15 3 16 2 17 1 18
REMARK H PARENT
REMARK Flexibility Score: inf
ROOT
ATOM      1  C   UNL     1      -9.377  -8.575  -5.383  1.00  0.00     0.000 C 
ENDROOT
BRANCH   1   2
ATOM      2  C   UNL     1      -9.753  -9.497  -6.555  1.00  0.00     0.000 C 
BRANCH   2   3
ATOM      3  C   UNL     1      -9.661  -8.794  -7.918  1.00  0.00     0.000 C 
BRANCH   3   4
ATOM      4  C   UNL     1      -8.356  -9.166  -8.637  1.00  0.00     0.000 C 
BRANCH   4   5
ATOM      5  C   UNL     1      -7.994  -8.178  -9.759  1.00  0.00     0.000 C 
BRANCH   5   6
ATOM      6  C   UNL     1      -8.588  -6.777  -9.529  1.00  0.00     0.006 C 
BRANCH   6   7
ATOM      7  C   UNL     1      -7.500  -5.707  -9.374  1.00  0.00     0.053 C 
BRANCH   7   8
ATOM      8  C   UNL     1      -7.315  -5.301  -7.944  1.00  0.00     0.041 C 
ATOM      9  O   UNL     1      -8.256  -4.748  -7.316  1.00  0.00    -0.550 OA
ATOM     10  O   UNL     1      -6.114  -5.560  -7.297  1.00  0.00    -0.550 OA
ENDBRANCH   7   8
ENDBRANCH   6   7
ENDBRANCH   5   6
ENDBRANCH   4   5
ENDBRANCH   3   4
ENDBRANCH   2   3
ENDBRANCH   1   2
BRANCH   1  11
ATOM     11  C   UNL     1      -9.971  -9.048  -4.045  1.00  0.00     0.000 C 
BRANCH  11  12
ATOM     12  C   UNL     1      -8.894  -9.275  -2.971  1.00  0.00    -0.000 C 
BRANCH  12  13
ATOM     13  C   UNL     1      -7.678 -10.053  -3.505  1.00  0.00    -0.000 C 
BRANCH  13  14
ATOM     14  C   UNL     1      -6.367  -9.255  -3.397  1.00  0.00    -0.000 C 
BRANCH  14  15
ATOM     15  C   UNL     1      -5.282  -9.642  -4.422  1.00  0.00    -0.000 C 
BRANCH  15  16
ATOM     16  C   UNL     1      -5.773  -9.773  -5.875  1.00  0.00    -0.000 C 
BRANCH  16  17
ATOM     17  C   UNL     1      -5.115  -8.757  -6.821  1.00  0.00    -0.003 C 
ATOM     18  C   UNL     1      -3.611  -8.991  -6.917  1.00  0.00     0.004 C 
ENDBRANCH  16  17
ENDBRANCH  15  16
ENDBRANCH  14  15
ENDBRANCH  13  14
ENDBRANCH  12  13
ENDBRANCH  11  12
ENDBRANCH   1  11
TORSDOF 14
ENDMDL
MODEL 7
REMARK VINA RESULT:    -3.214      2.864      4.043
REMARK INTER + INTRA:          -7.838
REMARK INTER:                  -6.119
REMARK INTRA:                  -1.719
REMARK UNBOUND:                -1.993
REMARK SMILES CCCCCCCCCCCCCCCC(=O)[O-]
REMARK SMILES IDX 9 1 10 2 11 3 12 4 13 5 14 6 15 7 16 8 17 9 18 10 8 11 7 12
REMARK SMILES IDX 6 13 5 14 4 15 3 16 2 17 1 18
REMARK H PARENT
REMARK Flexibility Score: inf
ROOT
ATOM      1  C   UNL     1       6.425  -8.166   4.123  1.00  0.00     0.000 C 
ENDROOT
BRANCH   1   2
ATOM      2  C   UNL     1       5.126  -8.910   3.770  1.00  0.00     0.000 C 
BRANCH   2   3
ATOM      3  C   UNL     1       4.919 -10.178   4.612  1.00  0.00     0.000 C 
BRANCH   3   4
ATOM      4  C   UNL     1       3.634 -10.076   5.447  1.00  0.00     0.000 C 
BRANCH   4   5
ATOM      5  C   UNL     1       3.897 -10.193   6.958  1.00  0.00     0.000 C 
BRANCH   5   6
ATOM      6  C   UNL     1       2.803  -9.517   7.803  1.00  0.00     0.006 C 
BRANCH   6   7
ATOM      7  C   UNL     1       3.198  -8.097   8.231  1.00  0.00     0.053 C 
BRANCH   7   8
ATOM      8  C   UNL     1       2.108  -7.426   9.009  1.00  0.00     0.041 C 
ATOM      9  O   UNL     1       2.192  -6.200   9.286  1.00  0.00    -0.550 OA
ATOM     10  O   UNL     1       0.989  -8.147   9.405  1.00  0.00    -0.550 OA
ENDBRANCH   7   8
ENDBRANCH   6   7
ENDBRANCH   5   6
ENDBRANCH   4   5
ENDBRANCH   3   4
ENDBRANCH   2   3
ENDBRANCH   1   2
BRANCH   1  11
ATOM     11  C   UNL     1       6.551  -7.880   5.629  1.00  0.00     0.000 C 
BRANCH  11  12
ATOM     12  C   UNL     1       7.690  -8.676   6.286  1.00  0.00    -0.000 C 
BRANCH  12  13
ATOM     13  C   UNL     1       7.283  -9.290   7.637  1.00  0.00    -0.000 C 
BRANCH  13  14
ATOM     14  C   UNL     1       7.810  -8.485   8.838  1.00  0.00    -0.000 C 
BRANCH  14  15
ATOM     15  C   UNL     1       6.740  -7.674   9.598  1.00  0.00    -0.000 C 
BRANCH  15  16
ATOM     16  C   UNL     1       6.427  -6.289   9.006  1.00  0.00    -0.000 C 
BRANCH  16  17
ATOM     17  C   UNL     1       7.431  -5.212   9.446  1.00  0.00    -0.003 C 
ATOM     18  C   UNL     1       7.920  -4.397   8.252  1.00  0.00     0.004 C 
ENDBRANCH  16  17
ENDBRANCH  15  16
ENDBRANCH  14  15
ENDBRANCH  13  14
ENDBRANCH  12  13
ENDBRANCH  11  12
ENDBRANCH   1  11
TORSDOF 14
ENDMDL
MODEL 8
REMARK VINA RESULT:    -3.205      2.399      3.741
REMARK INTER + INTRA:          -7.821
REMARK INTER:                  -5.944
REMARK INTRA:                  -1.877
REMARK UNBOUND:                -1.993
REMARK SMILES CCCCCCCCCCCCCCCC(=O)[O-]
REMARK SMILES IDX 9 1 10 2 11 3 12 4 13 5 14 6 15 7 16 8 17 9 18 10 8 11 7 12
REMARK SMILES IDX 6 13 5 14 4 15 3 16 2 17 1 18
REMARK H PARENT
REMARK Flexibility Score: inf
ROOT
ATOM      1  C   UNL     1       6.686  -7.790   5.795  1.00  0.00     0.000 C 
ENDROOT
BRANCH   1   2
ATOM      2  C   UNL     1       6.708  -7.994   4.271  1.00  0.00     0.000 C 
BRANCH   2   3
ATOM      3  C   UNL     1       5.531  -8.843   3.768  1.00  0.00     0.000 C 
BRANCH   3   4
ATOM      4  C   UNL     1       5.204  -9.968   4.762  1.00  0.00     0.000 C 
BRANCH   4   5
ATOM      5  C   UNL     1       3.719  -9.995   5.161  1.00  0.00     0.000 C 
BRANCH   5   6
ATOM      6  C   UNL     1       3.512 -10.330   6.648  1.00  0.00     0.006 C 
BRANCH   6   7
ATOM      7  C   UNL     1       2.700  -9.251   7.376  1.00  0.00     0.053 C 
BRANCH   7   8
ATOM      8  C   UNL     1       1.254  -9.627   7.497  1.00  0.00     0.041 C 
ATOM      9  O   UNL     1       0.683  -9.592   8.618  1.00  0.00    -0.550 OA
ATOM     10  O   UNL     1       0.532  -9.989   6.367  1.00  0.00    -0.550 OA
ENDBRANCH   7   8
ENDBRANCH   6   7
ENDBRANCH   5   6
ENDBRANCH   4   5
ENDBRANCH   3   4
ENDBRANCH   2   3
ENDBRANCH   1   2
BRANCH   1  11
ATOM     11  C   UNL     1       7.812  -8.557   6.510  1.00  0.00     0.000 C 
BRANCH  11  12
ATOM     12  C   UNL     1       7.405  -9.020   7.919  1.00  0.00    -0.000 C 
BRANCH  12  13
ATOM     13  C   UNL     1       6.169  -8.275   8.454  1.00  0.00    -0.000 C 
BRANCH  13  14
ATOM     14  C   UNL     1       6.400  -7.667   9.849  1.00  0.00    -0.000 C 
BRANCH  14  15
ATOM     15  C   UNL     1       7.221  -6.362   9.863  1.00  0.00    -0.000 C 
BRANCH  15  16
ATOM     16  C   UNL     1       7.028  -5.456   8.634  1.00  0.00    -0.000 C 
BRANCH  16  17
ATOM     17  C   UNL     1       8.329  -4.771   8.188  1.00  0.00    -0.003 C 
ATOM     18  C   UNL     1       9.545  -5.625   8.533  1.00  0.00     0.004 C 
ENDBRANCH  16  17
ENDBRANCH  15  16
ENDBRANCH  14  15
ENDBRANCH  13  14
ENDBRANCH  12  13
ENDBRANCH  11  12
ENDBRANCH   1  11
TORSDOF 14
ENDMDL
MODEL 9
REMARK VINA RESULT:    -3.172     16.586     18.876
REMARK INTER + INTRA:          -7.761
REMARK INTER:                  -6.760
REMARK INTRA:                  -1.001
REMARK UNBOUND:                -1.993
REMARK SMILES CCCCCCCCCCCCCCCC(=O)[O-]
REMARK SMILES IDX 9 1 10 2 11 3 12 4 13 5 14 6 15 7 16 8 17 9 18 10 8 11 7 12
REMARK SMILES IDX 6 13 5 14 4 15 3 16 2 17 1 18
REMARK H PARENT
REMARK Flexibility Score: inf
ROOT
ATOM      1  C   UNL     1      -4.993  -8.928  -6.669  1.00  0.00     0.000 C 
ENDROOT
BRANCH   1   2
ATOM      2  C   UNL     1      -5.140  -9.536  -8.074  1.00  0.00     0.000 C 
BRANCH   2   3
ATOM      3  C   UNL     1      -6.477 -10.267  -8.269  1.00  0.00     0.000 C 
BRANCH   3   4
ATOM      4  C   UNL     1      -7.522  -9.336  -8.899  1.00  0.00     0.000 C 
BRANCH   4   5
ATOM      5  C   UNL     1      -8.408  -8.641  -7.851  1.00  0.00     0.000 C 
BRANCH   5   6
ATOM      6  C   UNL     1      -9.147  -7.416  -8.419  1.00  0.00     0.006 C 
BRANCH   6   7
ATOM      7  C   UNL     1      -8.179  -6.353  -8.954  1.00  0.00     0.053 C 
BRANCH   7   8
ATOM      8  C   UNL     1      -7.612  -5.510  -7.852  1.00  0.00     0.041 C 
ATOM      9  O   UNL     1      -8.347  -4.689  -7.242  1.00  0.00    -0.550 OA
ATOM     10  O   UNL     1      -6.281  -5.651  -7.481  1.00  0.00    -0.550 OA
ENDBRANCH   7   8
ENDBRANCH   6   7
ENDBRANCH   5   6
ENDBRANCH   4   5
ENDBRANCH   3   4
ENDBRANCH   2   3
ENDBRANCH   1   2
BRANCH   1  11
ATOM     11  C   UNL     1      -4.962  -9.996  -5.563  1.00  0.00     0.000 C 
BRANCH  11  12
ATOM     12  C   UNL     1      -6.315 -10.141  -4.847  1.00  0.00    -0.000 C 
BRANCH  12  13
ATOM     13  C   UNL     1      -6.430  -9.234  -3.609  1.00  0.00    -0.000 C 
BRANCH  13  14
ATOM     14  C   UNL     1      -7.837  -9.256  -2.985  1.00  0.00    -0.000 C 
BRANCH  14  15
ATOM     15  C   UNL     1      -8.153 -10.506  -2.138  1.00  0.00    -0.000 C 
BRANCH  15  16
ATOM     16  C   UNL     1      -9.643 -10.711  -1.809  1.00  0.00    -0.000 C 
BRANCH  16  17
ATOM     17  C   UNL     1      -9.924 -10.716  -0.298  1.00  0.00    -0.003 C 
ATOM     18  C   UNL     1      -8.625 -10.730   0.502  1.00  0.00     0.004 C 
ENDBRANCH  16  17
ENDBRANCH  15  16
ENDBRANCH  14  15
ENDBRANCH  13  14
ENDBRANCH  12  13
ENDBRANCH  11  12
ENDBRANCH   1  11
TORSDOF 14
ENDMDL
