MODEL 1
REMARK VINA RESULT:    -3.540      0.000      0.000
REMARK INTER + INTRA:          -4.894
REMARK INTER:                  -4.781
REMARK INTRA:                  -0.113
REMARK UNBOUND:                -0.113
REMARK SMILES [NH3+]CCCC[C@H]([NH3+])C(=O)[O-]
REMARK SMILES IDX 4 1 3 2 2 3 1 4 5 8 6 9 7 10 8 14 9 15 10 16
REMARK H PARENT 1 5 1 6 1 7 7 11 7 12 7 13
REMARK Flexibility Score: inf
ROOT
ATOM      1  C   UNL     1      46.006  18.730  75.813  1.00  0.00     0.012 C 
ENDROOT
BRANCH   1   2
ATOM      2  C   UNL     1      45.669  17.928  77.076  1.00  0.00     0.061 C 
BRANCH   2   3
ATOM      3  C   UNL     1      45.913  16.429  76.860  1.00  0.00     0.258 C 
BRANCH   3   4
ATOM      4  N   UNL     1      46.755  15.878  77.922  1.00  0.00    -0.358 N 
ATOM      5  H   UNL     1      47.113  16.649  78.532  1.00  0.00     0.344 HD
ATOM      6  H   UNL     1      46.185  15.222  78.504  1.00  0.00     0.344 HD
ATOM      7  H   UNL     1      47.558  15.352  77.507  1.00  0.00     0.344 HD
ENDBRANCH   3   4
ENDBRANCH   2   3
ENDBRANCH   1   2
BRANCH   1   8
ATOM      8  C   UNL     1      46.311  20.195  76.157  1.00  0.00     0.072 C 
BRANCH   8   9
ATOM      9  C   UNL     1      47.309  20.844  75.171  1.00  0.00     0.227 C 
BRANCH   9  10
ATOM     10  N   UNL     1      47.701  19.915  74.103  1.00  0.00    -0.350 N 
ATOM     11  H   UNL     1      48.307  19.156  74.488  1.00  0.00     0.345 HD
ATOM     12  H   UNL     1      48.216  20.417  73.343  1.00  0.00     0.345 HD
ATOM     13  H   UNL     1      46.851  19.461  73.695  1.00  0.00     0.345 HD
ENDBRANCH   9  10
BRANCH   9  14
ATOM     14  C   UNL     1      48.528  21.307  75.924  1.00  0.00     0.099 C 
ATOM     15  O   UNL     1      48.779  20.845  77.069  1.00  0.00    -0.544 OA
ATOM     16  O   UNL     1      49.395  22.231  75.353  1.00  0.00    -0.544 OA
ENDBRANCH   9  14
ENDBRANCH   8   9
ENDBRANCH   1   8
TORSDOF 7
ENDMDL
MODEL 2
REMARK VINA RESULT:    -3.321     18.202     19.027
REMARK INTER + INTRA:          -4.599
REMARK INTER:                  -4.220
REMARK INTRA:                  -0.379
REMARK UNBOUND:                -0.113
REMARK SMILES [NH3+]CCCC[C@H]([NH3+])C(=O)[O-]
REMARK SMILES IDX 4 1 3 2 2 3 1 4 5 8 6 9 7 10 8 14 9 15 10 16
REMARK H PARENT 1 5 1 6 1 7 7 11 7 12 7 13
REMARK Flexibility Score: inf
ROOT
ATOM      1  C   UNL     1      50.373  35.446  87.808  1.00  0.00     0.012 C 
ENDROOT
BRANCH   1   2
ATOM      2  C   UNL     1      48.850  35.269  87.795  1.00  0.00     0.061 C 
BRANCH   2   3
ATOM      3  C   UNL     1      48.412  34.339  86.657  1.00  0.00     0.258 C 
BRANCH   3   4
ATOM      4  N   UNL     1      48.241  35.083  85.409  1.00  0.00    -0.358 N 
ATOM      5  H   UNL     1      48.453  34.465  84.591  1.00  0.00     0.344 HD
ATOM      6  H   UNL     1      47.251  35.411  85.339  1.00  0.00     0.344 HD
ATOM      7  H   UNL     1      48.876  35.914  85.397  1.00  0.00     0.344 HD
ENDBRANCH   3   4
ENDBRANCH   2   3
ENDBRANCH   1   2
BRANCH   1   8
ATOM      8  C   UNL     1      51.082  34.150  87.387  1.00  0.00     0.072 C 
BRANCH   8   9
ATOM      9  C   UNL     1      52.477  34.405  86.773  1.00  0.00     0.227 C 
BRANCH   9  10
ATOM     10  N   UNL     1      53.016  35.712  87.172  1.00  0.00    -0.350 N 
ATOM     11  H   UNL     1      53.137  36.324  86.333  1.00  0.00     0.345 HD
ATOM     12  H   UNL     1      53.937  35.602  87.656  1.00  0.00     0.345 HD
ATOM     13  H   UNL     1      52.347  36.193  87.816  1.00  0.00     0.345 HD
ENDBRANCH   9  10
BRANCH   9  14
ATOM     14  C   UNL     1      52.388  34.321  85.273  1.00  0.00     0.099 C 
ATOM     15  O   UNL     1      53.434  34.356  84.573  1.00  0.00    -0.544 OA
ATOM     16  O   UNL     1      51.152  34.184  84.651  1.00  0.00    -0.544 OA
ENDBRANCH   9  14
ENDBRANCH   8   9
ENDBRANCH   1   8
TORSDOF 7
ENDMDL
MODEL 3
REMARK VINA RESULT:    -3.311     17.702     18.624
REMARK INTER + INTRA:          -4.586
REMARK INTER:                  -4.070
REMARK INTRA:                  -0.516
REMARK UNBOUND:                -0.113
REMARK SMILES [NH3+]CCCC[C@H]([NH3+])C(=O)[O-]
REMARK SMILES IDX 4 1 3 2 2 3 1 4 5 8 6 9 7 10 8 14 9 15 10 16
REMARK H PARENT 1 5 1 6 1 7 7 11 7 12 7 13
REMARK Flexibility Score: inf
ROOT
ATOM      1  C   UNL     1      50.564  33.414  85.019  1.00  0.00     0.012 C 
ENDROOT
BRANCH   1   2
ATOM      2  C   UNL     1      49.930  34.334  83.970  1.00  0.00     0.061 C 
BRANCH   2   3
ATOM      3  C   UNL     1      48.398  34.279  84.040  1.00  0.00     0.258 C 
BRANCH   3   4
ATOM      4  N   UNL     1      47.875  35.338  84.903  1.00  0.00    -0.358 N 
ATOM      5  H   UNL     1      48.173  36.274  84.543  1.00  0.00     0.344 HD
ATOM      6  H   UNL     1      46.831  35.293  84.905  1.00  0.00     0.344 HD
ATOM      7  H   UNL     1      48.222  35.208  85.881  1.00  0.00     0.344 HD
ENDBRANCH   3   4
ENDBRANCH   2   3
ENDBRANCH   1   2
BRANCH   1   8
ATOM      8  C   UNL     1      51.444  34.211  85.993  1.00  0.00     0.072 C 
BRANCH   8   9
ATOM      9  C   UNL     1      50.621  34.950  87.073  1.00  0.00     0.227 C 
BRANCH   9  10
ATOM     10  N   UNL     1      51.484  35.683  88.008  1.00  0.00    -0.350 N 
ATOM     11  H   UNL     1      51.533  35.181  88.924  1.00  0.00     0.345 HD
ATOM     12  H   UNL     1      51.125  36.653  88.164  1.00  0.00     0.345 HD
ATOM     13  H   UNL     1      52.457  35.737  87.628  1.00  0.00     0.345 HD
ENDBRANCH   9  10
BRANCH   9  14
ATOM     14  C   UNL     1      49.774  33.958  87.824  1.00  0.00     0.099 C 
ATOM     15  O   UNL     1      50.314  33.093  88.563  1.00  0.00    -0.544 OA
ATOM     16  O   UNL     1      48.388  34.001  87.722  1.00  0.00    -0.544 OA
ENDBRANCH   9  14
ENDBRANCH   8   9
ENDBRANCH   1   8
TORSDOF 7
ENDMDL
MODEL 4
REMARK VINA RESULT:    -3.295      2.405      4.664
REMARK INTER + INTRA:          -4.564
REMARK INTER:                  -4.182
REMARK INTRA:                  -0.382
REMARK UNBOUND:                -0.113
REMARK SMILES [NH3+]CCCC[C@H]([NH3+])C(=O)[O-]
REMARK SMILES IDX 4 1 3 2 2 3 1 4 5 8 6 9 7 10 8 14 9 15 10 16
REMARK H PARENT 1 5 1 6 1 7 7 11 7 12 7 13
REMARK Flexibility Score: inf
ROOT
ATOM      1  C   UNL     1      48.053  20.713  77.321  1.00  0.00     0.012 C 
ENDROOT
BRANCH   1   2
ATOM      2  C   UNL     1      48.477  21.713  76.238  1.00  0.00     0.061 C 
BRANCH   2   3
ATOM      3  C   UNL     1      47.695  21.485  74.939  1.00  0.00     0.258 C 
BRANCH   3   4
ATOM      4  N   UNL     1      48.155  20.275  74.257  1.00  0.00    -0.358 N 
ATOM      5  H   UNL     1      48.519  19.586  74.955  1.00  0.00     0.344 HD
ATOM      6  H   UNL     1      47.352  19.846  73.744  1.00  0.00     0.344 HD
ATOM      7  H   UNL     1      48.907  20.514  73.570  1.00  0.00     0.344 HD
ENDBRANCH   3   4
ENDBRANCH   2   3
ENDBRANCH   1   2
BRANCH   1   8
ATOM      8  C   UNL     1      46.533  20.493  77.303  1.00  0.00     0.072 C 
BRANCH   8   9
ATOM      9  C   UNL     1      46.122  19.121  77.884  1.00  0.00     0.227 C 
BRANCH   9  10
ATOM     10  N   UNL     1      47.141  18.589  78.798  1.00  0.00    -0.350 N 
ATOM     11  H   UNL     1      47.389  17.609  78.531  1.00  0.00     0.345 HD
ATOM     12  H   UNL     1      46.799  18.603  79.786  1.00  0.00     0.345 HD
ATOM     13  H   UNL     1      48.014  19.162  78.732  1.00  0.00     0.345 HD
ENDBRANCH   9  10
BRANCH   9  14
ATOM     14  C   UNL     1      45.883  18.151  76.758  1.00  0.00     0.099 C 
ATOM     15  O   UNL     1      45.934  18.542  75.562  1.00  0.00    -0.544 OA
ATOM     16  O   UNL     1      45.623  16.813  77.030  1.00  0.00    -0.544 OA
ENDBRANCH   9  14
ENDBRANCH   8   9
ENDBRANCH   1   8
TORSDOF 7
ENDMDL
MODEL 5
REMARK VINA RESULT:    -3.284     18.079     19.077
REMARK INTER + INTRA:          -4.549
REMARK INTER:                  -4.061
REMARK INTRA:                  -0.488
REMARK UNBOUND:                -0.113
REMARK SMILES [NH3+]CCCC[C@H]([NH3+])C(=O)[O-]
REMARK SMILES IDX 4 1 3 2 2 3 1 4 5 8 6 9 7 10 8 14 9 15 10 16
REMARK H PARENT 1 5 1 6 1 7 7 11 7 12 7 13
REMARK Flexibility Score: inf
ROOT
ATOM      1  C   UNL     1      51.143  33.493  86.162  1.00  0.00     0.012 C 
ENDROOT
BRANCH   1   2
ATOM      2  C   UNL     1      52.390  34.284  86.576  1.00  0.00     0.061 C 
BRANCH   2   3
ATOM      3  C   UNL     1      52.305  34.721  88.044  1.00  0.00     0.258 C 
BRANCH   3   4
ATOM      4  N   UNL     1      51.834  36.102  88.151  1.00  0.00    -0.358 N 
ATOM      5  H   UNL     1      50.861  36.180  87.773  1.00  0.00     0.344 HD
ATOM      6  H   UNL     1      51.830  36.385  89.158  1.00  0.00     0.344 HD
ATOM      7  H   UNL     1      52.471  36.741  87.622  1.00  0.00     0.344 HD
ENDBRANCH   3   4
ENDBRANCH   2   3
ENDBRANCH   1   2
BRANCH   1   8
ATOM      8  C   UNL     1      50.249  34.322  85.229  1.00  0.00     0.072 C 
BRANCH   8   9
ATOM      9  C   UNL     1      48.752  34.231  85.600  1.00  0.00     0.227 C 
BRANCH   9  10
ATOM     10  N   UNL     1      47.940  35.179  84.827  1.00  0.00    -0.350 N 
ATOM     11  H   UNL     1      48.242  35.181  83.826  1.00  0.00     0.345 HD
ATOM     12  H   UNL     1      48.024  36.146  85.216  1.00  0.00     0.345 HD
ATOM     13  H   UNL     1      46.934  34.890  84.849  1.00  0.00     0.345 HD
ENDBRANCH   9  10
BRANCH   9  14
ATOM     14  C   UNL     1      48.584  34.491  87.073  1.00  0.00     0.099 C 
ATOM     15  O   UNL     1      48.147  33.585  87.832  1.00  0.00    -0.544 OA
ATOM     16  O   UNL     1      48.927  35.727  87.610  1.00  0.00    -0.544 OA
ENDBRANCH   9  14
ENDBRANCH   8   9
ENDBRANCH   1   8
TORSDOF 7
ENDMDL
MODEL 6
REMARK VINA RESULT:    -3.278     18.380     19.656
REMARK INTER + INTRA:          -4.541
REMARK INTER:                  -4.407
REMARK INTRA:                  -0.134
REMARK UNBOUND:                -0.113
REMARK SMILES [NH3+]CCCC[C@H]([NH3+])C(=O)[O-]
REMARK SMILES IDX 4 1 3 2 2 3 1 4 5 8 6 9 7 10 8 14 9 15 10 16
REMARK H PARENT 1 5 1 6 1 7 7 11 7 12 7 13
REMARK Flexibility Score: inf
ROOT
ATOM      1  C   UNL     1      49.676  35.227  87.734  1.00  0.00     0.012 C 
ENDROOT
BRANCH   1   2
ATOM      2  C   UNL     1      48.559  34.380  87.113  1.00  0.00     0.061 C 
BRANCH   2   3
ATOM      3  C   UNL     1      48.702  34.310  85.587  1.00  0.00     0.258 C 
BRANCH   3   4
ATOM      4  N   UNL     1      47.928  35.370  84.940  1.00  0.00    -0.358 N 
ATOM      5  H   UNL     1      48.227  36.305  85.303  1.00  0.00     0.344 HD
ATOM      6  H   UNL     1      48.098  35.336  83.909  1.00  0.00     0.344 HD
ATOM      7  H   UNL     1      46.908  35.230  85.121  1.00  0.00     0.344 HD
ENDBRANCH   3   4
ENDBRANCH   2   3
ENDBRANCH   1   2
BRANCH   1   8
ATOM      8  C   UNL     1      51.051  34.810  87.190  1.00  0.00     0.072 C 
BRANCH   8   9
ATOM      9  C   UNL     1      52.214  35.250  88.107  1.00  0.00     0.227 C 
BRANCH   9  10
ATOM     10  N   UNL     1      53.265  35.951  87.357  1.00  0.00    -0.350 N 
ATOM     11  H   UNL     1      52.854  36.746  86.817  1.00  0.00     0.345 HD
ATOM     12  H   UNL     1      53.750  35.299  86.698  1.00  0.00     0.345 HD
ATOM     13  H   UNL     1      53.969  36.352  88.018  1.00  0.00     0.345 HD
ENDBRANCH   9  10
BRANCH   9  14
ATOM     14  C   UNL     1      52.792  34.044  88.798  1.00  0.00     0.099 C 
ATOM     15  O   UNL     1      53.895  34.126  89.400  1.00  0.00    -0.544 OA
ATOM     16  O   UNL     1      52.103  32.836  88.792  1.00  0.00    -0.544 OA
ENDBRANCH   9  14
ENDBRANCH   8   9
ENDBRANCH   1   8
TORSDOF 7
ENDMDL
MODEL 7
REMARK VINA RESULT:    -3.234      8.300      9.519
REMARK INTER + INTRA:          -4.481
REMARK INTER:                  -4.368
REMARK INTRA:                  -0.113
REMARK UNBOUND:                -0.113
REMARK SMILES [NH3+]CCCC[C@H]([NH3+])C(=O)[O-]
REMARK SMILES IDX 4 1 3 2 2 3 1 4 5 8 6 9 7 10 8 14 9 15 10 16
REMARK H PARENT 1 5 1 6 1 7 7 11 7 12 7 13
REMARK Flexibility Score: inf
ROOT
ATOM      1  C   UNL     1      41.174  19.998  80.153  1.00  0.00     0.012 C 
ENDROOT
BRANCH   1   2
ATOM      2  C   UNL     1      42.317  20.233  79.159  1.00  0.00     0.061 C 
BRANCH   2   3
ATOM      3  C   UNL     1      43.303  21.283  79.689  1.00  0.00     0.258 C 
BRANCH   3   4
ATOM      4  N   UNL     1      42.908  21.746  81.019  1.00  0.00    -0.358 N 
ATOM      5  H   UNL     1      41.871  21.662  81.135  1.00  0.00     0.344 HD
ATOM      6  H   UNL     1      43.378  21.155  81.741  1.00  0.00     0.344 HD
ATOM      7  H   UNL     1      43.199  22.742  81.153  1.00  0.00     0.344 HD
ENDBRANCH   3   4
ENDBRANCH   2   3
ENDBRANCH   1   2
BRANCH   1   8
ATOM      8  C   UNL     1      39.876  19.623  79.422  1.00  0.00     0.072 C 
BRANCH   8   9
ATOM      9  C   UNL     1      38.879  18.865  80.327  1.00  0.00     0.227 C 
BRANCH   9  10
ATOM     10  N   UNL     1      38.341  17.670  79.663  1.00  0.00    -0.350 N 
ATOM     11  H   UNL     1      38.677  16.807  80.146  1.00  0.00     0.345 HD
ATOM     12  H   UNL     1      38.629  17.640  78.658  1.00  0.00     0.345 HD
ATOM     13  H   UNL     1      37.296  17.672  79.718  1.00  0.00     0.345 HD
ENDBRANCH   9  10
BRANCH   9  14
ATOM     14  C   UNL     1      37.755  19.788  80.717  1.00  0.00     0.099 C 
ATOM     15  O   UNL     1      37.009  19.502  81.691  1.00  0.00    -0.544 OA
ATOM     16  O   UNL     1      37.545  20.971  80.018  1.00  0.00    -0.544 OA
ENDBRANCH   9  14
ENDBRANCH   8   9
ENDBRANCH   1   8
TORSDOF 7
ENDMDL
MODEL 8
REMARK VINA RESULT:    -3.226      2.351      2.879
REMARK INTER + INTRA:          -4.471
REMARK INTER:                  -4.290
REMARK INTRA:                  -0.182
REMARK UNBOUND:                -0.113
REMARK SMILES [NH3+]CCCC[C@H]([NH3+])C(=O)[O-]
REMARK SMILES IDX 4 1 3 2 2 3 1 4 5 8 6 9 7 10 8 14 9 15 10 16
REMARK H PARENT 1 5 1 6 1 7 7 11 7 12 7 13
REMARK Flexibility Score: inf
ROOT
ATOM      1  C   UNL     1      46.016  18.722  76.107  1.00  0.00     0.012 C 
ENDROOT
BRANCH   1   2
ATOM      2  C   UNL     1      45.677  17.633  77.133  1.00  0.00     0.061 C 
BRANCH   2   3
ATOM      3  C   UNL     1      45.971  16.236  76.572  1.00  0.00     0.258 C 
BRANCH   3   4
ATOM      4  N   UNL     1      46.052  16.264  75.112  1.00  0.00    -0.358 N 
ATOM      5  H   UNL     1      45.331  16.917  74.725  1.00  0.00     0.344 HD
ATOM      6  H   UNL     1      47.000  16.601  74.829  1.00  0.00     0.344 HD
ATOM      7  H   UNL     1      45.903  15.304  74.726  1.00  0.00     0.344 HD
ENDBRANCH   3   4
ENDBRANCH   2   3
ENDBRANCH   1   2
BRANCH   1   8
ATOM      8  C   UNL     1      46.422  20.029  76.804  1.00  0.00     0.072 C 
BRANCH   8   9
ATOM      9  C   UNL     1      46.770  19.826  78.296  1.00  0.00     0.227 C 
BRANCH   9  10
ATOM     10  N   UNL     1      45.881  20.599  79.173  1.00  0.00    -0.350 N 
ATOM     11  H   UNL     1      45.645  21.516  78.731  1.00  0.00     0.345 HD
ATOM     12  H   UNL     1      46.328  20.767  80.103  1.00  0.00     0.345 HD
ATOM     13  H   UNL     1      44.983  20.081  79.316  1.00  0.00     0.345 HD
ENDBRANCH   9  10
BRANCH   9  14
ATOM     14  C   UNL     1      48.202  20.225  78.535  1.00  0.00     0.099 C 
ATOM     15  O   UNL     1      48.915  20.631  77.580  1.00  0.00    -0.544 OA
ATOM     16  O   UNL     1      48.741  20.166  79.815  1.00  0.00    -0.544 OA
ENDBRANCH   9  14
ENDBRANCH   8   9
ENDBRANCH   1   8
TORSDOF 7
ENDMDL
MODEL 9
REMARK VINA RESULT:    -3.177     17.903     19.169
REMARK INTER + INTRA:          -4.405
REMARK INTER:                  -4.176
REMARK INTRA:                  -0.229
REMARK UNBOUND:                -0.113
REMARK SMILES [NH3+]CCCC[C@H]([NH3+])C(=O)[O-]
REMARK SMILES IDX 4 1 3 2 2 3 1 4 5 8 6 9 7 10 8 14 9 15 10 16
REMARK H PARENT 1 5 1 6 1 7 7 11 7 12 7 13
REMARK Flexibility Score: inf
ROOT
ATOM      1  C   UNL     1      49.236  33.839  86.466  1.00  0.00     0.012 C 
ENDROOT
BRANCH   1   2
ATOM      2  C   UNL     1      49.559  33.790  84.967  1.00  0.00     0.061 C 
BRANCH   2   3
ATOM      3  C   UNL     1      48.469  34.489  84.145  1.00  0.00     0.258 C 
BRANCH   3   4
ATOM      4  N   UNL     1      47.760  35.482  84.952  1.00  0.00    -0.358 N 
ATOM      5  H   UNL     1      48.445  36.120  85.418  1.00  0.00     0.344 HD
ATOM      6  H   UNL     1      47.139  36.048  84.330  1.00  0.00     0.344 HD
ATOM      7  H   UNL     1      47.173  35.005  85.674  1.00  0.00     0.344 HD
ENDBRANCH   3   4
ENDBRANCH   2   3
ENDBRANCH   1   2
BRANCH   1   8
ATOM      8  C   UNL     1      50.498  33.605  87.309  1.00  0.00     0.072 C 
BRANCH   8   9
ATOM      9  C   UNL     1      50.961  34.877  88.055  1.00  0.00     0.227 C 
BRANCH   9  10
ATOM     10  N   UNL     1      50.063  36.012  87.806  1.00  0.00    -0.350 N 
ATOM     11  H   UNL     1      49.533  35.866  86.917  1.00  0.00     0.345 HD
ATOM     12  H   UNL     1      50.601  36.907  87.745  1.00  0.00     0.345 HD
ATOM     13  H   UNL     1      49.362  36.088  88.579  1.00  0.00     0.345 HD
ENDBRANCH   9  10
BRANCH   9  14
ATOM     14  C   UNL     1      52.362  35.227  87.629  1.00  0.00     0.099 C 
ATOM     15  O   UNL     1      52.775  34.906  86.483  1.00  0.00    -0.544 OA
ATOM     16  O   UNL     1      53.203  35.923  88.489  1.00  0.00    -0.544 OA
ENDBRANCH   9  14
ENDBRANCH   8   9
ENDBRANCH   1   8
TORSDOF 7
ENDMDL
