MODEL 1
REMARK VINA RESULT:    -4.590      0.000      0.000
REMARK INTER + INTRA:          -5.997
REMARK INTER:                  -5.664
REMARK INTRA:                  -0.334
REMARK UNBOUND:                -0.334
REMARK SMILES O=c1c(O)c(-c2cc(O)c(O)c(O)c2)oc2cc(O)cc(O)c12
REMARK SMILES IDX 5 1 3 2 2 3 1 4 23 5 21 6 20 7 18 8 17 9 16 10 15 11 6 12
REMARK SMILES IDX 7 13 8 14 14 15 10 16 12 17 9 18 11 20 13 22 4 24 22 26
REMARK SMILES IDX 19 28
REMARK H PARENT 9 19 11 21 13 23 4 25 22 27 19 29
REMARK Flexibility Score: inf
ROOT
ATOM      1  C   UNL     1      63.892  14.834  46.841  1.00  0.00     0.180 A 
ATOM      2  C   UNL     1      64.212  13.774  47.712  1.00  0.00     0.208 A 
ATOM      3  C   UNL     1      65.563  13.470  47.942  1.00  0.00     0.238 A 
ATOM      4  O   UNL     1      65.862  12.530  48.728  1.00  0.00    -0.285 OA
ATOM      5  C   UNL     1      66.567  14.212  47.286  1.00  0.00     0.111 A 
ATOM      6  C   UNL     1      67.950  13.967  47.460  1.00  0.00     0.134 A 
ATOM      7  C   UNL     1      68.887  14.744  46.765  1.00  0.00     0.093 A 
ATOM      8  C   UNL     1      68.468  15.760  45.898  1.00  0.00     0.123 A 
ATOM      9  C   UNL     1      67.105  16.007  45.724  1.00  0.00     0.094 A 
ATOM     10  C   UNL     1      66.155  15.243  46.410  1.00  0.00     0.146 A 
ATOM     11  O   UNL     1      64.865  15.503  46.229  1.00  0.00    -0.452 OA
ENDROOT
BRANCH   1  12
ATOM     12  C   UNL     1      62.492  15.228  46.562  1.00  0.00     0.029 A 
ATOM     13  C   UNL     1      61.752  15.990  47.478  1.00  0.00     0.062 A 
ATOM     14  C   UNL     1      60.437  16.373  47.186  1.00  0.00     0.162 A 
ATOM     15  C   UNL     1      61.910  14.884  45.335  1.00  0.00     0.062 A 
ATOM     16  C   UNL     1      59.848  16.007  45.967  1.00  0.00     0.200 A 
ATOM     17  C   UNL     1      60.596  15.257  45.029  1.00  0.00     0.162 A 
BRANCH  14  18
ATOM     18  O   UNL     1      59.706  17.125  48.105  1.00  0.00    -0.504 OA
ATOM     19  H   UNL     1      59.173  16.686  48.846  1.00  0.00     0.293 HD
ENDBRANCH  14  18
BRANCH  16  20
ATOM     20  O   UNL     1      58.531  16.407  45.729  1.00  0.00    -0.502 OA
ATOM     21  H   UNL     1      58.272  17.180  45.132  1.00  0.00     0.293 HD
ENDBRANCH  16  20
BRANCH  17  22
ATOM     22  O   UNL     1      60.081  14.867  43.791  1.00  0.00    -0.504 OA
ATOM     23  H   UNL     1      60.536  15.045  42.908  1.00  0.00     0.293 HD
ENDBRANCH  17  22
ENDBRANCH   1  12
BRANCH   2  24
ATOM     24  O   UNL     1      63.198  13.022  48.310  1.00  0.00    -0.502 OA
ATOM     25  H   UNL     1      63.024  12.055  48.066  1.00  0.00     0.293 HD
ENDBRANCH   2  24
BRANCH   6  26
ATOM     26  O   UNL     1      68.398  12.960  48.316  1.00  0.00    -0.507 OA
ATOM     27  H   UNL     1      68.233  11.980  48.118  1.00  0.00     0.293 HD
ENDBRANCH   6  26
BRANCH   8  28
ATOM     28  O   UNL     1      69.398  16.532  45.206  1.00  0.00    -0.508 OA
ATOM     29  H   UNL     1      69.134  17.084  44.398  1.00  0.00     0.293 HD
ENDBRANCH   8  28
TORSDOF 7
ENDMDL
MODEL 2
REMARK VINA RESULT:    -4.477     18.883     21.010
REMARK INTER + INTRA:          -5.857
REMARK INTER:                  -5.519
REMARK INTRA:                  -0.339
REMARK UNBOUND:                -0.334
REMARK SMILES O=c1c(O)c(-c2cc(O)c(O)c(O)c2)oc2cc(O)cc(O)c12
REMARK SMILES IDX 5 1 3 2 2 3 1 4 23 5 21 6 20 7 18 8 17 9 16 10 15 11 6 12
REMARK SMILES IDX 7 13 8 14 14 15 10 16 12 17 9 18 11 20 13 22 4 24 22 26
REMARK SMILES IDX 19 28
REMARK H PARENT 9 19 11 21 13 23 4 25 22 27 19 29
REMARK Flexibility Score: inf
ROOT
ATOM      1  C   UNL     1      59.745   1.712  31.855  1.00  0.00     0.180 A 
ATOM      2  C   UNL     1      58.892   1.115  30.907  1.00  0.00     0.208 A 
ATOM      3  C   UNL     1      58.646  -0.265  30.990  1.00  0.00     0.238 A 
ATOM      4  O   UNL     1      57.875  -0.808  30.152  1.00  0.00    -0.285 OA
ATOM      5  C   UNL     1      59.269  -1.025  32.000  1.00  0.00     0.111 A 
ATOM      6  C   UNL     1      59.076  -2.420  32.150  1.00  0.00     0.134 A 
ATOM      7  C   UNL     1      59.740  -3.106  33.177  1.00  0.00     0.093 A 
ATOM      8  C   UNL     1      60.592  -2.427  34.056  1.00  0.00     0.123 A 
ATOM      9  C   UNL     1      60.783  -1.051  33.913  1.00  0.00     0.094 A 
ATOM     10  C   UNL     1      60.130  -0.349  32.896  1.00  0.00     0.146 A 
ATOM     11  O   UNL     1      60.327   0.960  32.786  1.00  0.00    -0.452 OA
ENDROOT
BRANCH   1  12
ATOM     12  C   UNL     1      60.040   3.163  31.845  1.00  0.00     0.029 A 
ATOM     13  C   UNL     1      59.127   4.096  32.360  1.00  0.00     0.062 A 
ATOM     14  C   UNL     1      59.433   5.463  32.363  1.00  0.00     0.162 A 
ATOM     15  C   UNL     1      61.278   3.613  31.368  1.00  0.00     0.062 A 
ATOM     16  C   UNL     1      60.663   5.913  31.863  1.00  0.00     0.200 A 
ATOM     17  C   UNL     1      61.598   4.976  31.363  1.00  0.00     0.162 A 
BRANCH  14  18
ATOM     18  O   UNL     1      58.517   6.384  32.869  1.00  0.00    -0.504 OA
ATOM     19  H   UNL     1      58.493   7.343  32.543  1.00  0.00     0.293 HD
ENDBRANCH  14  18
BRANCH  16  20
ATOM     20  O   UNL     1      60.916   7.287  31.882  1.00  0.00    -0.502 OA
ATOM     21  H   UNL     1      61.781   7.700  32.197  1.00  0.00     0.293 HD
ENDBRANCH  16  20
BRANCH  17  22
ATOM     22  O   UNL     1      62.846   5.349  30.861  1.00  0.00    -0.504 OA
ATOM     23  H   UNL     1      63.260   6.260  30.995  1.00  0.00     0.293 HD
ENDBRANCH  17  22
ENDBRANCH   1  12
BRANCH   2  24
ATOM     24  O   UNL     1      58.327   1.881  29.885  1.00  0.00    -0.502 OA
ATOM     25  H   UNL     1      58.585   2.848  29.725  1.00  0.00     0.293 HD
ENDBRANCH   2  24
BRANCH   6  26
ATOM     26  O   UNL     1      58.235  -3.125  31.289  1.00  0.00    -0.507 OA
ATOM     27  H   UNL     1      57.709  -3.933  31.602  1.00  0.00     0.293 HD
ENDBRANCH   6  26
BRANCH   8  28
ATOM     28  O   UNL     1      61.251  -3.109  35.075  1.00  0.00    -0.508 OA
ATOM     29  H   UNL     1      61.636  -2.623  35.876  1.00  0.00     0.293 HD
ENDBRANCH   8  28
TORSDOF 7
ENDMDL
MODEL 3
REMARK VINA RESULT:    -4.464     20.145     22.314
REMARK INTER + INTRA:          -5.841
REMARK INTER:                  -5.488
REMARK INTRA:                  -0.353
REMARK UNBOUND:                -0.334
REMARK SMILES O=c1c(O)c(-c2cc(O)c(O)c(O)c2)oc2cc(O)cc(O)c12
REMARK SMILES IDX 5 1 3 2 2 3 1 4 23 5 21 6 20 7 18 8 17 9 16 10 15 11 6 12
REMARK SMILES IDX 7 13 8 14 14 15 10 16 12 17 9 18 11 20 13 22 4 24 22 26
REMARK SMILES IDX 19 28
REMARK H PARENT 9 19 11 21 13 23 4 25 22 27 19 29
REMARK Flexibility Score: inf
ROOT
ATOM      1  C   UNL     1      71.275   0.316  33.163  1.00  0.00     0.180 A 
ATOM      2  C   UNL     1      71.065   1.459  32.368  1.00  0.00     0.208 A 
ATOM      3  C   UNL     1      69.760   1.960  32.232  1.00  0.00     0.238 A 
ATOM      4  O   UNL     1      69.561   2.989  31.530  1.00  0.00    -0.285 OA
ATOM      5  C   UNL     1      68.690   1.302  32.872  1.00  0.00     0.111 A 
ATOM      6  C   UNL     1      67.347   1.740  32.783  1.00  0.00     0.134 A 
ATOM      7  C   UNL     1      66.337   1.025  33.444  1.00  0.00     0.093 A 
ATOM      8  C   UNL     1      66.645  -0.119  34.190  1.00  0.00     0.123 A 
ATOM      9  C   UNL     1      67.968  -0.553  34.282  1.00  0.00     0.094 A 
ATOM     10  C   UNL     1      68.989   0.146  33.632  1.00  0.00     0.146 A 
ATOM     11  O   UNL     1      70.240  -0.287  33.741  1.00  0.00    -0.452 OA
ENDROOT
BRANCH   1  12
ATOM     12  C   UNL     1      72.623  -0.262  33.370  1.00  0.00     0.029 A 
ATOM     13  C   UNL     1      73.503   0.266  34.327  1.00  0.00     0.062 A 
ATOM     14  C   UNL     1      74.766  -0.309  34.524  1.00  0.00     0.162 A 
ATOM     15  C   UNL     1      73.009  -1.394  32.640  1.00  0.00     0.062 A 
ATOM     16  C   UNL     1      75.159  -1.427  33.776  1.00  0.00     0.200 A 
ATOM     17  C   UNL     1      74.267  -1.978  32.825  1.00  0.00     0.162 A 
BRANCH  14  18
ATOM     18  O   UNL     1      75.638   0.226  35.472  1.00  0.00    -0.504 OA
ATOM     19  H   UNL     1      75.653   1.217  35.680  1.00  0.00     0.293 HD
ENDBRANCH  14  18
BRANCH  16  20
ATOM     20  O   UNL     1      76.431  -1.957  34.006  1.00  0.00    -0.502 OA
ATOM     21  H   UNL     1      77.021  -1.696  34.782  1.00  0.00     0.293 HD
ENDBRANCH  16  20
BRANCH  17  22
ATOM     22  O   UNL     1      74.585  -3.097  32.052  1.00  0.00    -0.504 OA
ATOM     23  H   UNL     1      75.528  -3.391  31.844  1.00  0.00     0.293 HD
ENDBRANCH  17  22
ENDBRANCH   1  12
BRANCH   2  24
ATOM     24  O   UNL     1      72.135   2.062  31.703  1.00  0.00    -0.502 OA
ATOM     25  H   UNL     1      72.043   2.947  31.218  1.00  0.00     0.293 HD
ENDBRANCH   2  24
BRANCH   6  26
ATOM     26  O   UNL     1      67.010   2.875  32.045  1.00  0.00    -0.507 OA
ATOM     27  H   UNL     1      66.596   3.691  32.482  1.00  0.00     0.293 HD
ENDBRANCH   6  26
BRANCH   8  28
ATOM     28  O   UNL     1      65.642  -0.829  34.845  1.00  0.00    -0.508 OA
ATOM     29  H   UNL     1      65.463  -0.704  35.835  1.00  0.00     0.293 HD
ENDBRANCH   8  28
TORSDOF 7
ENDMDL
MODEL 4
REMARK VINA RESULT:    -4.434      1.520      3.588
REMARK INTER + INTRA:          -5.804
REMARK INTER:                  -5.438
REMARK INTRA:                  -0.366
REMARK UNBOUND:                -0.334
REMARK SMILES O=c1c(O)c(-c2cc(O)c(O)c(O)c2)oc2cc(O)cc(O)c12
REMARK SMILES IDX 5 1 3 2 2 3 1 4 23 5 21 6 20 7 18 8 17 9 16 10 15 11 6 12
REMARK SMILES IDX 7 13 8 14 14 15 10 16 12 17 9 18 11 20 13 22 4 24 22 26
REMARK SMILES IDX 19 28
REMARK H PARENT 9 19 11 21 13 23 4 25 22 27 19 29
REMARK Flexibility Score: inf
ROOT
ATOM      1  C   UNL     1      64.775  14.458  46.796  1.00  0.00     0.180 A 
ATOM      2  C   UNL     1      65.907  15.185  46.381  1.00  0.00     0.208 A 
ATOM      3  C   UNL     1      67.182  14.719  46.742  1.00  0.00     0.238 A 
ATOM      4  O   UNL     1      68.204  15.357  46.368  1.00  0.00    -0.285 OA
ATOM      5  C   UNL     1      67.302  13.552  47.525  1.00  0.00     0.111 A 
ATOM      6  C   UNL     1      68.548  13.019  47.934  1.00  0.00     0.134 A 
ATOM      7  C   UNL     1      68.583  11.858  48.719  1.00  0.00     0.093 A 
ATOM      8  C   UNL     1      67.398  11.221  49.104  1.00  0.00     0.123 A 
ATOM      9  C   UNL     1      66.167  11.742  48.702  1.00  0.00     0.094 A 
ATOM     10  C   UNL     1      66.111  12.898  47.918  1.00  0.00     0.146 A 
ATOM     11  O   UNL     1      64.926  13.370  47.546  1.00  0.00    -0.452 OA
ENDROOT
BRANCH   1  12
ATOM     12  C   UNL     1      63.399  14.874  46.440  1.00  0.00     0.029 A 
ATOM     13  C   UNL     1      62.809  14.482  45.229  1.00  0.00     0.062 A 
ATOM     14  C   UNL     1      61.497  14.866  44.920  1.00  0.00     0.162 A 
ATOM     15  C   UNL     1      62.647  15.624  47.353  1.00  0.00     0.062 A 
ATOM     16  C   UNL     1      60.755  15.638  45.826  1.00  0.00     0.200 A 
ATOM     17  C   UNL     1      61.336  16.017  47.059  1.00  0.00     0.162 A 
BRANCH  14  18
ATOM     18  O   UNL     1      60.921  14.479  43.711  1.00  0.00    -0.504 OA
ATOM     19  H   UNL     1      59.967  14.726  43.475  1.00  0.00     0.293 HD
ENDBRANCH  14  18
BRANCH  16  20
ATOM     20  O   UNL     1      59.455  16.001  45.466  1.00  0.00    -0.502 OA
ATOM     21  H   UNL     1      59.160  16.950  45.287  1.00  0.00     0.293 HD
ENDBRANCH  16  20
BRANCH  17  22
ATOM     22  O   UNL     1      60.654  16.774  48.013  1.00  0.00    -0.504 OA
ATOM     23  H   UNL     1      60.460  17.761  47.920  1.00  0.00     0.293 HD
ENDBRANCH  17  22
ENDBRANCH   1  12
BRANCH   2  24
ATOM     24  O   UNL     1      65.759  16.365  45.649  1.00  0.00    -0.502 OA
ATOM     25  H   UNL     1      64.973  16.525  45.031  1.00  0.00     0.293 HD
ENDBRANCH   2  24
BRANCH   6  26
ATOM     26  O   UNL     1      69.747  13.633  47.567  1.00  0.00    -0.507 OA
ATOM     27  H   UNL     1      70.162  13.487  46.655  1.00  0.00     0.293 HD
ENDBRANCH   6  26
BRANCH   8  28
ATOM     28  O   UNL     1      67.433  10.069  49.886  1.00  0.00    -0.508 OA
ATOM     29  H   UNL     1      68.292   9.744  50.314  1.00  0.00     0.293 HD
ENDBRANCH   8  28
TORSDOF 7
ENDMDL
MODEL 5
REMARK VINA RESULT:    -4.427      1.526      3.116
REMARK INTER + INTRA:          -5.796
REMARK INTER:                  -5.438
REMARK INTRA:                  -0.358
REMARK UNBOUND:                -0.334
REMARK SMILES O=c1c(O)c(-c2cc(O)c(O)c(O)c2)oc2cc(O)cc(O)c12
REMARK SMILES IDX 5 1 3 2 2 3 1 4 23 5 21 6 20 7 18 8 17 9 16 10 15 11 6 12
REMARK SMILES IDX 7 13 8 14 14 15 10 16 12 17 9 18 11 20 13 22 4 24 22 26
REMARK SMILES IDX 19 28
REMARK H PARENT 9 19 11 21 13 23 4 25 22 27 19 29
REMARK Flexibility Score: inf
ROOT
ATOM      1  C   UNL     1      64.786  14.446  46.822  1.00  0.00     0.180 A 
ATOM      2  C   UNL     1      65.897  15.175  46.356  1.00  0.00     0.208 A 
ATOM      3  C   UNL     1      67.187  14.729  46.687  1.00  0.00     0.238 A 
ATOM      4  O   UNL     1      68.190  15.368  46.267  1.00  0.00    -0.285 OA
ATOM      5  C   UNL     1      67.344  13.581  47.490  1.00  0.00     0.111 A 
ATOM      6  C   UNL     1      68.608  13.069  47.870  1.00  0.00     0.134 A 
ATOM      7  C   UNL     1      68.680  11.925  48.679  1.00  0.00     0.093 A 
ATOM      8  C   UNL     1      67.514  11.285  49.115  1.00  0.00     0.123 A 
ATOM      9  C   UNL     1      66.265  11.786  48.741  1.00  0.00     0.094 A 
ATOM     10  C   UNL     1      66.173  12.924  47.934  1.00  0.00     0.146 A 
ATOM     11  O   UNL     1      64.972  13.376  47.590  1.00  0.00    -0.452 OA
ENDROOT
BRANCH   1  12
ATOM     12  C   UNL     1      63.395  14.841  46.501  1.00  0.00     0.029 A 
ATOM     13  C   UNL     1      62.674  15.711  47.333  1.00  0.00     0.062 A 
ATOM     14  C   UNL     1      61.367  16.091  47.000  1.00  0.00     0.162 A 
ATOM     15  C   UNL     1      62.805  14.386  45.315  1.00  0.00     0.062 A 
ATOM     16  C   UNL     1      60.770  15.616  45.825  1.00  0.00     0.200 A 
ATOM     17  C   UNL     1      61.500  14.756  44.970  1.00  0.00     0.162 A 
BRANCH  14  18
ATOM     18  O   UNL     1      60.654  16.950  47.836  1.00  0.00    -0.504 OA
ATOM     19  H   UNL     1      60.639  16.823  48.841  1.00  0.00     0.293 HD
ENDBRANCH  14  18
BRANCH  16  20
ATOM     20  O   UNL     1      59.462  16.019  45.544  1.00  0.00    -0.502 OA
ATOM     21  H   UNL     1      58.670  15.394  45.514  1.00  0.00     0.293 HD
ENDBRANCH  16  20
BRANCH  17  22
ATOM     22  O   UNL     1      60.975  14.253  43.778  1.00  0.00    -0.504 OA
ATOM     23  H   UNL     1      61.527  13.801  43.063  1.00  0.00     0.293 HD
ENDBRANCH  17  22
ENDBRANCH   1  12
BRANCH   2  24
ATOM     24  O   UNL     1      65.714  16.337  45.605  1.00  0.00    -0.502 OA
ATOM     25  H   UNL     1      66.025  17.246  45.926  1.00  0.00     0.293 HD
ENDBRANCH   2  24
BRANCH   6  26
ATOM     26  O   UNL     1      69.788  13.686  47.453  1.00  0.00    -0.507 OA
ATOM     27  H   UNL     1      70.414  14.138  48.110  1.00  0.00     0.293 HD
ENDBRANCH   6  26
BRANCH   8  28
ATOM     28  O   UNL     1      67.585  10.150  49.918  1.00  0.00    -0.508 OA
ATOM     29  H   UNL     1      68.268  10.070  50.663  1.00  0.00     0.293 HD
ENDBRANCH   8  28
TORSDOF 7
ENDMDL
MODEL 6
REMARK VINA RESULT:    -4.382      2.348      3.243
REMARK INTER + INTRA:          -5.740
REMARK INTER:                  -5.430
REMARK INTRA:                  -0.310
REMARK UNBOUND:                -0.334
REMARK SMILES O=c1c(O)c(-c2cc(O)c(O)c(O)c2)oc2cc(O)cc(O)c12
REMARK SMILES IDX 5 1 3 2 2 3 1 4 23 5 21 6 20 7 18 8 17 9 16 10 15 11 6 12
REMARK SMILES IDX 7 13 8 14 14 15 10 16 12 17 9 18 11 20 13 22 4 24 22 26
REMARK SMILES IDX 19 28
REMARK H PARENT 9 19 11 21 13 23 4 25 22 27 19 29
REMARK Flexibility Score: inf
ROOT
ATOM      1  C   UNL     1      63.662  12.269  46.990  1.00  0.00     0.180 A 
ATOM      2  C   UNL     1      63.342  11.148  47.780  1.00  0.00     0.208 A 
ATOM      3  C   UNL     1      64.349  10.560  48.563  1.00  0.00     0.238 A 
ATOM      4  O   UNL     1      64.072   9.562  49.282  1.00  0.00    -0.285 OA
ATOM      5  C   UNL     1      65.656  11.088  48.528  1.00  0.00     0.111 A 
ATOM      6  C   UNL     1      66.727  10.553  49.283  1.00  0.00     0.134 A 
ATOM      7  C   UNL     1      68.002  11.130  49.187  1.00  0.00     0.093 A 
ATOM      8  C   UNL     1      68.226  12.230  48.351  1.00  0.00     0.123 A 
ATOM      9  C   UNL     1      67.172  12.761  47.605  1.00  0.00     0.094 A 
ATOM     10  C   UNL     1      65.894  12.201  47.689  1.00  0.00     0.146 A 
ATOM     11  O   UNL     1      64.909  12.730  46.971  1.00  0.00    -0.452 OA
ENDROOT
BRANCH   1  12
ATOM     12  C   UNL     1      62.651  12.955  46.152  1.00  0.00     0.029 A 
ATOM     13  C   UNL     1      62.098  14.185  46.538  1.00  0.00     0.062 A 
ATOM     14  C   UNL     1      61.161  14.830  45.720  1.00  0.00     0.162 A 
ATOM     15  C   UNL     1      62.281  12.397  44.922  1.00  0.00     0.062 A 
ATOM     16  C   UNL     1      60.774  14.258  44.500  1.00  0.00     0.200 A 
ATOM     17  C   UNL     1      61.345  13.028  44.095  1.00  0.00     0.162 A 
BRANCH  14  18
ATOM     18  O   UNL     1      60.610  16.049  46.114  1.00  0.00    -0.504 OA
ATOM     19  H   UNL     1      59.616  16.154  46.279  1.00  0.00     0.293 HD
ENDBRANCH  14  18
BRANCH  16  20
ATOM     20  O   UNL     1      59.830  14.938  43.727  1.00  0.00    -0.502 OA
ATOM     21  H   UNL     1      59.240  14.498  43.035  1.00  0.00     0.293 HD
ENDBRANCH  16  20
BRANCH  17  22
ATOM     22  O   UNL     1      61.017  12.405  42.889  1.00  0.00    -0.504 OA
ATOM     23  H   UNL     1      61.560  11.664  42.470  1.00  0.00     0.293 HD
ENDBRANCH  17  22
ENDBRANCH   1  12
BRANCH   2  24
ATOM     24  O   UNL     1      62.052  10.614  47.758  1.00  0.00    -0.502 OA
ATOM     25  H   UNL     1      61.230  11.186  47.608  1.00  0.00     0.293 HD
ENDBRANCH   2  24
BRANCH   6  26
ATOM     26  O   UNL     1      66.536   9.456  50.125  1.00  0.00    -0.507 OA
ATOM     27  H   UNL     1      66.132   8.590  49.787  1.00  0.00     0.293 HD
ENDBRANCH   6  26
BRANCH   8  28
ATOM     28  O   UNL     1      69.492  12.802  48.254  1.00  0.00    -0.508 OA
ATOM     29  H   UNL     1      70.227  12.577  48.914  1.00  0.00     0.293 HD
ENDBRANCH   8  28
TORSDOF 7
ENDMDL
MODEL 7
REMARK VINA RESULT:    -4.351      1.388      2.428
REMARK INTER + INTRA:          -5.702
REMARK INTER:                  -5.345
REMARK INTRA:                  -0.357
REMARK UNBOUND:                -0.334
REMARK SMILES O=c1c(O)c(-c2cc(O)c(O)c(O)c2)oc2cc(O)cc(O)c12
REMARK SMILES IDX 5 1 3 2 2 3 1 4 23 5 21 6 20 7 18 8 17 9 16 10 15 11 6 12
REMARK SMILES IDX 7 13 8 14 14 15 10 16 12 17 9 18 11 20 13 22 4 24 22 26
REMARK SMILES IDX 19 28
REMARK H PARENT 9 19 11 21 13 23 4 25 22 27 19 29
REMARK Flexibility Score: inf
ROOT
ATOM      1  C   UNL     1      63.959  13.681  47.174  1.00  0.00     0.180 A 
ATOM      2  C   UNL     1      63.894  12.380  47.710  1.00  0.00     0.208 A 
ATOM      3  C   UNL     1      65.087  11.739  48.081  1.00  0.00     0.238 A 
ATOM      4  O   UNL     1      65.040  10.578  48.571  1.00  0.00    -0.285 OA
ATOM      5  C   UNL     1      66.319  12.398  47.894  1.00  0.00     0.111 A 
ATOM      6  C   UNL     1      67.566  11.821  48.238  1.00  0.00     0.134 A 
ATOM      7  C   UNL     1      68.749  12.538  48.013  1.00  0.00     0.093 A 
ATOM      8  C   UNL     1      68.712  13.818  47.449  1.00  0.00     0.123 A 
ATOM      9  C   UNL     1      67.485  14.392  47.109  1.00  0.00     0.094 A 
ATOM     10  C   UNL     1      66.294  13.694  47.328  1.00  0.00     0.146 A 
ATOM     11  O   UNL     1      65.140  14.265  46.999  1.00  0.00    -0.452 OA
ENDROOT
BRANCH   1  12
ATOM     12  C   UNL     1      62.744  14.429  46.776  1.00  0.00     0.029 A 
ATOM     13  C   UNL     1      62.190  14.292  45.495  1.00  0.00     0.062 A 
ATOM     14  C   UNL     1      61.028  14.991  45.144  1.00  0.00     0.162 A 
ATOM     15  C   UNL     1      62.099  15.247  47.714  1.00  0.00     0.062 A 
ATOM     16  C   UNL     1      60.398  15.827  46.077  1.00  0.00     0.200 A 
ATOM     17  C   UNL     1      60.938  15.953  47.378  1.00  0.00     0.162 A 
BRANCH  14  18
ATOM     18  O   UNL     1      60.487  14.855  43.866  1.00  0.00    -0.504 OA
ATOM     19  H   UNL     1      59.751  15.466  43.533  1.00  0.00     0.293 HD
ENDBRANCH  14  18
BRANCH  16  20
ATOM     20  O   UNL     1      59.246  16.508  45.674  1.00  0.00    -0.502 OA
ATOM     21  H   UNL     1      58.620  16.987  46.305  1.00  0.00     0.293 HD
ENDBRANCH  16  20
BRANCH  17  22
ATOM     22  O   UNL     1      60.359  16.757  48.362  1.00  0.00    -0.504 OA
ATOM     23  H   UNL     1      60.852  17.483  48.862  1.00  0.00     0.293 HD
ENDBRANCH  17  22
ENDBRANCH   1  12
BRANCH   2  24
ATOM     24  O   UNL     1      62.664  11.731  47.838  1.00  0.00    -0.502 OA
ATOM     25  H   UNL     1      61.884  12.139  48.340  1.00  0.00     0.293 HD
ENDBRANCH   2  24
BRANCH   6  26
ATOM     26  O   UNL     1      67.636  10.545  48.800  1.00  0.00    -0.507 OA
ATOM     27  H   UNL     1      68.003   9.755  48.283  1.00  0.00     0.293 HD
ENDBRANCH   6  26
BRANCH   8  28
ATOM     28  O   UNL     1      69.888  14.530  47.224  1.00  0.00    -0.508 OA
ATOM     29  H   UNL     1      70.790  14.167  47.509  1.00  0.00     0.293 HD
ENDBRANCH   8  28
TORSDOF 7
ENDMDL
MODEL 8
REMARK VINA RESULT:    -4.293     17.953     18.928
REMARK INTER + INTRA:          -5.631
REMARK INTER:                  -5.265
REMARK INTRA:                  -0.366
REMARK UNBOUND:                -0.334
REMARK SMILES O=c1c(O)c(-c2cc(O)c(O)c(O)c2)oc2cc(O)cc(O)c12
REMARK SMILES IDX 5 1 3 2 2 3 1 4 23 5 21 6 20 7 18 8 17 9 16 10 15 11 6 12
REMARK SMILES IDX 7 13 8 14 14 15 10 16 12 17 9 18 11 20 13 22 4 24 22 26
REMARK SMILES IDX 19 28
REMARK H PARENT 9 19 11 21 13 23 4 25 22 27 19 29
REMARK Flexibility Score: inf
ROOT
ATOM      1  C   UNL     1      64.409   0.053  35.574  1.00  0.00     0.180 A 
ATOM      2  C   UNL     1      65.701  -0.376  35.214  1.00  0.00     0.208 A 
ATOM      3  C   UNL     1      66.510   0.477  34.447  1.00  0.00     0.238 A 
ATOM      4  O   UNL     1      67.673   0.106  34.127  1.00  0.00    -0.285 OA
ATOM      5  C   UNL     1      66.010   1.730  34.036  1.00  0.00     0.111 A 
ATOM      6  C   UNL     1      66.760   2.645  33.259  1.00  0.00     0.134 A 
ATOM      7  C   UNL     1      66.188   3.870  32.885  1.00  0.00     0.093 A 
ATOM      8  C   UNL     1      64.882   4.195  33.270  1.00  0.00     0.123 A 
ATOM      9  C   UNL     1      64.140   3.296  34.038  1.00  0.00     0.094 A 
ATOM     10  C   UNL     1      64.693   2.071  34.423  1.00  0.00     0.146 A 
ATOM     11  O   UNL     1      63.966   1.236  35.157  1.00  0.00    -0.452 OA
ENDROOT
BRANCH   1  12
ATOM     12  C   UNL     1      63.503  -0.780  36.396  1.00  0.00     0.029 A 
ATOM     13  C   UNL     1      63.557  -0.752  37.798  1.00  0.00     0.062 A 
ATOM     14  C   UNL     1      62.676  -1.531  38.560  1.00  0.00     0.162 A 
ATOM     15  C   UNL     1      62.531  -1.570  35.768  1.00  0.00     0.062 A 
ATOM     16  C   UNL     1      61.720  -2.339  37.928  1.00  0.00     0.200 A 
ATOM     17  C   UNL     1      61.645  -2.355  36.515  1.00  0.00     0.162 A 
BRANCH  14  18
ATOM     18  O   UNL     1      62.741  -1.503  39.952  1.00  0.00    -0.504 OA
ATOM     19  H   UNL     1      62.106  -0.937  40.503  1.00  0.00     0.293 HD
ENDBRANCH  14  18
BRANCH  16  20
ATOM     20  O   UNL     1      60.871  -3.102  38.733  1.00  0.00    -0.502 OA
ATOM     21  H   UNL     1      61.047  -3.309  39.705  1.00  0.00     0.293 HD
ENDBRANCH  16  20
BRANCH  17  22
ATOM     22  O   UNL     1      60.712  -3.125  35.818  1.00  0.00    -0.504 OA
ATOM     23  H   UNL     1      59.815  -3.400  36.190  1.00  0.00     0.293 HD
ENDBRANCH  17  22
ENDBRANCH   1  12
BRANCH   2  24
ATOM     24  O   UNL     1      66.153  -1.643  35.590  1.00  0.00    -0.502 OA
ATOM     25  H   UNL     1      65.711  -2.181  36.326  1.00  0.00     0.293 HD
ENDBRANCH   2  24
BRANCH   6  26
ATOM     26  O   UNL     1      68.063   2.349  32.858  1.00  0.00    -0.507 OA
ATOM     27  H   UNL     1      68.254   1.822  32.014  1.00  0.00     0.293 HD
ENDBRANCH   6  26
BRANCH   8  28
ATOM     28  O   UNL     1      64.314   5.411  32.897  1.00  0.00    -0.508 OA
ATOM     29  H   UNL     1      63.405   5.699  33.240  1.00  0.00     0.293 HD
ENDBRANCH   8  28
TORSDOF 7
ENDMDL
MODEL 9
REMARK VINA RESULT:    -4.259     18.670     20.863
REMARK INTER + INTRA:          -5.589
REMARK INTER:                  -5.235
REMARK INTRA:                  -0.354
REMARK UNBOUND:                -0.334
REMARK SMILES O=c1c(O)c(-c2cc(O)c(O)c(O)c2)oc2cc(O)cc(O)c12
REMARK SMILES IDX 5 1 3 2 2 3 1 4 23 5 21 6 20 7 18 8 17 9 16 10 15 11 6 12
REMARK SMILES IDX 7 13 8 14 14 15 10 16 12 17 9 18 11 20 13 22 4 24 22 26
REMARK SMILES IDX 19 28
REMARK H PARENT 9 19 11 21 13 23 4 25 22 27 19 29
REMARK Flexibility Score: inf
ROOT
ATOM      1  C   UNL     1      60.001   1.962  31.938  1.00  0.00     0.180 A 
ATOM      2  C   UNL     1      59.196   1.477  30.889  1.00  0.00     0.208 A 
ATOM      3  C   UNL     1      58.863   0.113  30.864  1.00  0.00     0.238 A 
ATOM      4  O   UNL     1      58.135  -0.330  29.934  1.00  0.00    -0.285 OA
ATOM      5  C   UNL     1      59.354  -0.743  31.871  1.00  0.00     0.111 A 
ATOM      6  C   UNL     1      59.068  -2.128  31.916  1.00  0.00     0.134 A 
ATOM      7  C   UNL     1      59.601  -2.915  32.947  1.00  0.00     0.093 A 
ATOM      8  C   UNL     1      60.415  -2.344  33.932  1.00  0.00     0.123 A 
ATOM      9  C   UNL     1      60.699  -0.977  33.892  1.00  0.00     0.094 A 
ATOM     10  C   UNL     1      60.175  -0.176  32.873  1.00  0.00     0.146 A 
ATOM     11  O   UNL     1      60.458   1.122  32.863  1.00  0.00    -0.452 OA
ENDROOT
BRANCH   1  12
ATOM     12  C   UNL     1      60.380   3.389  32.044  1.00  0.00     0.029 A 
ATOM     13  C   UNL     1      61.578   3.869  31.492  1.00  0.00     0.062 A 
ATOM     14  C   UNL     1      61.908   5.228  31.583  1.00  0.00     0.162 A 
ATOM     15  C   UNL     1      59.501   4.293  32.656  1.00  0.00     0.062 A 
ATOM     16  C   UNL     1      61.038   6.126  32.216  1.00  0.00     0.200 A 
ATOM     17  C   UNL     1      59.818   5.653  32.755  1.00  0.00     0.162 A 
BRANCH  14  18
ATOM     18  O   UNL     1      63.103   5.696  31.038  1.00  0.00    -0.504 OA
ATOM     19  H   UNL     1      63.605   5.173  30.330  1.00  0.00     0.293 HD
ENDBRANCH  14  18
BRANCH  16  20
ATOM     20  O   UNL     1      61.418   7.469  32.287  1.00  0.00    -0.502 OA
ATOM     21  H   UNL     1      62.367   7.795  32.180  1.00  0.00     0.293 HD
ENDBRANCH  16  20
BRANCH  17  22
ATOM     22  O   UNL     1      58.898   6.490  33.390  1.00  0.00    -0.504 OA
ATOM     23  H   UNL     1      58.117   6.929  32.923  1.00  0.00     0.293 HD
ENDBRANCH  17  22
ENDBRANCH   1  12
BRANCH   2  24
ATOM     24  O   UNL     1      58.765   2.337  29.876  1.00  0.00    -0.502 OA
ATOM     25  H   UNL     1      59.394   2.968  29.395  1.00  0.00     0.293 HD
ENDBRANCH   2  24
BRANCH   6  26
ATOM     26  O   UNL     1      58.261  -2.727  30.948  1.00  0.00    -0.507 OA
ATOM     27  H   UNL     1      58.151  -3.733  30.894  1.00  0.00     0.293 HD
ENDBRANCH   6  26
BRANCH   8  28
ATOM     28  O   UNL     1      60.946  -3.125  34.956  1.00  0.00    -0.508 OA
ATOM     29  H   UNL     1      60.779  -4.123  35.002  1.00  0.00     0.293 HD
ENDBRANCH   8  28
TORSDOF 7
ENDMDL
