MODEL 1
REMARK VINA RESULT:    -4.072      0.000      0.000
REMARK INTER + INTRA:          -5.494
REMARK INTER:                  -5.739
REMARK INTRA:                   0.244
REMARK UNBOUND:                 0.244
REMARK SMILES CC1=CCC(=C(C)C)C(=O)CC(C)=CCC1
REMARK SMILES IDX 12 1 14 2 13 3 15 4 16 5 2 6 1 7 3 8 11 10 9 11 10 12 5 13
REMARK SMILES IDX 6 14 7 15 8 16 4 17
REMARK H PARENT
REMARK Flexibility Score: 60.00
ROOT
ATOM      1  C   UNL     1       3.188  16.887  -5.436  1.00  0.00    -0.070 C 
ATOM      2  C   UNL     1       2.815  18.129  -5.816  1.00  0.00    -0.027 C 
ATOM      3  C   UNL     1       2.137  15.987  -4.837  1.00  0.00     0.039 C 
ENDROOT
BRANCH   2   4
ATOM      4  C   UNL     1       3.738  19.206  -6.344  1.00  0.00     0.032 C 
BRANCH   4   5
ATOM      5  C   UNL     1       4.108  19.066  -7.836  1.00  0.00     0.034 C 
BRANCH   5   6
ATOM      6  C   UNL     1       3.047  18.350  -8.651  1.00  0.00    -0.077 C 
ATOM      7  C   UNL     1       1.813  19.127  -9.032  1.00  0.00     0.039 C 
ATOM      8  C   UNL     1       3.104  17.041  -8.999  1.00  0.00    -0.023 CG0
ATOM      9  G   UNL     1       4.245  16.076  -8.743  1.00  0.00     0.000 G0
ENDBRANCH   5   6
ENDBRANCH   4   5
ENDBRANCH   2   4
BRANCH   1  10
ATOM     10  C   UNL     1       4.619  16.394  -5.496  1.00  0.00     0.111 C 
BRANCH  10  11
ATOM     11  C   UNL     1       4.758  15.201  -6.406  1.00  0.00     0.163 C 
ATOM     12  O   UNL     1       5.620  14.328  -6.112  1.00  0.00    -0.294 OA
BRANCH  11  13
ATOM     13  C   UNL     1       3.962  15.051  -7.659  1.00  0.00    -0.002 C 
ATOM     14  C   UNL     1       3.086  14.013  -7.813  1.00  0.00    -0.069 C 
ATOM     15  C   UNL     1       2.384  13.743  -9.125  1.00  0.00     0.039 C 
ATOM     16  C   UNL     1       2.775  13.075  -6.666  1.00  0.00     0.039 C 
BRANCH  13  17
ATOM     17  C   UNL     1       4.239  16.040  -8.782  1.00  0.00     0.066 CG0
ATOM     18  G   UNL     1       3.103  17.024  -8.975  1.00  0.00     0.000 G0
ENDBRANCH  13  17
ENDBRANCH  11  13
ENDBRANCH  10  11
ENDBRANCH   1  10
TORSDOF 0
ENDMDL
MODEL 2
REMARK VINA RESULT:    -3.746      1.862      3.898
REMARK INTER + INTRA:          -5.034
REMARK INTER:                  -5.848
REMARK INTRA:                   0.813
REMARK UNBOUND:                 0.244
REMARK SMILES CC1=CCC(=C(C)C)C(=O)CC(C)=CCC1
REMARK SMILES IDX 12 1 14 2 13 3 15 4 16 5 2 6 1 7 3 8 11 10 9 11 10 12 5 13
REMARK SMILES IDX 6 14 7 15 8 16 4 17
REMARK H PARENT
REMARK Flexibility Score: 60.00
ROOT
ATOM      1  C   UNL     1       2.699  16.220  -5.614  1.00  0.00    -0.070 C 
ATOM      2  C   UNL     1       2.851  14.882  -5.509  1.00  0.00    -0.027 C 
ATOM      3  C   UNL     1       1.371  16.813  -5.218  1.00  0.00     0.039 C 
ENDROOT
BRANCH   2   4
ATOM      4  C   UNL     1       4.067  14.093  -5.946  1.00  0.00     0.032 C 
BRANCH   4   5
ATOM      5  C   UNL     1       3.876  13.277  -7.242  1.00  0.00     0.034 C 
BRANCH   5   6
ATOM      6  C   UNL     1       4.368  14.000  -8.483  1.00  0.00    -0.077 C 
ATOM      7  C   UNL     1       5.739  13.649  -9.002  1.00  0.00     0.039 C 
ATOM      8  C   UNL     1       3.685  14.988  -9.112  1.00  0.00    -0.023 CG0
ATOM      9  G   UNL     1       2.294  15.492  -8.783  1.00  0.00     0.000 G0
ENDBRANCH   5   6
ENDBRANCH   4   5
ENDBRANCH   2   4
BRANCH   1  10
ATOM     10  C   UNL     1       3.759  17.134  -6.195  1.00  0.00     0.111 C 
BRANCH  10  11
ATOM     11  C   UNL     1       3.488  17.449  -7.644  1.00  0.00     0.163 C 
ATOM     12  O   UNL     1       4.293  18.210  -8.246  1.00  0.00    -0.294 OA
BRANCH  11  13
ATOM     13  C   UNL     1       2.281  16.944  -8.362  1.00  0.00    -0.002 C 
ATOM     14  C   UNL     1       1.188  17.746  -8.544  1.00  0.00    -0.069 C 
ATOM     15  C   UNL     1      -0.105  17.218  -9.123  1.00  0.00     0.039 C 
ATOM     16  C   UNL     1       1.222  19.211  -8.169  1.00  0.00     0.039 C 
BRANCH  13  17
ATOM     17  C   UNL     1       2.285  15.484  -8.789  1.00  0.00     0.066 CG0
ATOM     18  G   UNL     1       3.679  14.981  -9.106  1.00  0.00     0.000 G0
ENDBRANCH  13  17
ENDBRANCH  11  13
ENDBRANCH  10  11
ENDBRANCH   1  10
TORSDOF 0
ENDMDL
MODEL 3
REMARK VINA RESULT:    -3.580      1.785      4.122
REMARK INTER + INTRA:          -4.801
REMARK INTER:                  -5.247
REMARK INTRA:                   0.446
REMARK UNBOUND:                 0.244
REMARK SMILES CC1=CCC(=C(C)C)C(=O)CC(C)=CCC1
REMARK SMILES IDX 12 1 14 2 13 3 15 4 16 5 2 6 1 7 3 8 11 10 9 11 10 12 5 13
REMARK SMILES IDX 6 14 7 15 8 16 4 17
REMARK H PARENT
REMARK Flexibility Score: 60.00
ROOT
ATOM      1  C   UNL     1       3.748  15.333  -5.554  1.00  0.00    -0.070 C 
ATOM      2  C   UNL     1       4.503  14.399  -6.173  1.00  0.00    -0.027 C 
ATOM      3  C   UNL     1       4.431  16.265  -4.585  1.00  0.00     0.039 C 
ENDROOT
BRANCH   2   4
ATOM      4  C   UNL     1       3.988  13.318  -7.098  1.00  0.00     0.032 C 
BRANCH   4   5
ATOM      5  C   UNL     1       3.998  13.690  -8.596  1.00  0.00     0.034 C 
BRANCH   5   6
ATOM      6  C   UNL     1       4.886  14.880  -8.911  1.00  0.00    -0.077 C 
ATOM      7  C   UNL     1       6.355  14.622  -9.125  1.00  0.00     0.039 C 
ATOM      8  C   UNL     1       4.457  16.166  -8.943  1.00  0.00    -0.023 CG0
ATOM      9  G   UNL     1       3.034  16.660  -8.778  1.00  0.00     0.000 G0
ENDBRANCH   5   6
ENDBRANCH   4   5
ENDBRANCH   2   4
BRANCH   1  10
ATOM     10  C   UNL     1       2.244  15.427  -5.715  1.00  0.00     0.111 C 
BRANCH  10  11
ATOM     11  C   UNL     1       1.844  16.648  -6.503  1.00  0.00     0.163 C 
ATOM     12  O   UNL     1       0.660  17.065  -6.391  1.00  0.00    -0.294 OA
BRANCH  11  13
ATOM     13  C   UNL     1       2.777  17.334  -7.445  1.00  0.00    -0.002 C 
ATOM     14  C   UNL     1       3.306  18.557  -7.140  1.00  0.00    -0.069 C 
ATOM     15  C   UNL     1       4.124  19.348  -8.137  1.00  0.00     0.039 C 
ATOM     16  C   UNL     1       3.096  19.183  -5.779  1.00  0.00     0.039 C 
BRANCH  13  17
ATOM     17  C   UNL     1       3.029  16.662  -8.787  1.00  0.00     0.066 CG0
ATOM     18  G   UNL     1       4.454  16.164  -8.922  1.00  0.00     0.000 G0
ENDBRANCH  13  17
ENDBRANCH  11  13
ENDBRANCH  10  11
ENDBRANCH   1  10
TORSDOF 0
ENDMDL
MODEL 4
REMARK VINA RESULT:    -3.267      1.332      1.694
REMARK INTER + INTRA:          -4.359
REMARK INTER:                  -4.881
REMARK INTRA:                   0.521
REMARK UNBOUND:                 0.244
REMARK SMILES CC1=CCC(=C(C)C)C(=O)CC(C)=CCC1
REMARK SMILES IDX 12 1 14 2 13 3 15 4 16 5 2 6 1 7 3 8 11 10 9 11 10 12 5 13
REMARK SMILES IDX 6 14 7 15 8 16 4 17
REMARK H PARENT
REMARK Flexibility Score: 60.00
ROOT
ATOM      1  C   UNL     1       3.318  15.339  -5.523  1.00  0.00    -0.070 C 
ATOM      2  C   UNL     1       2.344  16.253  -5.320  1.00  0.00    -0.027 C 
ATOM      3  C   UNL     1       3.151  13.979  -4.894  1.00  0.00     0.039 C 
ENDROOT
BRANCH   2   4
ATOM      4  C   UNL     1       2.374  17.694  -5.783  1.00  0.00     0.032 C 
BRANCH   4   5
ATOM      5  C   UNL     1       1.662  17.956  -7.127  1.00  0.00     0.034 C 
BRANCH   5   6
ATOM      6  C   UNL     1       2.598  17.904  -8.321  1.00  0.00    -0.077 C 
ATOM      7  C   UNL     1       3.233  19.195  -8.771  1.00  0.00     0.039 C 
ATOM      8  C   UNL     1       2.845  16.788  -9.050  1.00  0.00    -0.023 CG0
ATOM      9  G   UNL     1       2.337  15.387  -8.777  1.00  0.00     0.000 G0
ENDBRANCH   5   6
ENDBRANCH   4   5
ENDBRANCH   2   4
BRANCH   1  10
ATOM     10  C   UNL     1       4.602  15.644  -6.267  1.00  0.00     0.111 C 
BRANCH  10  11
ATOM     11  C   UNL     1       4.597  15.048  -7.652  1.00  0.00     0.163 C 
ATOM     12  O   UNL     1       5.653  15.128  -8.336  1.00  0.00    -0.294 OA
BRANCH  11  13
ATOM     13  C   UNL     1       3.379  14.429  -8.253  1.00  0.00    -0.002 C 
ATOM     14  C   UNL     1       3.273  13.072  -8.378  1.00  0.00    -0.069 C 
ATOM     15  C   UNL     1       2.128  12.423  -9.124  1.00  0.00     0.039 C 
ATOM     16  C   UNL     1       4.305  12.147  -7.772  1.00  0.00     0.039 C 
BRANCH  13  17
ATOM     17  C   UNL     1       2.318  15.371  -8.802  1.00  0.00     0.066 CG0
ATOM     18  G   UNL     1       2.857  16.767  -9.043  1.00  0.00     0.000 G0
ENDBRANCH  13  17
ENDBRANCH  11  13
ENDBRANCH  10  11
ENDBRANCH   1  10
TORSDOF 0
ENDMDL
MODEL 5
REMARK VINA RESULT:    -3.226      2.171      5.141
REMARK INTER + INTRA:          -4.302
REMARK INTER:                  -5.367
REMARK INTRA:                   1.065
REMARK UNBOUND:                 0.244
REMARK SMILES CC1=CCC(=C(C)C)C(=O)CC(C)=CCC1
REMARK SMILES IDX 12 1 14 2 13 3 15 4 16 5 2 6 1 7 3 8 11 10 9 11 10 12 5 13
REMARK SMILES IDX 6 14 7 15 8 16 4 17
REMARK H PARENT
REMARK Flexibility Score: 60.00
ROOT
ATOM      1  C   UNL     1       2.774  12.068  -8.918  1.00  0.00    -0.070 C 
ATOM      2  C   UNL     1       4.085  11.747  -8.976  1.00  0.00    -0.027 C 
ATOM      3  C   UNL     1       1.772  10.942  -8.896  1.00  0.00     0.039 C 
ENDROOT
BRANCH   2   4
ATOM      4  C   UNL     1       5.230  12.729  -9.104  1.00  0.00     0.032 C 
BRANCH   4   5
ATOM      5  C   UNL     1       6.349  12.557  -8.055  1.00  0.00     0.034 C 
BRANCH   5   6
ATOM      6  C   UNL     1       6.045  13.247  -6.737  1.00  0.00    -0.077 C 
ATOM      7  C   UNL     1       6.369  12.505  -5.466  1.00  0.00     0.039 C 
ATOM      8  C   UNL     1       5.438  14.455  -6.629  1.00  0.00    -0.023 CG0
ATOM      9  G   UNL     1       5.041  15.383  -7.760  1.00  0.00     0.000 G0
ENDBRANCH   5   6
ENDBRANCH   4   5
ENDBRANCH   2   4
BRANCH   1  10
ATOM     10  C   UNL     1       2.264  13.494  -8.967  1.00  0.00     0.111 C 
BRANCH  10  11
ATOM     11  C   UNL     1       2.695  14.281  -7.756  1.00  0.00     0.163 C 
ATOM     12  O   UNL     1       2.301  13.889  -6.624  1.00  0.00    -0.294 OA
BRANCH  11  13
ATOM     13  C   UNL     1       3.511  15.526  -7.858  1.00  0.00    -0.002 C 
ATOM     14  C   UNL     1       2.920  16.731  -8.121  1.00  0.00    -0.069 C 
ATOM     15  C   UNL     1       3.730  17.980  -8.387  1.00  0.00     0.039 C 
ATOM     16  C   UNL     1       1.414  16.872  -8.158  1.00  0.00     0.039 C 
BRANCH  13  17
ATOM     17  C   UNL     1       5.021  15.379  -7.756  1.00  0.00     0.066 CG0
ATOM     18  G   UNL     1       5.435  14.455  -6.628  1.00  0.00     0.000 G0
ENDBRANCH  13  17
ENDBRANCH  11  13
ENDBRANCH  10  11
ENDBRANCH   1  10
TORSDOF 0
ENDMDL
MODEL 6
REMARK VINA RESULT:    -3.216      1.904      3.107
REMARK INTER + INTRA:          -4.287
REMARK INTER:                  -5.203
REMARK INTRA:                   0.916
REMARK UNBOUND:                 0.244
REMARK SMILES CC1=CCC(=C(C)C)C(=O)CC(C)=CCC1
REMARK SMILES IDX 12 1 14 2 13 3 15 4 16 5 2 6 1 7 3 8 11 10 9 11 10 12 5 13
REMARK SMILES IDX 6 14 7 15 8 16 4 17
REMARK H PARENT
REMARK Flexibility Score: 60.00
ROOT
ATOM      1  C   UNL     1       1.150  17.618  -8.571  1.00  0.00    -0.070 C 
ATOM      2  C   UNL     1       1.860  18.745  -8.794  1.00  0.00    -0.027 C 
ATOM      3  C   UNL     1      -0.328  17.754  -8.305  1.00  0.00     0.039 C 
ENDROOT
BRANCH   2   4
ATOM      4  C   UNL     1       3.360  18.823  -8.982  1.00  0.00     0.032 C 
BRANCH   4   5
ATOM      5  C   UNL     1       4.132  19.411  -7.783  1.00  0.00     0.034 C 
BRANCH   5   6
ATOM      6  C   UNL     1       3.509  19.066  -6.442  1.00  0.00    -0.077 C 
ATOM      7  C   UNL     1       2.637  20.105  -5.785  1.00  0.00     0.039 C 
ATOM      8  C   UNL     1       3.741  17.913  -5.766  1.00  0.00    -0.023 CG0
ATOM      9  G   UNL     1       4.561  16.728  -6.235  1.00  0.00     0.000 G0
ENDBRANCH   5   6
ENDBRANCH   4   5
ENDBRANCH   2   4
BRANCH   1  10
ATOM     10  C   UNL     1       1.780  16.242  -8.485  1.00  0.00     0.111 C 
BRANCH  10  11
ATOM     11  C   UNL     1       2.258  15.936  -7.089  1.00  0.00     0.163 C 
ATOM     12  O   UNL     1       1.427  16.026  -6.144  1.00  0.00    -0.294 OA
BRANCH  11  13
ATOM     13  C   UNL     1       3.679  15.595  -6.785  1.00  0.00    -0.002 C 
ATOM     14  C   UNL     1       4.134  14.313  -6.919  1.00  0.00    -0.069 C 
ATOM     15  C   UNL     1       5.520  13.904  -6.470  1.00  0.00     0.039 C 
ATOM     16  C   UNL     1       3.267  13.233  -7.527  1.00  0.00     0.039 C 
BRANCH  13  17
ATOM     17  C   UNL     1       4.559  16.706  -6.233  1.00  0.00     0.066 CG0
ATOM     18  G   UNL     1       3.753  17.907  -5.780  1.00  0.00     0.000 G0
ENDBRANCH  13  17
ENDBRANCH  11  13
ENDBRANCH  10  11
ENDBRANCH   1  10
TORSDOF 0
ENDMDL
MODEL 7
REMARK VINA RESULT:    -3.081      1.597      2.194
REMARK INTER + INTRA:          -4.098
REMARK INTER:                  -4.540
REMARK INTRA:                   0.442
REMARK UNBOUND:                 0.244
REMARK SMILES CC1=CCC(=C(C)C)C(=O)CC(C)=CCC1
REMARK SMILES IDX 12 1 14 2 13 3 15 4 16 5 2 6 1 7 3 8 11 10 9 11 10 12 5 13
REMARK SMILES IDX 6 14 7 15 8 16 4 17
REMARK H PARENT
REMARK Flexibility Score: 60.00
ROOT
ATOM      1  C   UNL     1       1.405  16.316  -6.005  1.00  0.00    -0.070 C 
ATOM      2  C   UNL     1       0.878  17.137  -6.939  1.00  0.00    -0.027 C 
ATOM      3  C   UNL     1       1.167  16.652  -4.554  1.00  0.00     0.039 C 
ENDROOT
BRANCH   2   4
ATOM      4  C   UNL     1       1.087  17.024  -8.434  1.00  0.00     0.032 C 
BRANCH   4   5
ATOM      5  C   UNL     1       1.785  18.237  -9.083  1.00  0.00     0.034 C 
BRANCH   5   6
ATOM      6  C   UNL     1       3.097  18.602  -8.412  1.00  0.00    -0.077 C 
ATOM      7  C   UNL     1       3.222  19.982  -7.818  1.00  0.00     0.039 C 
ATOM      8  C   UNL     1       4.186  17.795  -8.375  1.00  0.00    -0.023 CG0
ATOM      9  G   UNL     1       4.288  16.372  -8.887  1.00  0.00     0.000 G0
ENDBRANCH   5   6
ENDBRANCH   4   5
ENDBRANCH   2   4
BRANCH   1  10
ATOM     10  C   UNL     1       2.293  15.135  -6.341  1.00  0.00     0.111 C 
BRANCH  10  11
ATOM     11  C   UNL     1       3.731  15.553  -6.516  1.00  0.00     0.163 C 
ATOM     12  O   UNL     1       4.294  16.154  -5.561  1.00  0.00    -0.294 OA
BRANCH  11  13
ATOM     13  C   UNL     1       4.479  15.336  -7.789  1.00  0.00    -0.002 C 
ATOM     14  C   UNL     1       5.376  14.311  -7.907  1.00  0.00    -0.069 C 
ATOM     15  C   UNL     1       6.264  14.159  -9.123  1.00  0.00     0.039 C 
ATOM     16  C   UNL     1       5.525  13.272  -6.818  1.00  0.00     0.039 C 
BRANCH  13  17
ATOM     17  C   UNL     1       4.272  16.354  -8.900  1.00  0.00     0.066 CG0
ATOM     18  G   UNL     1       4.176  17.771  -8.372  1.00  0.00     0.000 G0
ENDBRANCH  13  17
ENDBRANCH  11  13
ENDBRANCH  10  11
ENDBRANCH   1  10
TORSDOF 0
ENDMDL
MODEL 8
REMARK VINA RESULT:    -2.948      2.295      5.230
REMARK INTER + INTRA:          -3.909
REMARK INTER:                  -5.203
REMARK INTRA:                   1.294
REMARK UNBOUND:                 0.244
REMARK SMILES CC1=CCC(=C(C)C)C(=O)CC(C)=CCC1
REMARK SMILES IDX 12 1 14 2 13 3 15 4 16 5 2 6 1 7 3 8 11 10 9 11 10 12 5 13
REMARK SMILES IDX 6 14 7 15 8 16 4 17
REMARK H PARENT
REMARK Flexibility Score: 60.00
ROOT
ATOM      1  C   UNL     1       4.999  14.728  -9.021  1.00  0.00    -0.070 C 
ATOM      2  C   UNL     1       5.763  13.628  -8.842  1.00  0.00    -0.027 C 
ATOM      3  C   UNL     1       5.684  16.071  -9.024  1.00  0.00     0.039 C 
ENDROOT
BRANCH   2   4
ATOM      4  C   UNL     1       5.254  12.209  -8.712  1.00  0.00     0.032 C 
BRANCH   4   5
ATOM      5  C   UNL     1       4.715  11.842  -7.313  1.00  0.00     0.034 C 
BRANCH   5   6
ATOM      6  C   UNL     1       3.218  12.054  -7.173  1.00  0.00    -0.077 C 
ATOM      7  C   UNL     1       2.303  11.032  -7.796  1.00  0.00     0.039 C 
ATOM      8  C   UNL     1       2.652  13.138  -6.586  1.00  0.00    -0.023 CG0
ATOM      9  G   UNL     1       3.367  14.274  -5.883  1.00  0.00     0.000 G0
ENDBRANCH   5   6
ENDBRANCH   4   5
ENDBRANCH   2   4
BRANCH   1  10
ATOM     10  C   UNL     1       3.488  14.682  -9.125  1.00  0.00     0.111 C 
BRANCH  10  11
ATOM     11  C   UNL     1       2.832  15.532  -8.067  1.00  0.00     0.163 C 
ATOM     12  O   UNL     1       1.859  16.258  -8.409  1.00  0.00    -0.294 OA
BRANCH  11  13
ATOM     13  C   UNL     1       3.329  15.586  -6.661  1.00  0.00    -0.002 C 
ATOM     14  C   UNL     1       3.796  16.755  -6.128  1.00  0.00    -0.069 C 
ATOM     15  C   UNL     1       4.451  16.810  -4.766  1.00  0.00     0.039 C 
ATOM     16  C   UNL     1       3.679  18.061  -6.883  1.00  0.00     0.039 C 
BRANCH  13  17
ATOM     17  C   UNL     1       3.382  14.275  -5.891  1.00  0.00     0.066 CG0
ATOM     18  G   UNL     1       2.663  13.153  -6.613  1.00  0.00     0.000 G0
ENDBRANCH  13  17
ENDBRANCH  11  13
ENDBRANCH  10  11
ENDBRANCH   1  10
TORSDOF 0
ENDMDL
MODEL 9
REMARK VINA RESULT:    -2.895      2.042      4.553
REMARK INTER + INTRA:          -3.835
REMARK INTER:                  -5.466
REMARK INTRA:                   1.631
REMARK UNBOUND:                 0.244
REMARK SMILES CC1=CCC(=C(C)C)C(=O)CC(C)=CCC1
REMARK SMILES IDX 12 1 14 2 13 3 15 4 16 5 2 6 1 7 3 8 11 10 9 11 10 12 5 13
REMARK SMILES IDX 6 14 7 15 8 16 4 17
REMARK H PARENT
REMARK Flexibility Score: 60.00
ROOT
ATOM      1  C   UNL     1       5.625  13.184  -6.341  1.00  0.00    -0.070 C 
ATOM      2  C   UNL     1       6.050  12.835  -7.575  1.00  0.00    -0.027 C 
ATOM      3  C   UNL     1       6.513  12.852  -5.168  1.00  0.00     0.039 C 
ENDROOT
BRANCH   2   4
ATOM      4  C   UNL     1       5.263  12.994  -8.858  1.00  0.00     0.032 C 
BRANCH   4   5
ATOM      5  C   UNL     1       4.226  11.881  -9.122  1.00  0.00     0.034 C 
BRANCH   5   6
ATOM      6  C   UNL     1       2.799  12.312  -8.837  1.00  0.00    -0.077 C 
ATOM      7  C   UNL     1       1.759  11.233  -8.675  1.00  0.00     0.039 C 
ATOM      8  C   UNL     1       2.387  13.603  -8.787  1.00  0.00    -0.023 CG0
ATOM      9  G   UNL     1       3.250  14.844  -8.902  1.00  0.00     0.000 G0
ENDBRANCH   5   6
ENDBRANCH   4   5
ENDBRANCH   2   4
BRANCH   1  10
ATOM     10  C   UNL     1       4.269  13.804  -6.073  1.00  0.00     0.111 C 
BRANCH  10  11
ATOM     11  C   UNL     1       4.204  15.230  -6.556  1.00  0.00     0.163 C 
ATOM     12  O   UNL     1       4.949  16.080  -5.997  1.00  0.00    -0.294 OA
BRANCH  11  13
ATOM     13  C   UNL     1       3.254  15.674  -7.619  1.00  0.00    -0.002 C 
ATOM     14  C   UNL     1       2.389  16.708  -7.397  1.00  0.00    -0.069 C 
ATOM     15  C   UNL     1       1.310  17.078  -8.391  1.00  0.00     0.039 C 
ATOM     16  C   UNL     1       2.469  17.540  -6.136  1.00  0.00     0.039 C 
BRANCH  13  17
ATOM     17  C   UNL     1       3.228  14.867  -8.908  1.00  0.00     0.066 CG0
ATOM     18  G   UNL     1       2.402  13.603  -8.780  1.00  0.00     0.000 G0
ENDBRANCH  13  17
ENDBRANCH  11  13
ENDBRANCH  10  11
ENDBRANCH   1  10
TORSDOF 0
ENDMDL
