MODEL 1
REMARK VINA RESULT:    -5.510      0.000      0.000
REMARK INTER + INTRA:          -6.628
REMARK INTER:                  -6.315
REMARK INTRA:                  -0.313
REMARK UNBOUND:                -0.313
REMARK SMILES COc1ccc(C(C)=O)c(O)c1
REMARK SMILES IDX 6 1 10 2 12 3 3 4 4 5 5 6 7 7 8 8 9 9 11 10 2 12 1 13
REMARK H PARENT 11 11
REMARK Flexibility Score: inf
ROOT
ATOM      1  C   UNL     1     -34.710  43.582  40.402  1.00  0.00     0.059 A 
ATOM      2  C   UNL     1     -34.348  43.084  39.126  1.00  0.00     0.130 A 
ATOM      3  C   UNL     1     -34.344  43.941  38.019  1.00  0.00     0.093 A 
ATOM      4  C   UNL     1     -34.664  45.304  38.163  1.00  0.00     0.122 A 
ATOM      5  C   UNL     1     -34.990  45.796  39.428  1.00  0.00     0.047 A 
ATOM      6  C   UNL     1     -35.014  44.948  40.536  1.00  0.00     0.019 A 
ENDROOT
BRANCH   1   7
ATOM      7  C   UNL     1     -34.813  42.701  41.590  1.00  0.00     0.163 C 
ATOM      8  C   UNL     1     -35.825  42.962  42.662  1.00  0.00     0.093 C 
ATOM      9  O   UNL     1     -34.096  41.667  41.670  1.00  0.00    -0.294 OA
ENDBRANCH   1   7
BRANCH   2  10
ATOM     10  O   UNL     1     -33.959  41.758  38.925  1.00  0.00    -0.507 OA
ATOM     11  H   UNL     1     -32.994  41.456  38.914  1.00  0.00     0.293 HD
ENDBRANCH   2  10
BRANCH   4  12
ATOM     12  O   UNL     1     -34.665  46.195  37.080  1.00  0.00    -0.497 OA
ATOM     13  C   UNL     1     -33.593  46.339  36.154  1.00  0.00     0.278 C 
ENDBRANCH   4  12
TORSDOF 3
ENDMDL
MODEL 2
REMARK VINA RESULT:    -5.509      8.466     11.321
REMARK INTER + INTRA:          -6.627
REMARK INTER:                  -6.447
REMARK INTRA:                  -0.180
REMARK UNBOUND:                -0.313
REMARK SMILES COc1ccc(C(C)=O)c(O)c1
REMARK SMILES IDX 6 1 10 2 12 3 3 4 4 5 5 6 7 7 8 8 9 9 11 10 2 12 1 13
REMARK H PARENT 11 11
REMARK Flexibility Score: inf
ROOT
ATOM      1  C   UNL     1     -40.298  37.960  48.302  1.00  0.00     0.059 A 
ATOM      2  C   UNL     1     -38.908  38.224  48.384  1.00  0.00     0.130 A 
ATOM      3  C   UNL     1     -38.233  38.755  47.278  1.00  0.00     0.093 A 
ATOM      4  C   UNL     1     -38.925  39.064  46.092  1.00  0.00     0.122 A 
ATOM      5  C   UNL     1     -40.300  38.830  46.027  1.00  0.00     0.047 A 
ATOM      6  C   UNL     1     -40.981  38.285  47.117  1.00  0.00     0.019 A 
ENDROOT
BRANCH   1   7
ATOM      7  C   UNL     1     -41.043  37.320  49.411  1.00  0.00     0.163 C 
ATOM      8  C   UNL     1     -41.039  35.833  49.590  1.00  0.00     0.093 C 
ATOM      9  O   UNL     1     -41.627  38.034  50.270  1.00  0.00    -0.294 OA
ENDBRANCH   1   7
BRANCH   2  10
ATOM     10  O   UNL     1     -38.173  38.001  49.550  1.00  0.00    -0.507 OA
ATOM     11  H   UNL     1     -37.340  38.520  49.791  1.00  0.00     0.293 HD
ENDBRANCH   2  10
BRANCH   4  12
ATOM     12  O   UNL     1     -38.285  39.603  44.966  1.00  0.00    -0.497 OA
ATOM     13  C   UNL     1     -38.843  39.623  43.656  1.00  0.00     0.278 C 
ENDBRANCH   4  12
TORSDOF 3
ENDMDL
MODEL 3
REMARK VINA RESULT:    -5.410      1.149      4.601
REMARK INTER + INTRA:          -6.513
REMARK INTER:                  -6.344
REMARK INTRA:                  -0.169
REMARK UNBOUND:                -0.313
REMARK SMILES COc1ccc(C(C)=O)c(O)c1
REMARK SMILES IDX 6 1 10 2 12 3 3 4 4 5 5 6 7 7 8 8 9 9 11 10 2 12 1 13
REMARK H PARENT 11 11
REMARK Flexibility Score: inf
ROOT
ATOM      1  C   UNL     1     -34.404  45.031  38.717  1.00  0.00     0.059 A 
ATOM      2  C   UNL     1     -34.435  43.616  38.779  1.00  0.00     0.130 A 
ATOM      3  C   UNL     1     -34.810  42.979  39.968  1.00  0.00     0.093 A 
ATOM      4  C   UNL     1     -35.191  43.727  41.097  1.00  0.00     0.122 A 
ATOM      5  C   UNL     1     -35.188  45.122  41.021  1.00  0.00     0.047 A 
ATOM      6  C   UNL     1     -34.800  45.769  39.847  1.00  0.00     0.019 A 
ENDROOT
BRANCH   1   7
ATOM      7  C   UNL     1     -33.934  45.755  37.513  1.00  0.00     0.163 C 
ATOM      8  C   UNL     1     -32.473  45.945  37.245  1.00  0.00     0.093 C 
ATOM      9  O   UNL     1     -34.766  46.151  36.652  1.00  0.00    -0.294 OA
ENDBRANCH   1   7
BRANCH   2  10
ATOM     10  O   UNL     1     -34.130  42.813  37.678  1.00  0.00    -0.507 OA
ATOM     11  H   UNL     1     -34.753  42.687  36.891  1.00  0.00     0.293 HD
ENDBRANCH   2  10
BRANCH   4  12
ATOM     12  O   UNL     1     -35.578  43.126  42.303  1.00  0.00    -0.497 OA
ATOM     13  C   UNL     1     -34.799  42.169  43.013  1.00  0.00     0.278 C 
ENDBRANCH   4  12
TORSDOF 3
ENDMDL
MODEL 4
REMARK VINA RESULT:    -5.306      1.725      2.362
REMARK INTER + INTRA:          -6.394
REMARK INTER:                  -6.079
REMARK INTRA:                  -0.314
REMARK UNBOUND:                -0.313
REMARK SMILES COc1ccc(C(C)=O)c(O)c1
REMARK SMILES IDX 6 1 10 2 12 3 3 4 4 5 5 6 7 7 8 8 9 9 11 10 2 12 1 13
REMARK H PARENT 11 11
REMARK Flexibility Score: inf
ROOT
ATOM      1  C   UNL     1     -34.989  43.703  40.768  1.00  0.00     0.059 A 
ATOM      2  C   UNL     1     -35.014  45.077  40.421  1.00  0.00     0.130 A 
ATOM      3  C   UNL     1     -34.634  45.478  39.134  1.00  0.00     0.093 A 
ATOM      4  C   UNL     1     -34.258  44.529  38.166  1.00  0.00     0.122 A 
ATOM      5  C   UNL     1     -34.265  43.174  38.504  1.00  0.00     0.047 A 
ATOM      6  C   UNL     1     -34.625  42.763  39.788  1.00  0.00     0.019 A 
ENDROOT
BRANCH   1   7
ATOM      7  C   UNL     1     -35.299  43.233  42.138  1.00  0.00     0.163 C 
ATOM      8  C   UNL     1     -34.629  42.022  42.711  1.00  0.00     0.093 C 
ATOM      9  O   UNL     1     -36.077  43.901  42.872  1.00  0.00    -0.294 OA
ENDBRANCH   1   7
BRANCH   2  10
ATOM     10  O   UNL     1     -35.437  46.065  41.313  1.00  0.00    -0.507 OA
ATOM     11  H   UNL     1     -36.254  45.972  41.902  1.00  0.00     0.293 HD
ENDBRANCH   2  10
BRANCH   4  12
ATOM     12  O   UNL     1     -33.878  44.891  36.866  1.00  0.00    -0.497 OA
ATOM     13  C   UNL     1     -33.822  46.230  36.386  1.00  0.00     0.278 C 
ENDBRANCH   4  12
TORSDOF 3
ENDMDL
MODEL 5
REMARK VINA RESULT:    -5.300     10.091     12.488
REMARK INTER + INTRA:          -6.387
REMARK INTER:                  -6.054
REMARK INTRA:                  -0.334
REMARK UNBOUND:                -0.313
REMARK SMILES COc1ccc(C(C)=O)c(O)c1
REMARK SMILES IDX 6 1 10 2 12 3 3 4 4 5 5 6 7 7 8 8 9 9 11 10 2 12 1 13
REMARK H PARENT 11 11
REMARK Flexibility Score: inf
ROOT
ATOM      1  C   UNL     1     -38.501  37.098  47.075  1.00  0.00     0.059 A 
ATOM      2  C   UNL     1     -38.904  38.326  47.656  1.00  0.00     0.130 A 
ATOM      3  C   UNL     1     -40.031  38.367  48.487  1.00  0.00     0.093 A 
ATOM      4  C   UNL     1     -40.751  37.195  48.781  1.00  0.00     0.122 A 
ATOM      5  C   UNL     1     -40.330  35.982  48.230  1.00  0.00     0.047 A 
ATOM      6  C   UNL     1     -39.219  35.931  47.387  1.00  0.00     0.019 A 
ENDROOT
BRANCH   1   7
ATOM      7  C   UNL     1     -37.369  37.014  46.122  1.00  0.00     0.163 C 
ATOM      8  C   UNL     1     -36.358  35.913  46.216  1.00  0.00     0.093 C 
ATOM      9  O   UNL     1     -37.291  37.830  45.164  1.00  0.00    -0.294 OA
ENDBRANCH   1   7
BRANCH   2  10
ATOM     10  O   UNL     1     -38.198  39.515  47.456  1.00  0.00    -0.507 OA
ATOM     11  H   UNL     1     -37.857  39.815  46.553  1.00  0.00     0.293 HD
ENDBRANCH   2  10
BRANCH   4  12
ATOM     12  O   UNL     1     -41.879  37.194  49.614  1.00  0.00    -0.497 OA
ATOM     13  C   UNL     1     -41.831  37.222  51.036  1.00  0.00     0.278 C 
ENDBRANCH   4  12
TORSDOF 3
ENDMDL
MODEL 6
REMARK VINA RESULT:    -5.176      8.155     11.616
REMARK INTER + INTRA:          -6.246
REMARK INTER:                  -5.906
REMARK INTRA:                  -0.340
REMARK UNBOUND:                -0.313
REMARK SMILES COc1ccc(C(C)=O)c(O)c1
REMARK SMILES IDX 6 1 10 2 12 3 3 4 4 5 5 6 7 7 8 8 9 9 11 10 2 12 1 13
REMARK H PARENT 11 11
REMARK Flexibility Score: inf
ROOT
ATOM      1  C   UNL     1     -38.504  38.669  46.569  1.00  0.00     0.059 A 
ATOM      2  C   UNL     1     -38.137  38.205  47.857  1.00  0.00     0.130 A 
ATOM      3  C   UNL     1     -39.129  37.883  48.791  1.00  0.00     0.093 A 
ATOM      4  C   UNL     1     -40.492  37.982  48.456  1.00  0.00     0.122 A 
ATOM      5  C   UNL     1     -40.848  38.411  47.175  1.00  0.00     0.047 A 
ATOM      6  C   UNL     1     -39.868  38.751  46.241  1.00  0.00     0.019 A 
ENDROOT
BRANCH   1   7
ATOM      7  C   UNL     1     -37.496  39.103  45.574  1.00  0.00     0.163 C 
ATOM      8  C   UNL     1     -37.646  38.766  44.122  1.00  0.00     0.093 C 
ATOM      9  O   UNL     1     -36.535  39.838  45.931  1.00  0.00    -0.294 OA
ENDBRANCH   1   7
BRANCH   2  10
ATOM     10  O   UNL     1     -36.804  38.023  48.234  1.00  0.00    -0.507 OA
ATOM     11  H   UNL     1     -36.364  37.115  48.306  1.00  0.00     0.293 HD
ENDBRANCH   2  10
BRANCH   4  12
ATOM     12  O   UNL     1     -41.515  37.663  49.361  1.00  0.00    -0.497 OA
ATOM     13  C   UNL     1     -41.358  37.635  50.776  1.00  0.00     0.278 C 
ENDBRANCH   4  12
TORSDOF 3
ENDMDL
MODEL 7
REMARK VINA RESULT:    -5.033      8.043     11.396
REMARK INTER + INTRA:          -6.081
REMARK INTER:                  -5.768
REMARK INTRA:                  -0.313
REMARK UNBOUND:                -0.313
REMARK SMILES COc1ccc(C(C)=O)c(O)c1
REMARK SMILES IDX 6 1 10 2 12 3 3 4 4 5 5 6 7 7 8 8 9 9 11 10 2 12 1 13
REMARK H PARENT 11 11
REMARK Flexibility Score: inf
ROOT
ATOM      1  C   UNL     1     -38.587  39.030  46.533  1.00  0.00     0.059 A 
ATOM      2  C   UNL     1     -39.946  38.996  46.133  1.00  0.00     0.130 A 
ATOM      3  C   UNL     1     -40.905  38.416  46.973  1.00  0.00     0.093 A 
ATOM      4  C   UNL     1     -40.542  37.896  48.229  1.00  0.00     0.122 A 
ATOM      5  C   UNL     1     -39.206  37.960  48.631  1.00  0.00     0.047 A 
ATOM      6  C   UNL     1     -38.238  38.519  47.796  1.00  0.00     0.019 A 
ENDROOT
BRANCH   1   7
ATOM      7  C   UNL     1     -37.520  39.553  45.648  1.00  0.00     0.163 C 
ATOM      8  C   UNL     1     -36.594  40.636  46.108  1.00  0.00     0.093 C 
ATOM      9  O   UNL     1     -37.328  39.030  44.517  1.00  0.00    -0.294 OA
ENDBRANCH   1   7
BRANCH   2  10
ATOM     10  O   UNL     1     -40.384  39.550  44.928  1.00  0.00    -0.507 OA
ATOM     11  H   UNL     1     -40.354  39.059  44.045  1.00  0.00     0.293 HD
ENDBRANCH   2  10
BRANCH   4  12
ATOM     12  O   UNL     1     -41.474  37.315  49.100  1.00  0.00    -0.497 OA
ATOM     13  C   UNL     1     -41.507  37.534  50.507  1.00  0.00     0.278 C 
ENDBRANCH   4  12
TORSDOF 3
ENDMDL
MODEL 8
REMARK VINA RESULT:    -5.025      1.704      4.797
REMARK INTER + INTRA:          -6.072
REMARK INTER:                  -5.745
REMARK INTRA:                  -0.327
REMARK UNBOUND:                -0.313
REMARK SMILES COc1ccc(C(C)=O)c(O)c1
REMARK SMILES IDX 6 1 10 2 12 3 3 4 4 5 5 6 7 7 8 8 9 9 11 10 2 12 1 13
REMARK H PARENT 11 11
REMARK Flexibility Score: inf
ROOT
ATOM      1  C   UNL     1     -34.491  43.441  39.911  1.00  0.00     0.059 A 
ATOM      2  C   UNL     1     -34.527  42.029  40.015  1.00  0.00     0.130 A 
ATOM      3  C   UNL     1     -35.058  41.428  41.163  1.00  0.00     0.093 A 
ATOM      4  C   UNL     1     -35.591  42.210  42.204  1.00  0.00     0.122 A 
ATOM      5  C   UNL     1     -35.581  43.601  42.082  1.00  0.00     0.047 A 
ATOM      6  C   UNL     1     -35.039  44.212  40.951  1.00  0.00     0.019 A 
ENDROOT
BRANCH   1   7
ATOM      7  C   UNL     1     -33.863  44.129  38.758  1.00  0.00     0.163 C 
ATOM      8  C   UNL     1     -32.650  44.989  38.937  1.00  0.00     0.093 C 
ATOM      9  O   UNL     1     -34.300  43.930  37.592  1.00  0.00    -0.294 OA
ENDBRANCH   1   7
BRANCH   2  10
ATOM     10  O   UNL     1     -34.073  41.193  38.992  1.00  0.00    -0.507 OA
ATOM     11  H   UNL     1     -33.277  41.409  38.408  1.00  0.00     0.293 HD
ENDBRANCH   2  10
BRANCH   4  12
ATOM     12  O   UNL     1     -36.138  41.645  43.365  1.00  0.00    -0.497 OA
ATOM     13  C   UNL     1     -37.507  41.749  43.744  1.00  0.00     0.278 C 
ENDBRANCH   4  12
TORSDOF 3
ENDMDL
MODEL 9
REMARK VINA RESULT:    -4.976      7.076      9.867
REMARK INTER + INTRA:          -6.016
REMARK INTER:                  -5.687
REMARK INTRA:                  -0.329
REMARK UNBOUND:                -0.313
REMARK SMILES COc1ccc(C(C)=O)c(O)c1
REMARK SMILES IDX 6 1 10 2 12 3 3 4 4 5 5 6 7 7 8 8 9 9 11 10 2 12 1 13
REMARK H PARENT 11 11
REMARK Flexibility Score: inf
ROOT
ATOM      1  C   UNL     1     -39.097  38.227  47.299  1.00  0.00     0.059 A 
ATOM      2  C   UNL     1     -37.700  38.448  47.213  1.00  0.00     0.130 A 
ATOM      3  C   UNL     1     -37.166  39.117  46.105  1.00  0.00     0.093 A 
ATOM      4  C   UNL     1     -38.005  39.605  45.087  1.00  0.00     0.122 A 
ATOM      5  C   UNL     1     -39.385  39.411  45.191  1.00  0.00     0.047 A 
ATOM      6  C   UNL     1     -39.926  38.731  46.282  1.00  0.00     0.019 A 
ENDROOT
BRANCH   1   7
ATOM      7  C   UNL     1     -39.703  37.451  48.406  1.00  0.00     0.163 C 
ATOM      8  C   UNL     1     -40.416  36.160  48.146  1.00  0.00     0.093 C 
ATOM      9  O   UNL     1     -39.553  37.833  49.598  1.00  0.00    -0.294 OA
ENDBRANCH   1   7
BRANCH   2  10
ATOM     10  O   UNL     1     -36.817  38.046  48.219  1.00  0.00    -0.507 OA
ATOM     11  H   UNL     1     -36.697  38.548  49.088  1.00  0.00     0.293 HD
ENDBRANCH   2  10
BRANCH   4  12
ATOM     12  O   UNL     1     -37.510  40.286  43.965  1.00  0.00    -0.497 OA
ATOM     13  C   UNL     1     -37.746  41.663  43.689  1.00  0.00     0.278 C 
ENDBRANCH   4  12
TORSDOF 3
ENDMDL
