MODEL 1
REMARK VINA RESULT:    -5.152      0.000      0.000
REMARK INTER + INTRA:          -5.801
REMARK INTER:                  -5.603
REMARK INTRA:                  -0.197
REMARK UNBOUND:                -0.197
REMARK SMILES Cc1ccc(C(C)C)c(O)c1
REMARK SMILES IDX 1 1 2 2 11 3 9 4 5 5 4 6 3 7 10 8 6 10 7 11 8 12
REMARK H PARENT 10 9
REMARK Flexibility Score: inf
ROOT
ATOM      1  C   UNL     1      20.636  23.877 -23.083  1.00  0.00     0.044 C 
ATOM      2  C   UNL     1      21.900  23.643 -23.858  1.00  0.00    -0.047 A 
ATOM      3  C   UNL     1      23.124  23.512 -23.189  1.00  0.00     0.049 A 
ATOM      4  C   UNL     1      24.304  23.256 -23.903  1.00  0.00     0.119 A 
ATOM      5  C   UNL     1      24.264  23.116 -25.308  1.00  0.00    -0.004 A 
ATOM      6  C   UNL     1      23.024  23.230 -25.967  1.00  0.00     0.008 A 
ATOM      7  C   UNL     1      21.854  23.484 -25.248  1.00  0.00     0.004 A 
ENDROOT
BRANCH   4   8
ATOM      8  O   UNL     1      25.511  23.139 -23.214  1.00  0.00    -0.508 OA
ATOM      9  H   UNL     1      25.540  22.948 -22.219  1.00  0.00     0.293 HD
ENDBRANCH   4   8
BRANCH   5  10
ATOM     10  C   UNL     1      25.531  22.838 -26.105  1.00  0.00     0.017 C 
ATOM     11  C   UNL     1      25.716  23.868 -27.226  1.00  0.00     0.012 C 
ATOM     12  C   UNL     1      25.529  21.410 -26.664  1.00  0.00     0.012 C 
ENDBRANCH   5  10
TORSDOF 2
ENDMDL
MODEL 2
REMARK VINA RESULT:    -4.971     12.879     13.446
REMARK INTER + INTRA:          -5.605
REMARK INTER:                  -5.405
REMARK INTRA:                  -0.200
REMARK UNBOUND:                -0.197
REMARK SMILES Cc1ccc(C(C)C)c(O)c1
REMARK SMILES IDX 1 1 2 2 11 3 9 4 5 5 4 6 3 7 10 8 6 10 7 11 8 12
REMARK H PARENT 10 9
REMARK Flexibility Score: inf
ROOT
ATOM      1  C   UNL     1      29.249  31.469 -16.119  1.00  0.00     0.044 C 
ATOM      2  C   UNL     1      30.135  31.747 -17.298  1.00  0.00    -0.047 A 
ATOM      3  C   UNL     1      29.648  32.479 -18.389  1.00  0.00     0.049 A 
ATOM      4  C   UNL     1      30.479  32.774 -19.479  1.00  0.00     0.119 A 
ATOM      5  C   UNL     1      31.825  32.344 -19.480  1.00  0.00    -0.004 A 
ATOM      6  C   UNL     1      32.308  31.625 -18.368  1.00  0.00     0.008 A 
ATOM      7  C   UNL     1      31.473  31.337 -17.287  1.00  0.00     0.004 A 
ENDROOT
BRANCH   4   8
ATOM      8  O   UNL     1      29.967  33.498 -20.556  1.00  0.00    -0.508 OA
ATOM      9  H   UNL     1      30.514  33.667 -21.392  1.00  0.00     0.293 HD
ENDBRANCH   4   8
BRANCH   5  10
ATOM     10  C   UNL     1      32.747  32.652 -20.650  1.00  0.00     0.017 C 
ATOM     11  C   UNL     1      33.547  31.411 -21.066  1.00  0.00     0.012 C 
ATOM     12  C   UNL     1      33.679  33.825 -20.325  1.00  0.00     0.012 C 
ENDBRANCH   5  10
TORSDOF 2
ENDMDL
MODEL 3
REMARK VINA RESULT:    -4.952      6.235      8.602
REMARK INTER + INTRA:          -5.583
REMARK INTER:                  -5.385
REMARK INTRA:                  -0.199
REMARK UNBOUND:                -0.197
REMARK SMILES Cc1ccc(C(C)C)c(O)c1
REMARK SMILES IDX 1 1 2 2 11 3 9 4 5 5 4 6 3 7 10 8 6 10 7 11 8 12
REMARK H PARENT 10 9
REMARK Flexibility Score: inf
ROOT
ATOM      1  C   UNL     1      21.053  25.748 -21.829  1.00  0.00     0.044 C 
ATOM      2  C   UNL     1      20.497  27.140 -21.756  1.00  0.00    -0.047 A 
ATOM      3  C   UNL     1      21.165  28.129 -21.022  1.00  0.00     0.049 A 
ATOM      4  C   UNL     1      20.672  29.441 -20.979  1.00  0.00     0.119 A 
ATOM      5  C   UNL     1      19.499  29.780 -21.690  1.00  0.00    -0.004 A 
ATOM      6  C   UNL     1      18.848  28.781 -22.441  1.00  0.00     0.008 A 
ATOM      7  C   UNL     1      19.347  27.477 -22.479  1.00  0.00     0.004 A 
ENDROOT
BRANCH   4   8
ATOM      8  O   UNL     1      21.351  30.405 -20.233  1.00  0.00    -0.508 OA
ATOM      9  H   UNL     1      21.511  31.339 -20.590  1.00  0.00     0.293 HD
ENDBRANCH   4   8
BRANCH   5  10
ATOM     10  C   UNL     1      18.945  31.197 -21.659  1.00  0.00     0.017 C 
ATOM     11  C   UNL     1      17.411  31.191 -21.671  1.00  0.00     0.012 C 
ATOM     12  C   UNL     1      19.501  32.033 -22.819  1.00  0.00     0.012 C 
ENDBRANCH   5  10
TORSDOF 2
ENDMDL
MODEL 4
REMARK VINA RESULT:    -4.941      6.768      8.703
REMARK INTER + INTRA:          -5.572
REMARK INTER:                  -5.373
REMARK INTRA:                  -0.199
REMARK UNBOUND:                -0.197
REMARK SMILES Cc1ccc(C(C)C)c(O)c1
REMARK SMILES IDX 1 1 2 2 11 3 9 4 5 5 4 6 3 7 10 8 6 10 7 11 8 12
REMARK H PARENT 10 9
REMARK Flexibility Score: inf
ROOT
ATOM      1  C   UNL     1      18.735  33.455 -22.493  1.00  0.00     0.044 C 
ATOM      2  C   UNL     1      19.012  31.981 -22.534  1.00  0.00    -0.047 A 
ATOM      3  C   UNL     1      20.238  31.506 -23.019  1.00  0.00     0.049 A 
ATOM      4  C   UNL     1      20.519  30.132 -23.027  1.00  0.00     0.119 A 
ATOM      5  C   UNL     1      19.569  29.213 -22.531  1.00  0.00    -0.004 A 
ATOM      6  C   UNL     1      18.348  29.704 -22.028  1.00  0.00     0.008 A 
ATOM      7  C   UNL     1      18.077  31.074 -22.023  1.00  0.00     0.004 A 
ENDROOT
BRANCH   4   8
ATOM      8  O   UNL     1      21.744  29.685 -23.524  1.00  0.00    -0.508 OA
ATOM      9  H   UNL     1      22.254  28.930 -23.082  1.00  0.00     0.293 HD
ENDBRANCH   4   8
BRANCH   5  10
ATOM     10  C   UNL     1      19.850  27.717 -22.529  1.00  0.00     0.017 C 
ATOM     11  C   UNL     1      18.691  26.934 -23.158  1.00  0.00     0.012 C 
ATOM     12  C   UNL     1      20.149  27.214 -21.111  1.00  0.00     0.012 C 
ENDBRANCH   5  10
TORSDOF 2
ENDMDL
MODEL 5
REMARK VINA RESULT:    -4.827     12.518     13.742
REMARK INTER + INTRA:          -5.448
REMARK INTER:                  -5.270
REMARK INTRA:                  -0.178
REMARK UNBOUND:                -0.197
REMARK SMILES Cc1ccc(C(C)C)c(O)c1
REMARK SMILES IDX 1 1 2 2 11 3 9 4 5 5 4 6 3 7 10 8 6 10 7 11 8 12
REMARK H PARENT 10 9
REMARK Flexibility Score: inf
ROOT
ATOM      1  C   UNL     1      33.931  34.054 -21.084  1.00  0.00     0.044 C 
ATOM      2  C   UNL     1      32.820  33.351 -20.361  1.00  0.00    -0.047 A 
ATOM      3  C   UNL     1      33.109  32.345 -19.430  1.00  0.00     0.049 A 
ATOM      4  C   UNL     1      32.079  31.708 -18.724  1.00  0.00     0.119 A 
ATOM      5  C   UNL     1      30.735  32.088 -18.937  1.00  0.00    -0.004 A 
ATOM      6  C   UNL     1      30.458  33.115 -19.862  1.00  0.00     0.008 A 
ATOM      7  C   UNL     1      31.491  33.744 -20.560  1.00  0.00     0.004 A 
ENDROOT
BRANCH   4   8
ATOM      8  O   UNL     1      32.393  30.703 -17.808  1.00  0.00    -0.508 OA
ATOM      9  H   UNL     1      31.742  29.959 -17.590  1.00  0.00     0.293 HD
ENDBRANCH   4   8
BRANCH   5  10
ATOM     10  C   UNL     1      29.599  31.412 -18.182  1.00  0.00     0.017 C 
ATOM     11  C   UNL     1      28.308  31.411 -19.010  1.00  0.00     0.012 C 
ATOM     12  C   UNL     1      29.376  32.070 -16.815  1.00  0.00     0.012 C 
ENDBRANCH   5  10
TORSDOF 2
ENDMDL
MODEL 6
REMARK VINA RESULT:    -4.816     15.849     17.004
REMARK INTER + INTRA:          -5.436
REMARK INTER:                  -5.235
REMARK INTRA:                  -0.200
REMARK UNBOUND:                -0.197
REMARK SMILES Cc1ccc(C(C)C)c(O)c1
REMARK SMILES IDX 1 1 2 2 11 3 9 4 5 5 4 6 3 7 10 8 6 10 7 11 8 12
REMARK H PARENT 10 9
REMARK Flexibility Score: inf
ROOT
ATOM      1  C   UNL     1      30.671  28.101 -12.945  1.00  0.00     0.044 C 
ATOM      2  C   UNL     1      31.846  29.026 -13.070  1.00  0.00    -0.047 A 
ATOM      3  C   UNL     1      31.728  30.223 -13.787  1.00  0.00     0.049 A 
ATOM      4  C   UNL     1      32.810  31.111 -13.878  1.00  0.00     0.119 A 
ATOM      5  C   UNL     1      34.030  30.807 -13.234  1.00  0.00    -0.004 A 
ATOM      6  C   UNL     1      34.130  29.609 -12.499  1.00  0.00     0.008 A 
ATOM      7  C   UNL     1      33.047  28.732 -12.413  1.00  0.00     0.004 A 
ENDROOT
BRANCH   4   8
ATOM      8  O   UNL     1      32.669  32.293 -14.605  1.00  0.00    -0.508 OA
ATOM      9  H   UNL     1      33.472  32.805 -14.952  1.00  0.00     0.293 HD
ENDBRANCH   4   8
BRANCH   5  10
ATOM     10  C   UNL     1      35.219  31.754 -13.318  1.00  0.00     0.017 C 
ATOM     11  C   UNL     1      36.206  31.308 -14.404  1.00  0.00     0.012 C 
ATOM     12  C   UNL     1      35.918  31.885 -11.959  1.00  0.00     0.012 C 
ENDBRANCH   5  10
TORSDOF 2
ENDMDL
MODEL 7
REMARK VINA RESULT:    -4.791      1.742      2.504
REMARK INTER + INTRA:          -5.409
REMARK INTER:                  -5.212
REMARK INTRA:                  -0.197
REMARK UNBOUND:                -0.197
REMARK SMILES Cc1ccc(C(C)C)c(O)c1
REMARK SMILES IDX 1 1 2 2 11 3 9 4 5 5 4 6 3 7 10 8 6 10 7 11 8 12
REMARK H PARENT 10 9
REMARK Flexibility Score: inf
ROOT
ATOM      1  C   UNL     1      21.919  24.024 -22.498  1.00  0.00     0.044 C 
ATOM      2  C   UNL     1      22.735  23.625 -23.693  1.00  0.00    -0.047 A 
ATOM      3  C   UNL     1      22.152  23.592 -24.966  1.00  0.00     0.049 A 
ATOM      4  C   UNL     1      22.915  23.255 -26.094  1.00  0.00     0.119 A 
ATOM      5  C   UNL     1      24.289  22.959 -25.954  1.00  0.00    -0.004 A 
ATOM      6  C   UNL     1      24.869  23.015 -24.671  1.00  0.00     0.008 A 
ATOM      7  C   UNL     1      24.101  23.352 -23.555  1.00  0.00     0.004 A 
ENDROOT
BRANCH   4   8
ATOM      8  O   UNL     1      22.308  23.221 -27.349  1.00  0.00    -0.508 OA
ATOM      9  H   UNL     1      21.301  23.176 -27.453  1.00  0.00     0.293 HD
ENDBRANCH   4   8
BRANCH   5  10
ATOM     10  C   UNL     1      25.139  22.592 -27.162  1.00  0.00     0.017 C 
ATOM     11  C   UNL     1      25.672  21.158 -27.048  1.00  0.00     0.012 C 
ATOM     12  C   UNL     1      26.286  23.591 -27.355  1.00  0.00     0.012 C 
ENDBRANCH   5  10
TORSDOF 2
ENDMDL
MODEL 8
REMARK VINA RESULT:    -4.758      1.094      4.151
REMARK INTER + INTRA:          -5.373
REMARK INTER:                  -5.238
REMARK INTRA:                  -0.134
REMARK UNBOUND:                -0.197
REMARK SMILES Cc1ccc(C(C)C)c(O)c1
REMARK SMILES IDX 1 1 2 2 11 3 9 4 5 5 4 6 3 7 10 8 6 10 7 11 8 12
REMARK H PARENT 10 9
REMARK Flexibility Score: inf
ROOT
ATOM      1  C   UNL     1      25.874  23.174 -27.023  1.00  0.00     0.044 C 
ATOM      2  C   UNL     1      24.721  23.296 -26.070  1.00  0.00    -0.047 A 
ATOM      3  C   UNL     1      24.856  22.872 -24.742  1.00  0.00     0.049 A 
ATOM      4  C   UNL     1      23.796  23.016 -23.835  1.00  0.00     0.119 A 
ATOM      5  C   UNL     1      22.582  23.605 -24.253  1.00  0.00    -0.004 A 
ATOM      6  C   UNL     1      22.466  24.047 -25.587  1.00  0.00     0.008 A 
ATOM      7  C   UNL     1      23.527  23.900 -26.482  1.00  0.00     0.004 A 
ENDROOT
BRANCH   4   8
ATOM      8  O   UNL     1      23.953  22.577 -22.520  1.00  0.00    -0.508 OA
ATOM      9  H   UNL     1      23.965  23.223 -21.740  1.00  0.00     0.293 HD
ENDBRANCH   4   8
BRANCH   5  10
ATOM     10  C   UNL     1      21.417  23.773 -23.288  1.00  0.00     0.017 C 
ATOM     11  C   UNL     1      20.087  23.892 -24.042  1.00  0.00     0.012 C 
ATOM     12  C   UNL     1      21.635  24.978 -22.364  1.00  0.00     0.012 C 
ENDBRANCH   5  10
TORSDOF 2
ENDMDL
MODEL 9
REMARK VINA RESULT:    -4.730     15.704     16.570
REMARK INTER + INTRA:          -5.342
REMARK INTER:                  -5.154
REMARK INTRA:                  -0.188
REMARK UNBOUND:                -0.197
REMARK SMILES Cc1ccc(C(C)C)c(O)c1
REMARK SMILES IDX 1 1 2 2 11 3 9 4 5 5 4 6 3 7 10 8 6 10 7 11 8 12
REMARK H PARENT 10 9
REMARK Flexibility Score: inf
ROOT
ATOM      1  C   UNL     1      32.631  36.347 -21.369  1.00  0.00     0.044 C 
ATOM      2  C   UNL     1      31.638  37.023 -22.269  1.00  0.00    -0.047 A 
ATOM      3  C   UNL     1      30.522  37.672 -21.727  1.00  0.00     0.049 A 
ATOM      4  C   UNL     1      29.609  38.337 -22.558  1.00  0.00     0.119 A 
ATOM      5  C   UNL     1      29.817  38.370 -23.955  1.00  0.00    -0.004 A 
ATOM      6  C   UNL     1      30.955  37.730 -24.486  1.00  0.00     0.008 A 
ATOM      7  C   UNL     1      31.859  37.071 -23.650  1.00  0.00     0.004 A 
ENDROOT
BRANCH   4   8
ATOM      8  O   UNL     1      28.500  38.968 -21.993  1.00  0.00    -0.508 OA
ATOM      9  H   UNL     1      27.555  38.659 -22.187  1.00  0.00     0.293 HD
ENDBRANCH   4   8
BRANCH   5  10
ATOM     10  C   UNL     1      28.842  39.085 -24.878  1.00  0.00     0.017 C 
ATOM     11  C   UNL     1      27.691  38.159 -25.293  1.00  0.00     0.012 C 
ATOM     12  C   UNL     1      29.561  39.655 -26.106  1.00  0.00     0.012 C 
ENDBRANCH   5  10
TORSDOF 2
ENDMDL
