MODEL 1
REMARK VINA RESULT:    -4.796      0.000      0.000
REMARK INTER + INTRA:          -5.564
REMARK INTER:                  -5.357
REMARK INTRA:                  -0.208
REMARK UNBOUND:                -0.208
REMARK SMILES CC(C)c1ccc(C(=O)[O-])cc1
REMARK SMILES IDX 7 1 6 2 11 3 5 4 12 5 4 6 8 7 9 8 10 9 2 10 1 11 3 12
REMARK H PARENT
REMARK Flexibility Score: inf
ROOT
ATOM      1  C   UNL     1     -29.422 -22.367 -21.561  1.00  0.00    -0.003 A 
ATOM      2  C   UNL     1     -30.819 -22.222 -21.607  1.00  0.00     0.010 A 
ATOM      3  C   UNL     1     -28.665 -22.031 -22.696  1.00  0.00     0.010 A 
ATOM      4  C   UNL     1     -31.446 -21.751 -22.764  1.00  0.00     0.004 A 
ATOM      5  C   UNL     1     -29.292 -21.559 -23.853  1.00  0.00     0.004 A 
ATOM      6  C   UNL     1     -30.691 -21.414 -23.900  1.00  0.00    -0.045 A 
ENDROOT
BRANCH   1   7
ATOM      7  C   UNL     1     -28.755 -22.866 -20.339  1.00  0.00     0.071 C 
ATOM      8  O   UNL     1     -27.521 -23.124 -20.342  1.00  0.00    -0.545 OA
ATOM      9  O   UNL     1     -29.479 -23.058 -19.168  1.00  0.00    -0.545 OA
ENDBRANCH   1   7
BRANCH   6  10
ATOM     10  C   UNL     1     -31.385 -20.903 -25.149  1.00  0.00     0.013 C 
ATOM     11  C   UNL     1     -30.954 -19.467 -25.472  1.00  0.00     0.012 C 
ATOM     12  C   UNL     1     -31.134 -21.836 -26.340  1.00  0.00     0.012 C 
ENDBRANCH   6  10
TORSDOF 2
ENDMDL
MODEL 2
REMARK VINA RESULT:    -4.780      0.191      1.690
REMARK INTER + INTRA:          -5.546
REMARK INTER:                  -5.336
REMARK INTRA:                  -0.211
REMARK UNBOUND:                -0.208
REMARK SMILES CC(C)c1ccc(C(=O)[O-])cc1
REMARK SMILES IDX 7 1 6 2 11 3 5 4 12 5 4 6 8 7 9 8 10 9 2 10 1 11 3 12
REMARK H PARENT
REMARK Flexibility Score: inf
ROOT
ATOM      1  C   UNL     1     -29.360 -22.327 -21.710  1.00  0.00    -0.003 A 
ATOM      2  C   UNL     1     -28.618 -21.947 -22.841  1.00  0.00     0.010 A 
ATOM      3  C   UNL     1     -30.761 -22.217 -21.747  1.00  0.00     0.010 A 
ATOM      4  C   UNL     1     -29.262 -21.467 -23.985  1.00  0.00     0.004 A 
ATOM      5  C   UNL     1     -31.405 -21.738 -22.891  1.00  0.00     0.004 A 
ATOM      6  C   UNL     1     -30.662 -21.356 -24.024  1.00  0.00    -0.045 A 
ENDROOT
BRANCH   1   7
ATOM      7  C   UNL     1     -28.683 -22.835 -20.498  1.00  0.00     0.071 C 
ATOM      8  O   UNL     1     -29.327 -23.011 -19.429  1.00  0.00    -0.545 OA
ATOM      9  O   UNL     1     -27.323 -23.125 -20.519  1.00  0.00    -0.545 OA
ENDBRANCH   1   7
BRANCH   6  10
ATOM     10  C   UNL     1     -31.348 -20.834 -25.272  1.00  0.00     0.013 C 
ATOM     11  C   UNL     1     -31.003 -19.360 -25.518  1.00  0.00     0.012 C 
ATOM     12  C   UNL     1     -31.000 -21.693 -26.494  1.00  0.00     0.012 C 
ENDBRANCH   6  10
TORSDOF 2
ENDMDL
MODEL 3
REMARK VINA RESULT:    -4.735      3.247      5.101
REMARK INTER + INTRA:          -5.497
REMARK INTER:                  -5.296
REMARK INTRA:                  -0.201
REMARK UNBOUND:                -0.208
REMARK SMILES CC(C)c1ccc(C(=O)[O-])cc1
REMARK SMILES IDX 7 1 6 2 11 3 5 4 12 5 4 6 8 7 9 8 10 9 2 10 1 11 3 12
REMARK H PARENT
REMARK Flexibility Score: inf
ROOT
ATOM      1  C   UNL     1     -30.739 -21.220 -24.423  1.00  0.00    -0.003 A 
ATOM      2  C   UNL     1     -31.683 -21.244 -23.382  1.00  0.00     0.010 A 
ATOM      3  C   UNL     1     -29.387 -21.452 -24.120  1.00  0.00     0.010 A 
ATOM      4  C   UNL     1     -31.284 -21.494 -22.066  1.00  0.00     0.004 A 
ATOM      5  C   UNL     1     -28.987 -21.703 -22.805  1.00  0.00     0.004 A 
ATOM      6  C   UNL     1     -29.932 -21.727 -21.762  1.00  0.00    -0.045 A 
ENDROOT
BRANCH   1   7
ATOM      7  C   UNL     1     -31.158 -20.955 -25.816  1.00  0.00     0.071 C 
ATOM      8  O   UNL     1     -31.328 -19.773 -26.221  1.00  0.00    -0.545 OA
ATOM      9  O   UNL     1     -31.372 -22.006 -26.701  1.00  0.00    -0.545 OA
ENDBRANCH   1   7
BRANCH   6  10
ATOM     10  C   UNL     1     -29.512 -21.998 -20.329  1.00  0.00     0.013 C 
ATOM     11  C   UNL     1     -28.474 -23.125 -20.261  1.00  0.00     0.012 C 
ATOM     12  C   UNL     1     -28.988 -20.723 -19.657  1.00  0.00     0.012 C 
ENDBRANCH   6  10
TORSDOF 2
ENDMDL
MODEL 4
REMARK VINA RESULT:    -4.731      3.221      5.283
REMARK INTER + INTRA:          -5.492
REMARK INTER:                  -5.289
REMARK INTRA:                  -0.203
REMARK UNBOUND:                -0.208
REMARK SMILES CC(C)c1ccc(C(=O)[O-])cc1
REMARK SMILES IDX 7 1 6 2 11 3 5 4 12 5 4 6 8 7 9 8 10 9 2 10 1 11 3 12
REMARK H PARENT
REMARK Flexibility Score: inf
ROOT
ATOM      1  C   UNL     1     -30.614 -21.241 -24.457  1.00  0.00    -0.003 A 
ATOM      2  C   UNL     1     -29.268 -21.456 -24.115  1.00  0.00     0.010 A 
ATOM      3  C   UNL     1     -31.591 -21.306 -23.450  1.00  0.00     0.010 A 
ATOM      4  C   UNL     1     -28.907 -21.729 -22.792  1.00  0.00     0.004 A 
ATOM      5  C   UNL     1     -31.230 -21.579 -22.127  1.00  0.00     0.004 A 
ATOM      6  C   UNL     1     -29.882 -21.794 -21.784  1.00  0.00    -0.045 A 
ENDROOT
BRANCH   1   7
ATOM      7  C   UNL     1     -31.000 -20.953 -25.855  1.00  0.00     0.071 C 
ATOM      8  O   UNL     1     -31.313 -19.783 -26.206  1.00  0.00    -0.545 OA
ATOM      9  O   UNL     1     -31.025 -21.968 -26.805  1.00  0.00    -0.545 OA
ENDBRANCH   1   7
BRANCH   6  10
ATOM     10  C   UNL     1     -29.476 -22.091 -20.352  1.00  0.00     0.013 C 
ATOM     11  C   UNL     1     -28.345 -23.125 -20.302  1.00  0.00     0.012 C 
ATOM     12  C   UNL     1     -29.083 -20.806 -19.612  1.00  0.00     0.012 C 
ENDBRANCH   6  10
TORSDOF 2
ENDMDL
MODEL 5
REMARK VINA RESULT:    -4.650      0.464      1.456
REMARK INTER + INTRA:          -5.401
REMARK INTER:                  -5.191
REMARK INTRA:                  -0.211
REMARK UNBOUND:                -0.208
REMARK SMILES CC(C)c1ccc(C(=O)[O-])cc1
REMARK SMILES IDX 7 1 6 2 11 3 5 4 12 5 4 6 8 7 9 8 10 9 2 10 1 11 3 12
REMARK H PARENT
REMARK Flexibility Score: inf
ROOT
ATOM      1  C   UNL     1     -29.296 -22.378 -21.519  1.00  0.00    -0.003 A 
ATOM      2  C   UNL     1     -30.654 -22.169 -21.813  1.00  0.00     0.010 A 
ATOM      3  C   UNL     1     -28.335 -22.093 -22.503  1.00  0.00     0.010 A 
ATOM      4  C   UNL     1     -31.043 -21.684 -23.065  1.00  0.00     0.004 A 
ATOM      5  C   UNL     1     -28.723 -21.608 -23.756  1.00  0.00     0.004 A 
ATOM      6  C   UNL     1     -30.083 -21.399 -24.050  1.00  0.00    -0.045 A 
ENDROOT
BRANCH   1   7
ATOM      7  C   UNL     1     -28.880 -22.891 -20.196  1.00  0.00     0.071 C 
ATOM      8  O   UNL     1     -29.736 -23.123 -19.300  1.00  0.00    -0.545 OA
ATOM      9  O   UNL     1     -27.537 -23.125 -19.920  1.00  0.00    -0.545 OA
ENDBRANCH   1   7
BRANCH   6  10
ATOM     10  C   UNL     1     -30.519 -20.873 -25.406  1.00  0.00     0.013 C 
ATOM     11  C   UNL     1     -31.362 -21.911 -26.156  1.00  0.00     0.012 C 
ATOM     12  C   UNL     1     -31.275 -19.546 -25.265  1.00  0.00     0.012 C 
ENDBRANCH   6  10
TORSDOF 2
ENDMDL
MODEL 6
REMARK VINA RESULT:    -3.988      1.670      2.769
REMARK INTER + INTRA:          -4.662
REMARK INTER:                  -4.459
REMARK INTRA:                  -0.203
REMARK UNBOUND:                -0.208
REMARK SMILES CC(C)c1ccc(C(=O)[O-])cc1
REMARK SMILES IDX 7 1 6 2 11 3 5 4 12 5 4 6 8 7 9 8 10 9 2 10 1 11 3 12
REMARK H PARENT
REMARK Flexibility Score: inf
ROOT
ATOM      1  C   UNL     1     -28.801 -22.097 -19.377  1.00  0.00    -0.003 A 
ATOM      2  C   UNL     1     -28.813 -23.125 -20.335  1.00  0.00     0.010 A 
ATOM      3  C   UNL     1     -29.501 -20.909 -19.644  1.00  0.00     0.010 A 
ATOM      4  C   UNL     1     -29.511 -22.968 -21.536  1.00  0.00     0.004 A 
ATOM      5  C   UNL     1     -30.199 -20.752 -20.845  1.00  0.00     0.004 A 
ATOM      6  C   UNL     1     -30.212 -21.780 -21.805  1.00  0.00    -0.045 A 
ENDROOT
BRANCH   1   7
ATOM      7  C   UNL     1     -28.063 -22.260 -18.105  1.00  0.00     0.071 C 
ATOM      8  O   UNL     1     -28.537 -22.965 -17.175  1.00  0.00    -0.545 OA
ATOM      9  O   UNL     1     -26.835 -21.635 -17.918  1.00  0.00    -0.545 OA
ENDBRANCH   1   7
BRANCH   6  10
ATOM     10  C   UNL     1     -30.966 -21.623 -23.112  1.00  0.00     0.013 C 
ATOM     11  C   UNL     1     -32.096 -20.595 -22.979  1.00  0.00     0.012 C 
ATOM     12  C   UNL     1     -30.015 -21.252 -24.257  1.00  0.00     0.012 C 
ENDBRANCH   6  10
TORSDOF 2
ENDMDL
MODEL 7
REMARK VINA RESULT:    -3.891      2.656      5.650
REMARK INTER + INTRA:          -4.554
REMARK INTER:                  -4.350
REMARK INTRA:                  -0.204
REMARK UNBOUND:                -0.208
REMARK SMILES CC(C)c1ccc(C(=O)[O-])cc1
REMARK SMILES IDX 7 1 6 2 11 3 5 4 12 5 4 6 8 7 9 8 10 9 2 10 1 11 3 12
REMARK H PARENT
REMARK Flexibility Score: inf
ROOT
ATOM      1  C   UNL     1     -29.626 -21.877 -22.051  1.00  0.00    -0.003 A 
ATOM      2  C   UNL     1     -28.551 -22.777 -21.949  1.00  0.00     0.010 A 
ATOM      3  C   UNL     1     -30.170 -21.332 -20.876  1.00  0.00     0.010 A 
ATOM      4  C   UNL     1     -28.032 -23.125 -20.699  1.00  0.00     0.004 A 
ATOM      5  C   UNL     1     -29.650 -21.680 -19.625  1.00  0.00     0.004 A 
ATOM      6  C   UNL     1     -28.575 -22.581 -19.524  1.00  0.00    -0.045 A 
ENDROOT
BRANCH   1   7
ATOM      7  C   UNL     1     -30.179 -21.507 -23.372  1.00  0.00     0.071 C 
ATOM      8  O   UNL     1     -31.388 -21.732 -23.647  1.00  0.00    -0.545 OA
ATOM      9  O   UNL     1     -29.372 -20.904 -24.330  1.00  0.00    -0.545 OA
ENDBRANCH   1   7
BRANCH   6  10
ATOM     10  C   UNL     1     -28.001 -22.967 -18.173  1.00  0.00     0.013 C 
ATOM     11  C   UNL     1     -26.865 -22.021 -17.764  1.00  0.00     0.012 C 
ATOM     12  C   UNL     1     -29.095 -23.012 -17.100  1.00  0.00     0.012 C 
ENDBRANCH   6  10
TORSDOF 2
ENDMDL
