MODEL 1
REMARK VINA RESULT:    -5.111      0.000      0.000
REMARK INTER + INTRA:          -5.911
REMARK INTER:                  -5.708
REMARK INTRA:                  -0.202
REMARK UNBOUND:                -0.202
REMARK SMILES CC(C)c1ccc(C(=O)[O-])cc1
REMARK SMILES IDX 7 1 6 2 11 3 5 4 12 5 4 6 8 7 9 8 10 9 2 10 1 11 3 12
REMARK H PARENT
REMARK Flexibility Score: inf
ROOT
ATOM      1  C   UNL     1      -3.862  37.115  20.078  1.00  0.00    -0.003 A 
ATOM      2  C   UNL     1      -3.514  35.967  20.811  1.00  0.00     0.010 A 
ATOM      3  C   UNL     1      -4.949  37.893  20.508  1.00  0.00     0.010 A 
ATOM      4  C   UNL     1      -4.239  35.605  21.949  1.00  0.00     0.004 A 
ATOM      5  C   UNL     1      -5.674  37.532  21.646  1.00  0.00     0.004 A 
ATOM      6  C   UNL     1      -5.329  36.385  22.379  1.00  0.00    -0.045 A 
ENDROOT
BRANCH   1   7
ATOM      7  C   UNL     1      -3.096  37.500  18.871  1.00  0.00     0.071 C 
ATOM      8  O   UNL     1      -3.456  37.106  17.731  1.00  0.00    -0.545 OA
ATOM      9  O   UNL     1      -1.967  38.304  18.981  1.00  0.00    -0.545 OA
ENDBRANCH   1   7
BRANCH   6  10
ATOM     10  C   UNL     1      -6.125  36.005  23.614  1.00  0.00     0.013 C 
ATOM     11  C   UNL     1      -6.106  34.487  23.838  1.00  0.00     0.012 C 
ATOM     12  C   UNL     1      -5.614  36.751  24.853  1.00  0.00     0.012 C 
ENDBRANCH   6  10
TORSDOF 2
ENDMDL
MODEL 2
REMARK VINA RESULT:    -4.999      2.839      5.802
REMARK INTER + INTRA:          -5.785
REMARK INTER:                  -5.577
REMARK INTRA:                  -0.208
REMARK UNBOUND:                -0.202
REMARK SMILES CC(C)c1ccc(C(=O)[O-])cc1
REMARK SMILES IDX 7 1 6 2 11 3 5 4 12 5 4 6 8 7 9 8 10 9 2 10 1 11 3 12
REMARK H PARENT
REMARK Flexibility Score: inf
ROOT
ATOM      1  C   UNL     1      -4.777  36.717  19.928  1.00  0.00    -0.003 A 
ATOM      2  C   UNL     1      -4.016  37.820  19.501  1.00  0.00     0.010 A 
ATOM      3  C   UNL     1      -4.896  35.605  19.079  1.00  0.00     0.010 A 
ATOM      4  C   UNL     1      -3.390  37.810  18.253  1.00  0.00     0.004 A 
ATOM      5  C   UNL     1      -4.269  35.594  17.830  1.00  0.00     0.004 A 
ATOM      6  C   UNL     1      -3.510  36.695  17.402  1.00  0.00    -0.045 A 
ENDROOT
BRANCH   1   7
ATOM      7  C   UNL     1      -5.442  36.725  21.250  1.00  0.00     0.071 C 
ATOM      8  O   UNL     1      -5.400  37.748  21.983  1.00  0.00    -0.545 OA
ATOM      9  O   UNL     1      -6.124  35.600  21.701  1.00  0.00    -0.545 OA
ENDBRANCH   1   7
BRANCH   6  10
ATOM     10  C   UNL     1      -2.834  36.670  16.043  1.00  0.00     0.013 C 
ATOM     11  C   UNL     1      -3.319  37.829  15.163  1.00  0.00     0.012 C 
ATOM     12  C   UNL     1      -1.308  36.686  16.184  1.00  0.00     0.012 C 
ENDBRANCH   6  10
TORSDOF 2
ENDMDL
MODEL 3
REMARK VINA RESULT:    -4.958      2.831      5.804
REMARK INTER + INTRA:          -5.740
REMARK INTER:                  -5.539
REMARK INTRA:                  -0.200
REMARK UNBOUND:                -0.202
REMARK SMILES CC(C)c1ccc(C(=O)[O-])cc1
REMARK SMILES IDX 7 1 6 2 11 3 5 4 12 5 4 6 8 7 9 8 10 9 2 10 1 11 3 12
REMARK H PARENT
REMARK Flexibility Score: inf
ROOT
ATOM      1  C   UNL     1      -4.260  36.400  19.772  1.00  0.00    -0.003 A 
ATOM      2  C   UNL     1      -4.488  35.662  18.597  1.00  0.00     0.010 A 
ATOM      3  C   UNL     1      -3.441  37.538  19.712  1.00  0.00     0.010 A 
ATOM      4  C   UNL     1      -3.907  36.055  17.388  1.00  0.00     0.004 A 
ATOM      5  C   UNL     1      -2.860  37.932  18.503  1.00  0.00     0.004 A 
ATOM      6  C   UNL     1      -3.085  37.195  17.329  1.00  0.00    -0.045 A 
ENDROOT
BRANCH   1   7
ATOM      7  C   UNL     1      -4.874  35.986  21.054  1.00  0.00     0.071 C 
ATOM      8  O   UNL     1      -6.125  35.985  21.195  1.00  0.00    -0.545 OA
ATOM      9  O   UNL     1      -4.074  35.592  22.121  1.00  0.00    -0.545 OA
ENDBRANCH   1   7
BRANCH   6  10
ATOM     10  C   UNL     1      -2.448  37.635  16.023  1.00  0.00     0.013 C 
ATOM     11  C   UNL     1      -1.604  36.508  15.414  1.00  0.00     0.012 C 
ATOM     12  C   UNL     1      -3.507  38.129  15.030  1.00  0.00     0.012 C 
ENDBRANCH   6  10
TORSDOF 2
ENDMDL
MODEL 4
REMARK VINA RESULT:    -4.764      2.951      5.232
REMARK INTER + INTRA:          -5.523
REMARK INTER:                  -5.318
REMARK INTRA:                  -0.205
REMARK UNBOUND:                -0.202
REMARK SMILES CC(C)c1ccc(C(=O)[O-])cc1
REMARK SMILES IDX 7 1 6 2 11 3 5 4 12 5 4 6 8 7 9 8 10 9 2 10 1 11 3 12
REMARK H PARENT
REMARK Flexibility Score: inf
ROOT
ATOM      1  C   UNL     1      -5.181  36.305  22.274  1.00  0.00    -0.003 A 
ATOM      2  C   UNL     1      -5.635  37.499  21.687  1.00  0.00     0.010 A 
ATOM      3  C   UNL     1      -4.101  35.626  21.687  1.00  0.00     0.010 A 
ATOM      4  C   UNL     1      -5.021  38.002  20.537  1.00  0.00     0.004 A 
ATOM      5  C   UNL     1      -3.487  36.129  20.537  1.00  0.00     0.004 A 
ATOM      6  C   UNL     1      -3.940  37.321  19.948  1.00  0.00    -0.045 A 
ENDROOT
BRANCH   1   7
ATOM      7  C   UNL     1      -5.829  35.769  23.493  1.00  0.00     0.071 C 
ATOM      8  O   UNL     1      -6.125  34.548  23.577  1.00  0.00    -0.545 OA
ATOM      9  O   UNL     1      -6.121  36.610  24.561  1.00  0.00    -0.545 OA
ENDBRANCH   1   7
BRANCH   6  10
ATOM     10  C   UNL     1      -3.263  37.856  18.700  1.00  0.00     0.013 C 
ATOM     11  C   UNL     1      -1.809  38.252  18.986  1.00  0.00     0.012 C 
ATOM     12  C   UNL     1      -3.343  36.844  17.551  1.00  0.00     0.012 C 
ENDBRANCH   6  10
TORSDOF 2
ENDMDL
MODEL 5
REMARK VINA RESULT:    -4.441      0.159      1.683
REMARK INTER + INTRA:          -5.162
REMARK INTER:                  -4.959
REMARK INTRA:                  -0.203
REMARK UNBOUND:                -0.202
REMARK SMILES CC(C)c1ccc(C(=O)[O-])cc1
REMARK SMILES IDX 7 1 6 2 11 3 5 4 12 5 4 6 8 7 9 8 10 9 2 10 1 11 3 12
REMARK H PARENT
REMARK Flexibility Score: inf
ROOT
ATOM      1  C   UNL     1      -3.920  37.030  20.073  1.00  0.00    -0.003 A 
ATOM      2  C   UNL     1      -5.048  37.779  20.453  1.00  0.00     0.010 A 
ATOM      3  C   UNL     1      -3.519  35.950  20.874  1.00  0.00     0.010 A 
ATOM      4  C   UNL     1      -5.759  37.452  21.611  1.00  0.00     0.004 A 
ATOM      5  C   UNL     1      -4.229  35.623  22.032  1.00  0.00     0.004 A 
ATOM      6  C   UNL     1      -5.356  36.369  22.415  1.00  0.00    -0.045 A 
ENDROOT
BRANCH   1   7
ATOM      7  C   UNL     1      -3.165  37.374  18.847  1.00  0.00     0.071 C 
ATOM      8  O   UNL     1      -2.227  38.212  18.886  1.00  0.00    -0.545 OA
ATOM      9  O   UNL     1      -3.484  36.775  17.633  1.00  0.00    -0.545 OA
ENDBRANCH   1   7
BRANCH   6  10
ATOM     10  C   UNL     1      -6.118  36.002  23.675  1.00  0.00     0.013 C 
ATOM     11  C   UNL     1      -6.125  34.484  23.894  1.00  0.00     0.012 C 
ATOM     12  C   UNL     1      -5.551  36.733  24.897  1.00  0.00     0.012 C 
ENDBRANCH   6  10
TORSDOF 2
ENDMDL
MODEL 6
REMARK VINA RESULT:    -4.051      2.717      5.259
REMARK INTER + INTRA:          -4.727
REMARK INTER:                  -4.523
REMARK INTRA:                  -0.204
REMARK UNBOUND:                -0.202
REMARK SMILES CC(C)c1ccc(C(=O)[O-])cc1
REMARK SMILES IDX 7 1 6 2 11 3 5 4 12 5 4 6 8 7 9 8 10 9 2 10 1 11 3 12
REMARK H PARENT
REMARK Flexibility Score: inf
ROOT
ATOM      1  C   UNL     1      -4.694  36.769  21.118  1.00  0.00    -0.003 A 
ATOM      2  C   UNL     1      -3.348  36.364  21.159  1.00  0.00     0.010 A 
ATOM      3  C   UNL     1      -5.110  37.643  20.101  1.00  0.00     0.010 A 
ATOM      4  C   UNL     1      -2.439  36.823  20.202  1.00  0.00     0.004 A 
ATOM      5  C   UNL     1      -4.201  38.103  19.144  1.00  0.00     0.004 A 
ATOM      6  C   UNL     1      -2.857  37.700  19.184  1.00  0.00    -0.045 A 
ENDROOT
BRANCH   1   7
ATOM      7  C   UNL     1      -5.659  36.285  22.130  1.00  0.00     0.071 C 
ATOM      8  O   UNL     1      -6.070  37.049  23.042  1.00  0.00    -0.545 OA
ATOM      9  O   UNL     1      -6.125  34.975  22.087  1.00  0.00    -0.545 OA
ENDBRANCH   1   7
BRANCH   6  10
ATOM     10  C   UNL     1      -1.881  38.206  18.138  1.00  0.00     0.013 C 
ATOM     11  C   UNL     1      -0.437  38.147  18.654  1.00  0.00     0.012 C 
ATOM     12  C   UNL     1      -2.027  37.431  16.823  1.00  0.00     0.012 C 
ENDBRANCH   6  10
TORSDOF 2
ENDMDL
MODEL 7
REMARK VINA RESULT:    -3.417      3.332      5.026
REMARK INTER + INTRA:          -4.018
REMARK INTER:                  -3.807
REMARK INTRA:                  -0.211
REMARK UNBOUND:                -0.202
REMARK SMILES CC(C)c1ccc(C(=O)[O-])cc1
REMARK SMILES IDX 7 1 6 2 11 3 5 4 12 5 4 6 8 7 9 8 10 9 2 10 1 11 3 12
REMARK H PARENT
REMARK Flexibility Score: inf
ROOT
ATOM      1  C   UNL     1      -5.389  36.757  23.350  1.00  0.00    -0.003 A 
ATOM      2  C   UNL     1      -4.994  35.582  22.686  1.00  0.00     0.010 A 
ATOM      3  C   UNL     1      -5.540  37.939  22.608  1.00  0.00     0.010 A 
ATOM      4  C   UNL     1      -4.757  35.591  21.309  1.00  0.00     0.004 A 
ATOM      5  C   UNL     1      -5.302  37.948  21.231  1.00  0.00     0.004 A 
ATOM      6  C   UNL     1      -4.907  36.776  20.566  1.00  0.00    -0.045 A 
ENDROOT
BRANCH   1   7
ATOM      7  C   UNL     1      -5.641  36.751  24.809  1.00  0.00     0.071 C 
ATOM      8  O   UNL     1      -6.125  35.734  25.371  1.00  0.00    -0.545 OA
ATOM      9  O   UNL     1      -5.346  37.871  25.578  1.00  0.00    -0.545 OA
ENDBRANCH   1   7
BRANCH   6  10
ATOM     10  C   UNL     1      -4.653  36.800  19.070  1.00  0.00     0.013 C 
ATOM     11  C   UNL     1      -3.363  37.563  18.741  1.00  0.00     0.012 C 
ATOM     12  C   UNL     1      -4.617  35.381  18.492  1.00  0.00     0.012 C 
ENDBRANCH   6  10
TORSDOF 2
ENDMDL
