MODEL 1
REMARK VINA RESULT:    -4.960      0.000      0.000
REMARK INTER + INTRA:          -5.250
REMARK INTER:                  -5.250
REMARK INTRA:                   0.000
REMARK UNBOUND:                 0.000
REMARK SMILES Cc1cc(O)c(C)c(C)c1O
REMARK SMILES IDX 1 1 2 2 3 3 4 4 6 5 8 6 10 7 9 8 7 9 11 10 5 12
REMARK H PARENT 11 11 5 13
REMARK Flexibility Score: inf
ROOT
ATOM      1  C   UNL     1      -9.098  -4.377  -8.568  1.00  0.00     0.048 C 
ATOM      2  C   UNL     1     -10.228  -5.305  -8.215  1.00  0.00    -0.005 A 
ATOM      3  C   UNL     1     -10.814  -6.081  -9.221  1.00  0.00     0.053 A 
ATOM      4  C   UNL     1     -11.870  -6.948  -8.942  1.00  0.00     0.119 A 
ATOM      5  C   UNL     1     -12.385  -7.038  -7.628  1.00  0.00    -0.003 A 
ATOM      6  C   UNL     1     -11.758  -6.304  -6.585  1.00  0.00    -0.002 A 
ATOM      7  C   UNL     1     -10.697  -5.419  -6.889  1.00  0.00     0.121 A 
ATOM      8  C   UNL     1     -12.227  -6.436  -5.153  1.00  0.00     0.049 C 
ATOM      9  C   UNL     1     -13.572  -7.938  -7.361  1.00  0.00     0.049 C 
ENDROOT
BRANCH   7  10
ATOM     10  O   UNL     1     -10.124  -4.662  -5.861  1.00  0.00    -0.507 OA
ATOM     11  H   UNL     1      -9.356  -4.988  -5.289  1.00  0.00     0.293 HD
ENDBRANCH   7  10
BRANCH   4  12
ATOM     12  O   UNL     1     -12.379  -7.709  -9.998  1.00  0.00    -0.508 OA
ATOM     13  H   UNL     1     -11.924  -8.537 -10.361  1.00  0.00     0.293 HD
ENDBRANCH   4  12
TORSDOF 2
ENDMDL
MODEL 2
REMARK VINA RESULT:    -4.720      1.597      3.099
REMARK INTER + INTRA:          -4.996
REMARK INTER:                  -4.996
REMARK INTRA:                   0.000
REMARK UNBOUND:                 0.000
REMARK SMILES Cc1cc(O)c(C)c(C)c1O
REMARK SMILES IDX 1 1 2 2 3 3 4 4 6 5 8 6 10 7 9 8 7 9 11 10 5 12
REMARK H PARENT 11 11 5 13
REMARK Flexibility Score: inf
ROOT
ATOM      1  C   UNL     1     -10.051  -2.981  -8.116  1.00  0.00     0.048 C 
ATOM      2  C   UNL     1     -10.626  -4.308  -7.697  1.00  0.00    -0.005 A 
ATOM      3  C   UNL     1     -10.914  -4.531  -6.346  1.00  0.00     0.053 A 
ATOM      4  C   UNL     1     -11.439  -5.747  -5.912  1.00  0.00     0.119 A 
ATOM      5  C   UNL     1     -11.668  -6.792  -6.837  1.00  0.00    -0.003 A 
ATOM      6  C   UNL     1     -11.440  -6.557  -8.220  1.00  0.00    -0.002 A 
ATOM      7  C   UNL     1     -10.894  -5.321  -8.641  1.00  0.00     0.121 A 
ATOM      8  C   UNL     1     -11.750  -7.621  -9.250  1.00  0.00     0.049 C 
ATOM      9  C   UNL     1     -12.179  -8.125  -6.333  1.00  0.00     0.049 C 
ENDROOT
BRANCH   7  10
ATOM     10  O   UNL     1     -10.624  -5.122 -10.000  1.00  0.00    -0.507 OA
ATOM     11  H   UNL     1     -10.872  -4.279 -10.501  1.00  0.00     0.293 HD
ENDBRANCH   7  10
BRANCH   4  12
ATOM     12  O   UNL     1     -11.726  -5.878  -4.550  1.00  0.00    -0.508 OA
ATOM     13  H   UNL     1     -11.056  -5.689  -3.816  1.00  0.00     0.293 HD
ENDBRANCH   4  12
TORSDOF 2
ENDMDL
MODEL 3
REMARK VINA RESULT:    -4.681      1.812      3.957
REMARK INTER + INTRA:          -4.955
REMARK INTER:                  -4.955
REMARK INTRA:                   0.000
REMARK UNBOUND:                 0.000
REMARK SMILES Cc1cc(O)c(C)c(C)c1O
REMARK SMILES IDX 1 1 2 2 3 3 4 4 6 5 8 6 10 7 9 8 7 9 11 10 5 12
REMARK H PARENT 11 11 5 13
REMARK Flexibility Score: inf
ROOT
ATOM      1  C   UNL     1     -12.122  -8.111  -4.726  1.00  0.00     0.048 C 
ATOM      2  C   UNL     1     -12.001  -7.126  -5.857  1.00  0.00    -0.005 A 
ATOM      3  C   UNL     1     -10.814  -6.400  -6.006  1.00  0.00     0.053 A 
ATOM      4  C   UNL     1     -10.661  -5.470  -7.034  1.00  0.00     0.119 A 
ATOM      5  C   UNL     1     -11.723  -5.227  -7.935  1.00  0.00    -0.003 A 
ATOM      6  C   UNL     1     -12.910  -6.003  -7.834  1.00  0.00    -0.002 A 
ATOM      7  C   UNL     1     -13.053  -6.932  -6.777  1.00  0.00     0.121 A 
ATOM      8  C   UNL     1     -14.037  -5.831  -8.829  1.00  0.00     0.049 C 
ATOM      9  C   UNL     1     -11.557  -4.168  -9.004  1.00  0.00     0.049 C 
ENDROOT
BRANCH   7  10
ATOM     10  O   UNL     1     -14.248  -7.651  -6.657  1.00  0.00    -0.507 OA
ATOM     11  H   UNL     1     -14.718  -7.812  -5.775  1.00  0.00     0.293 HD
ENDBRANCH   7  10
BRANCH   4  12
ATOM     12  O   UNL     1      -9.433  -4.809  -7.130  1.00  0.00    -0.508 OA
ATOM     13  H   UNL     1      -9.134  -4.087  -6.487  1.00  0.00     0.293 HD
ENDBRANCH   4  12
TORSDOF 2
ENDMDL
MODEL 4
REMARK VINA RESULT:    -4.587     16.794     18.478
REMARK INTER + INTRA:          -4.855
REMARK INTER:                  -4.855
REMARK INTRA:                   0.000
REMARK UNBOUND:                 0.000
REMARK SMILES Cc1cc(O)c(C)c(C)c1O
REMARK SMILES IDX 1 1 2 2 3 3 4 4 6 5 8 6 10 7 9 8 7 9 11 10 5 12
REMARK H PARENT 11 11 5 13
REMARK Flexibility Score: inf
ROOT
ATOM      1  C   UNL     1     -13.664   6.078   4.114  1.00  0.00     0.048 C 
ATOM      2  C   UNL     1     -13.146   5.458   5.385  1.00  0.00    -0.005 A 
ATOM      3  C   UNL     1     -12.505   4.216   5.327  1.00  0.00     0.053 A 
ATOM      4  C   UNL     1     -12.019   3.601   6.480  1.00  0.00     0.119 A 
ATOM      5  C   UNL     1     -12.190   4.219   7.740  1.00  0.00    -0.003 A 
ATOM      6  C   UNL     1     -12.782   5.510   7.805  1.00  0.00    -0.002 A 
ATOM      7  C   UNL     1     -13.282   6.113   6.627  1.00  0.00     0.121 A 
ATOM      8  C   UNL     1     -12.909   6.240   9.124  1.00  0.00     0.049 C 
ATOM      9  C   UNL     1     -11.710   3.504   8.985  1.00  0.00     0.049 C 
ENDROOT
BRANCH   7  10
ATOM     10  O   UNL     1     -13.911   7.360   6.714  1.00  0.00    -0.507 OA
ATOM     11  H   UNL     1     -14.763   7.521   7.235  1.00  0.00     0.293 HD
ENDBRANCH   7  10
BRANCH   4  12
ATOM     12  O   UNL     1     -11.365   2.375   6.331  1.00  0.00    -0.508 OA
ATOM     13  H   UNL     1     -10.572   2.234   5.719  1.00  0.00     0.293 HD
ENDBRANCH   4  12
TORSDOF 2
ENDMDL
MODEL 5
REMARK VINA RESULT:    -4.584      5.941      7.061
REMARK INTER + INTRA:          -4.852
REMARK INTER:                  -4.852
REMARK INTRA:                   0.000
REMARK UNBOUND:                 0.000
REMARK SMILES Cc1cc(O)c(C)c(C)c1O
REMARK SMILES IDX 1 1 2 2 3 3 4 4 6 5 8 6 10 7 9 8 7 9 11 10 5 12
REMARK H PARENT 11 11 5 13
REMARK Flexibility Score: inf
ROOT
ATOM      1  C   UNL     1     -10.278  -2.131  -9.185  1.00  0.00     0.048 C 
ATOM      2  C   UNL     1     -11.474  -1.258  -9.456  1.00  0.00    -0.005 A 
ATOM      3  C   UNL     1     -11.356   0.128  -9.306  1.00  0.00     0.053 A 
ATOM      4  C   UNL     1     -12.441   0.973  -9.537  1.00  0.00     0.119 A 
ATOM      5  C   UNL     1     -13.695   0.435  -9.906  1.00  0.00    -0.003 A 
ATOM      6  C   UNL     1     -13.811  -0.965 -10.124  1.00  0.00    -0.002 A 
ATOM      7  C   UNL     1     -12.705  -1.809  -9.872  1.00  0.00     0.121 A 
ATOM      8  C   UNL     1     -15.114  -1.570 -10.598  1.00  0.00     0.049 C 
ATOM      9  C   UNL     1     -14.873   1.367 -10.090  1.00  0.00     0.049 C 
ENDROOT
BRANCH   7  10
ATOM     10  O   UNL     1     -12.849  -3.191 -10.038  1.00  0.00    -0.507 OA
ATOM     11  H   UNL     1     -12.080  -3.846  -9.970  1.00  0.00     0.293 HD
ENDBRANCH   7  10
BRANCH   4  12
ATOM     12  O   UNL     1     -12.230   2.348  -9.393  1.00  0.00    -0.508 OA
ATOM     13  H   UNL     1     -11.914   2.779  -8.534  1.00  0.00     0.293 HD
ENDBRANCH   4  12
TORSDOF 2
ENDMDL
MODEL 6
REMARK VINA RESULT:    -4.564     16.529     18.333
REMARK INTER + INTRA:          -4.830
REMARK INTER:                  -4.830
REMARK INTRA:                   0.000
REMARK UNBOUND:                 0.000
REMARK SMILES Cc1cc(O)c(C)c(C)c1O
REMARK SMILES IDX 1 1 2 2 3 3 4 4 6 5 8 6 10 7 9 8 7 9 11 10 5 12
REMARK H PARENT 11 11 5 13
REMARK Flexibility Score: inf
ROOT
ATOM      1  C   UNL     1     -10.286   5.464   8.653  1.00  0.00     0.048 C 
ATOM      2  C   UNL     1     -11.142   5.417   7.415  1.00  0.00    -0.005 A 
ATOM      3  C   UNL     1     -10.815   4.521   6.392  1.00  0.00     0.053 A 
ATOM      4  C   UNL     1     -11.574   4.450   5.224  1.00  0.00     0.119 A 
ATOM      5  C   UNL     1     -12.683   5.308   5.046  1.00  0.00    -0.003 A 
ATOM      6  C   UNL     1     -13.065   6.177   6.105  1.00  0.00    -0.002 A 
ATOM      7  C   UNL     1     -12.275   6.246   7.276  1.00  0.00     0.121 A 
ATOM      8  C   UNL     1     -14.294   7.052   5.985  1.00  0.00     0.049 C 
ATOM      9  C   UNL     1     -13.455   5.257   3.745  1.00  0.00     0.049 C 
ENDROOT
BRANCH   7  10
ATOM     10  O   UNL     1     -12.632   7.145   8.288  1.00  0.00    -0.507 OA
ATOM     11  H   UNL     1     -11.960   7.692   8.811  1.00  0.00     0.293 HD
ENDBRANCH   7  10
BRANCH   4  12
ATOM     12  O   UNL     1     -11.196   3.508   4.264  1.00  0.00    -0.508 OA
ATOM     13  H   UNL     1     -10.502   3.684   3.549  1.00  0.00     0.293 HD
ENDBRANCH   4  12
TORSDOF 2
ENDMDL
MODEL 7
REMARK VINA RESULT:    -4.508     16.558     18.725
REMARK INTER + INTRA:          -4.772
REMARK INTER:                  -4.772
REMARK INTRA:                   0.000
REMARK UNBOUND:                 0.000
REMARK SMILES Cc1cc(O)c(C)c(C)c1O
REMARK SMILES IDX 1 1 2 2 3 3 4 4 6 5 8 6 10 7 9 8 7 9 11 10 5 12
REMARK H PARENT 11 11 5 13
REMARK Flexibility Score: inf
ROOT
ATOM      1  C   UNL     1     -11.748   3.145   9.125  1.00  0.00     0.048 C 
ATOM      2  C   UNL     1     -11.097   4.006   8.076  1.00  0.00    -0.005 A 
ATOM      3  C   UNL     1     -10.263   5.055   8.474  1.00  0.00     0.053 A 
ATOM      4  C   UNL     1      -9.648   5.885   7.537  1.00  0.00     0.119 A 
ATOM      5  C   UNL     1      -9.879   5.688   6.156  1.00  0.00    -0.003 A 
ATOM      6  C   UNL     1     -10.672   4.586   5.735  1.00  0.00    -0.002 A 
ATOM      7  C   UNL     1     -11.300   3.764   6.700  1.00  0.00     0.121 A 
ATOM      8  C   UNL     1     -10.877   4.294   4.265  1.00  0.00     0.049 C 
ATOM      9  C   UNL     1      -9.251   6.639   5.160  1.00  0.00     0.049 C 
ENDROOT
BRANCH   7  10
ATOM     10  O   UNL     1     -12.122   2.715   6.272  1.00  0.00    -0.507 OA
ATOM     11  H   UNL     1     -13.128   2.715   6.379  1.00  0.00     0.293 HD
ENDBRANCH   7  10
BRANCH   4  12
ATOM     12  O   UNL     1      -8.807   6.892   8.018  1.00  0.00    -0.508 OA
ATOM     13  H   UNL     1      -7.814   6.932   7.826  1.00  0.00     0.293 HD
ENDBRANCH   4  12
TORSDOF 2
ENDMDL
MODEL 8
REMARK VINA RESULT:    -4.451     17.073     19.155
REMARK INTER + INTRA:          -4.711
REMARK INTER:                  -4.711
REMARK INTRA:                   0.000
REMARK UNBOUND:                 0.000
REMARK SMILES Cc1cc(O)c(C)c(C)c1O
REMARK SMILES IDX 1 1 2 2 3 3 4 4 6 5 8 6 10 7 9 8 7 9 11 10 5 12
REMARK H PARENT 11 11 5 13
REMARK Flexibility Score: inf
ROOT
ATOM      1  C   UNL     1     -11.367   3.723   8.854  1.00  0.00     0.048 C 
ATOM      2  C   UNL     1     -11.971   4.738   7.921  1.00  0.00    -0.005 A 
ATOM      3  C   UNL     1     -12.171   6.046   8.372  1.00  0.00     0.053 A 
ATOM      4  C   UNL     1     -12.737   7.016   7.546  1.00  0.00     0.119 A 
ATOM      5  C   UNL     1     -13.141   6.682   6.233  1.00  0.00    -0.003 A 
ATOM      6  C   UNL     1     -12.884   5.373   5.740  1.00  0.00    -0.002 A 
ATOM      7  C   UNL     1     -12.323   4.398   6.597  1.00  0.00     0.121 A 
ATOM      8  C   UNL     1     -13.227   5.000   4.314  1.00  0.00     0.049 C 
ATOM      9  C   UNL     1     -13.809   7.735   5.375  1.00  0.00     0.049 C 
ENDROOT
BRANCH   7  10
ATOM     10  O   UNL     1     -12.125   3.099   6.115  1.00  0.00    -0.507 OA
ATOM     11  H   UNL     1     -12.687   2.683   5.384  1.00  0.00     0.293 HD
ENDBRANCH   7  10
BRANCH   4  12
ATOM     12  O   UNL     1     -12.875   8.307   8.065  1.00  0.00    -0.508 OA
ATOM     13  H   UNL     1     -13.612   8.944   7.791  1.00  0.00     0.293 HD
ENDBRANCH   4  12
TORSDOF 2
ENDMDL
MODEL 9
REMARK VINA RESULT:    -4.432      2.949      4.406
REMARK INTER + INTRA:          -4.692
REMARK INTER:                  -4.692
REMARK INTRA:                   0.000
REMARK UNBOUND:                 0.000
REMARK SMILES Cc1cc(O)c(C)c(C)c1O
REMARK SMILES IDX 1 1 2 2 3 3 4 4 6 5 8 6 10 7 9 8 7 9 11 10 5 12
REMARK H PARENT 11 11 5 13
REMARK Flexibility Score: inf
ROOT
ATOM      1  C   UNL     1     -12.058  -0.855 -10.377  1.00  0.00     0.048 C 
ATOM      2  C   UNL     1     -11.532  -2.083  -9.684  1.00  0.00    -0.005 A 
ATOM      3  C   UNL     1     -10.222  -2.081  -9.193  1.00  0.00     0.053 A 
ATOM      4  C   UNL     1      -9.690  -3.200  -8.553  1.00  0.00     0.119 A 
ATOM      5  C   UNL     1     -10.468  -4.373  -8.410  1.00  0.00    -0.003 A 
ATOM      6  C   UNL     1     -11.820  -4.365  -8.847  1.00  0.00    -0.002 A 
ATOM      7  C   UNL     1     -12.339  -3.227  -9.506  1.00  0.00     0.121 A 
ATOM      8  C   UNL     1     -12.709  -5.572  -8.638  1.00  0.00     0.049 C 
ATOM      9  C   UNL     1      -9.848  -5.596  -7.768  1.00  0.00     0.049 C 
ENDROOT
BRANCH   7  10
ATOM     10  O   UNL     1     -13.656  -3.253  -9.979  1.00  0.00    -0.507 OA
ATOM     11  H   UNL     1     -14.223  -4.091 -10.007  1.00  0.00     0.293 HD
ENDBRANCH   7  10
BRANCH   4  12
ATOM     12  O   UNL     1      -8.383  -3.106  -8.066  1.00  0.00    -0.508 OA
ATOM     13  H   UNL     1      -7.820  -2.268  -8.134  1.00  0.00     0.293 HD
ENDBRANCH   4  12
TORSDOF 2
ENDMDL
