MODEL 1
REMARK VINA RESULT:    -4.382      0.000      0.000
REMARK INTER + INTRA:          -6.636
REMARK INTER:                  -5.919
REMARK INTRA:                  -0.717
REMARK UNBOUND:                -0.717
REMARK SMILES CCCCCCC=CC(=O)[O-]
REMARK SMILES IDX 5 1 6 2 7 3 8 4 9 5 10 6 11 7 4 8 3 9 2 10 1 11
REMARK H PARENT
REMARK Flexibility Score: inf
ROOT
ATOM      1  C   UNL     1      -5.615 -23.954  48.719  1.00  0.00     0.004 C 
ENDROOT
BRANCH   1   2
ATOM      2  C   UNL     1      -4.638 -24.536  49.749  1.00  0.00     0.027 C 
BRANCH   2   3
ATOM      3  C   UNL     1      -3.239 -24.032  49.530  1.00  0.00    -0.025 C 
ATOM      4  C   UNL     1      -2.454 -23.675  50.551  1.00  0.00     0.020 C 
BRANCH   4   5
ATOM      5  C   UNL     1      -1.095 -23.153  50.345  1.00  0.00     0.064 C 
ATOM      6  O   UNL     1      -0.114 -23.753  50.857  1.00  0.00    -0.545 OA
ATOM      7  O   UNL     1      -0.875 -22.004  49.593  1.00  0.00    -0.545 OA
ENDBRANCH   4   5
ENDBRANCH   2   3
ENDBRANCH   1   2
BRANCH   1   8
ATOM      8  C   UNL     1      -5.078 -22.662  48.079  1.00  0.00     0.000 C 
BRANCH   8   9
ATOM      9  C   UNL     1      -5.752 -21.400  48.640  1.00  0.00    -0.000 C 
BRANCH   9  10
ATOM     10  C   UNL     1      -4.764 -20.472  49.363  1.00  0.00    -0.003 C 
ATOM     11  C   UNL     1      -4.766 -20.732  50.866  1.00  0.00     0.004 C 
ENDBRANCH   9  10
ENDBRANCH   8   9
ENDBRANCH   1   8
TORSDOF 6
ENDMDL
MODEL 2
REMARK VINA RESULT:    -4.380      2.936      4.410
REMARK INTER + INTRA:          -6.632
REMARK INTER:                  -5.960
REMARK INTRA:                  -0.672
REMARK UNBOUND:                -0.717
REMARK SMILES CCCCCCC=CC(=O)[O-]
REMARK SMILES IDX 5 1 6 2 7 3 8 4 9 5 10 6 11 7 4 8 3 9 2 10 1 11
REMARK H PARENT
REMARK Flexibility Score: inf
ROOT
ATOM      1  C   UNL     1      -4.614 -24.539  49.726  1.00  0.00     0.004 C 
ENDROOT
BRANCH   1   2
ATOM      2  C   UNL     1      -5.500 -23.959  48.616  1.00  0.00     0.027 C 
BRANCH   2   3
ATOM      3  C   UNL     1      -5.594 -22.461  48.710  1.00  0.00    -0.025 C 
ATOM      4  C   UNL     1      -5.531 -21.685  47.624  1.00  0.00     0.020 C 
BRANCH   4   5
ATOM      5  C   UNL     1      -5.592 -20.219  47.709  1.00  0.00     0.064 C 
ATOM      6  O   UNL     1      -5.584 -19.660  48.837  1.00  0.00    -0.545 OA
ATOM      7  O   UNL     1      -5.659 -19.438  46.560  1.00  0.00    -0.545 OA
ENDBRANCH   4   5
ENDBRANCH   2   3
ENDBRANCH   1   2
BRANCH   1   8
ATOM      8  C   UNL     1      -3.118 -24.456  49.373  1.00  0.00     0.000 C 
BRANCH   8   9
ATOM      9  C   UNL     1      -2.281 -23.818  50.493  1.00  0.00    -0.000 C 
BRANCH   9  10
ATOM     10  C   UNL     1      -2.263 -22.284  50.419  1.00  0.00    -0.003 C 
ATOM     11  C   UNL     1      -1.939 -21.806  49.007  1.00  0.00     0.004 C 
ENDBRANCH   9  10
ENDBRANCH   8   9
ENDBRANCH   1   8
TORSDOF 6
ENDMDL
MODEL 3
REMARK VINA RESULT:    -4.313      1.765      2.980
REMARK INTER + INTRA:          -6.543
REMARK INTER:                  -5.954
REMARK INTRA:                  -0.589
REMARK UNBOUND:                -0.717
REMARK SMILES CCCCCCC=CC(=O)[O-]
REMARK SMILES IDX 5 1 6 2 7 3 8 4 9 5 10 6 11 7 4 8 3 9 2 10 1 11
REMARK H PARENT
REMARK Flexibility Score: inf
ROOT
ATOM      1  C   UNL     1      -4.854 -24.500  49.705  1.00  0.00     0.004 C 
ENDROOT
BRANCH   1   2
ATOM      2  C   UNL     1      -4.070 -23.230  50.058  1.00  0.00     0.027 C 
BRANCH   2   3
ATOM      3  C   UNL     1      -2.668 -23.549  50.495  1.00  0.00    -0.025 C 
ATOM      4  C   UNL     1      -1.702 -22.626  50.481  1.00  0.00     0.020 C 
BRANCH   4   5
ATOM      5  C   UNL     1      -0.320 -22.937  50.879  1.00  0.00     0.064 C 
ATOM      6  O   UNL     1      -0.005 -24.123  51.158  1.00  0.00    -0.545 OA
ATOM      7  O   UNL     1       0.645 -21.939  50.952  1.00  0.00    -0.545 OA
ENDBRANCH   4   5
ENDBRANCH   2   3
ENDBRANCH   1   2
BRANCH   1   8
ATOM      8  C   UNL     1      -5.441 -24.442  48.284  1.00  0.00     0.000 C 
BRANCH   8   9
ATOM      9  C   UNL     1      -4.403 -24.018  47.233  1.00  0.00    -0.000 C 
BRANCH   9  10
ATOM     10  C   UNL     1      -3.603 -25.206  46.676  1.00  0.00    -0.003 C 
ATOM     11  C   UNL     1      -2.159 -25.175  47.168  1.00  0.00     0.004 C 
ENDBRANCH   9  10
ENDBRANCH   8   9
ENDBRANCH   1   8
TORSDOF 6
ENDMDL
MODEL 4
REMARK VINA RESULT:    -4.293      2.703      4.385
REMARK INTER + INTRA:          -6.515
REMARK INTER:                  -5.800
REMARK INTRA:                  -0.716
REMARK UNBOUND:                -0.717
REMARK SMILES CCCCCCC=CC(=O)[O-]
REMARK SMILES IDX 5 1 6 2 7 3 8 4 9 5 10 6 11 7 4 8 3 9 2 10 1 11
REMARK H PARENT
REMARK Flexibility Score: inf
ROOT
ATOM      1  C   UNL     1      -3.807 -24.415  47.617  1.00  0.00     0.004 C 
ENDROOT
BRANCH   1   2
ATOM      2  C   UNL     1      -5.193 -24.532  48.262  1.00  0.00     0.027 C 
BRANCH   2   3
ATOM      3  C   UNL     1      -5.592 -23.256  48.950  1.00  0.00    -0.025 C 
ATOM      4  C   UNL     1      -5.601 -22.085  48.306  1.00  0.00     0.020 C 
BRANCH   4   5
ATOM      5  C   UNL     1      -5.961 -20.828  48.977  1.00  0.00     0.064 C 
ATOM      6  O   UNL     1      -6.584 -19.939  48.340  1.00  0.00    -0.545 OA
ATOM      7  O   UNL     1      -5.624 -20.605  50.307  1.00  0.00    -0.545 OA
ENDBRANCH   4   5
ENDBRANCH   2   3
ENDBRANCH   1   2
BRANCH   1   8
ATOM      8  C   UNL     1      -2.719 -25.113  48.453  1.00  0.00     0.000 C 
BRANCH   8   9
ATOM      9  C   UNL     1      -1.754 -24.118  49.117  1.00  0.00    -0.000 C 
BRANCH   9  10
ATOM     10  C   UNL     1      -2.188 -23.729  50.538  1.00  0.00    -0.003 C 
ATOM     11  C   UNL     1      -2.445 -22.229  50.642  1.00  0.00     0.004 C 
ENDBRANCH   9  10
ENDBRANCH   8   9
ENDBRANCH   1   8
TORSDOF 6
ENDMDL
MODEL 5
REMARK VINA RESULT:    -4.290      2.594      4.294
REMARK INTER + INTRA:          -6.512
REMARK INTER:                  -5.824
REMARK INTRA:                  -0.688
REMARK UNBOUND:                -0.717
REMARK SMILES CCCCCCC=CC(=O)[O-]
REMARK SMILES IDX 5 1 6 2 7 3 8 4 9 5 10 6 11 7 4 8 3 9 2 10 1 11
REMARK H PARENT
REMARK Flexibility Score: inf
ROOT
ATOM      1  C   UNL     1      -1.684 -24.008  50.431  1.00  0.00     0.004 C 
ENDROOT
BRANCH   1   2
ATOM      2  C   UNL     1      -1.413 -22.499  50.418  1.00  0.00     0.027 C 
BRANCH   2   3
ATOM      3  C   UNL     1      -2.606 -21.718  50.894  1.00  0.00    -0.025 C 
ATOM      4  C   UNL     1      -3.457 -21.146  50.038  1.00  0.00     0.020 C 
BRANCH   4   5
ATOM      5  C   UNL     1      -4.610 -20.356  50.494  1.00  0.00     0.064 C 
ATOM      6  O   UNL     1      -4.424 -19.347  51.223  1.00  0.00    -0.545 OA
ATOM      7  O   UNL     1      -5.906 -20.708  50.134  1.00  0.00    -0.545 OA
ENDBRANCH   4   5
ENDBRANCH   2   3
ENDBRANCH   1   2
BRANCH   1   8
ATOM      8  C   UNL     1      -1.684 -24.608  49.014  1.00  0.00     0.000 C 
BRANCH   8   9
ATOM      9  C   UNL     1      -3.080 -24.605  48.370  1.00  0.00    -0.000 C 
BRANCH   9  10
ATOM     10  C   UNL     1      -4.210 -24.696  49.405  1.00  0.00    -0.003 C 
ATOM     11  C   UNL     1      -5.529 -24.194  48.825  1.00  0.00     0.004 C 
ENDBRANCH   9  10
ENDBRANCH   8   9
ENDBRANCH   1   8
TORSDOF 6
ENDMDL
MODEL 6
REMARK VINA RESULT:    -4.252      8.408      9.753
REMARK INTER + INTRA:          -6.461
REMARK INTER:                  -5.846
REMARK INTRA:                  -0.615
REMARK UNBOUND:                -0.717
REMARK SMILES CCCCCCC=CC(=O)[O-]
REMARK SMILES IDX 5 1 6 2 7 3 8 4 9 5 10 6 11 7 4 8 3 9 2 10 1 11
REMARK H PARENT
REMARK Flexibility Score: inf
ROOT
ATOM      1  C   UNL     1       0.135 -17.516  57.387  1.00  0.00     0.004 C 
ENDROOT
BRANCH   1   2
ATOM      2  C   UNL     1      -0.394 -18.946  57.559  1.00  0.00     0.027 C 
BRANCH   2   3
ATOM      3  C   UNL     1       0.708 -19.904  57.911  1.00  0.00    -0.025 C 
ATOM      4  C   UNL     1       0.689 -21.176  57.502  1.00  0.00     0.020 C 
BRANCH   4   5
ATOM      5  C   UNL     1       1.748 -22.129  57.866  1.00  0.00     0.064 C 
ATOM      6  O   UNL     1       1.476 -23.107  58.611  1.00  0.00    -0.545 OA
ATOM      7  O   UNL     1       3.048 -21.967  57.400  1.00  0.00    -0.545 OA
ENDBRANCH   4   5
ENDBRANCH   2   3
ENDBRANCH   1   2
BRANCH   1   8
ATOM      8  C   UNL     1       1.613 -17.494  56.958  1.00  0.00     0.000 C 
BRANCH   8   9
ATOM      9  C   UNL     1       1.792 -17.686  55.444  1.00  0.00    -0.000 C 
BRANCH   9  10
ATOM     10  C   UNL     1       2.655 -18.909  55.100  1.00  0.00    -0.003 C 
ATOM     11  C   UNL     1       1.862 -19.933  54.294  1.00  0.00     0.004 C 
ENDBRANCH   9  10
ENDBRANCH   8   9
ENDBRANCH   1   8
TORSDOF 6
ENDMDL
MODEL 7
REMARK VINA RESULT:    -4.217     12.446     13.859
REMARK INTER + INTRA:          -6.413
REMARK INTER:                  -5.679
REMARK INTRA:                  -0.734
REMARK UNBOUND:                -0.717
REMARK SMILES CCCCCCC=CC(=O)[O-]
REMARK SMILES IDX 5 1 6 2 7 3 8 4 9 5 10 6 11 7 4 8 3 9 2 10 1 11
REMARK H PARENT
REMARK Flexibility Score: inf
ROOT
ATOM      1  C   UNL     1      -5.641 -11.760  53.462  1.00  0.00     0.004 C 
ENDROOT
BRANCH   1   2
ATOM      2  C   UNL     1      -5.515 -10.341  54.032  1.00  0.00     0.027 C 
BRANCH   2   3
ATOM      3  C   UNL     1      -6.764  -9.924  54.758  1.00  0.00    -0.025 C 
ATOM      4  C   UNL     1      -7.585 -10.821  55.313  1.00  0.00     0.020 C 
BRANCH   4   5
ATOM      5  C   UNL     1      -8.823 -10.424  56.000  1.00  0.00     0.064 C 
ATOM      6  O   UNL     1      -9.749  -9.876  55.346  1.00  0.00    -0.545 OA
ATOM      7  O   UNL     1      -8.988 -10.645  57.362  1.00  0.00    -0.545 OA
ENDBRANCH   4   5
ENDBRANCH   2   3
ENDBRANCH   1   2
BRANCH   1   8
ATOM      8  C   UNL     1      -5.747 -11.759  51.927  1.00  0.00     0.000 C 
BRANCH   8   9
ATOM      9  C   UNL     1      -7.139 -12.180  51.430  1.00  0.00    -0.000 C 
BRANCH   9  10
ATOM     10  C   UNL     1      -7.953 -11.001  50.877  1.00  0.00    -0.003 C 
ATOM     11  C   UNL     1      -9.040 -10.575  51.859  1.00  0.00     0.004 C 
ENDBRANCH   9  10
ENDBRANCH   8   9
ENDBRANCH   1   8
TORSDOF 6
ENDMDL
MODEL 8
REMARK VINA RESULT:    -4.148      1.163      2.681
REMARK INTER + INTRA:          -6.319
REMARK INTER:                  -5.612
REMARK INTRA:                  -0.707
REMARK UNBOUND:                -0.717
REMARK SMILES CCCCCCC=CC(=O)[O-]
REMARK SMILES IDX 5 1 6 2 7 3 8 4 9 5 10 6 11 7 4 8 3 9 2 10 1 11
REMARK H PARENT
REMARK Flexibility Score: inf
ROOT
ATOM      1  C   UNL     1      -4.462 -20.992  48.646  1.00  0.00     0.004 C 
ENDROOT
BRANCH   1   2
ATOM      2  C   UNL     1      -4.084 -21.467  50.054  1.00  0.00     0.027 C 
BRANCH   2   3
ATOM      3  C   UNL     1      -2.678 -21.997  50.100  1.00  0.00    -0.025 C 
ATOM      4  C   UNL     1      -2.409 -23.239  50.514  1.00  0.00     0.020 C 
BRANCH   4   5
ATOM      5  C   UNL     1      -1.035 -23.756  50.589  1.00  0.00     0.064 C 
ATOM      6  O   UNL     1      -0.751 -24.852  50.038  1.00  0.00    -0.545 OA
ATOM      7  O   UNL     1      -0.041 -23.052  51.261  1.00  0.00    -0.545 OA
ENDBRANCH   4   5
ENDBRANCH   2   3
ENDBRANCH   1   2
BRANCH   1   8
ATOM      8  C   UNL     1      -5.322 -22.026  47.898  1.00  0.00     0.000 C 
BRANCH   8   9
ATOM      9  C   UNL     1      -4.480 -22.993  47.050  1.00  0.00    -0.000 C 
BRANCH   9  10
ATOM     10  C   UNL     1      -4.593 -24.449  47.525  1.00  0.00    -0.003 C 
ATOM     11  C   UNL     1      -5.619 -24.584  48.646  1.00  0.00     0.004 C 
ENDBRANCH   9  10
ENDBRANCH   8   9
ENDBRANCH   1   8
TORSDOF 6
ENDMDL
MODEL 9
REMARK VINA RESULT:    -4.103      9.628     11.757
REMARK INTER + INTRA:          -6.259
REMARK INTER:                  -5.589
REMARK INTRA:                  -0.670
REMARK UNBOUND:                -0.717
REMARK SMILES CCCCCCC=CC(=O)[O-]
REMARK SMILES IDX 5 1 6 2 7 3 8 4 9 5 10 6 11 7 4 8 3 9 2 10 1 11
REMARK H PARENT
REMARK Flexibility Score: inf
ROOT
ATOM      1  C   UNL     1      -6.942 -10.159  53.719  1.00  0.00     0.004 C 
ENDROOT
BRANCH   1   2
ATOM      2  C   UNL     1      -5.895 -11.014  52.995  1.00  0.00     0.027 C 
BRANCH   2   3
ATOM      3  C   UNL     1      -5.697 -12.340  53.676  1.00  0.00    -0.025 C 
ATOM      4  C   UNL     1      -6.144 -13.478  53.137  1.00  0.00     0.020 C 
BRANCH   4   5
ATOM      5  C   UNL     1      -5.982 -14.776  53.810  1.00  0.00     0.064 C 
ATOM      6  O   UNL     1      -4.878 -15.377  53.743  1.00  0.00    -0.545 OA
ATOM      7  O   UNL     1      -7.030 -15.351  54.519  1.00  0.00    -0.545 OA
ENDBRANCH   4   5
ENDBRANCH   2   3
ENDBRANCH   1   2
BRANCH   1   8
ATOM      8  C   UNL     1      -8.376 -10.506  53.280  1.00  0.00     0.000 C 
BRANCH   8   9
ATOM      9  C   UNL     1      -8.587 -10.344  51.767  1.00  0.00    -0.000 C 
BRANCH   9  10
ATOM     10  C   UNL     1      -9.054 -11.642  51.091  1.00  0.00    -0.003 C 
ATOM     11  C   UNL     1      -8.036 -12.121  50.060  1.00  0.00     0.004 C 
ENDBRANCH   9  10
ENDBRANCH   8   9
ENDBRANCH   1   8
TORSDOF 6
ENDMDL
