MODEL 1
REMARK VINA RESULT:    -4.200      0.000      0.000
REMARK INTER + INTRA:          -6.277
REMARK INTER:                  -5.304
REMARK INTRA:                  -0.973
REMARK UNBOUND:                -0.973
REMARK SMILES O=C(C=Cc1ccc(O)cc1)c1ccc(O)cc1O
REMARK SMILES IDX 4 1 3 2 5 3 6 4 7 5 8 6 11 7 10 8 9 9 2 11 1 12 12 13 18 14
REMARK SMILES IDX 13 15 17 16 14 17 15 18 19 19 16 21
REMARK H PARENT 9 10 19 20 16 22
REMARK Flexibility Score: inf
ROOT
ATOM      1  C   UNL     1      10.731   5.986  -0.321  1.00  0.00     0.012 C 
ATOM      2  C   UNL     1      10.212   7.129  -0.796  1.00  0.00     0.053 C 
ENDROOT
BRANCH   1   3
ATOM      3  C   UNL     1      11.578   5.049  -1.089  1.00  0.00    -0.025 A 
ATOM      4  C   UNL     1      12.889   4.797  -0.658  1.00  0.00     0.012 A 
ATOM      5  C   UNL     1      13.692   3.879  -1.344  1.00  0.00     0.047 A 
ATOM      6  C   UNL     1      13.187   3.191  -2.450  1.00  0.00     0.115 A 
ATOM      7  C   UNL     1      11.063   4.332  -2.183  1.00  0.00     0.012 A 
ATOM      8  C   UNL     1      11.867   3.417  -2.867  1.00  0.00     0.047 A 
BRANCH   6   9
ATOM      9  O   UNL     1      13.998   2.281  -3.125  1.00  0.00    -0.508 OA
ATOM     10  H   UNL     1      13.741   1.915  -4.034  1.00  0.00     0.293 HD
ENDBRANCH   6   9
ENDBRANCH   1   3
BRANCH   2  11
ATOM     11  C   UNL     1      10.542   7.746  -2.104  1.00  0.00     0.189 C 
ATOM     12  O   UNL     1       9.840   7.502  -3.122  1.00  0.00    -0.289 OA
BRANCH  11  13
ATOM     13  C   UNL     1      11.744   8.593  -2.248  1.00  0.00     0.064 A 
ATOM     14  C   UNL     1      11.698   9.991  -2.023  1.00  0.00     0.130 A 
ATOM     15  C   UNL     1      12.956   8.009  -2.659  1.00  0.00     0.020 A 
ATOM     16  C   UNL     1      12.845  10.767  -2.230  1.00  0.00     0.093 A 
ATOM     17  C   UNL     1      14.096   8.793  -2.851  1.00  0.00     0.047 A 
ATOM     18  C   UNL     1      14.044  10.172  -2.641  1.00  0.00     0.119 A 
BRANCH  14  19
ATOM     19  O   UNL     1      10.543  10.634  -1.572  1.00  0.00    -0.507 OA
ATOM     20  H   UNL     1       9.908  11.128  -2.186  1.00  0.00     0.293 HD
ENDBRANCH  14  19
BRANCH  18  21
ATOM     21  O   UNL     1      15.187  10.941  -2.842  1.00  0.00    -0.508 OA
ATOM     22  H   UNL     1      15.803  10.778  -3.629  1.00  0.00     0.293 HD
ENDBRANCH  18  21
ENDBRANCH  11  13
ENDBRANCH   2  11
TORSDOF 6
ENDMDL
MODEL 2
REMARK VINA RESULT:    -3.829      4.654      9.157
REMARK INTER + INTRA:          -5.810
REMARK INTER:                  -5.067
REMARK INTRA:                  -0.743
REMARK UNBOUND:                -0.973
REMARK SMILES O=C(C=Cc1ccc(O)cc1)c1ccc(O)cc1O
REMARK SMILES IDX 4 1 3 2 5 3 6 4 7 5 8 6 11 7 10 8 9 9 2 11 1 12 12 13 18 14
REMARK SMILES IDX 13 15 17 16 14 17 15 18 19 19 16 21
REMARK H PARENT 9 10 19 20 16 22
REMARK Flexibility Score: inf
ROOT
ATOM      1  C   UNL     1      12.467  15.810  -2.765  1.00  0.00     0.012 C 
ATOM      2  C   UNL     1      12.302  14.527  -3.125  1.00  0.00     0.053 C 
ENDROOT
BRANCH   1   3
ATOM      3  C   UNL     1      12.561  16.301  -1.375  1.00  0.00    -0.025 A 
ATOM      4  C   UNL     1      13.817  16.364  -0.751  1.00  0.00     0.012 A 
ATOM      5  C   UNL     1      13.934  16.868   0.548  1.00  0.00     0.047 A 
ATOM      6  C   UNL     1      12.805  17.335   1.227  1.00  0.00     0.115 A 
ATOM      7  C   UNL     1      11.433  16.800  -0.702  1.00  0.00     0.012 A 
ATOM      8  C   UNL     1      11.553  17.304   0.597  1.00  0.00     0.047 A 
BRANCH   6   9
ATOM      9  O   UNL     1      12.937  17.834   2.521  1.00  0.00    -0.508 OA
ATOM     10  H   UNL     1      12.296  18.527   2.889  1.00  0.00     0.293 HD
ENDBRANCH   6   9
ENDBRANCH   1   3
BRANCH   2  11
ATOM     11  C   UNL     1      12.372  13.362  -2.209  1.00  0.00     0.189 C 
ATOM     12  O   UNL     1      11.660  13.322  -1.169  1.00  0.00    -0.289 OA
BRANCH  11  13
ATOM     13  C   UNL     1      13.331  12.267  -2.463  1.00  0.00     0.064 A 
ATOM     14  C   UNL     1      12.994  10.914  -2.217  1.00  0.00     0.130 A 
ATOM     15  C   UNL     1      14.625  12.575  -2.922  1.00  0.00     0.020 A 
ATOM     16  C   UNL     1      13.953   9.912  -2.414  1.00  0.00     0.093 A 
ATOM     17  C   UNL     1      15.567  11.565  -3.124  1.00  0.00     0.047 A 
ATOM     18  C   UNL     1      15.237  10.233  -2.868  1.00  0.00     0.119 A 
BRANCH  14  19
ATOM     19  O   UNL     1      11.717  10.528  -1.803  1.00  0.00    -0.507 OA
ATOM     20  H   UNL     1      11.005  11.187  -1.517  1.00  0.00     0.293 HD
ENDBRANCH  14  19
BRANCH  18  21
ATOM     21  O   UNL     1      16.190   9.238  -3.070  1.00  0.00    -0.508 OA
ATOM     22  H   UNL     1      16.213   8.403  -2.495  1.00  0.00     0.293 HD
ENDBRANCH  18  21
ENDBRANCH  11  13
ENDBRANCH   2  11
TORSDOF 6
ENDMDL
MODEL 3
REMARK VINA RESULT:    -3.641      1.579      5.920
REMARK INTER + INTRA:          -5.571
REMARK INTER:                  -5.196
REMARK INTRA:                  -0.375
REMARK UNBOUND:                -0.973
REMARK SMILES O=C(C=Cc1ccc(O)cc1)c1ccc(O)cc1O
REMARK SMILES IDX 4 1 3 2 5 3 6 4 7 5 8 6 11 7 10 8 9 9 2 11 1 12 12 13 18 14
REMARK SMILES IDX 13 15 17 16 14 17 15 18 19 19 16 21
REMARK H PARENT 9 10 19 20 16 22
REMARK Flexibility Score: inf
ROOT
ATOM      1  C   UNL     1      10.444   7.220  -2.695  1.00  0.00     0.012 C 
ATOM      2  C   UNL     1      10.276   6.056  -2.049  1.00  0.00     0.053 C 
ENDROOT
BRANCH   1   3
ATOM      3  C   UNL     1      11.582   8.144  -2.509  1.00  0.00    -0.025 A 
ATOM      4  C   UNL     1      12.809   7.856  -3.125  1.00  0.00     0.012 A 
ATOM      5  C   UNL     1      13.886   8.740  -2.999  1.00  0.00     0.047 A 
ATOM      6  C   UNL     1      13.741   9.928  -2.276  1.00  0.00     0.115 A 
ATOM      7  C   UNL     1      11.430   9.354  -1.810  1.00  0.00     0.012 A 
ATOM      8  C   UNL     1      12.507  10.236  -1.684  1.00  0.00     0.047 A 
BRANCH   6   9
ATOM      9  O   UNL     1      14.822  10.799  -2.157  1.00  0.00    -0.508 OA
ATOM     10  H   UNL     1      15.560  10.824  -2.851  1.00  0.00     0.293 HD
ENDBRANCH   6   9
ENDBRANCH   1   3
BRANCH   2  11
ATOM     11  C   UNL     1      11.283   5.404  -1.177  1.00  0.00     0.189 C 
ATOM     12  O   UNL     1      11.420   5.765   0.023  1.00  0.00    -0.289 OA
BRANCH  11  13
ATOM     13  C   UNL     1      12.192   4.376  -1.724  1.00  0.00     0.064 A 
ATOM     14  C   UNL     1      11.735   3.389  -2.632  1.00  0.00     0.130 A 
ATOM     15  C   UNL     1      13.535   4.348  -1.305  1.00  0.00     0.020 A 
ATOM     16  C   UNL     1      12.616   2.396  -3.080  1.00  0.00     0.093 A 
ATOM     17  C   UNL     1      14.405   3.359  -1.769  1.00  0.00     0.047 A 
ATOM     18  C   UNL     1      13.949   2.379  -2.652  1.00  0.00     0.119 A 
BRANCH  14  19
ATOM     19  O   UNL     1      10.429   3.379  -3.125  1.00  0.00    -0.507 OA
ATOM     20  H   UNL     1      10.074   2.659  -3.741  1.00  0.00     0.293 HD
ENDBRANCH  14  19
BRANCH  18  21
ATOM     21  O   UNL     1      14.827   1.396  -3.101  1.00  0.00    -0.508 OA
ATOM     22  H   UNL     1      15.827   1.475  -2.960  1.00  0.00     0.293 HD
ENDBRANCH  18  21
ENDBRANCH  11  13
ENDBRANCH   2  11
TORSDOF 6
ENDMDL
MODEL 4
REMARK VINA RESULT:    -3.561      2.246      3.392
REMARK INTER + INTRA:          -5.471
REMARK INTER:                  -5.098
REMARK INTRA:                  -0.372
REMARK UNBOUND:                -0.973
REMARK SMILES O=C(C=Cc1ccc(O)cc1)c1ccc(O)cc1O
REMARK SMILES IDX 4 1 3 2 5 3 6 4 7 5 8 6 11 7 10 8 9 9 2 11 1 12 12 13 18 14
REMARK SMILES IDX 13 15 17 16 14 17 15 18 19 19 16 21
REMARK H PARENT 9 10 19 20 16 22
REMARK Flexibility Score: inf
ROOT
ATOM      1  C   UNL     1       9.047   6.509  -1.988  1.00  0.00     0.012 C 
ATOM      2  C   UNL     1       8.883   7.794  -2.339  1.00  0.00     0.053 C 
ENDROOT
BRANCH   1   3
ATOM      3  C   UNL     1      10.348   5.828  -1.826  1.00  0.00    -0.025 A 
ATOM      4  C   UNL     1      10.912   5.718  -0.546  1.00  0.00     0.012 A 
ATOM      5  C   UNL     1      12.120   5.037  -0.364  1.00  0.00     0.047 A 
ATOM      6  C   UNL     1      12.764   4.442  -1.453  1.00  0.00     0.115 A 
ATOM      7  C   UNL     1      10.982   5.202  -2.913  1.00  0.00     0.012 A 
ATOM      8  C   UNL     1      12.190   4.523  -2.729  1.00  0.00     0.047 A 
BRANCH   6   9
ATOM      9  O   UNL     1      13.968   3.769  -1.257  1.00  0.00    -0.508 OA
ATOM     10  H   UNL     1      14.426   3.272  -2.013  1.00  0.00     0.293 HD
ENDBRANCH   6   9
ENDBRANCH   1   3
BRANCH   2  11
ATOM     11  C   UNL     1       9.967   8.801  -2.446  1.00  0.00     0.189 C 
ATOM     12  O   UNL     1      11.098   8.479  -2.901  1.00  0.00    -0.289 OA
BRANCH  11  13
ATOM     13  C   UNL     1       9.760  10.178  -1.949  1.00  0.00     0.064 A 
ATOM     14  C   UNL     1      10.789  10.888  -1.284  1.00  0.00     0.130 A 
ATOM     15  C   UNL     1       8.501  10.785  -2.102  1.00  0.00     0.020 A 
ATOM     16  C   UNL     1      10.534  12.168  -0.775  1.00  0.00     0.093 A 
ATOM     17  C   UNL     1       8.263  12.067  -1.599  1.00  0.00     0.047 A 
ATOM     18  C   UNL     1       9.275  12.759  -0.932  1.00  0.00     0.119 A 
BRANCH  14  19
ATOM     19  O   UNL     1      12.076  10.367  -1.134  1.00  0.00    -0.507 OA
ATOM     20  H   UNL     1      12.329   9.716  -0.401  1.00  0.00     0.293 HD
ENDBRANCH  14  19
BRANCH  18  21
ATOM     21  O   UNL     1       9.020  14.034  -0.432  1.00  0.00    -0.508 OA
ATOM     22  H   UNL     1       8.173  14.536  -0.668  1.00  0.00     0.293 HD
ENDBRANCH  18  21
ENDBRANCH  11  13
ENDBRANCH   2  11
TORSDOF 6
ENDMDL
MODEL 5
REMARK VINA RESULT:    -3.467      5.674      8.479
REMARK INTER + INTRA:          -5.351
REMARK INTER:                  -4.116
REMARK INTRA:                  -1.235
REMARK UNBOUND:                -0.973
REMARK SMILES O=C(C=Cc1ccc(O)cc1)c1ccc(O)cc1O
REMARK SMILES IDX 4 1 3 2 5 3 6 4 7 5 8 6 11 7 10 8 9 9 2 11 1 12 12 13 18 14
REMARK SMILES IDX 13 15 17 16 14 17 15 18 19 19 16 21
REMARK H PARENT 9 10 19 20 16 22
REMARK Flexibility Score: inf
ROOT
ATOM      1  C   UNL     1       8.451  14.208  -1.065  1.00  0.00     0.012 C 
ATOM      2  C   UNL     1       8.578  15.521  -1.312  1.00  0.00     0.053 C 
ENDROOT
BRANCH   1   3
ATOM      3  C   UNL     1       9.499  13.192  -1.294  1.00  0.00    -0.025 A 
ATOM      4  C   UNL     1       9.702  12.692  -2.589  1.00  0.00     0.012 A 
ATOM      5  C   UNL     1      10.718  11.764  -2.836  1.00  0.00     0.047 A 
ATOM      6  C   UNL     1      11.555  11.343  -1.798  1.00  0.00     0.115 A 
ATOM      7  C   UNL     1      10.361  12.790  -0.259  1.00  0.00     0.012 A 
ATOM      8  C   UNL     1      11.376  11.862  -0.507  1.00  0.00     0.047 A 
BRANCH   6   9
ATOM      9  O   UNL     1      12.562  10.416  -2.058  1.00  0.00    -0.508 OA
ATOM     10  H   UNL     1      12.441   9.682  -2.746  1.00  0.00     0.293 HD
ENDBRANCH   6   9
ENDBRANCH   1   3
BRANCH   2  11
ATOM     11  C   UNL     1       9.839  16.209  -1.680  1.00  0.00     0.189 C 
ATOM     12  O   UNL     1      10.174  16.327  -2.889  1.00  0.00    -0.289 OA
BRANCH  11  13
ATOM     13  C   UNL     1      10.758  16.699  -0.630  1.00  0.00     0.064 A 
ATOM     14  C   UNL     1      12.066  16.176  -0.488  1.00  0.00     0.130 A 
ATOM     15  C   UNL     1      10.312  17.677   0.276  1.00  0.00     0.020 A 
ATOM     16  C   UNL     1      12.884  16.624   0.557  1.00  0.00     0.093 A 
ATOM     17  C   UNL     1      11.142  18.123   1.307  1.00  0.00     0.047 A 
ATOM     18  C   UNL     1      12.426  17.596   1.453  1.00  0.00     0.119 A 
BRANCH  14  19
ATOM     19  O   UNL     1      12.592  15.235  -1.376  1.00  0.00    -0.507 OA
ATOM     20  H   UNL     1      12.029  14.535  -1.840  1.00  0.00     0.293 HD
ENDBRANCH  14  19
BRANCH  18  21
ATOM     21  O   UNL     1      13.240  18.047   2.490  1.00  0.00    -0.508 OA
ATOM     22  H   UNL     1      13.276  19.026   2.747  1.00  0.00     0.293 HD
ENDBRANCH  18  21
ENDBRANCH  11  13
ENDBRANCH   2  11
TORSDOF 6
ENDMDL
MODEL 6
REMARK VINA RESULT:    -3.304      3.823      8.207
REMARK INTER + INTRA:          -5.146
REMARK INTER:                  -4.214
REMARK INTRA:                  -0.932
REMARK UNBOUND:                -0.973
REMARK SMILES O=C(C=Cc1ccc(O)cc1)c1ccc(O)cc1O
REMARK SMILES IDX 4 1 3 2 5 3 6 4 7 5 8 6 11 7 10 8 9 9 2 11 1 12 12 13 18 14
REMARK SMILES IDX 13 15 17 16 14 17 15 18 19 19 16 21
REMARK H PARENT 9 10 19 20 16 22
REMARK Flexibility Score: inf
ROOT
ATOM      1  C   UNL     1      10.855  14.359  -2.944  1.00  0.00     0.012 C 
ATOM      2  C   UNL     1      10.280  13.157  -2.783  1.00  0.00     0.053 C 
ENDROOT
BRANCH   1   3
ATOM      3  C   UNL     1      11.733  15.024  -1.959  1.00  0.00    -0.025 A 
ATOM      4  C   UNL     1      13.118  14.809  -2.016  1.00  0.00     0.012 A 
ATOM      5  C   UNL     1      13.971  15.465  -1.122  1.00  0.00     0.047 A 
ATOM      6  C   UNL     1      13.451  16.357  -0.179  1.00  0.00     0.115 A 
ATOM      7  C   UNL     1      11.217  15.946  -1.032  1.00  0.00     0.012 A 
ATOM      8  C   UNL     1      12.071  16.600  -0.139  1.00  0.00     0.047 A 
BRANCH   6   9
ATOM      9  O   UNL     1      14.312  17.002   0.706  1.00  0.00    -0.508 OA
ATOM     10  H   UNL     1      14.044  17.860   1.175  1.00  0.00     0.293 HD
ENDBRANCH   6   9
ENDBRANCH   1   3
BRANCH   2  11
ATOM     11  C   UNL     1      10.567  12.208  -1.680  1.00  0.00     0.189 C 
ATOM     12  O   UNL     1      10.227  12.480  -0.497  1.00  0.00    -0.289 OA
BRANCH  11  13
ATOM     13  C   UNL     1      11.323  10.965  -1.940  1.00  0.00     0.064 A 
ATOM     14  C   UNL     1      10.721   9.689  -1.806  1.00  0.00     0.130 A 
ATOM     15  C   UNL     1      12.683  11.044  -2.289  1.00  0.00     0.020 A 
ATOM     16  C   UNL     1      11.490   8.535  -2.002  1.00  0.00     0.093 A 
ATOM     17  C   UNL     1      13.434   9.885  -2.493  1.00  0.00     0.047 A 
ATOM     18  C   UNL     1      12.843   8.629  -2.347  1.00  0.00     0.119 A 
BRANCH  14  19
ATOM     19  O   UNL     1       9.367   9.533  -1.505  1.00  0.00    -0.507 OA
ATOM     20  H   UNL     1       9.031   9.224  -0.602  1.00  0.00     0.293 HD
ENDBRANCH  14  19
BRANCH  18  21
ATOM     21  O   UNL     1      13.607   7.482  -2.548  1.00  0.00    -0.508 OA
ATOM     22  H   UNL     1      13.209   6.647  -2.960  1.00  0.00     0.293 HD
ENDBRANCH  18  21
ENDBRANCH  11  13
ENDBRANCH   2  11
TORSDOF 6
ENDMDL
MODEL 7
REMARK VINA RESULT:    -3.291      7.663     10.336
REMARK INTER + INTRA:          -5.130
REMARK INTER:                  -4.071
REMARK INTRA:                  -1.059
REMARK UNBOUND:                -0.973
REMARK SMILES O=C(C=Cc1ccc(O)cc1)c1ccc(O)cc1O
REMARK SMILES IDX 4 1 3 2 5 3 6 4 7 5 8 6 11 7 10 8 9 9 2 11 1 12 12 13 18 14
REMARK SMILES IDX 13 15 17 16 14 17 15 18 19 19 16 21
REMARK H PARENT 9 10 19 20 16 22
REMARK Flexibility Score: inf
ROOT
ATOM      1  C   UNL     1      11.730  17.804   0.599  1.00  0.00     0.012 C 
ATOM      2  C   UNL     1      10.402  17.724   0.423  1.00  0.00     0.053 C 
ENDROOT
BRANCH   1   3
ATOM      3  C   UNL     1      12.748  17.250  -0.317  1.00  0.00    -0.025 A 
ATOM      4  C   UNL     1      13.216  15.943  -0.116  1.00  0.00     0.012 A 
ATOM      5  C   UNL     1      14.145  15.383  -0.998  1.00  0.00     0.047 A 
ATOM      6  C   UNL     1      14.598  16.113  -2.101  1.00  0.00     0.115 A 
ATOM      7  C   UNL     1      13.181  17.970  -1.444  1.00  0.00     0.012 A 
ATOM      8  C   UNL     1      14.110  17.408  -2.325  1.00  0.00     0.047 A 
BRANCH   6   9
ATOM      9  O   UNL     1      15.525  15.543  -2.971  1.00  0.00    -0.508 OA
ATOM     10  H   UNL     1      15.368  15.520  -3.972  1.00  0.00     0.293 HD
ENDBRANCH   6   9
ENDBRANCH   1   3
BRANCH   2  11
ATOM     11  C   UNL     1       9.725  17.233  -0.802  1.00  0.00     0.189 C 
ATOM     12  O   UNL     1       9.578  17.991  -1.799  1.00  0.00    -0.289 OA
BRANCH  11  13
ATOM     13  C   UNL     1       9.146  15.874  -0.843  1.00  0.00     0.064 A 
ATOM     14  C   UNL     1       7.773  15.645  -0.578  1.00  0.00     0.130 A 
ATOM     15  C   UNL     1       9.982  14.775  -1.110  1.00  0.00     0.020 A 
ATOM     16  C   UNL     1       7.277  14.335  -0.568  1.00  0.00     0.093 A 
ATOM     17  C   UNL     1       9.471  13.475  -1.108  1.00  0.00     0.047 A 
ATOM     18  C   UNL     1       8.121  13.251  -0.833  1.00  0.00     0.119 A 
BRANCH  14  19
ATOM     19  O   UNL     1       6.875  16.689  -0.348  1.00  0.00    -0.507 OA
ATOM     20  H   UNL     1       6.230  16.704   0.431  1.00  0.00     0.293 HD
ENDBRANCH  14  19
BRANCH  18  21
ATOM     21  O   UNL     1       7.628  11.948  -0.829  1.00  0.00    -0.508 OA
ATOM     22  H   UNL     1       8.024  11.235  -0.228  1.00  0.00     0.293 HD
ENDBRANCH  18  21
ENDBRANCH  11  13
ENDBRANCH   2  11
TORSDOF 6
ENDMDL
