MODEL 1
REMARK VINA RESULT:    -3.826      0.000      0.000
REMARK INTER + INTRA:          -5.974
REMARK INTER:                  -5.392
REMARK INTRA:                  -0.582
REMARK UNBOUND:                -0.582
REMARK SMILES C=CCCCCCCC(=O)[O-]
REMARK SMILES IDX 6 1 7 2 8 3 9 4 10 5 11 6 5 7 4 8 3 9 2 10 1 11
REMARK H PARENT
REMARK Flexibility Score: inf
ROOT
ATOM      1  C   UNL     1      -2.166   3.249  17.242  1.00  0.00     0.000 C 
ENDROOT
BRANCH   1   2
ATOM      2  C   UNL     1      -3.344   3.396  16.267  1.00  0.00     0.006 C 
BRANCH   2   3
ATOM      3  C   UNL     1      -2.926   4.058  14.949  1.00  0.00     0.053 C 
BRANCH   3   4
ATOM      4  C   UNL     1      -3.075   3.125  13.786  1.00  0.00     0.041 C 
ATOM      5  O   UNL     1      -2.217   3.116  12.865  1.00  0.00    -0.550 OA
ATOM      6  O   UNL     1      -4.147   2.241  13.737  1.00  0.00    -0.550 OA
ENDBRANCH   3   4
ENDBRANCH   2   3
ENDBRANCH   1   2
BRANCH   1   7
ATOM      7  C   UNL     1      -1.108   4.331  16.990  1.00  0.00     0.000 C 
BRANCH   7   8
ATOM      8  C   UNL     1       0.300   3.723  16.941  1.00  0.00     0.004 C 
BRANCH   8   9
ATOM      9  C   UNL     1       0.802   3.616  15.496  1.00  0.00     0.027 C 
BRANCH   9  10
ATOM     10  C   UNL     1       0.759   2.193  15.009  1.00  0.00    -0.035 C 
ATOM     11  C   UNL     1       1.865   1.452  14.904  1.00  0.00     0.004 C 
ENDBRANCH   9  10
ENDBRANCH   8   9
ENDBRANCH   7   8
ENDBRANCH   1   7
TORSDOF 7
ENDMDL
MODEL 2
REMARK VINA RESULT:    -3.757      2.377      4.247
REMARK INTER + INTRA:          -5.877
REMARK INTER:                  -5.197
REMARK INTRA:                  -0.679
REMARK UNBOUND:                -0.582
REMARK SMILES C=CCCCCCCC(=O)[O-]
REMARK SMILES IDX 6 1 7 2 8 3 9 4 10 5 11 6 5 7 4 8 3 9 2 10 1 11
REMARK H PARENT
REMARK Flexibility Score: inf
ROOT
ATOM      1  C   UNL     1       0.284   4.059  16.166  1.00  0.00     0.000 C 
ENDROOT
BRANCH   1   2
ATOM      2  C   UNL     1       1.101   2.960  16.861  1.00  0.00     0.006 C 
BRANCH   2   3
ATOM      3  C   UNL     1       1.466   1.817  15.905  1.00  0.00     0.053 C 
BRANCH   3   4
ATOM      4  C   UNL     1       0.431   0.734  15.913  1.00  0.00     0.041 C 
ATOM      5  O   UNL     1       0.387  -0.109  14.979  1.00  0.00    -0.550 OA
ATOM      6  O   UNL     1      -0.465   0.636  16.971  1.00  0.00    -0.550 OA
ENDBRANCH   3   4
ENDBRANCH   2   3
ENDBRANCH   1   2
BRANCH   1   7
ATOM      7  C   UNL     1      -1.056   4.279  16.879  1.00  0.00     0.000 C 
BRANCH   7   8
ATOM      8  C   UNL     1      -2.215   3.687  16.068  1.00  0.00     0.004 C 
BRANCH   8   9
ATOM      9  C   UNL     1      -1.820   3.504  14.597  1.00  0.00     0.027 C 
BRANCH   9  10
ATOM     10  C   UNL     1      -2.751   4.257  13.686  1.00  0.00    -0.035 C 
ATOM     11  C   UNL     1      -2.919   5.578  13.787  1.00  0.00     0.004 C 
ENDBRANCH   9  10
ENDBRANCH   8   9
ENDBRANCH   7   8
ENDBRANCH   1   7
TORSDOF 7
ENDMDL
MODEL 3
REMARK VINA RESULT:    -3.681      2.728      4.748
REMARK INTER + INTRA:          -5.770
REMARK INTER:                  -5.113
REMARK INTRA:                  -0.657
REMARK UNBOUND:                -0.582
REMARK SMILES C=CCCCCCCC(=O)[O-]
REMARK SMILES IDX 6 1 7 2 8 3 9 4 10 5 11 6 5 7 4 8 3 9 2 10 1 11
REMARK H PARENT
REMARK Flexibility Score: inf
ROOT
ATOM      1  C   UNL     1      -0.826   0.930  15.460  1.00  0.00     0.000 C 
ENDROOT
BRANCH   1   2
ATOM      2  C   UNL     1       0.678   1.221  15.364  1.00  0.00     0.006 C 
BRANCH   2   3
ATOM      3  C   UNL     1       0.980   2.725  15.371  1.00  0.00     0.053 C 
BRANCH   3   4
ATOM      4  C   UNL     1       0.907   3.300  16.753  1.00  0.00     0.041 C 
ATOM      5  O   UNL     1      -0.008   4.109  17.056  1.00  0.00    -0.550 OA
ATOM      6  O   UNL     1       1.832   2.915  17.715  1.00  0.00    -0.550 OA
ENDBRANCH   3   4
ENDBRANCH   2   3
ENDBRANCH   1   2
BRANCH   1   7
ATOM      7  C   UNL     1      -1.628   1.888  14.570  1.00  0.00     0.000 C 
BRANCH   7   8
ATOM      8  C   UNL     1      -2.940   2.303  15.249  1.00  0.00     0.004 C 
BRANCH   8   9
ATOM      9  C   UNL     1      -3.034   3.828  15.376  1.00  0.00     0.027 C 
BRANCH   9  10
ATOM     10  C   UNL     1      -2.323   4.514  14.241  1.00  0.00    -0.035 C 
ATOM     11  C   UNL     1      -2.841   5.584  13.632  1.00  0.00     0.004 C 
ENDBRANCH   9  10
ENDBRANCH   8   9
ENDBRANCH   7   8
ENDBRANCH   1   7
TORSDOF 7
ENDMDL
MODEL 4
REMARK VINA RESULT:    -3.676      1.323      1.948
REMARK INTER + INTRA:          -5.762
REMARK INTER:                  -5.415
REMARK INTRA:                  -0.347
REMARK UNBOUND:                -0.582
REMARK SMILES C=CCCCCCCC(=O)[O-]
REMARK SMILES IDX 6 1 7 2 8 3 9 4 10 5 11 6 5 7 4 8 3 9 2 10 1 11
REMARK H PARENT
REMARK Flexibility Score: inf
ROOT
ATOM      1  C   UNL     1      -0.443   3.641  15.544  1.00  0.00     0.000 C 
ENDROOT
BRANCH   1   2
ATOM      2  C   UNL     1      -1.725   4.057  16.278  1.00  0.00     0.006 C 
BRANCH   2   3
ATOM      3  C   UNL     1      -2.989   3.698  15.486  1.00  0.00     0.053 C 
BRANCH   3   4
ATOM      4  C   UNL     1      -2.919   4.193  14.073  1.00  0.00     0.041 C 
ATOM      5  O   UNL     1      -2.915   3.378  13.115  1.00  0.00    -0.550 OA
ATOM      6  O   UNL     1      -2.891   5.559  13.816  1.00  0.00    -0.550 OA
ENDBRANCH   3   4
ENDBRANCH   2   3
ENDBRANCH   1   2
BRANCH   1   7
ATOM      7  C   UNL     1       0.785   3.807  16.447  1.00  0.00     0.000 C 
BRANCH   7   8
ATOM      8  C   UNL     1       1.416   2.447  16.776  1.00  0.00     0.004 C 
BRANCH   8   9
ATOM      9  C   UNL     1       1.061   1.405  15.708  1.00  0.00     0.027 C 
BRANCH   9  10
ATOM     10  C   UNL     1       2.163   1.269  14.693  1.00  0.00    -0.035 C 
ATOM     11  C   UNL     1       2.758   0.097  14.454  1.00  0.00     0.004 C 
ENDBRANCH   9  10
ENDBRANCH   8   9
ENDBRANCH   7   8
ENDBRANCH   1   7
TORSDOF 7
ENDMDL
MODEL 5
REMARK VINA RESULT:    -3.665      1.039      1.546
REMARK INTER + INTRA:          -5.748
REMARK INTER:                  -5.142
REMARK INTRA:                  -0.606
REMARK UNBOUND:                -0.582
REMARK SMILES C=CCCCCCCC(=O)[O-]
REMARK SMILES IDX 6 1 7 2 8 3 9 4 10 5 11 6 5 7 4 8 3 9 2 10 1 11
REMARK H PARENT
REMARK Flexibility Score: inf
ROOT
ATOM      1  C   UNL     1      -2.121   3.258  16.145  1.00  0.00     0.000 C 
ENDROOT
BRANCH   1   2
ATOM      2  C   UNL     1      -2.465   3.893  14.790  1.00  0.00     0.006 C 
BRANCH   2   3
ATOM      3  C   UNL     1      -2.146   2.960  13.614  1.00  0.00     0.053 C 
BRANCH   3   4
ATOM      4  C   UNL     1      -3.382   2.318  13.063  1.00  0.00     0.041 C 
ATOM      5  O   UNL     1      -4.392   2.152  13.795  1.00  0.00    -0.550 OA
ATOM      6  O   UNL     1      -3.429   1.934  11.728  1.00  0.00    -0.550 OA
ENDBRANCH   3   4
ENDBRANCH   2   3
ENDBRANCH   1   2
BRANCH   1   7
ATOM      7  C   UNL     1      -1.176   4.159  16.949  1.00  0.00     0.000 C 
BRANCH   7   8
ATOM      8  C   UNL     1       0.241   4.134  16.363  1.00  0.00     0.004 C 
BRANCH   8   9
ATOM      9  C   UNL     1       1.109   3.083  17.066  1.00  0.00     0.027 C 
BRANCH   9  10
ATOM     10  C   UNL     1       1.484   1.970  16.126  1.00  0.00    -0.035 C 
ATOM     11  C   UNL     1       1.467   2.133  14.801  1.00  0.00     0.004 C 
ENDBRANCH   9  10
ENDBRANCH   8   9
ENDBRANCH   7   8
ENDBRANCH   1   7
TORSDOF 7
ENDMDL
MODEL 6
REMARK VINA RESULT:    -3.655     12.889     13.551
REMARK INTER + INTRA:          -5.733
REMARK INTER:                  -5.408
REMARK INTRA:                  -0.326
REMARK UNBOUND:                -0.582
REMARK SMILES C=CCCCCCCC(=O)[O-]
REMARK SMILES IDX 6 1 7 2 8 3 9 4 10 5 11 6 5 7 4 8 3 9 2 10 1 11
REMARK H PARENT
REMARK Flexibility Score: inf
ROOT
ATOM      1  C   UNL     1       5.728  -7.252  20.043  1.00  0.00     0.000 C 
ENDROOT
BRANCH   1   2
ATOM      2  C   UNL     1       5.481  -7.376  18.533  1.00  0.00     0.006 C 
BRANCH   2   3
ATOM      3  C   UNL     1       6.783  -7.304  17.725  1.00  0.00     0.053 C 
BRANCH   3   4
ATOM      4  C   UNL     1       6.525  -7.342  16.249  1.00  0.00     0.041 C 
ATOM      5  O   UNL     1       6.399  -8.444  15.655  1.00  0.00    -0.550 OA
ATOM      6  O   UNL     1       6.390  -6.157  15.536  1.00  0.00    -0.550 OA
ENDBRANCH   3   4
ENDBRANCH   2   3
ENDBRANCH   1   2
BRANCH   1   7
ATOM      7  C   UNL     1       6.743  -6.143  20.344  1.00  0.00     0.000 C 
BRANCH   7   8
ATOM      8  C   UNL     1       6.366  -5.384  21.623  1.00  0.00     0.004 C 
BRANCH   8   9
ATOM      9  C   UNL     1       5.266  -6.122  22.396  1.00  0.00     0.027 C 
BRANCH   9  10
ATOM     10  C   UNL     1       5.319  -5.794  23.864  1.00  0.00    -0.035 C 
ATOM     11  C   UNL     1       6.293  -5.042  24.382  1.00  0.00     0.004 C 
ENDBRANCH   9  10
ENDBRANCH   8   9
ENDBRANCH   7   8
ENDBRANCH   1   7
TORSDOF 7
ENDMDL
MODEL 7
REMARK VINA RESULT:    -3.615     13.503     15.341
REMARK INTER + INTRA:          -5.677
REMARK INTER:                  -4.874
REMARK INTRA:                  -0.803
REMARK UNBOUND:                -0.582
REMARK SMILES C=CCCCCCCC(=O)[O-]
REMARK SMILES IDX 6 1 7 2 8 3 9 4 10 5 11 6 5 7 4 8 3 9 2 10 1 11
REMARK H PARENT
REMARK Flexibility Score: inf
ROOT
ATOM      1  C   UNL     1     -13.087  -6.201  10.134  1.00  0.00     0.000 C 
ENDROOT
BRANCH   1   2
ATOM      2  C   UNL     1     -12.550  -4.996  10.920  1.00  0.00     0.006 C 
BRANCH   2   3
ATOM      3  C   UNL     1     -12.941  -5.050  12.403  1.00  0.00     0.053 C 
BRANCH   3   4
ATOM      4  C   UNL     1     -11.739  -5.031  13.296  1.00  0.00     0.041 C 
ATOM      5  O   UNL     1     -10.640  -5.491  12.891  1.00  0.00    -0.550 OA
ATOM      6  O   UNL     1     -11.825  -4.474  14.566  1.00  0.00    -0.550 OA
ENDBRANCH   3   4
ENDBRANCH   2   3
ENDBRANCH   1   2
BRANCH   1   7
ATOM      7  C   UNL     1     -12.079  -7.357  10.146  1.00  0.00     0.000 C 
BRANCH   7   8
ATOM      8  C   UNL     1     -12.613  -8.545  10.957  1.00  0.00     0.004 C 
BRANCH   8   9
ATOM      9  C   UNL     1     -11.734  -8.811  12.185  1.00  0.00     0.027 C 
BRANCH   9  10
ATOM     10  C   UNL     1     -12.530  -8.707  13.457  1.00  0.00    -0.035 C 
ATOM     11  C   UNL     1     -11.968  -8.336  14.610  1.00  0.00     0.004 C 
ENDBRANCH   9  10
ENDBRANCH   8   9
ENDBRANCH   7   8
ENDBRANCH   1   7
TORSDOF 7
ENDMDL
MODEL 8
REMARK VINA RESULT:    -3.612      2.086      4.047
REMARK INTER + INTRA:          -5.672
REMARK INTER:                  -5.166
REMARK INTRA:                  -0.507
REMARK UNBOUND:                -0.582
REMARK SMILES C=CCCCCCCC(=O)[O-]
REMARK SMILES IDX 6 1 7 2 8 3 9 4 10 5 11 6 5 7 4 8 3 9 2 10 1 11
REMARK H PARENT
REMARK Flexibility Score: inf
ROOT
ATOM      1  C   UNL     1      -0.191   4.005  16.064  1.00  0.00     0.000 C 
ENDROOT
BRANCH   1   2
ATOM      2  C   UNL     1       0.986   3.554  16.940  1.00  0.00     0.006 C 
BRANCH   2   3
ATOM      3  C   UNL     1       1.193   2.035  16.896  1.00  0.00     0.053 C 
BRANCH   3   4
ATOM      4  C   UNL     1       1.061   1.496  15.504  1.00  0.00     0.041 C 
ATOM      5  O   UNL     1       1.952   1.728  14.647  1.00  0.00    -0.550 OA
ATOM      6  O   UNL     1      -0.032   0.709  15.165  1.00  0.00    -0.550 OA
ENDBRANCH   3   4
ENDBRANCH   2   3
ENDBRANCH   1   2
BRANCH   1   7
ATOM      7  C   UNL     1      -1.514   3.918  16.834  1.00  0.00     0.000 C 
BRANCH   7   8
ATOM      8  C   UNL     1      -2.690   3.662  15.883  1.00  0.00     0.004 C 
BRANCH   8   9
ATOM      9  C   UNL     1      -2.680   4.657  14.716  1.00  0.00     0.027 C 
BRANCH   9  10
ATOM     10  C   UNL     1      -2.720   3.945  13.392  1.00  0.00    -0.035 C 
ATOM     11  C   UNL     1      -2.321   2.677  13.263  1.00  0.00     0.004 C 
ENDBRANCH   9  10
ENDBRANCH   8   9
ENDBRANCH   7   8
ENDBRANCH   1   7
TORSDOF 7
ENDMDL
MODEL 9
REMARK VINA RESULT:    -3.428     13.255     15.084
REMARK INTER + INTRA:          -5.413
REMARK INTER:                  -4.706
REMARK INTRA:                  -0.707
REMARK UNBOUND:                -0.582
REMARK SMILES C=CCCCCCCC(=O)[O-]
REMARK SMILES IDX 6 1 7 2 8 3 9 4 10 5 11 6 5 7 4 8 3 9 2 10 1 11
REMARK H PARENT
REMARK Flexibility Score: inf
ROOT
ATOM      1  C   UNL     1     -11.590  -7.937  14.413  1.00  0.00     0.000 C 
ENDROOT
BRANCH   1   2
ATOM      2  C   UNL     1     -10.904  -6.733  13.751  1.00  0.00     0.006 C 
BRANCH   2   3
ATOM      3  C   UNL     1     -11.137  -5.432  14.530  1.00  0.00     0.053 C 
BRANCH   3   4
ATOM      4  C   UNL     1     -12.231  -4.608  13.923  1.00  0.00     0.041 C 
ATOM      5  O   UNL     1     -12.744  -4.945  12.825  1.00  0.00    -0.550 OA
ATOM      6  O   UNL     1     -12.706  -3.485  14.590  1.00  0.00    -0.550 OA
ENDBRANCH   3   4
ENDBRANCH   2   3
ENDBRANCH   1   2
BRANCH   1   7
ATOM      7  C   UNL     1     -12.562  -8.617  13.441  1.00  0.00     0.000 C 
BRANCH   7   8
ATOM      8  C   UNL     1     -12.012  -8.600  12.009  1.00  0.00     0.004 C 
BRANCH   8   9
ATOM      9  C   UNL     1     -13.043  -8.021  11.032  1.00  0.00     0.027 C 
BRANCH   9  10
ATOM     10  C   UNL     1     -12.388  -7.119  10.022  1.00  0.00    -0.035 C 
ATOM     11  C   UNL     1     -11.075  -6.873  10.045  1.00  0.00     0.004 C 
ENDBRANCH   9  10
ENDBRANCH   8   9
ENDBRANCH   7   8
ENDBRANCH   1   7
TORSDOF 7
ENDMDL
