MODEL 1
REMARK VINA RESULT:    -4.074      0.000      0.000
REMARK INTER + INTRA:          -4.730
REMARK INTER:                  -4.669
REMARK INTRA:                  -0.060
REMARK UNBOUND:                -0.060
REMARK SMILES CC(C)[C@@H]([NH3+])C(=O)[O-]
REMARK SMILES IDX 4 1 5 2 6 6 7 7 8 8 2 9 1 10 3 11
REMARK H PARENT 5 3 5 4 5 5
REMARK Flexibility Score: inf
ROOT
ATOM      1  C   UNL     1       2.023  35.150  24.832  1.00  0.00     0.230 C 
ENDROOT
BRANCH   1   2
ATOM      2  N   UNL     1       2.823  33.950  25.120  1.00  0.00    -0.350 N 
ATOM      3  H   UNL     1       2.625  33.610  26.090  1.00  0.00     0.345 HD
ATOM      4  H   UNL     1       2.565  33.178  24.465  1.00  0.00     0.345 HD
ATOM      5  H   UNL     1       3.844  34.158  25.035  1.00  0.00     0.345 HD
ENDBRANCH   1   2
BRANCH   1   6
ATOM      6  C   UNL     1       0.877  34.779  23.923  1.00  0.00     0.099 C 
ATOM      7  O   UNL     1       1.088  34.106  22.880  1.00  0.00    -0.544 OA
ATOM      8  O   UNL     1      -0.418  35.180  24.230  1.00  0.00    -0.544 OA
ENDBRANCH   1   6
BRANCH   1   9
ATOM      9  C   UNL     1       1.497  35.824  26.136  1.00  0.00     0.047 C 
ATOM     10  C   UNL     1       2.042  37.256  26.282  1.00  0.00     0.014 C 
ATOM     11  C   UNL     1       1.867  35.015  27.390  1.00  0.00     0.014 C 
ENDBRANCH   1   9
TORSDOF 3
ENDMDL
MODEL 2
REMARK VINA RESULT:    -3.967     13.700     14.467
REMARK INTER + INTRA:          -4.607
REMARK INTER:                  -4.549
REMARK INTRA:                  -0.058
REMARK UNBOUND:                -0.060
REMARK SMILES CC(C)[C@@H]([NH3+])C(=O)[O-]
REMARK SMILES IDX 4 1 5 2 6 6 7 7 8 8 2 9 1 10 3 11
REMARK H PARENT 5 3 5 4 5 5
REMARK Flexibility Score: inf
ROOT
ATOM      1  C   UNL     1      -0.681  25.275  35.727  1.00  0.00     0.230 C 
ENDROOT
BRANCH   1   2
ATOM      2  N   UNL     1      -0.544  24.187  34.746  1.00  0.00    -0.350 N 
ATOM      3  H   UNL     1      -1.177  24.357  33.929  1.00  0.00     0.345 HD
ATOM      4  H   UNL     1       0.432  24.154  34.375  1.00  0.00     0.345 HD
ATOM      5  H   UNL     1      -0.788  23.266  35.178  1.00  0.00     0.345 HD
ENDBRANCH   1   2
BRANCH   1   6
ATOM      6  C   UNL     1       0.449  26.257  35.541  1.00  0.00     0.099 C 
ATOM      7  O   UNL     1       1.600  25.990  35.978  1.00  0.00    -0.544 OA
ATOM      8  O   UNL     1       0.225  27.465  34.890  1.00  0.00    -0.544 OA
ENDBRANCH   1   6
BRANCH   1   9
ATOM      9  C   UNL     1      -2.060  25.991  35.611  1.00  0.00     0.047 C 
ATOM     10  C   UNL     1      -2.710  26.175  36.994  1.00  0.00     0.014 C 
ATOM     11  C   UNL     1      -3.031  25.224  34.698  1.00  0.00     0.014 C 
ENDBRANCH   1   9
TORSDOF 3
ENDMDL
MODEL 3
REMARK VINA RESULT:    -3.916     14.200     14.923
REMARK INTER + INTRA:          -4.549
REMARK INTER:                  -4.488
REMARK INTRA:                  -0.061
REMARK UNBOUND:                -0.060
REMARK SMILES CC(C)[C@@H]([NH3+])C(=O)[O-]
REMARK SMILES IDX 4 1 5 2 6 6 7 7 8 8 2 9 1 10 3 11
REMARK H PARENT 5 3 5 4 5 5
REMARK Flexibility Score: inf
ROOT
ATOM      1  C   UNL     1      -1.058  24.518  35.518  1.00  0.00     0.230 C 
ENDROOT
BRANCH   1   2
ATOM      2  N   UNL     1      -1.638  23.904  34.313  1.00  0.00    -0.350 N 
ATOM      3  H   UNL     1      -2.592  23.528  34.524  1.00  0.00     0.345 HD
ATOM      4  H   UNL     1      -1.750  24.619  33.560  1.00  0.00     0.345 HD
ATOM      5  H   UNL     1      -1.034  23.122  33.969  1.00  0.00     0.345 HD
ENDBRANCH   1   2
BRANCH   1   6
ATOM      6  C   UNL     1       0.445  24.544  35.388  1.00  0.00     0.099 C 
ATOM      7  O   UNL     1       1.095  25.561  35.747  1.00  0.00    -0.544 OA
ATOM      8  O   UNL     1       1.121  23.445  34.870  1.00  0.00    -0.544 OA
ENDBRANCH   1   6
BRANCH   1   9
ATOM      9  C   UNL     1      -1.616  25.952  35.764  1.00  0.00     0.047 C 
ATOM     10  C   UNL     1      -2.219  26.080  37.175  1.00  0.00     0.014 C 
ATOM     11  C   UNL     1      -2.681  26.340  34.725  1.00  0.00     0.014 C 
ENDBRANCH   1   9
TORSDOF 3
ENDMDL
MODEL 4
REMARK VINA RESULT:    -3.853      2.934      3.674
REMARK INTER + INTRA:          -4.476
REMARK INTER:                  -4.432
REMARK INTRA:                  -0.044
REMARK UNBOUND:                -0.060
REMARK SMILES CC(C)[C@@H]([NH3+])C(=O)[O-]
REMARK SMILES IDX 4 1 5 2 6 6 7 7 8 8 2 9 1 10 3 11
REMARK H PARENT 5 3 5 4 5 5
REMARK Flexibility Score: inf
ROOT
ATOM      1  C   UNL     1       1.816  34.938  26.878  1.00  0.00     0.230 C 
ENDROOT
BRANCH   1   2
ATOM      2  N   UNL     1       3.279  34.915  26.723  1.00  0.00    -0.350 N 
ATOM      3  H   UNL     1       3.714  34.351  27.490  1.00  0.00     0.345 HD
ATOM      4  H   UNL     1       3.540  34.459  25.821  1.00  0.00     0.345 HD
ATOM      5  H   UNL     1       3.668  35.886  26.753  1.00  0.00     0.345 HD
ENDBRANCH   1   2
BRANCH   1   6
ATOM      6  C   UNL     1       1.471  34.909  28.347  1.00  0.00     0.099 C 
ATOM      7  O   UNL     1       0.818  33.945  28.826  1.00  0.00    -0.544 OA
ATOM      8  O   UNL     1       1.868  35.949  29.179  1.00  0.00    -0.544 OA
ENDBRANCH   1   6
BRANCH   1   9
ATOM      9  C   UNL     1       1.178  36.180  26.185  1.00  0.00     0.047 C 
ATOM     10  C   UNL     1       0.485  35.788  24.868  1.00  0.00     0.014 C 
ATOM     11  C   UNL     1       2.218  37.275  25.899  1.00  0.00     0.014 C 
ENDBRANCH   1   9
TORSDOF 3
ENDMDL
MODEL 5
REMARK VINA RESULT:    -3.846      2.236      2.639
REMARK INTER + INTRA:          -4.468
REMARK INTER:                  -4.410
REMARK INTRA:                  -0.058
REMARK UNBOUND:                -0.060
REMARK SMILES CC(C)[C@@H]([NH3+])C(=O)[O-]
REMARK SMILES IDX 4 1 5 2 6 6 7 7 8 8 2 9 1 10 3 11
REMARK H PARENT 5 3 5 4 5 5
REMARK Flexibility Score: inf
ROOT
ATOM      1  C   UNL     1       0.701  35.683  25.167  1.00  0.00     0.230 C 
ENDROOT
BRANCH   1   2
ATOM      2  N   UNL     1       0.475  34.717  24.081  1.00  0.00    -0.350 N 
ATOM      3  H   UNL     1      -0.460  34.260  24.194  1.00  0.00     0.345 HD
ATOM      4  H   UNL     1       0.468  35.206  23.157  1.00  0.00     0.345 HD
ATOM      5  H   UNL     1       1.216  33.979  24.082  1.00  0.00     0.345 HD
ENDBRANCH   1   2
BRANCH   1   6
ATOM      6  C   UNL     1      -0.394  35.542  26.195  1.00  0.00     0.099 C 
ATOM      7  O   UNL     1      -1.533  36.033  25.979  1.00  0.00    -0.544 OA
ATOM      8  O   UNL     1      -0.150  34.871  27.388  1.00  0.00    -0.544 OA
ENDBRANCH   1   6
BRANCH   1   9
ATOM      9  C   UNL     1       2.103  35.499  25.824  1.00  0.00     0.047 C 
ATOM     10  C   UNL     1       2.784  36.857  26.073  1.00  0.00     0.014 C 
ATOM     11  C   UNL     1       3.029  34.623  24.965  1.00  0.00     0.014 C 
ENDBRANCH   1   9
TORSDOF 3
ENDMDL
MODEL 6
REMARK VINA RESULT:    -3.813      2.261      2.676
REMARK INTER + INTRA:          -4.430
REMARK INTER:                  -4.370
REMARK INTRA:                  -0.061
REMARK UNBOUND:                -0.060
REMARK SMILES CC(C)[C@@H]([NH3+])C(=O)[O-]
REMARK SMILES IDX 4 1 5 2 6 6 7 7 8 8 2 9 1 10 3 11
REMARK H PARENT 5 3 5 4 5 5
REMARK Flexibility Score: inf
ROOT
ATOM      1  C   UNL     1       1.536  36.547  25.710  1.00  0.00     0.230 C 
ENDROOT
BRANCH   1   2
ATOM      2  N   UNL     1       2.674  37.449  25.942  1.00  0.00    -0.350 N 
ATOM      3  H   UNL     1       2.729  37.707  26.955  1.00  0.00     0.345 HD
ATOM      4  H   UNL     1       3.571  36.972  25.698  1.00  0.00     0.345 HD
ATOM      5  H   UNL     1       2.575  38.323  25.375  1.00  0.00     0.345 HD
ENDBRANCH   1   2
BRANCH   1   6
ATOM      6  C   UNL     1       2.052  35.197  25.277  1.00  0.00     0.099 C 
ATOM      7  O   UNL     1       2.916  34.596  25.970  1.00  0.00    -0.544 OA
ATOM      8  O   UNL     1       1.578  34.609  24.110  1.00  0.00    -0.544 OA
ENDBRANCH   1   6
BRANCH   1   9
ATOM      9  C   UNL     1       0.633  36.414  26.974  1.00  0.00     0.047 C 
ATOM     10  C   UNL     1      -0.809  36.035  26.591  1.00  0.00     0.014 C 
ATOM     11  C   UNL     1       0.609  37.711  27.800  1.00  0.00     0.014 C 
ENDBRANCH   1   9
TORSDOF 3
ENDMDL
MODEL 7
REMARK VINA RESULT:    -3.808      2.394      3.218
REMARK INTER + INTRA:          -4.425
REMARK INTER:                  -4.369
REMARK INTRA:                  -0.056
REMARK UNBOUND:                -0.060
REMARK SMILES CC(C)[C@@H]([NH3+])C(=O)[O-]
REMARK SMILES IDX 4 1 5 2 6 6 7 7 8 8 2 9 1 10 3 11
REMARK H PARENT 5 3 5 4 5 5
REMARK Flexibility Score: inf
ROOT
ATOM      1  C   UNL     1       1.686  34.970  25.568  1.00  0.00     0.230 C 
ENDROOT
BRANCH   1   2
ATOM      2  N   UNL     1       2.751  34.282  24.823  1.00  0.00    -0.350 N 
ATOM      3  H   UNL     1       3.654  34.340  25.348  1.00  0.00     0.345 HD
ATOM      4  H   UNL     1       2.523  33.267  24.718  1.00  0.00     0.345 HD
ATOM      5  H   UNL     1       2.879  34.712  23.878  1.00  0.00     0.345 HD
ENDBRANCH   1   2
BRANCH   1   6
ATOM      6  C   UNL     1       2.292  36.080  26.391  1.00  0.00     0.099 C 
ATOM      7  O   UNL     1       3.173  36.830  25.894  1.00  0.00    -0.544 OA
ATOM      8  O   UNL     1       1.882  36.279  27.705  1.00  0.00    -0.544 OA
ENDBRANCH   1   6
BRANCH   1   9
ATOM      9  C   UNL     1       0.581  35.526  24.619  1.00  0.00     0.047 C 
ATOM     10  C   UNL     1      -0.759  35.687  25.359  1.00  0.00     0.014 C 
ATOM     11  C   UNL     1       0.372  34.625  23.391  1.00  0.00     0.014 C 
ENDBRANCH   1   9
TORSDOF 3
ENDMDL
MODEL 8
REMARK VINA RESULT:    -3.760     13.065     13.996
REMARK INTER + INTRA:          -4.370
REMARK INTER:                  -4.313
REMARK INTRA:                  -0.056
REMARK UNBOUND:                -0.060
REMARK SMILES CC(C)[C@@H]([NH3+])C(=O)[O-]
REMARK SMILES IDX 4 1 5 2 6 6 7 7 8 8 2 9 1 10 3 11
REMARK H PARENT 5 3 5 4 5 5
REMARK Flexibility Score: inf
ROOT
ATOM      1  C   UNL     1      -1.302  27.117  35.006  1.00  0.00     0.230 C 
ENDROOT
BRANCH   1   2
ATOM      2  N   UNL     1      -1.969  28.357  35.431  1.00  0.00    -0.350 N 
ATOM      3  H   UNL     1      -2.890  28.137  35.876  1.00  0.00     0.345 HD
ATOM      4  H   UNL     1      -1.392  28.851  36.149  1.00  0.00     0.345 HD
ATOM      5  H   UNL     1      -2.129  28.989  34.613  1.00  0.00     0.345 HD
ENDBRANCH   1   2
BRANCH   1   6
ATOM      6  C   UNL     1       0.165  27.197  35.350  1.00  0.00     0.099 C 
ATOM      7  O   UNL     1       0.732  28.317  35.451  1.00  0.00    -0.544 OA
ATOM      8  O   UNL     1       0.900  26.035  35.555  1.00  0.00    -0.544 OA
ENDBRANCH   1   6
BRANCH   1   9
ATOM      9  C   UNL     1      -1.953  25.857  35.653  1.00  0.00     0.047 C 
ATOM     10  C   UNL     1      -2.989  25.219  34.709  1.00  0.00     0.014 C 
ATOM     11  C   UNL     1      -2.630  26.184  36.994  1.00  0.00     0.014 C 
ENDBRANCH   1   9
TORSDOF 3
ENDMDL
MODEL 9
REMARK VINA RESULT:    -3.760      2.503      3.013
REMARK INTER + INTRA:          -4.369
REMARK INTER:                  -4.326
REMARK INTRA:                  -0.044
REMARK UNBOUND:                -0.060
REMARK SMILES CC(C)[C@@H]([NH3+])C(=O)[O-]
REMARK SMILES IDX 4 1 5 2 6 6 7 7 8 8 2 9 1 10 3 11
REMARK H PARENT 5 3 5 4 5 5
REMARK Flexibility Score: inf
ROOT
ATOM      1  C   UNL     1       1.596  35.126  27.022  1.00  0.00     0.230 C 
ENDROOT
BRANCH   1   2
ATOM      2  N   UNL     1       0.288  34.997  26.362  1.00  0.00    -0.350 N 
ATOM      3  H   UNL     1       0.331  34.263  25.617  1.00  0.00     0.345 HD
ATOM      4  H   UNL     1      -0.437  34.692  27.051  1.00  0.00     0.345 HD
ATOM      5  H   UNL     1       0.001  35.904  25.929  1.00  0.00     0.345 HD
ENDBRANCH   1   2
BRANCH   1   6
ATOM      6  C   UNL     1       2.671  35.262  25.973  1.00  0.00     0.099 C 
ATOM      7  O   UNL     1       3.006  34.268  25.275  1.00  0.00    -0.544 OA
ATOM      8  O   UNL     1       3.302  36.484  25.772  1.00  0.00    -0.544 OA
ENDBRANCH   1   6
BRANCH   1   9
ATOM      9  C   UNL     1       1.631  36.333  28.008  1.00  0.00     0.047 C 
ATOM     10  C   UNL     1       1.511  35.862  29.469  1.00  0.00     0.014 C 
ATOM     11  C   UNL     1       0.514  37.348  27.714  1.00  0.00     0.014 C 
ENDBRANCH   1   9
TORSDOF 3
ENDMDL
