MODEL 1
REMARK VINA RESULT:    -3.827      0.000      0.000
REMARK INTER + INTRA:          -5.121
REMARK INTER:                  -4.945
REMARK INTRA:                  -0.176
REMARK UNBOUND:                -0.176
REMARK SMILES CCCCCCC(=O)[O-]
REMARK SMILES IDX 5 1 6 2 7 3 8 4 9 5 4 6 3 7 2 8 1 9
REMARK H PARENT
REMARK Flexibility Score: inf
ROOT
ATOM      1  C   UNL     1      33.890   6.166  47.974  1.00  0.00     0.006 C 
ENDROOT
BRANCH   1   2
ATOM      2  C   UNL     1      34.746   4.994  47.489  1.00  0.00     0.053 C 
BRANCH   2   3
ATOM      3  C   UNL     1      34.927   5.055  46.004  1.00  0.00     0.041 C 
ATOM      4  O   UNL     1      35.517   4.123  45.399  1.00  0.00    -0.550 OA
ATOM      5  O   UNL     1      34.399   6.118  45.284  1.00  0.00    -0.550 OA
ENDBRANCH   2   3
ENDBRANCH   1   2
BRANCH   1   6
ATOM      6  C   UNL     1      32.478   5.699  48.350  1.00  0.00     0.000 C 
BRANCH   6   7
ATOM      7  C   UNL     1      31.422   6.352  47.445  1.00  0.00    -0.000 C 
BRANCH   7   8
ATOM      8  C   UNL     1      30.209   6.868  48.232  1.00  0.00    -0.003 C 
ATOM      9  C   UNL     1      29.271   5.747  48.677  1.00  0.00     0.004 C 
ENDBRANCH   7   8
ENDBRANCH   6   7
ENDBRANCH   1   6
TORSDOF 5
ENDMDL
MODEL 2
REMARK VINA RESULT:    -3.806      1.206      1.965
REMARK INTER + INTRA:          -5.094
REMARK INTER:                  -4.968
REMARK INTRA:                  -0.126
REMARK UNBOUND:                -0.176
REMARK SMILES CCCCCCC(=O)[O-]
REMARK SMILES IDX 5 1 6 2 7 3 8 4 9 5 4 6 3 7 2 8 1 9
REMARK H PARENT
REMARK Flexibility Score: inf
ROOT
ATOM      1  C   UNL     1      32.032   6.296  47.187  1.00  0.00     0.006 C 
ENDROOT
BRANCH   1   2
ATOM      2  C   UNL     1      33.516   6.665  47.108  1.00  0.00     0.053 C 
BRANCH   2   3
ATOM      3  C   UNL     1      34.087   6.259  45.786  1.00  0.00     0.041 C 
ATOM      4  O   UNL     1      33.824   6.925  44.751  1.00  0.00    -0.550 OA
ATOM      5  O   UNL     1      34.950   5.173  45.706  1.00  0.00    -0.550 OA
ENDBRANCH   2   3
ENDBRANCH   1   2
BRANCH   1   6
ATOM      6  C   UNL     1      31.415   6.770  48.509  1.00  0.00     0.000 C 
BRANCH   6   7
ATOM      7  C   UNL     1      29.894   6.937  48.378  1.00  0.00    -0.000 C 
BRANCH   7   8
ATOM      8  C   UNL     1      29.130   5.636  48.664  1.00  0.00    -0.003 C 
ATOM      9  C   UNL     1      27.979   5.398  47.688  1.00  0.00     0.004 C 
ENDBRANCH   7   8
ENDBRANCH   6   7
ENDBRANCH   1   6
TORSDOF 5
ENDMDL
MODEL 3
REMARK VINA RESULT:    -3.650      3.470      5.191
REMARK INTER + INTRA:          -4.893
REMARK INTER:                  -4.692
REMARK INTRA:                  -0.202
REMARK UNBOUND:                -0.176
REMARK SMILES CCCCCCC(=O)[O-]
REMARK SMILES IDX 5 1 6 2 7 3 8 4 9 5 4 6 3 7 2 8 1 9
REMARK H PARENT
REMARK Flexibility Score: inf
ROOT
ATOM      1  C   UNL     1      31.710   5.556  48.163  1.00  0.00     0.006 C 
ENDROOT
BRANCH   1   2
ATOM      2  C   UNL     1      30.551   6.482  47.783  1.00  0.00     0.053 C 
BRANCH   2   3
ATOM      3  C   UNL     1      29.325   6.138  48.569  1.00  0.00     0.041 C 
ATOM      4  O   UNL     1      28.342   5.593  48.002  1.00  0.00    -0.550 OA
ATOM      5  O   UNL     1      29.288   6.373  49.937  1.00  0.00    -0.550 OA
ENDBRANCH   2   3
ENDBRANCH   1   2
BRANCH   1   6
ATOM      6  C   UNL     1      33.062   6.213  47.862  1.00  0.00     0.000 C 
BRANCH   6   7
ATOM      7  C   UNL     1      34.094   5.167  47.412  1.00  0.00    -0.000 C 
BRANCH   7   8
ATOM      8  C   UNL     1      34.692   5.483  46.033  1.00  0.00    -0.003 C 
ATOM      9  C   UNL     1      33.930   6.584  45.296  1.00  0.00     0.004 C 
ENDBRANCH   7   8
ENDBRANCH   6   7
ENDBRANCH   1   6
TORSDOF 5
ENDMDL
MODEL 4
REMARK VINA RESULT:    -3.634      1.067      1.700
REMARK INTER + INTRA:          -4.872
REMARK INTER:                  -4.639
REMARK INTRA:                  -0.233
REMARK UNBOUND:                -0.176
REMARK SMILES CCCCCCC(=O)[O-]
REMARK SMILES IDX 5 1 6 2 7 3 8 4 9 5 4 6 3 7 2 8 1 9
REMARK H PARENT
REMARK Flexibility Score: inf
ROOT
ATOM      1  C   UNL     1      32.312   5.533  47.936  1.00  0.00     0.006 C 
ENDROOT
BRANCH   1   2
ATOM      2  C   UNL     1      33.606   6.316  47.699  1.00  0.00     0.053 C 
BRANCH   2   3
ATOM      3  C   UNL     1      34.242   5.900  46.410  1.00  0.00     0.041 C 
ATOM      4  O   UNL     1      35.005   4.899  46.375  1.00  0.00    -0.550 OA
ATOM      5  O   UNL     1      33.954   6.587  45.238  1.00  0.00    -0.550 OA
ENDBRANCH   2   3
ENDBRANCH   1   2
BRANCH   1   6
ATOM      6  C   UNL     1      31.084   6.368  47.552  1.00  0.00     0.000 C 
BRANCH   6   7
ATOM      7  C   UNL     1      29.859   5.960  48.385  1.00  0.00    -0.000 C 
BRANCH   7   8
ATOM      8  C   UNL     1      29.680   6.832  49.637  1.00  0.00    -0.003 C 
ATOM      9  C   UNL     1      30.119   8.279  49.418  1.00  0.00     0.004 C 
ENDBRANCH   7   8
ENDBRANCH   6   7
ENDBRANCH   1   6
TORSDOF 5
ENDMDL
MODEL 5
REMARK VINA RESULT:    -3.624     17.427     18.742
REMARK INTER + INTRA:          -4.859
REMARK INTER:                  -4.576
REMARK INTRA:                  -0.284
REMARK UNBOUND:                -0.176
REMARK SMILES CCCCCCC(=O)[O-]
REMARK SMILES IDX 5 1 6 2 7 3 8 4 9 5 4 6 3 7 2 8 1 9
REMARK H PARENT
REMARK Flexibility Score: inf
ROOT
ATOM      1  C   UNL     1      21.177  13.144  35.539  1.00  0.00     0.006 C 
ENDROOT
BRANCH   1   2
ATOM      2  C   UNL     1      20.294  13.884  34.530  1.00  0.00     0.053 C 
BRANCH   2   3
ATOM      3  C   UNL     1      21.053  14.154  33.269  1.00  0.00     0.041 C 
ATOM      4  O   UNL     1      21.554  13.203  32.615  1.00  0.00    -0.550 OA
ATOM      5  O   UNL     1      21.163  15.453  32.790  1.00  0.00    -0.550 OA
ENDBRANCH   2   3
ENDBRANCH   1   2
BRANCH   1   6
ATOM      6  C   UNL     1      20.622  11.746  35.837  1.00  0.00     0.000 C 
BRANCH   6   7
ATOM      7  C   UNL     1      21.745  10.698  35.844  1.00  0.00    -0.000 C 
BRANCH   7   8
ATOM      8  C   UNL     1      22.969  11.139  35.029  1.00  0.00    -0.003 C 
ATOM      9  C   UNL     1      24.289  10.882  35.756  1.00  0.00     0.004 C 
ENDBRANCH   7   8
ENDBRANCH   6   7
ENDBRANCH   1   6
TORSDOF 5
ENDMDL
MODEL 6
REMARK VINA RESULT:    -3.538      2.202      3.255
REMARK INTER + INTRA:          -4.748
REMARK INTER:                  -4.473
REMARK INTRA:                  -0.275
REMARK UNBOUND:                -0.176
REMARK SMILES CCCCCCC(=O)[O-]
REMARK SMILES IDX 5 1 6 2 7 3 8 4 9 5 4 6 3 7 2 8 1 9
REMARK H PARENT
REMARK Flexibility Score: inf
ROOT
ATOM      1  C   UNL     1      31.235   6.351  47.433  1.00  0.00     0.006 C 
ENDROOT
BRANCH   1   2
ATOM      2  C   UNL     1      31.987   5.200  48.107  1.00  0.00     0.053 C 
BRANCH   2   3
ATOM      3  C   UNL     1      33.460   5.464  48.107  1.00  0.00     0.041 C 
ATOM      4  O   UNL     1      33.947   6.336  48.874  1.00  0.00    -0.550 OA
ATOM      5  O   UNL     1      34.300   4.713  47.296  1.00  0.00    -0.550 OA
ENDBRANCH   2   3
ENDBRANCH   1   2
BRANCH   1   6
ATOM      6  C   UNL     1      30.110   6.877  48.333  1.00  0.00     0.000 C 
BRANCH   6   7
ATOM      7  C   UNL     1      30.527   8.181  49.030  1.00  0.00    -0.000 C 
BRANCH   7   8
ATOM      8  C   UNL     1      31.672   8.900  48.301  1.00  0.00    -0.003 C 
ATOM      9  C   UNL     1      31.835  10.354  48.743  1.00  0.00     0.004 C 
ENDBRANCH   7   8
ENDBRANCH   6   7
ENDBRANCH   1   6
TORSDOF 5
ENDMDL
MODEL 7
REMARK VINA RESULT:    -3.478     16.936     18.190
REMARK INTER + INTRA:          -4.671
REMARK INTER:                  -4.304
REMARK INTRA:                  -0.367
REMARK UNBOUND:                -0.176
REMARK SMILES CCCCCCC(=O)[O-]
REMARK SMILES IDX 5 1 6 2 7 3 8 4 9 5 4 6 3 7 2 8 1 9
REMARK H PARENT
REMARK Flexibility Score: inf
ROOT
ATOM      1  C   UNL     1      20.219  10.977  35.367  1.00  0.00     0.006 C 
ENDROOT
BRANCH   1   2
ATOM      2  C   UNL     1      21.547  10.422  35.886  1.00  0.00     0.053 C 
BRANCH   2   3
ATOM      3  C   UNL     1      22.679  10.869  35.016  1.00  0.00     0.041 C 
ATOM      4  O   UNL     1      22.454  11.277  33.846  1.00  0.00    -0.550 OA
ATOM      5  O   UNL     1      23.975  10.883  35.513  1.00  0.00    -0.550 OA
ENDBRANCH   2   3
ENDBRANCH   1   2
BRANCH   1   6
ATOM      6  C   UNL     1      19.711  12.116  36.259  1.00  0.00     0.000 C 
BRANCH   6   7
ATOM      7  C   UNL     1      19.421  13.378  35.432  1.00  0.00    -0.000 C 
BRANCH   7   8
ATOM      8  C   UNL     1      20.702  14.109  35.003  1.00  0.00    -0.003 C 
ATOM      9  C   UNL     1      20.743  14.401  33.503  1.00  0.00     0.004 C 
ENDBRANCH   7   8
ENDBRANCH   6   7
ENDBRANCH   1   6
TORSDOF 5
ENDMDL
MODEL 8
REMARK VINA RESULT:    -3.406     17.581     18.025
REMARK INTER + INTRA:          -4.578
REMARK INTER:                  -4.275
REMARK INTRA:                  -0.303
REMARK UNBOUND:                -0.176
REMARK SMILES CCCCCCC(=O)[O-]
REMARK SMILES IDX 5 1 6 2 7 3 8 4 9 5 4 6 3 7 2 8 1 9
REMARK H PARENT
REMARK Flexibility Score: inf
ROOT
ATOM      1  C   UNL     1      22.204  11.166  34.604  1.00  0.00     0.006 C 
ENDROOT
BRANCH   1   2
ATOM      2  C   UNL     1      22.021  12.138  35.773  1.00  0.00     0.053 C 
BRANCH   2   3
ATOM      3  C   UNL     1      20.912  13.100  35.487  1.00  0.00     0.041 C 
ATOM      4  O   UNL     1      21.024  13.935  34.552  1.00  0.00    -0.550 OA
ATOM      5  O   UNL     1      19.734  13.040  36.219  1.00  0.00    -0.550 OA
ENDBRANCH   2   3
ENDBRANCH   1   2
BRANCH   1   6
ATOM      6  C   UNL     1      21.043  10.168  34.530  1.00  0.00     0.000 C 
BRANCH   6   7
ATOM      7  C   UNL     1      20.898   9.393  35.849  1.00  0.00    -0.000 C 
BRANCH   7   8
ATOM      8  C   UNL     1      19.477   9.470  36.426  1.00  0.00    -0.003 C 
ATOM      9  C   UNL     1      19.182   8.353  37.426  1.00  0.00     0.004 C 
ENDBRANCH   7   8
ENDBRANCH   6   7
ENDBRANCH   1   6
TORSDOF 5
ENDMDL
MODEL 9
REMARK VINA RESULT:    -3.373     17.305     18.489
REMARK INTER + INTRA:          -4.535
REMARK INTER:                  -4.299
REMARK INTRA:                  -0.235
REMARK UNBOUND:                -0.176
REMARK SMILES CCCCCCC(=O)[O-]
REMARK SMILES IDX 5 1 6 2 7 3 8 4 9 5 4 6 3 7 2 8 1 9
REMARK H PARENT
REMARK Flexibility Score: inf
ROOT
ATOM      1  C   UNL     1      22.168  11.868  35.504  1.00  0.00     0.006 C 
ENDROOT
BRANCH   1   2
ATOM      2  C   UNL     1      22.169  10.377  35.852  1.00  0.00     0.053 C 
BRANCH   2   3
ATOM      3  C   UNL     1      21.032   9.680  35.172  1.00  0.00     0.041 C 
ATOM      4  O   UNL     1      21.007   9.584  33.917  1.00  0.00    -0.550 OA
ATOM      5  O   UNL     1      20.026   9.093  35.928  1.00  0.00    -0.550 OA
ENDBRANCH   2   3
ENDBRANCH   1   2
BRANCH   1   6
ATOM      6  C   UNL     1      20.805  12.504  35.804  1.00  0.00     0.000 C 
BRANCH   6   7
ATOM      7  C   UNL     1      20.615  13.802  35.006  1.00  0.00    -0.000 C 
BRANCH   7   8
ATOM      8  C   UNL     1      20.907  13.623  33.509  1.00  0.00    -0.003 C 
ATOM      9  C   UNL     1      21.040  14.953  32.768  1.00  0.00     0.004 C 
ENDBRANCH   7   8
ENDBRANCH   6   7
ENDBRANCH   1   6
TORSDOF 5
ENDMDL
