MODEL 1
REMARK VINA RESULT:    -3.597      0.000      0.000
REMARK INTER + INTRA:          -5.345
REMARK INTER:                  -4.859
REMARK INTRA:                  -0.486
REMARK UNBOUND:                -0.486
REMARK SMILES CCCCCCC=CC(=O)[O-]
REMARK SMILES IDX 5 1 6 2 7 3 8 4 9 5 10 6 11 7 4 8 3 9 2 10 1 11
REMARK H PARENT
REMARK Flexibility Score: inf
ROOT
ATOM      1  C   UNL     1      56.525  27.988  51.796  1.00  0.00     0.004 C 
ENDROOT
BRANCH   1   2
ATOM      2  C   UNL     1      57.882  28.710  51.792  1.00  0.00     0.027 C 
BRANCH   2   3
ATOM      3  C   UNL     1      58.238  29.252  50.432  1.00  0.00    -0.025 C 
ATOM      4  C   UNL     1      59.143  28.730  49.587  1.00  0.00     0.020 C 
BRANCH   4   5
ATOM      5  C   UNL     1      59.937  27.500  49.793  1.00  0.00     0.064 C 
ATOM      6  O   UNL     1      61.184  27.528  49.952  1.00  0.00    -0.545 OA
ATOM      7  O   UNL     1      59.280  26.278  49.838  1.00  0.00    -0.545 OA
ENDBRANCH   4   5
ENDBRANCH   2   3
ENDBRANCH   1   2
BRANCH   1   8
ATOM      8  C   UNL     1      55.475  28.726  50.952  1.00  0.00     0.000 C 
BRANCH   8   9
ATOM      9  C   UNL     1      54.459  27.742  50.356  1.00  0.00    -0.000 C 
BRANCH   9  10
ATOM     10  C   UNL     1      55.041  26.333  50.165  1.00  0.00    -0.003 C 
ATOM     11  C   UNL     1      54.041  25.358  49.542  1.00  0.00     0.004 C 
ENDBRANCH   9  10
ENDBRANCH   8   9
ENDBRANCH   1   8
TORSDOF 6
ENDMDL
MODEL 2
REMARK VINA RESULT:    -3.581      0.948      1.382
REMARK INTER + INTRA:          -5.323
REMARK INTER:                  -4.922
REMARK INTRA:                  -0.401
REMARK UNBOUND:                -0.486
REMARK SMILES CCCCCCC=CC(=O)[O-]
REMARK SMILES IDX 5 1 6 2 7 3 8 4 9 5 10 6 11 7 4 8 3 9 2 10 1 11
REMARK H PARENT
REMARK Flexibility Score: inf
ROOT
ATOM      1  C   UNL     1      56.531  29.277  51.002  1.00  0.00     0.004 C 
ENDROOT
BRANCH   1   2
ATOM      2  C   UNL     1      58.037  29.145  51.279  1.00  0.00     0.027 C 
BRANCH   2   3
ATOM      3  C   UNL     1      58.848  29.067  50.011  1.00  0.00    -0.025 C 
ATOM      4  C   UNL     1      59.570  28.011  49.600  1.00  0.00     0.020 C 
BRANCH   4   5
ATOM      5  C   UNL     1      59.681  26.701  50.276  1.00  0.00     0.064 C 
ATOM      6  O   UNL     1      58.778  25.830  50.199  1.00  0.00    -0.545 OA
ATOM      7  O   UNL     1      60.833  26.415  50.997  1.00  0.00    -0.545 OA
ENDBRANCH   4   5
ENDBRANCH   2   3
ENDBRANCH   1   2
BRANCH   1   8
ATOM      8  C   UNL     1      55.867  27.914  50.760  1.00  0.00     0.000 C 
BRANCH   8   9
ATOM      9  C   UNL     1      54.392  28.083  50.367  1.00  0.00    -0.000 C 
BRANCH   9  10
ATOM     10  C   UNL     1      53.712  26.746  50.033  1.00  0.00    -0.003 C 
ATOM     11  C   UNL     1      54.714  25.621  49.774  1.00  0.00     0.004 C 
ENDBRANCH   9  10
ENDBRANCH   8   9
ENDBRANCH   1   8
TORSDOF 6
ENDMDL
MODEL 3
REMARK VINA RESULT:    -3.337      2.958      5.198
REMARK INTER + INTRA:          -4.993
REMARK INTER:                  -4.674
REMARK INTRA:                  -0.319
REMARK UNBOUND:                -0.486
REMARK SMILES CCCCCCC=CC(=O)[O-]
REMARK SMILES IDX 5 1 6 2 7 3 8 4 9 5 10 6 11 7 4 8 3 9 2 10 1 11
REMARK H PARENT
REMARK Flexibility Score: inf
ROOT
ATOM      1  C   UNL     1      55.824  29.816  51.067  1.00  0.00     0.004 C 
ENDROOT
BRANCH   1   2
ATOM      2  C   UNL     1      55.224  28.417  50.856  1.00  0.00     0.027 C 
BRANCH   2   3
ATOM      3  C   UNL     1      53.840  28.472  50.260  1.00  0.00    -0.025 C 
ATOM      4  C   UNL     1      53.060  27.415  49.978  1.00  0.00     0.020 C 
BRANCH   4   5
ATOM      5  C   UNL     1      53.374  25.993  50.233  1.00  0.00     0.064 C 
ATOM      6  O   UNL     1      53.033  25.413  51.295  1.00  0.00    -0.545 OA
ATOM      7  O   UNL     1      54.045  25.269  49.256  1.00  0.00    -0.545 OA
ENDBRANCH   4   5
ENDBRANCH   2   3
ENDBRANCH   1   2
BRANCH   1   8
ATOM      8  C   UNL     1      57.353  29.816  50.933  1.00  0.00     0.000 C 
BRANCH   8   9
ATOM      9  C   UNL     1      57.863  28.448  50.456  1.00  0.00    -0.000 C 
BRANCH   9  10
ATOM     10  C   UNL     1      59.256  28.528  49.813  1.00  0.00    -0.003 C 
ATOM     11  C   UNL     1      60.030  27.213  49.912  1.00  0.00     0.004 C 
ENDBRANCH   9  10
ENDBRANCH   8   9
ENDBRANCH   1   8
TORSDOF 6
ENDMDL
MODEL 4
REMARK VINA RESULT:    -3.297      1.731      2.642
REMARK INTER + INTRA:          -4.939
REMARK INTER:                  -4.560
REMARK INTRA:                  -0.379
REMARK UNBOUND:                -0.486
REMARK SMILES CCCCCCC=CC(=O)[O-]
REMARK SMILES IDX 5 1 6 2 7 3 8 4 9 5 10 6 11 7 4 8 3 9 2 10 1 11
REMARK H PARENT
REMARK Flexibility Score: inf
ROOT
ATOM      1  C   UNL     1      56.434  26.008  50.534  1.00  0.00     0.004 C 
ENDROOT
BRANCH   1   2
ATOM      2  C   UNL     1      57.789  26.068  51.257  1.00  0.00     0.027 C 
BRANCH   2   3
ATOM      3  C   UNL     1      58.951  25.981  50.301  1.00  0.00    -0.025 C 
ATOM      4  C   UNL     1      59.687  27.014  49.856  1.00  0.00     0.020 C 
BRANCH   4   5
ATOM      5  C   UNL     1      59.541  28.433  50.244  1.00  0.00     0.064 C 
ATOM      6  O   UNL     1      58.873  29.248  49.558  1.00  0.00    -0.545 OA
ATOM      7  O   UNL     1      60.140  28.872  51.417  1.00  0.00    -0.545 OA
ENDBRANCH   4   5
ENDBRANCH   2   3
ENDBRANCH   1   2
BRANCH   1   8
ATOM      8  C   UNL     1      55.680  27.344  50.607  1.00  0.00     0.000 C 
BRANCH   8   9
ATOM      9  C   UNL     1      54.194  27.156  50.269  1.00  0.00    -0.000 C 
BRANCH   9  10
ATOM     10  C   UNL     1      53.436  28.489  50.175  1.00  0.00    -0.003 C 
ATOM     11  C   UNL     1      54.193  29.648  50.824  1.00  0.00     0.004 C 
ENDBRANCH   9  10
ENDBRANCH   8   9
ENDBRANCH   1   8
TORSDOF 6
ENDMDL
MODEL 5
REMARK VINA RESULT:    -3.255      1.505      1.925
REMARK INTER + INTRA:          -4.882
REMARK INTER:                  -4.545
REMARK INTRA:                  -0.337
REMARK UNBOUND:                -0.486
REMARK SMILES CCCCCCC=CC(=O)[O-]
REMARK SMILES IDX 5 1 6 2 7 3 8 4 9 5 10 6 11 7 4 8 3 9 2 10 1 11
REMARK H PARENT
REMARK Flexibility Score: inf
ROOT
ATOM      1  C   UNL     1      56.967  27.948  50.932  1.00  0.00     0.004 C 
ENDROOT
BRANCH   1   2
ATOM      2  C   UNL     1      58.104  28.836  50.401  1.00  0.00     0.027 C 
BRANCH   2   3
ATOM      3  C   UNL     1      59.181  28.036  49.715  1.00  0.00    -0.025 C 
ATOM      4  C   UNL     1      60.495  28.077  49.994  1.00  0.00     0.020 C 
BRANCH   4   5
ATOM      5  C   UNL     1      61.147  28.873  51.055  1.00  0.00     0.064 C 
ATOM      6  O   UNL     1      61.186  28.488  52.252  1.00  0.00    -0.545 OA
ATOM      7  O   UNL     1      61.758  30.072  50.714  1.00  0.00    -0.545 OA
ENDBRANCH   4   5
ENDBRANCH   2   3
ENDBRANCH   1   2
BRANCH   1   8
ATOM      8  C   UNL     1      55.603  28.649  50.855  1.00  0.00     0.000 C 
BRANCH   8   9
ATOM      9  C   UNL     1      54.508  27.672  50.404  1.00  0.00    -0.000 C 
BRANCH   9  10
ATOM     10  C   UNL     1      55.054  26.267  50.108  1.00  0.00    -0.003 C 
ATOM     11  C   UNL     1      53.993  25.326  49.536  1.00  0.00     0.004 C 
ENDBRANCH   9  10
ENDBRANCH   8   9
ENDBRANCH   1   8
TORSDOF 6
ENDMDL
MODEL 6
REMARK VINA RESULT:    -3.239      2.732      5.024
REMARK INTER + INTRA:          -4.861
REMARK INTER:                  -4.470
REMARK INTRA:                  -0.390
REMARK UNBOUND:                -0.486
REMARK SMILES CCCCCCC=CC(=O)[O-]
REMARK SMILES IDX 5 1 6 2 7 3 8 4 9 5 10 6 11 7 4 8 3 9 2 10 1 11
REMARK H PARENT
REMARK Flexibility Score: inf
ROOT
ATOM      1  C   UNL     1      57.659  29.202  50.968  1.00  0.00     0.004 C 
ENDROOT
BRANCH   1   2
ATOM      2  C   UNL     1      56.775  27.968  50.731  1.00  0.00     0.027 C 
BRANCH   2   3
ATOM      3  C   UNL     1      55.311  28.319  50.657  1.00  0.00    -0.025 C 
ATOM      4  C   UNL     1      54.299  27.453  50.483  1.00  0.00     0.020 C 
BRANCH   4   5
ATOM      5  C   UNL     1      54.405  25.982  50.376  1.00  0.00     0.064 C 
ATOM      6  O   UNL     1      54.318  25.383  49.273  1.00  0.00    -0.545 OA
ATOM      7  O   UNL     1      54.633  25.241  51.528  1.00  0.00    -0.545 OA
ENDBRANCH   4   5
ENDBRANCH   2   3
ENDBRANCH   1   2
BRANCH   1   8
ATOM      8  C   UNL     1      58.899  29.208  50.062  1.00  0.00     0.000 C 
BRANCH   8   9
ATOM      9  C   UNL     1      59.296  27.779  49.665  1.00  0.00    -0.000 C 
BRANCH   9  10
ATOM     10  C   UNL     1      60.777  27.478  49.943  1.00  0.00    -0.003 C 
ATOM     11  C   UNL     1      61.009  26.882  51.332  1.00  0.00     0.004 C 
ENDBRANCH   9  10
ENDBRANCH   8   9
ENDBRANCH   1   8
TORSDOF 6
ENDMDL
MODEL 7
REMARK VINA RESULT:    -3.190      1.768      2.644
REMARK INTER + INTRA:          -4.794
REMARK INTER:                  -4.339
REMARK INTRA:                  -0.455
REMARK UNBOUND:                -0.486
REMARK SMILES CCCCCCC=CC(=O)[O-]
REMARK SMILES IDX 5 1 6 2 7 3 8 4 9 5 10 6 11 7 4 8 3 9 2 10 1 11
REMARK H PARENT
REMARK Flexibility Score: inf
ROOT
ATOM      1  C   UNL     1      53.521  29.327  50.575  1.00  0.00     0.004 C 
ENDROOT
BRANCH   1   2
ATOM      2  C   UNL     1      54.732  29.464  51.512  1.00  0.00     0.027 C 
BRANCH   2   3
ATOM      3  C   UNL     1      55.798  30.364  50.941  1.00  0.00    -0.025 C 
ATOM      4  C   UNL     1      57.111  30.087  50.872  1.00  0.00     0.020 C 
BRANCH   4   5
ATOM      5  C   UNL     1      57.772  28.834  51.295  1.00  0.00     0.064 C 
ATOM      6  O   UNL     1      58.013  28.579  52.502  1.00  0.00    -0.545 OA
ATOM      7  O   UNL     1      58.115  27.898  50.328  1.00  0.00    -0.545 OA
ENDBRANCH   4   5
ENDBRANCH   2   3
ENDBRANCH   1   2
BRANCH   1   8
ATOM      8  C   UNL     1      53.362  27.896  50.041  1.00  0.00     0.000 C 
BRANCH   8   9
ATOM      9  C   UNL     1      54.606  27.052  50.353  1.00  0.00    -0.000 C 
BRANCH   9  10
ATOM     10  C   UNL     1      54.525  25.638  49.757  1.00  0.00    -0.003 C 
ATOM     11  C   UNL     1      53.138  25.305  49.207  1.00  0.00     0.004 C 
ENDBRANCH   9  10
ENDBRANCH   8   9
ENDBRANCH   1   8
TORSDOF 6
ENDMDL
MODEL 8
REMARK VINA RESULT:    -3.138      1.479      2.172
REMARK INTER + INTRA:          -4.725
REMARK INTER:                  -4.228
REMARK INTRA:                  -0.497
REMARK UNBOUND:                -0.486
REMARK SMILES CCCCCCC=CC(=O)[O-]
REMARK SMILES IDX 5 1 6 2 7 3 8 4 9 5 10 6 11 7 4 8 3 9 2 10 1 11
REMARK H PARENT
REMARK Flexibility Score: inf
ROOT
ATOM      1  C   UNL     1      55.313  27.865  50.683  1.00  0.00     0.004 C 
ENDROOT
BRANCH   1   2
ATOM      2  C   UNL     1      56.546  26.952  50.768  1.00  0.00     0.027 C 
BRANCH   2   3
ATOM      3  C   UNL     1      57.563  27.454  51.762  1.00  0.00    -0.025 C 
ATOM      4  C   UNL     1      58.722  28.065  51.464  1.00  0.00     0.020 C 
BRANCH   4   5
ATOM      5  C   UNL     1      59.215  28.412  50.115  1.00  0.00     0.064 C 
ATOM      6  O   UNL     1      58.810  29.429  49.495  1.00  0.00    -0.545 OA
ATOM      7  O   UNL     1      60.177  27.603  49.524  1.00  0.00    -0.545 OA
ENDBRANCH   4   5
ENDBRANCH   2   3
ENDBRANCH   1   2
BRANCH   1   8
ATOM      8  C   UNL     1      54.081  27.124  50.145  1.00  0.00     0.000 C 
BRANCH   8   9
ATOM      9  C   UNL     1      54.469  25.750  49.581  1.00  0.00    -0.000 C 
BRANCH   9  10
ATOM     10  C   UNL     1      53.635  24.608  50.181  1.00  0.00    -0.003 C 
ATOM     11  C   UNL     1      53.593  24.645  51.709  1.00  0.00     0.004 C 
ENDBRANCH   9  10
ENDBRANCH   8   9
ENDBRANCH   1   8
TORSDOF 6
ENDMDL
MODEL 9
REMARK VINA RESULT:    -3.104      2.402      3.557
REMARK INTER + INTRA:          -4.678
REMARK INTER:                  -3.956
REMARK INTRA:                  -0.722
REMARK UNBOUND:                -0.486
REMARK SMILES CCCCCCC=CC(=O)[O-]
REMARK SMILES IDX 5 1 6 2 7 3 8 4 9 5 10 6 11 7 4 8 3 9 2 10 1 11
REMARK H PARENT
REMARK Flexibility Score: inf
ROOT
ATOM      1  C   UNL     1      59.548  29.028  51.102  1.00  0.00     0.004 C 
ENDROOT
BRANCH   1   2
ATOM      2  C   UNL     1      59.286  28.233  49.812  1.00  0.00     0.027 C 
BRANCH   2   3
ATOM      3  C   UNL     1      59.638  26.775  49.958  1.00  0.00    -0.025 C 
ATOM      4  C   UNL     1      58.855  25.825  50.496  1.00  0.00     0.020 C 
BRANCH   4   5
ATOM      5  C   UNL     1      57.479  26.000  51.008  1.00  0.00     0.064 C 
ATOM      6  O   UNL     1      56.470  25.900  50.264  1.00  0.00    -0.545 OA
ATOM      7  O   UNL     1      57.295  26.257  52.360  1.00  0.00    -0.545 OA
ENDBRANCH   4   5
ENDBRANCH   2   3
ENDBRANCH   1   2
BRANCH   1   8
ATOM      8  C   UNL     1      58.257  29.614  51.692  1.00  0.00     0.000 C 
BRANCH   8   9
ATOM      9  C   UNL     1      57.171  29.747  50.614  1.00  0.00    -0.000 C 
BRANCH   9  10
ATOM     10  C   UNL     1      55.780  29.340  51.123  1.00  0.00    -0.003 C 
ATOM     11  C   UNL     1      54.748  30.460  50.988  1.00  0.00     0.004 C 
ENDBRANCH   9  10
ENDBRANCH   8   9
ENDBRANCH   1   8
TORSDOF 6
ENDMDL
