MODEL 1
REMARK VINA RESULT:    -3.512      0.000      0.000
REMARK INTER + INTRA:          -8.473
REMARK INTER:                  -5.360
REMARK INTRA:                  -3.113
REMARK UNBOUND:                -3.113
REMARK SMILES CC(=O)CCC=C(C)CCC=C(C)CCC=C(C)C
REMARK SMILES IDX 10 1 11 2 12 3 13 4 14 5 15 6 16 7 18 8 17 9 19 10 9 11 7 12
REMARK SMILES IDX 6 13 8 14 5 15 4 16 2 17 3 18 1 19
REMARK H PARENT
REMARK Flexibility Score: inf
ROOT
ATOM      1  C   UNL     1      20.279  36.540  89.825  1.00  0.00     0.032 C 
ENDROOT
BRANCH   1   2
ATOM      2  C   UNL     1      21.769  36.747  89.723  1.00  0.00    -0.028 C 
ATOM      3  C   UNL     1      22.401  37.291  88.658  1.00  0.00    -0.077 C 
ATOM      4  C   UNL     1      23.901  37.423  88.706  1.00  0.00     0.039 C 
BRANCH   3   5
ATOM      5  C   UNL     1      21.663  37.834  87.450  1.00  0.00     0.034 C 
BRANCH   5   6
ATOM      6  C   UNL     1      22.471  37.592  86.171  1.00  0.00     0.032 C 
BRANCH   6   7
ATOM      7  C   UNL     1      21.761  36.614  85.269  1.00  0.00    -0.028 C 
ATOM      8  C   UNL     1      21.405  34.516  84.042  1.00  0.00     0.039 C 
ATOM      9  C   UNL     1      22.249  35.404  84.918  1.00  0.00    -0.080 C 
ATOM     10  C   UNL     1      23.610  34.927  85.370  1.00  0.00     0.039 C 
ENDBRANCH   6   7
ENDBRANCH   5   6
ENDBRANCH   3   5
ENDBRANCH   1   2
BRANCH   1  11
ATOM     11  C   UNL     1      19.927  35.051  89.716  1.00  0.00     0.034 C 
BRANCH  11  12
ATOM     12  C   UNL     1      19.939  34.607  88.267  1.00  0.00    -0.077 C 
ATOM     13  C   UNL     1      20.732  33.610  87.813  1.00  0.00    -0.028 C 
ATOM     14  C   UNL     1      18.981  35.259  87.304  1.00  0.00     0.039 C 
BRANCH  13  15
ATOM     15  C   UNL     1      21.723  32.865  88.678  1.00  0.00     0.035 C 
BRANCH  15  16
ATOM     16  C   UNL     1      23.128  33.476  88.600  1.00  0.00     0.079 C 
BRANCH  16  17
ATOM     17  C   UNL     1      23.928  33.196  89.847  1.00  0.00     0.130 C 
ATOM     18  O   UNL     1      24.620  32.190  89.906  1.00  0.00    -0.300 OA
ATOM     19  C   UNL     1      23.903  34.135  91.018  1.00  0.00     0.087 C 
ENDBRANCH  16  17
ENDBRANCH  15  16
ENDBRANCH  13  15
ENDBRANCH  11  12
ENDBRANCH   1  11
TORSDOF 9
ENDMDL
MODEL 2
REMARK VINA RESULT:    -3.499      2.767      5.349
REMARK INTER + INTRA:          -8.453
REMARK INTER:                  -5.946
REMARK INTRA:                  -2.507
REMARK UNBOUND:                -3.113
REMARK SMILES CC(=O)CCC=C(C)CCC=C(C)CCC=C(C)C
REMARK SMILES IDX 10 1 11 2 12 3 13 4 14 5 15 6 16 7 18 8 17 9 19 10 9 11 7 12
REMARK SMILES IDX 6 13 8 14 5 15 4 16 2 17 3 18 1 19
REMARK H PARENT
REMARK Flexibility Score: inf
ROOT
ATOM      1  C   UNL     1      22.652  33.882  87.781  1.00  0.00     0.032 C 
ENDROOT
BRANCH   1   2
ATOM      2  C   UNL     1      22.352  34.506  89.120  1.00  0.00    -0.028 C 
ATOM      3  C   UNL     1      22.914  35.646  89.583  1.00  0.00    -0.077 C 
ATOM      4  C   UNL     1      22.514  36.138  90.950  1.00  0.00     0.039 C 
BRANCH   3   5
ATOM      5  C   UNL     1      23.875  36.484  88.763  1.00  0.00     0.034 C 
BRANCH   5   6
ATOM      6  C   UNL     1      23.299  37.883  88.520  1.00  0.00     0.032 C 
BRANCH   6   7
ATOM      7  C   UNL     1      23.198  38.169  87.043  1.00  0.00    -0.028 C 
ATOM      8  C   UNL     1      22.097  38.506  84.873  1.00  0.00     0.039 C 
ATOM      9  C   UNL     1      22.046  38.158  86.338  1.00  0.00    -0.080 C 
ATOM     10  C   UNL     1      20.722  37.799  86.973  1.00  0.00     0.039 C 
ENDBRANCH   6   7
ENDBRANCH   5   6
ENDBRANCH   3   5
ENDBRANCH   1   2
BRANCH   1  11
ATOM     11  C   UNL     1      21.629  34.328  86.730  1.00  0.00     0.034 C 
BRANCH  11  12
ATOM     12  C   UNL     1      22.321  34.677  85.427  1.00  0.00    -0.077 C 
ATOM     13  C   UNL     1      21.654  34.828  84.261  1.00  0.00    -0.028 C 
ATOM     14  C   UNL     1      23.806  34.929  85.443  1.00  0.00     0.039 C 
BRANCH  13  15
ATOM     15  C   UNL     1      20.164  34.620  84.112  1.00  0.00     0.035 C 
BRANCH  15  16
ATOM     16  C   UNL     1      19.664  35.011  82.715  1.00  0.00     0.079 C 
BRANCH  16  17
ATOM     17  C   UNL     1      19.838  33.886  81.726  1.00  0.00     0.130 C 
ATOM     18  O   UNL     1      19.301  32.809  81.939  1.00  0.00    -0.300 OA
ATOM     19  C   UNL     1      20.647  34.063  80.475  1.00  0.00     0.087 C 
ENDBRANCH  16  17
ENDBRANCH  15  16
ENDBRANCH  13  15
ENDBRANCH  11  12
ENDBRANCH   1  11
TORSDOF 9
ENDMDL
MODEL 3
REMARK VINA RESULT:    -3.475      1.704      2.863
REMARK INTER + INTRA:          -8.416
REMARK INTER:                  -5.747
REMARK INTRA:                  -2.670
REMARK UNBOUND:                -3.113
REMARK SMILES CC(=O)CCC=C(C)CCC=C(C)CCC=C(C)C
REMARK SMILES IDX 10 1 11 2 12 3 13 4 14 5 15 6 16 7 18 8 17 9 19 10 9 11 7 12
REMARK SMILES IDX 6 13 8 14 5 15 4 16 2 17 3 18 1 19
REMARK H PARENT
REMARK Flexibility Score: inf
ROOT
ATOM      1  C   UNL     1      24.028  37.168  87.729  1.00  0.00     0.032 C 
ENDROOT
BRANCH   1   2
ATOM      2  C   UNL     1      23.417  38.314  88.495  1.00  0.00    -0.028 C 
ATOM      3  C   UNL     1      22.652  39.287  87.948  1.00  0.00    -0.077 C 
ATOM      4  C   UNL     1      22.121  40.372  88.849  1.00  0.00     0.039 C 
BRANCH   3   5
ATOM      5  C   UNL     1      22.251  39.296  86.486  1.00  0.00     0.034 C 
BRANCH   5   6
ATOM      6  C   UNL     1      20.752  39.016  86.336  1.00  0.00     0.032 C 
BRANCH   6   7
ATOM      7  C   UNL     1      20.521  37.647  85.747  1.00  0.00    -0.028 C 
ATOM      8  C   UNL     1      19.932  35.263  85.727  1.00  0.00     0.039 C 
ATOM      9  C   UNL     1      20.169  36.556  86.462  1.00  0.00    -0.080 C 
ATOM     10  C   UNL     1      20.018  36.598  87.965  1.00  0.00     0.039 C 
ENDBRANCH   6   7
ENDBRANCH   5   6
ENDBRANCH   3   5
ENDBRANCH   1   2
BRANCH   1  11
ATOM     11  C   UNL     1      23.708  35.829  88.405  1.00  0.00     0.034 C 
BRANCH  11  12
ATOM     12  C   UNL     1      23.284  34.801  87.376  1.00  0.00    -0.077 C 
ATOM     13  C   UNL     1      22.583  33.690  87.695  1.00  0.00    -0.028 C 
ATOM     14  C   UNL     1      23.602  35.058  85.925  1.00  0.00     0.039 C 
BRANCH  13  15
ATOM     15  C   UNL     1      22.188  33.324  89.107  1.00  0.00     0.035 C 
BRANCH  15  16
ATOM     16  C   UNL     1      22.591  31.888  89.465  1.00  0.00     0.079 C 
BRANCH  16  17
ATOM     17  C   UNL     1      24.065  31.780  89.764  1.00  0.00     0.130 C 
ATOM     18  O   UNL     1      24.676  30.777  89.427  1.00  0.00    -0.300 OA
ATOM     19  C   UNL     1      24.804  32.886  90.458  1.00  0.00     0.087 C 
ENDBRANCH  16  17
ENDBRANCH  15  16
ENDBRANCH  13  15
ENDBRANCH  11  12
ENDBRANCH   1  11
TORSDOF 9
ENDMDL
MODEL 4
REMARK VINA RESULT:    -3.439      2.324      4.802
REMARK INTER + INTRA:          -8.362
REMARK INTER:                  -5.124
REMARK INTRA:                  -3.238
REMARK UNBOUND:                -3.113
REMARK SMILES CC(=O)CCC=C(C)CCC=C(C)CCC=C(C)C
REMARK SMILES IDX 10 1 11 2 12 3 13 4 14 5 15 6 16 7 18 8 17 9 19 10 9 11 7 12
REMARK SMILES IDX 6 13 8 14 5 15 4 16 2 17 3 18 1 19
REMARK H PARENT
REMARK Flexibility Score: inf
ROOT
ATOM      1  C   UNL     1      22.841  37.770  85.355  1.00  0.00     0.032 C 
ENDROOT
BRANCH   1   2
ATOM      2  C   UNL     1      22.361  38.630  86.497  1.00  0.00    -0.028 C 
ATOM      3  C   UNL     1      22.831  38.563  87.763  1.00  0.00    -0.077 C 
ATOM      4  C   UNL     1      22.240  39.488  88.796  1.00  0.00     0.039 C 
BRANCH   3   5
ATOM      5  C   UNL     1      23.968  37.649  88.174  1.00  0.00     0.034 C 
BRANCH   5   6
ATOM      6  C   UNL     1      23.539  36.740  89.331  1.00  0.00     0.032 C 
BRANCH   6   7
ATOM      7  C   UNL     1      23.748  35.289  88.975  1.00  0.00    -0.028 C 
ATOM      8  C   UNL     1      23.426  32.858  89.110  1.00  0.00     0.039 C 
ATOM      9  C   UNL     1      23.152  34.253  89.605  1.00  0.00    -0.080 C 
ATOM     10  C   UNL     1      22.232  34.457  90.787  1.00  0.00     0.039 C 
ENDBRANCH   6   7
ENDBRANCH   5   6
ENDBRANCH   3   5
ENDBRANCH   1   2
BRANCH   1  11
ATOM     11  C   UNL     1      21.808  36.688  85.016  1.00  0.00     0.034 C 
BRANCH  11  12
ATOM     12  C   UNL     1      22.191  35.368  85.654  1.00  0.00    -0.077 C 
ATOM     13  C   UNL     1      21.367  34.686  86.480  1.00  0.00    -0.028 C 
ATOM     14  C   UNL     1      23.522  34.756  85.302  1.00  0.00     0.039 C 
BRANCH  13  15
ATOM     15  C   UNL     1      20.001  35.181  86.898  1.00  0.00     0.035 C 
BRANCH  15  16
ATOM     16  C   UNL     1      20.057  35.999  88.195  1.00  0.00     0.079 C 
BRANCH  16  17
ATOM     17  C   UNL     1      19.241  37.263  88.092  1.00  0.00     0.130 C 
ATOM     18  O   UNL     1      18.996  37.905  89.103  1.00  0.00    -0.300 OA
ATOM     19  C   UNL     1      18.732  37.760  86.771  1.00  0.00     0.087 C 
ENDBRANCH  16  17
ENDBRANCH  15  16
ENDBRANCH  13  15
ENDBRANCH  11  12
ENDBRANCH   1  11
TORSDOF 9
ENDMDL
MODEL 5
REMARK VINA RESULT:    -3.410      2.154      5.144
REMARK INTER + INTRA:          -8.317
REMARK INTER:                  -5.047
REMARK INTRA:                  -3.269
REMARK UNBOUND:                -3.113
REMARK SMILES CC(=O)CCC=C(C)CCC=C(C)CCC=C(C)C
REMARK SMILES IDX 10 1 11 2 12 3 13 4 14 5 15 6 16 7 18 8 17 9 19 10 9 11 7 12
REMARK SMILES IDX 6 13 8 14 5 15 4 16 2 17 3 18 1 19
REMARK H PARENT
REMARK Flexibility Score: inf
ROOT
ATOM      1  C   UNL     1      21.171  36.658  85.122  1.00  0.00     0.032 C 
ENDROOT
BRANCH   1   2
ATOM      2  C   UNL     1      20.231  36.669  86.301  1.00  0.00    -0.028 C 
ATOM      3  C   UNL     1      19.771  35.564  86.931  1.00  0.00    -0.077 C 
ATOM      4  C   UNL     1      18.827  35.743  88.092  1.00  0.00     0.039 C 
BRANCH   3   5
ATOM      5  C   UNL     1      20.213  34.161  86.565  1.00  0.00     0.034 C 
BRANCH   5   6
ATOM      6  C   UNL     1      20.366  33.298  87.822  1.00  0.00     0.032 C 
BRANCH   6   7
ATOM      7  C   UNL     1      21.812  33.221  88.243  1.00  0.00    -0.028 C 
ATOM      8  C   UNL     1      23.741  33.403  89.752  1.00  0.00     0.039 C 
ATOM      9  C   UNL     1      22.274  33.576  89.462  1.00  0.00    -0.080 C 
ATOM     10  C   UNL     1      21.366  34.146  90.528  1.00  0.00     0.039 C 
ENDBRANCH   6   7
ENDBRANCH   5   6
ENDBRANCH   3   5
ENDBRANCH   1   2
BRANCH   1  11
ATOM     11  C   UNL     1      22.554  37.185  85.523  1.00  0.00     0.034 C 
BRANCH  11  12
ATOM     12  C   UNL     1      23.385  36.083  86.148  1.00  0.00    -0.077 C 
ATOM     13  C   UNL     1      23.921  36.180  87.384  1.00  0.00    -0.028 C 
ATOM     14  C   UNL     1      23.568  34.796  85.385  1.00  0.00     0.039 C 
BRANCH  13  15
ATOM     15  C   UNL     1      23.797  37.407  88.259  1.00  0.00     0.035 C 
BRANCH  15  16
ATOM     16  C   UNL     1      22.539  37.364  89.136  1.00  0.00     0.079 C 
BRANCH  16  17
ATOM     17  C   UNL     1      21.674  38.582  88.931  1.00  0.00     0.130 C 
ATOM     18  O   UNL     1      20.527  38.585  89.355  1.00  0.00    -0.300 OA
ATOM     19  C   UNL     1      22.194  39.800  88.226  1.00  0.00     0.087 C 
ENDBRANCH  16  17
ENDBRANCH  15  16
ENDBRANCH  13  15
ENDBRANCH  11  12
ENDBRANCH   1  11
TORSDOF 9
ENDMDL
MODEL 6
REMARK VINA RESULT:    -3.402      2.534      4.981
REMARK INTER + INTRA:          -8.305
REMARK INTER:                  -5.196
REMARK INTRA:                  -3.109
REMARK UNBOUND:                -3.113
REMARK SMILES CC(=O)CCC=C(C)CCC=C(C)CCC=C(C)C
REMARK SMILES IDX 10 1 11 2 12 3 13 4 14 5 15 6 16 7 18 8 17 9 19 10 9 11 7 12
REMARK SMILES IDX 6 13 8 14 5 15 4 16 2 17 3 18 1 19
REMARK H PARENT
REMARK Flexibility Score: inf
ROOT
ATOM      1  C   UNL     1      22.388  33.923  87.729  1.00  0.00     0.032 C 
ENDROOT
BRANCH   1   2
ATOM      2  C   UNL     1      22.060  34.587  89.043  1.00  0.00    -0.028 C 
ATOM      3  C   UNL     1      22.718  35.653  89.554  1.00  0.00    -0.077 C 
ATOM      4  C   UNL     1      22.273  36.198  90.886  1.00  0.00     0.039 C 
BRANCH   3   5
ATOM      5  C   UNL     1      23.836  36.363  88.816  1.00  0.00     0.034 C 
BRANCH   5   6
ATOM      6  C   UNL     1      23.461  37.824  88.545  1.00  0.00     0.032 C 
BRANCH   6   7
ATOM      7  C   UNL     1      23.230  38.051  87.072  1.00  0.00    -0.028 C 
ATOM      8  C   UNL     1      21.941  38.392  85.009  1.00  0.00     0.039 C 
ATOM      9  C   UNL     1      22.014  38.117  86.488  1.00  0.00    -0.080 C 
ATOM     10  C   UNL     1      20.738  37.915  87.273  1.00  0.00     0.039 C 
ENDBRANCH   6   7
ENDBRANCH   5   6
ENDBRANCH   3   5
ENDBRANCH   1   2
BRANCH   1  11
ATOM     11  C   UNL     1      21.453  34.419  86.620  1.00  0.00     0.034 C 
BRANCH  11  12
ATOM     12  C   UNL     1      22.228  34.665  85.341  1.00  0.00    -0.077 C 
ATOM     13  C   UNL     1      21.635  34.758  84.130  1.00  0.00    -0.028 C 
ATOM     14  C   UNL     1      23.717  34.879  85.429  1.00  0.00     0.039 C 
BRANCH  13  15
ATOM     15  C   UNL     1      20.150  34.580  83.908  1.00  0.00     0.035 C 
BRANCH  15  16
ATOM     16  C   UNL     1      19.472  35.885  83.471  1.00  0.00     0.079 C 
BRANCH  16  17
ATOM     17  C   UNL     1      18.648  36.485  84.582  1.00  0.00     0.130 C 
ATOM     18  O   UNL     1      18.339  35.795  85.542  1.00  0.00    -0.300 OA
ATOM     19  C   UNL     1      18.205  37.918  84.541  1.00  0.00     0.087 C 
ENDBRANCH  16  17
ENDBRANCH  15  16
ENDBRANCH  13  15
ENDBRANCH  11  12
ENDBRANCH   1  11
TORSDOF 9
ENDMDL
MODEL 7
REMARK VINA RESULT:    -3.374      2.406      5.652
REMARK INTER + INTRA:          -8.263
REMARK INTER:                  -5.414
REMARK INTRA:                  -2.849
REMARK UNBOUND:                -3.113
REMARK SMILES CC(=O)CCC=C(C)CCC=C(C)CCC=C(C)C
REMARK SMILES IDX 10 1 11 2 12 3 13 4 14 5 15 6 16 7 18 8 17 9 19 10 9 11 7 12
REMARK SMILES IDX 6 13 8 14 5 15 4 16 2 17 3 18 1 19
REMARK H PARENT
REMARK Flexibility Score: inf
ROOT
ATOM      1  C   UNL     1      24.089  35.467  87.482  1.00  0.00     0.032 C 
ENDROOT
BRANCH   1   2
ATOM      2  C   UNL     1      23.566  35.170  86.100  1.00  0.00    -0.028 C 
ATOM      3  C   UNL     1      22.265  34.957  85.797  1.00  0.00    -0.077 C 
ATOM      4  C   UNL     1      21.902  34.663  84.364  1.00  0.00     0.039 C 
BRANCH   3   5
ATOM      5  C   UNL     1      21.151  35.066  86.820  1.00  0.00     0.034 C 
BRANCH   5   6
ATOM      6  C   UNL     1      20.774  33.681  87.356  1.00  0.00     0.032 C 
BRANCH   6   7
ATOM      7  C   UNL     1      20.857  33.651  88.862  1.00  0.00    -0.028 C 
ATOM      8  C   UNL     1      21.826  33.162  91.065  1.00  0.00     0.039 C 
ATOM      9  C   UNL     1      21.858  33.075  89.562  1.00  0.00    -0.080 C 
ATOM     10  C   UNL     1      22.993  32.344  88.882  1.00  0.00     0.039 C 
ENDBRANCH   6   7
ENDBRANCH   5   6
ENDBRANCH   3   5
ENDBRANCH   1   2
BRANCH   1  11
ATOM     11  C   UNL     1      24.110  36.978  87.745  1.00  0.00     0.034 C 
BRANCH  11  12
ATOM     12  C   UNL     1      23.156  37.337  88.866  1.00  0.00    -0.077 C 
ATOM     13  C   UNL     1      22.256  38.340  88.769  1.00  0.00    -0.028 C 
ATOM     14  C   UNL     1      23.165  36.499  90.118  1.00  0.00     0.039 C 
BRANCH  13  15
ATOM     15  C   UNL     1      22.132  39.243  87.562  1.00  0.00     0.035 C 
BRANCH  15  16
ATOM     16  C   UNL     1      20.931  38.869  86.684  1.00  0.00     0.079 C 
BRANCH  16  17
ATOM     17  C   UNL     1      21.355  38.515  85.281  1.00  0.00     0.130 C 
ATOM     18  O   UNL     1      22.546  38.433  85.014  1.00  0.00    -0.300 OA
ATOM     19  C   UNL     1      20.346  38.247  84.203  1.00  0.00     0.087 C 
ENDBRANCH  16  17
ENDBRANCH  15  16
ENDBRANCH  13  15
ENDBRANCH  11  12
ENDBRANCH   1  11
TORSDOF 9
ENDMDL
MODEL 8
REMARK VINA RESULT:    -3.364      1.994      3.943
REMARK INTER + INTRA:          -8.247
REMARK INTER:                  -4.990
REMARK INTRA:                  -3.258
REMARK UNBOUND:                -3.113
REMARK SMILES CC(=O)CCC=C(C)CCC=C(C)CCC=C(C)C
REMARK SMILES IDX 10 1 11 2 12 3 13 4 14 5 15 6 16 7 18 8 17 9 19 10 9 11 7 12
REMARK SMILES IDX 6 13 8 14 5 15 4 16 2 17 3 18 1 19
REMARK H PARENT
REMARK Flexibility Score: inf
ROOT
ATOM      1  C   UNL     1      24.135  37.565  88.103  1.00  0.00     0.032 C 
ENDROOT
BRANCH   1   2
ATOM      2  C   UNL     1      23.643  36.173  88.409  1.00  0.00    -0.028 C 
ATOM      3  C   UNL     1      23.422  35.212  87.483  1.00  0.00    -0.077 C 
ATOM      4  C   UNL     1      22.921  33.869  87.950  1.00  0.00     0.039 C 
BRANCH   3   5
ATOM      5  C   UNL     1      23.719  35.403  86.009  1.00  0.00     0.034 C 
BRANCH   5   6
ATOM      6  C   UNL     1      22.693  34.656  85.150  1.00  0.00     0.032 C 
BRANCH   6   7
ATOM      7  C   UNL     1      21.582  35.581  84.721  1.00  0.00    -0.028 C 
ATOM      8  C   UNL     1      19.289  36.450  84.581  1.00  0.00     0.039 C 
ATOM      9  C   UNL     1      20.281  35.418  85.050  1.00  0.00    -0.080 C 
ATOM     10  C   UNL     1      19.801  34.236  85.859  1.00  0.00     0.039 C 
ENDBRANCH   6   7
ENDBRANCH   5   6
ENDBRANCH   3   5
ENDBRANCH   1   2
BRANCH   1  11
ATOM     11  C   UNL     1      23.031  38.600  88.352  1.00  0.00     0.034 C 
BRANCH  11  12
ATOM     12  C   UNL     1      21.980  38.529  87.263  1.00  0.00    -0.077 C 
ATOM     13  C   UNL     1      20.702  38.155  87.500  1.00  0.00    -0.028 C 
ATOM     14  C   UNL     1      22.356  38.954  85.867  1.00  0.00     0.039 C 
BRANCH  13  15
ATOM     15  C   UNL     1      20.193  37.723  88.856  1.00  0.00     0.035 C 
BRANCH  15  16
ATOM     16  C   UNL     1      19.880  36.221  88.902  1.00  0.00     0.079 C 
BRANCH  16  17
ATOM     17  C   UNL     1      20.423  35.576  90.151  1.00  0.00     0.130 C 
ATOM     18  O   UNL     1      21.062  36.248  90.947  1.00  0.00    -0.300 OA
ATOM     19  C   UNL     1      20.186  34.124  90.448  1.00  0.00     0.087 C 
ENDBRANCH  16  17
ENDBRANCH  15  16
ENDBRANCH  13  15
ENDBRANCH  11  12
ENDBRANCH   1  11
TORSDOF 9
ENDMDL
MODEL 9
REMARK VINA RESULT:    -3.347      1.807      4.100
REMARK INTER + INTRA:          -8.221
REMARK INTER:                  -5.161
REMARK INTRA:                  -3.060
REMARK UNBOUND:                -3.113
REMARK SMILES CC(=O)CCC=C(C)CCC=C(C)CCC=C(C)C
REMARK SMILES IDX 10 1 11 2 12 3 13 4 14 5 15 6 16 7 18 8 17 9 19 10 9 11 7 12
REMARK SMILES IDX 6 13 8 14 5 15 4 16 2 17 3 18 1 19
REMARK H PARENT
REMARK Flexibility Score: inf
ROOT
ATOM      1  C   UNL     1      23.483  35.037  85.457  1.00  0.00     0.032 C 
ENDROOT
BRANCH   1   2
ATOM      2  C   UNL     1      23.448  34.689  86.924  1.00  0.00    -0.028 C 
ATOM      3  C   UNL     1      23.712  35.555  87.928  1.00  0.00    -0.077 C 
ATOM      4  C   UNL     1      23.643  35.050  89.346  1.00  0.00     0.039 C 
BRANCH   3   5
ATOM      5  C   UNL     1      24.009  37.024  87.695  1.00  0.00     0.034 C 
BRANCH   5   6
ATOM      6  C   UNL     1      23.297  37.891  88.739  1.00  0.00     0.032 C 
BRANCH   6   7
ATOM      7  C   UNL     1      21.983  38.402  88.202  1.00  0.00    -0.028 C 
ATOM      8  C   UNL     1      19.546  38.676  88.070  1.00  0.00     0.039 C 
ATOM      9  C   UNL     1      20.771  38.049  88.682  1.00  0.00    -0.080 C 
ATOM     10  C   UNL     1      20.614  37.043  89.800  1.00  0.00     0.039 C 
ENDBRANCH   6   7
ENDBRANCH   5   6
ENDBRANCH   3   5
ENDBRANCH   1   2
BRANCH   1  11
ATOM     11  C   UNL     1      22.117  34.790  84.805  1.00  0.00     0.034 C 
BRANCH  11  12
ATOM     12  C   UNL     1      21.101  35.800  85.299  1.00  0.00    -0.077 C 
ATOM     13  C   UNL     1      20.058  35.464  86.091  1.00  0.00    -0.028 C 
ATOM     14  C   UNL     1      21.295  37.252  84.945  1.00  0.00     0.039 C 
BRANCH  13  15
ATOM     15  C   UNL     1      19.761  34.049  86.532  1.00  0.00     0.035 C 
BRANCH  15  16
ATOM     16  C   UNL     1      19.959  33.862  88.042  1.00  0.00     0.079 C 
BRANCH  16  17
ATOM     17  C   UNL     1      20.281  32.430  88.389  1.00  0.00     0.130 C 
ATOM     18  O   UNL     1      19.439  31.562  88.208  1.00  0.00    -0.300 OA
ATOM     19  C   UNL     1      21.620  32.042  88.942  1.00  0.00     0.087 C 
ENDBRANCH  16  17
ENDBRANCH  15  16
ENDBRANCH  13  15
ENDBRANCH  11  12
ENDBRANCH   1  11
TORSDOF 9
ENDMDL
