MODEL 1
REMARK VINA RESULT:    -5.813      0.000      0.000
REMARK INTER + INTRA:          -6.247
REMARK INTER:                  -6.153
REMARK INTRA:                  -0.094
REMARK UNBOUND:                -0.094
REMARK SMILES C=C(C)[C@@H]1CC=C(C)C(=O)C1
REMARK SMILES IDX 8 1 7 2 6 3 5 4 4 5 11 6 9 7 10 8 2 9 1 10 3 11
REMARK H PARENT
REMARK Flexibility Score: inf
ROOT
ATOM      1  C   UNL     1     -11.640  72.735  33.072  1.00  0.00     0.048 C 
ATOM      2  C   UNL     1     -11.222  73.194  31.701  1.00  0.00    -0.012 C 
ATOM      3  C   UNL     1     -11.580  72.486  30.615  1.00  0.00    -0.019 C 
ATOM      4  C   UNL     1     -11.254  72.946  29.219  1.00  0.00     0.036 C 
ATOM      5  C   UNL     1      -9.945  73.760  29.193  1.00  0.00     0.025 C 
ATOM      6  C   UNL     1     -10.024  74.931  30.190  1.00  0.00     0.089 C 
ATOM      7  C   UNL     1     -10.435  74.441  31.551  1.00  0.00     0.158 C 
ATOM      8  O   UNL     1     -10.141  75.130  32.566  1.00  0.00    -0.295 OA
ENDROOT
BRANCH   5   9
ATOM      9  C   UNL     1      -9.611  74.242  27.787  1.00  0.00    -0.077 C 
ATOM     10  C   UNL     1      -9.996  75.455  27.353  1.00  0.00     0.008 C 
ATOM     11  C   UNL     1      -8.835  73.355  26.848  1.00  0.00     0.039 C 
ENDBRANCH   5   9
TORSDOF 1
ENDMDL
MODEL 2
REMARK VINA RESULT:    -5.762      1.723      4.815
REMARK INTER + INTRA:          -6.194
REMARK INTER:                  -6.100
REMARK INTRA:                  -0.093
REMARK UNBOUND:                -0.094
REMARK SMILES C=C(C)[C@@H]1CC=C(C)C(=O)C1
REMARK SMILES IDX 8 1 7 2 6 3 5 4 4 5 11 6 9 7 10 8 2 9 1 10 3 11
REMARK H PARENT
REMARK Flexibility Score: inf
ROOT
ATOM      1  C   UNL     1      -9.608  74.940  28.150  1.00  0.00     0.048 C 
ATOM      2  C   UNL     1     -10.045  74.527  29.529  1.00  0.00    -0.012 C 
ATOM      3  C   UNL     1      -9.411  75.013  30.612  1.00  0.00    -0.019 C 
ATOM      4  C   UNL     1      -9.862  74.692  32.012  1.00  0.00     0.036 C 
ATOM      5  C   UNL     1     -10.512  73.296  32.081  1.00  0.00     0.025 C 
ATOM      6  C   UNL     1     -11.660  73.189  31.060  1.00  0.00     0.089 C 
ATOM      7  C   UNL     1     -11.191  73.600  29.691  1.00  0.00     0.158 C 
ATOM      8  O   UNL     1     -11.815  73.182  28.678  1.00  0.00    -0.295 OA
ENDROOT
BRANCH   5   9
ATOM      9  C   UNL     1     -10.983  72.964  33.491  1.00  0.00    -0.077 C 
ATOM     10  C   UNL     1     -12.075  73.545  34.018  1.00  0.00     0.008 C 
ATOM     11  C   UNL     1     -10.222  71.969  34.328  1.00  0.00     0.039 C 
ENDBRANCH   5   9
TORSDOF 1
ENDMDL
MODEL 3
REMARK VINA RESULT:    -5.713      1.774      2.816
REMARK INTER + INTRA:          -6.141
REMARK INTER:                  -6.051
REMARK INTRA:                  -0.090
REMARK UNBOUND:                -0.094
REMARK SMILES C=C(C)[C@@H]1CC=C(C)C(=O)C1
REMARK SMILES IDX 8 1 7 2 6 3 5 4 4 5 11 6 9 7 10 8 2 9 1 10 3 11
REMARK H PARENT
REMARK Flexibility Score: inf
ROOT
ATOM      1  C   UNL     1     -10.749  73.761  35.044  1.00  0.00     0.048 C 
ATOM      2  C   UNL     1     -10.834  73.860  33.545  1.00  0.00    -0.012 C 
ATOM      3  C   UNL     1     -10.807  75.064  32.946  1.00  0.00    -0.019 C 
ATOM      4  C   UNL     1     -10.809  75.210  31.448  1.00  0.00     0.036 C 
ATOM      5  C   UNL     1     -11.568  74.049  30.776  1.00  0.00     0.025 C 
ATOM      6  C   UNL     1     -10.986  72.697  31.229  1.00  0.00     0.089 C 
ATOM      7  C   UNL     1     -10.922  72.624  32.730  1.00  0.00     0.158 C 
ATOM      8  O   UNL     1     -10.899  71.494  33.289  1.00  0.00    -0.295 OA
ENDROOT
BRANCH   5   9
ATOM      9  C   UNL     1     -11.566  74.180  29.258  1.00  0.00    -0.077 C 
ATOM     10  C   UNL     1     -12.687  74.002  28.539  1.00  0.00     0.008 C 
ATOM     11  C   UNL     1     -10.289  74.514  28.530  1.00  0.00     0.039 C 
ENDBRANCH   5   9
TORSDOF 1
ENDMDL
MODEL 4
REMARK VINA RESULT:    -5.635      1.125      1.420
REMARK INTER + INTRA:          -6.059
REMARK INTER:                  -5.966
REMARK INTRA:                  -0.093
REMARK UNBOUND:                -0.094
REMARK SMILES C=C(C)[C@@H]1CC=C(C)C(=O)C1
REMARK SMILES IDX 8 1 7 2 6 3 5 4 4 5 11 6 9 7 10 8 2 9 1 10 3 11
REMARK H PARENT
REMARK Flexibility Score: inf
ROOT
ATOM      1  C   UNL     1     -10.912  73.050  34.425  1.00  0.00     0.048 C 
ATOM      2  C   UNL     1     -10.889  73.294  32.941  1.00  0.00    -0.012 C 
ATOM      3  C   UNL     1     -10.843  72.256  32.087  1.00  0.00    -0.019 C 
ATOM      4  C   UNL     1     -10.898  72.448  30.595  1.00  0.00     0.036 C 
ATOM      5  C   UNL     1     -10.270  73.793  30.182  1.00  0.00     0.025 C 
ATOM      6  C   UNL     1     -10.940  74.952  30.944  1.00  0.00     0.089 C 
ATOM      7  C   UNL     1     -10.940  74.683  32.424  1.00  0.00     0.158 C 
ATOM      8  O   UNL     1     -11.032  75.653  33.224  1.00  0.00    -0.295 OA
ENDROOT
BRANCH   5   9
ATOM      9  C   UNL     1     -10.331  74.004  28.675  1.00  0.00    -0.077 C 
ATOM     10  C   UNL     1     -11.504  74.025  28.018  1.00  0.00     0.008 C 
ATOM     11  C   UNL     1      -9.061  74.193  27.886  1.00  0.00     0.039 C 
ENDBRANCH   5   9
TORSDOF 1
ENDMDL
MODEL 5
REMARK VINA RESULT:    -5.526      2.128      5.195
REMARK INTER + INTRA:          -5.944
REMARK INTER:                  -5.849
REMARK INTRA:                  -0.095
REMARK UNBOUND:                -0.094
REMARK SMILES C=C(C)[C@@H]1CC=C(C)C(=O)C1
REMARK SMILES IDX 8 1 7 2 6 3 5 4 4 5 11 6 9 7 10 8 2 9 1 10 3 11
REMARK H PARENT
REMARK Flexibility Score: inf
ROOT
ATOM      1  C   UNL     1     -11.107  74.610  29.125  1.00  0.00     0.048 C 
ATOM      2  C   UNL     1     -11.097  74.154  30.559  1.00  0.00    -0.012 C 
ATOM      3  C   UNL     1     -10.852  75.035  31.545  1.00  0.00    -0.019 C 
ATOM      4  C   UNL     1     -10.910  74.644  32.997  1.00  0.00     0.036 C 
ATOM      5  C   UNL     1     -10.518  73.166  33.192  1.00  0.00     0.025 C 
ATOM      6  C   UNL     1     -11.396  72.260  32.308  1.00  0.00     0.089 C 
ATOM      7  C   UNL     1     -11.380  72.735  30.881  1.00  0.00     0.158 C 
ATOM      8  O   UNL     1     -11.656  71.919  29.960  1.00  0.00    -0.295 OA
ENDROOT
BRANCH   5   9
ATOM      9  C   UNL     1     -10.584  72.754  34.657  1.00  0.00    -0.077 C 
ATOM     10  C   UNL     1     -11.335  73.434  35.541  1.00  0.00     0.008 C 
ATOM     11  C   UNL     1      -9.797  71.565  35.144  1.00  0.00     0.039 C 
ENDBRANCH   5   9
TORSDOF 1
ENDMDL
MODEL 6
REMARK VINA RESULT:    -5.524      2.263      5.572
REMARK INTER + INTRA:          -5.942
REMARK INTER:                  -5.847
REMARK INTRA:                  -0.094
REMARK UNBOUND:                -0.094
REMARK SMILES C=C(C)[C@@H]1CC=C(C)C(=O)C1
REMARK SMILES IDX 8 1 7 2 6 3 5 4 4 5 11 6 9 7 10 8 2 9 1 10 3 11
REMARK H PARENT
REMARK Flexibility Score: inf
ROOT
ATOM      1  C   UNL     1     -11.574  74.225  30.186  1.00  0.00     0.048 C 
ATOM      2  C   UNL     1     -11.244  73.794  31.589  1.00  0.00    -0.012 C 
ATOM      3  C   UNL     1     -11.238  72.487  31.911  1.00  0.00    -0.019 C 
ATOM      4  C   UNL     1     -10.837  72.003  33.278  1.00  0.00     0.036 C 
ATOM      5  C   UNL     1     -11.182  73.045  34.361  1.00  0.00     0.025 C 
ATOM      6  C   UNL     1     -10.548  74.405  34.014  1.00  0.00     0.089 C 
ATOM      7  C   UNL     1     -10.901  74.813  32.610  1.00  0.00     0.158 C 
ATOM      8  O   UNL     1     -10.860  76.034  32.297  1.00  0.00    -0.295 OA
ENDROOT
BRANCH   5   9
ATOM      9  C   UNL     1     -10.770  72.571  35.749  1.00  0.00    -0.077 C 
ATOM     10  C   UNL     1      -9.710  71.762  35.926  1.00  0.00     0.008 C 
ATOM     11  C   UNL     1     -11.554  73.006  36.959  1.00  0.00     0.039 C 
ENDBRANCH   5   9
TORSDOF 1
ENDMDL
MODEL 7
REMARK VINA RESULT:    -5.275      1.418      4.391
REMARK INTER + INTRA:          -5.677
REMARK INTER:                  -5.588
REMARK INTRA:                  -0.089
REMARK UNBOUND:                -0.094
REMARK SMILES C=C(C)[C@@H]1CC=C(C)C(=O)C1
REMARK SMILES IDX 8 1 7 2 6 3 5 4 4 5 11 6 9 7 10 8 2 9 1 10 3 11
REMARK H PARENT
REMARK Flexibility Score: inf
ROOT
ATOM      1  C   UNL     1     -10.892  73.930  27.557  1.00  0.00     0.048 C 
ATOM      2  C   UNL     1     -10.917  73.638  29.032  1.00  0.00    -0.012 C 
ATOM      3  C   UNL     1     -11.610  72.585  29.500  1.00  0.00    -0.019 C 
ATOM      4  C   UNL     1     -11.601  72.206  30.957  1.00  0.00     0.036 C 
ATOM      5  C   UNL     1     -11.416  73.447  31.853  1.00  0.00     0.025 C 
ATOM      6  C   UNL     1     -10.148  74.219  31.443  1.00  0.00     0.089 C 
ATOM      7  C   UNL     1     -10.155  74.503  29.966  1.00  0.00     0.158 C 
ATOM      8  O   UNL     1      -9.467  75.461  29.522  1.00  0.00    -0.295 OA
ENDROOT
BRANCH   5   9
ATOM      9  C   UNL     1     -11.392  73.075  33.330  1.00  0.00    -0.077 C 
ATOM     10  C   UNL     1     -12.182  73.699  34.222  1.00  0.00     0.008 C 
ATOM     11  C   UNL     1     -10.471  71.988  33.821  1.00  0.00     0.039 C 
ENDBRANCH   5   9
TORSDOF 1
ENDMDL
MODEL 8
REMARK VINA RESULT:    -5.257      1.984      4.357
REMARK INTER + INTRA:          -5.659
REMARK INTER:                  -5.568
REMARK INTRA:                  -0.090
REMARK UNBOUND:                -0.094
REMARK SMILES C=C(C)[C@@H]1CC=C(C)C(=O)C1
REMARK SMILES IDX 8 1 7 2 6 3 5 4 4 5 11 6 9 7 10 8 2 9 1 10 3 11
REMARK H PARENT
REMARK Flexibility Score: inf
ROOT
ATOM      1  C   UNL     1     -10.535  73.812  26.052  1.00  0.00     0.048 C 
ATOM      2  C   UNL     1     -10.645  73.911  27.549  1.00  0.00    -0.012 C 
ATOM      3  C   UNL     1     -11.854  74.012  28.131  1.00  0.00    -0.019 C 
ATOM      4  C   UNL     1     -12.020  74.033  29.627  1.00  0.00     0.036 C 
ATOM      5  C   UNL     1     -10.796  74.671  30.314  1.00  0.00     0.025 C 
ATOM      6  C   UNL     1      -9.505  73.951  29.881  1.00  0.00     0.089 C 
ATOM      7  C   UNL     1      -9.419  73.874  28.381  1.00  0.00     0.158 C 
ATOM      8  O   UNL     1      -8.290  73.732  27.838  1.00  0.00    -0.295 OA
ENDROOT
BRANCH   5   9
ATOM      9  C   UNL     1     -10.948  74.687  31.830  1.00  0.00    -0.077 C 
ATOM     10  C   UNL     1     -10.622  75.773  32.553  1.00  0.00     0.008 C 
ATOM     11  C   UNL     1     -11.471  73.472  32.550  1.00  0.00     0.039 C 
ENDBRANCH   5   9
TORSDOF 1
ENDMDL
MODEL 9
REMARK VINA RESULT:    -5.239      2.057      2.971
REMARK INTER + INTRA:          -5.640
REMARK INTER:                  -5.547
REMARK INTRA:                  -0.092
REMARK UNBOUND:                -0.094
REMARK SMILES C=C(C)[C@@H]1CC=C(C)C(=O)C1
REMARK SMILES IDX 8 1 7 2 6 3 5 4 4 5 11 6 9 7 10 8 2 9 1 10 3 11
REMARK H PARENT
REMARK Flexibility Score: inf
ROOT
ATOM      1  C   UNL     1     -11.167  74.721  31.111  1.00  0.00     0.048 C 
ATOM      2  C   UNL     1     -10.680  74.431  29.718  1.00  0.00    -0.012 C 
ATOM      3  C   UNL     1      -9.363  74.440  29.448  1.00  0.00    -0.019 C 
ATOM      4  C   UNL     1      -8.824  74.078  28.090  1.00  0.00     0.036 C 
ATOM      5  C   UNL     1      -9.824  74.449  26.977  1.00  0.00     0.025 C 
ATOM      6  C   UNL     1     -11.194  73.801  27.252  1.00  0.00     0.089 C 
ATOM      7  C   UNL     1     -11.658  74.114  28.649  1.00  0.00     0.158 C 
ATOM      8  O   UNL     1     -12.889  74.060  28.913  1.00  0.00    -0.295 OA
ENDROOT
BRANCH   5   9
ATOM      9  C   UNL     1      -9.294  74.077  25.598  1.00  0.00    -0.077 C 
ATOM     10  C   UNL     1      -9.658  74.763  24.501  1.00  0.00     0.008 C 
ATOM     11  C   UNL     1      -8.344  72.919  25.441  1.00  0.00     0.039 C 
ENDBRANCH   5   9
TORSDOF 1
ENDMDL
