MODEL 1
REMARK VINA RESULT:    -5.653      0.000      0.000
REMARK INTER + INTRA:          -6.149
REMARK INTER:                  -6.149
REMARK INTRA:                   0.000
REMARK UNBOUND:                 0.000
REMARK SMILES Cc1cc(O)c2c(c1)C(=O)c1cc(O)cc(O)c1C2=O
REMARK SMILES IDX 1 1 2 2 8 3 7 4 6 5 4 6 3 7 19 8 20 9 18 10 11 11 9 12 10 13
REMARK SMILES IDX 12 14 13 15 15 16 16 17 5 18 17 20 14 22
REMARK H PARENT 5 19 17 21 14 23
REMARK Flexibility Score: inf
ROOT
ATOM      1  C   UNL     1     -10.093   4.097  -7.521  1.00  0.00     0.044 C 
ATOM      2  C   UNL     1      -9.200   5.130  -6.898  1.00  0.00    -0.047 A 
ATOM      3  C   UNL     1      -7.844   5.185  -7.237  1.00  0.00     0.016 A 
ATOM      4  C   UNL     1      -7.006   6.170  -6.685  1.00  0.00     0.038 A 
ATOM      5  C   UNL     1      -7.540   7.127  -5.795  1.00  0.00     0.076 A 
ATOM      6  C   UNL     1      -8.913   7.074  -5.465  1.00  0.00     0.127 A 
ATOM      7  C   UNL     1      -9.732   6.084  -6.023  1.00  0.00     0.050 A 
ATOM      8  C   UNL     1      -6.649   8.186  -5.252  1.00  0.00     0.201 C 
ATOM      9  O   UNL     1      -7.154   9.232  -4.765  1.00  0.00    -0.288 OA
ATOM     10  C   UNL     1      -5.170   8.062  -5.388  1.00  0.00     0.076 A 
ATOM     11  C   UNL     1      -4.657   7.142  -6.332  1.00  0.00     0.041 A 
ATOM     12  C   UNL     1      -5.569   6.213  -7.039  1.00  0.00     0.194 C 
ATOM     13  O   UNL     1      -5.117   5.442  -7.930  1.00  0.00    -0.289 OA
ATOM     14  C   UNL     1      -3.276   7.103  -6.592  1.00  0.00     0.059 A 
ATOM     15  C   UNL     1      -2.402   7.953  -5.916  1.00  0.00     0.120 A 
ATOM     16  C   UNL     1      -2.896   8.830  -4.949  1.00  0.00     0.093 A 
ATOM     17  C   UNL     1      -4.261   8.871  -4.651  1.00  0.00     0.131 A 
ENDROOT
BRANCH   6  18
ATOM     18  O   UNL     1      -9.467   7.998  -4.578  1.00  0.00    -0.507 OA
ATOM     19  H   UNL     1      -9.119   8.948  -4.510  1.00  0.00     0.293 HD
ENDBRANCH   6  18
BRANCH  17  20
ATOM     20  O   UNL     1      -4.659   9.697  -3.597  1.00  0.00    -0.507 OA
ATOM     21  H   UNL     1      -4.024  10.069  -2.906  1.00  0.00     0.293 HD
ENDBRANCH  17  20
BRANCH  15  22
ATOM     22  O   UNL     1      -1.039   7.907  -6.204  1.00  0.00    -0.508 OA
ATOM     23  H   UNL     1      -0.555   8.701  -6.607  1.00  0.00     0.293 HD
ENDBRANCH  15  22
TORSDOF 3
ENDMDL
MODEL 2
REMARK VINA RESULT:    -5.511      1.488      5.492
REMARK INTER + INTRA:          -5.994
REMARK INTER:                  -5.994
REMARK INTRA:                   0.000
REMARK UNBOUND:                 0.000
REMARK SMILES Cc1cc(O)c2c(c1)C(=O)c1cc(O)cc(O)c1C2=O
REMARK SMILES IDX 1 1 2 2 8 3 7 4 6 5 4 6 3 7 19 8 20 9 18 10 11 11 9 12 10 13
REMARK SMILES IDX 12 14 13 15 15 16 16 17 5 18 17 20 14 22
REMARK H PARENT 5 19 17 21 14 23
REMARK Flexibility Score: inf
ROOT
ATOM      1  C   UNL     1      -0.441   8.504  -5.243  1.00  0.00     0.044 C 
ATOM      2  C   UNL     1      -1.937   8.398  -5.321  1.00  0.00    -0.047 A 
ATOM      3  C   UNL     1      -2.533   7.491  -6.203  1.00  0.00     0.016 A 
ATOM      4  C   UNL     1      -3.932   7.359  -6.260  1.00  0.00     0.038 A 
ATOM      5  C   UNL     1      -4.744   8.135  -5.406  1.00  0.00     0.076 A 
ATOM      6  C   UNL     1      -4.136   9.042  -4.507  1.00  0.00     0.127 A 
ATOM      7  C   UNL     1      -2.741   9.161  -4.467  1.00  0.00     0.050 A 
ATOM      8  C   UNL     1      -6.220   7.955  -5.450  1.00  0.00     0.201 C 
ATOM      9  O   UNL     1      -6.922   8.349  -4.481  1.00  0.00    -0.288 OA
ATOM     10  C   UNL     1      -6.849   7.212  -6.578  1.00  0.00     0.076 A 
ATOM     11  C   UNL     1      -6.026   6.390  -7.384  1.00  0.00     0.041 A 
ATOM     12  C   UNL     1      -4.556   6.407  -7.207  1.00  0.00     0.194 C 
ATOM     13  O   UNL     1      -3.830   5.622  -7.878  1.00  0.00    -0.289 OA
ATOM     14  C   UNL     1      -6.606   5.563  -8.361  1.00  0.00     0.059 A 
ATOM     15  C   UNL     1      -7.986   5.555  -8.557  1.00  0.00     0.120 A 
ATOM     16  C   UNL     1      -8.799   6.399  -7.799  1.00  0.00     0.093 A 
ATOM     17  C   UNL     1      -8.246   7.252  -6.838  1.00  0.00     0.131 A 
ENDROOT
BRANCH   6  18
ATOM     18  O   UNL     1      -4.914   9.831  -3.659  1.00  0.00    -0.507 OA
ATOM     19  H   UNL     1      -4.757   9.854  -2.658  1.00  0.00     0.293 HD
ENDBRANCH   6  18
BRANCH  17  20
ATOM     20  O   UNL     1      -9.115   8.140  -6.199  1.00  0.00    -0.507 OA
ATOM     21  H   UNL     1      -9.070   9.143  -6.306  1.00  0.00     0.293 HD
ENDBRANCH  17  20
BRANCH  15  22
ATOM     22  O   UNL     1      -8.539   4.714  -9.521  1.00  0.00    -0.508 OA
ATOM     23  H   UNL     1      -8.923   5.078 -10.385  1.00  0.00     0.293 HD
ENDBRANCH  15  22
TORSDOF 3
ENDMDL
MODEL 3
REMARK VINA RESULT:    -4.974      1.553      6.381
REMARK INTER + INTRA:          -5.410
REMARK INTER:                  -5.410
REMARK INTRA:                   0.000
REMARK UNBOUND:                 0.000
REMARK SMILES Cc1cc(O)c2c(c1)C(=O)c1cc(O)cc(O)c1C2=O
REMARK SMILES IDX 1 1 2 2 8 3 7 4 6 5 4 6 3 7 19 8 20 9 18 10 11 11 9 12 10 13
REMARK SMILES IDX 12 14 13 15 15 16 16 17 5 18 17 20 14 22
REMARK H PARENT 5 19 17 21 14 23
REMARK Flexibility Score: inf
ROOT
ATOM      1  C   UNL     1      -1.114  10.125  -4.598  1.00  0.00     0.044 C 
ATOM      2  C   UNL     1      -2.077   9.352  -5.452  1.00  0.00    -0.047 A 
ATOM      3  C   UNL     1      -3.364   9.068  -4.980  1.00  0.00     0.016 A 
ATOM      4  C   UNL     1      -4.285   8.374  -5.785  1.00  0.00     0.038 A 
ATOM      5  C   UNL     1      -3.918   7.976  -7.088  1.00  0.00     0.076 A 
ATOM      6  C   UNL     1      -2.621   8.276  -7.564  1.00  0.00     0.127 A 
ATOM      7  C   UNL     1      -1.716   8.966  -6.747  1.00  0.00     0.050 A 
ATOM      8  C   UNL     1      -4.918   7.279  -7.940  1.00  0.00     0.201 C 
ATOM      9  O   UNL     1      -4.749   7.239  -9.188  1.00  0.00    -0.288 OA
ATOM     10  C   UNL     1      -6.165   6.732  -7.335  1.00  0.00     0.076 A 
ATOM     11  C   UNL     1      -6.548   7.193  -6.054  1.00  0.00     0.041 A 
ATOM     12  C   UNL     1      -5.640   8.065  -5.273  1.00  0.00     0.194 C 
ATOM     13  O   UNL     1      -6.013   8.531  -4.161  1.00  0.00    -0.289 OA
ATOM     14  C   UNL     1      -7.790   6.812  -5.515  1.00  0.00     0.059 A 
ATOM     15  C   UNL     1      -8.644   5.971  -6.226  1.00  0.00     0.120 A 
ATOM     16  C   UNL     1      -8.252   5.475  -7.470  1.00  0.00     0.093 A 
ATOM     17  C   UNL     1      -7.010   5.815  -8.018  1.00  0.00     0.131 A 
ENDROOT
BRANCH   6  18
ATOM     18  O   UNL     1      -2.225   7.885  -8.844  1.00  0.00    -0.507 OA
ATOM     19  H   UNL     1      -2.176   8.544  -9.612  1.00  0.00     0.293 HD
ENDBRANCH   6  18
BRANCH  17  20
ATOM     20  O   UNL     1      -6.649   5.192  -9.214  1.00  0.00    -0.507 OA
ATOM     21  H   UNL     1      -6.888   5.550 -10.128  1.00  0.00     0.293 HD
ENDBRANCH  17  20
BRANCH  15  22
ATOM     22  O   UNL     1      -9.877   5.622  -5.679  1.00  0.00    -0.508 OA
ATOM     23  H   UNL     1     -10.597   6.315  -5.508  1.00  0.00     0.293 HD
ENDBRANCH  15  22
TORSDOF 3
ENDMDL
MODEL 4
REMARK VINA RESULT:    -4.728      2.048      2.546
REMARK INTER + INTRA:          -5.143
REMARK INTER:                  -5.143
REMARK INTRA:                   0.000
REMARK UNBOUND:                 0.000
REMARK SMILES Cc1cc(O)c2c(c1)C(=O)c1cc(O)cc(O)c1C2=O
REMARK SMILES IDX 1 1 2 2 8 3 7 4 6 5 4 6 3 7 19 8 20 9 18 10 11 11 9 12 10 13
REMARK SMILES IDX 12 14 13 15 15 16 16 17 5 18 17 20 14 22
REMARK H PARENT 5 19 17 21 14 23
REMARK Flexibility Score: inf
ROOT
ATOM      1  C   UNL     1      -8.724   7.565  -9.139  1.00  0.00     0.044 C 
ATOM      2  C   UNL     1      -7.698   7.841  -8.079  1.00  0.00    -0.047 A 
ATOM      3  C   UNL     1      -6.343   7.935  -8.420  1.00  0.00     0.016 A 
ATOM      4  C   UNL     1      -5.377   8.226  -7.440  1.00  0.00     0.038 A 
ATOM      5  C   UNL     1      -5.776   8.446  -6.105  1.00  0.00     0.076 A 
ATOM      6  C   UNL     1      -7.147   8.363  -5.769  1.00  0.00     0.127 A 
ATOM      7  C   UNL     1      -8.095   8.069  -6.757  1.00  0.00     0.050 A 
ATOM      8  C   UNL     1      -4.746   8.793  -5.090  1.00  0.00     0.201 C 
ATOM      9  O   UNL     1      -5.099   9.335  -4.009  1.00  0.00    -0.288 OA
ATOM     10  C   UNL     1      -3.300   8.605  -5.397  1.00  0.00     0.076 A 
ATOM     11  C   UNL     1      -2.915   8.449  -6.749  1.00  0.00     0.041 A 
ATOM     12  C   UNL     1      -3.944   8.309  -7.805  1.00  0.00     0.194 C 
ATOM     13  O   UNL     1      -3.599   8.240  -9.017  1.00  0.00    -0.289 OA
ATOM     14  C   UNL     1      -1.551   8.417  -7.090  1.00  0.00     0.059 A 
ATOM     15  C   UNL     1      -0.571   8.522  -6.104  1.00  0.00     0.120 A 
ATOM     16  C   UNL     1      -0.944   8.628  -4.763  1.00  0.00     0.093 A 
ATOM     17  C   UNL     1      -2.292   8.635  -4.394  1.00  0.00     0.131 A 
ENDROOT
BRANCH   6  18
ATOM     18  O   UNL     1      -7.570   8.563  -4.455  1.00  0.00    -0.507 OA
ATOM     19  H   UNL     1      -6.993   8.306  -3.663  1.00  0.00     0.293 HD
ENDBRANCH   6  18
BRANCH  17  20
ATOM     20  O   UNL     1      -2.579   8.635  -3.027  1.00  0.00    -0.507 OA
ATOM     21  H   UNL     1      -2.487   7.822  -2.434  1.00  0.00     0.293 HD
ENDBRANCH  17  20
BRANCH  15  22
ATOM     22  O   UNL     1       0.774   8.505  -6.468  1.00  0.00    -0.508 OA
ATOM     23  H   UNL     1       1.358   9.329  -6.380  1.00  0.00     0.293 HD
ENDBRANCH  15  22
TORSDOF 3
ENDMDL
MODEL 5
REMARK VINA RESULT:    -4.703      1.964      3.559
REMARK INTER + INTRA:          -5.116
REMARK INTER:                  -5.116
REMARK INTRA:                   0.000
REMARK UNBOUND:                 0.000
REMARK SMILES Cc1cc(O)c2c(c1)C(=O)c1cc(O)cc(O)c1C2=O
REMARK SMILES IDX 1 1 2 2 8 3 7 4 6 5 4 6 3 7 19 8 20 9 18 10 11 11 9 12 10 13
REMARK SMILES IDX 12 14 13 15 15 16 16 17 5 18 17 20 14 22
REMARK H PARENT 5 19 17 21 14 23
REMARK Flexibility Score: inf
ROOT
ATOM      1  C   UNL     1     -10.114   8.243  -4.878  1.00  0.00     0.044 C 
ATOM      2  C   UNL     1      -8.761   8.094  -5.511  1.00  0.00    -0.047 A 
ATOM      3  C   UNL     1      -7.622   8.582  -4.860  1.00  0.00     0.016 A 
ATOM      4  C   UNL     1      -6.346   8.418  -5.428  1.00  0.00     0.038 A 
ATOM      5  C   UNL     1      -6.207   7.736  -6.655  1.00  0.00     0.076 A 
ATOM      6  C   UNL     1      -7.360   7.234  -7.302  1.00  0.00     0.127 A 
ATOM      7  C   UNL     1      -8.623   7.409  -6.723  1.00  0.00     0.050 A 
ATOM      8  C   UNL     1      -4.847   7.535  -7.222  1.00  0.00     0.201 C 
ATOM      9  O   UNL     1      -4.664   6.646  -8.095  1.00  0.00    -0.288 OA
ATOM     10  C   UNL     1      -3.690   8.301  -6.678  1.00  0.00     0.076 A 
ATOM     11  C   UNL     1      -3.830   8.924  -5.416  1.00  0.00     0.041 A 
ATOM     12  C   UNL     1      -5.148   8.950  -4.740  1.00  0.00     0.194 C 
ATOM     13  O   UNL     1      -5.254   9.444  -3.584  1.00  0.00    -0.289 OA
ATOM     14  C   UNL     1      -2.717   9.528  -4.806  1.00  0.00     0.059 A 
ATOM     15  C   UNL     1      -1.476   9.534  -5.441  1.00  0.00     0.120 A 
ATOM     16  C   UNL     1      -1.342   8.964  -6.708  1.00  0.00     0.093 A 
ATOM     17  C   UNL     1      -2.439   8.379  -7.349  1.00  0.00     0.131 A 
ENDROOT
BRANCH   6  18
ATOM     18  O   UNL     1      -7.255   6.566  -8.524  1.00  0.00    -0.507 OA
ATOM     19  H   UNL     1      -6.491   5.931  -8.721  1.00  0.00     0.293 HD
ENDBRANCH   6  18
BRANCH  17  20
ATOM     20  O   UNL     1      -2.246   7.928  -8.657  1.00  0.00    -0.507 OA
ATOM     21  H   UNL     1      -1.431   7.413  -8.959  1.00  0.00     0.293 HD
ENDBRANCH  17  20
BRANCH  15  22
ATOM     22  O   UNL     1      -0.383  10.125  -4.809  1.00  0.00    -0.508 OA
ATOM     23  H   UNL     1       0.027  10.986  -5.153  1.00  0.00     0.293 HD
ENDBRANCH  15  22
TORSDOF 3
ENDMDL
MODEL 6
REMARK VINA RESULT:    -4.700      4.554      6.361
REMARK INTER + INTRA:          -5.113
REMARK INTER:                  -5.113
REMARK INTRA:                   0.000
REMARK UNBOUND:                 0.000
REMARK SMILES Cc1cc(O)c2c(c1)C(=O)c1cc(O)cc(O)c1C2=O
REMARK SMILES IDX 1 1 2 2 8 3 7 4 6 5 4 6 3 7 19 8 20 9 18 10 11 11 9 12 10 13
REMARK SMILES IDX 12 14 13 15 15 16 16 17 5 18 17 20 14 22
REMARK H PARENT 5 19 17 21 14 23
REMARK Flexibility Score: inf
ROOT
ATOM      1  C   UNL     1      -4.294   9.711  -2.421  1.00  0.00     0.044 C 
ATOM      2  C   UNL     1      -3.649   9.570  -3.769  1.00  0.00    -0.047 A 
ATOM      3  C   UNL     1      -2.362   9.033  -3.881  1.00  0.00     0.016 A 
ATOM      4  C   UNL     1      -1.762   8.864  -5.141  1.00  0.00     0.038 A 
ATOM      5  C   UNL     1      -2.470   9.221  -6.308  1.00  0.00     0.076 A 
ATOM      6  C   UNL     1      -3.775   9.751  -6.191  1.00  0.00     0.127 A 
ATOM      7  C   UNL     1      -4.356   9.914  -4.927  1.00  0.00     0.050 A 
ATOM      8  C   UNL     1      -1.837   8.999  -7.636  1.00  0.00     0.201 C 
ATOM      9  O   UNL     1      -2.557   8.965  -8.668  1.00  0.00    -0.288 OA
ATOM     10  C   UNL     1      -0.379   8.705  -7.729  1.00  0.00     0.076 A 
ATOM     11  C   UNL     1       0.299   8.288  -6.560  1.00  0.00     0.041 A 
ATOM     12  C   UNL     1      -0.393   8.309  -5.250  1.00  0.00     0.194 C 
ATOM     13  O   UNL     1       0.190   7.871  -4.221  1.00  0.00    -0.289 OA
ATOM     14  C   UNL     1       1.636   7.862  -6.640  1.00  0.00     0.059 A 
ATOM     15  C   UNL     1       2.309   7.862  -7.860  1.00  0.00     0.120 A 
ATOM     16  C   UNL     1       1.661   8.317  -9.010  1.00  0.00     0.093 A 
ATOM     17  C   UNL     1       0.340   8.772  -8.954  1.00  0.00     0.131 A 
ENDROOT
BRANCH   6  18
ATOM     18  O   UNL     1      -4.496  10.125  -7.326  1.00  0.00    -0.507 OA
ATOM     19  H   UNL     1      -5.353  10.661  -7.262  1.00  0.00     0.293 HD
ENDBRANCH   6  18
BRANCH  17  20
ATOM     20  O   UNL     1      -0.198   9.311 -10.125  1.00  0.00    -0.507 OA
ATOM     21  H   UNL     1      -0.962   9.971 -10.139  1.00  0.00     0.293 HD
ENDBRANCH  17  20
BRANCH  15  22
ATOM     22  O   UNL     1       3.629   7.419  -7.917  1.00  0.00    -0.508 OA
ATOM     23  H   UNL     1       4.107   7.288  -8.802  1.00  0.00     0.293 HD
ENDBRANCH  15  22
TORSDOF 3
ENDMDL
MODEL 7
REMARK VINA RESULT:    -4.620      1.449      3.430
REMARK INTER + INTRA:          -5.025
REMARK INTER:                  -5.025
REMARK INTRA:                   0.000
REMARK UNBOUND:                 0.000
REMARK SMILES Cc1cc(O)c2c(c1)C(=O)c1cc(O)cc(O)c1C2=O
REMARK SMILES IDX 1 1 2 2 8 3 7 4 6 5 4 6 3 7 19 8 20 9 18 10 11 11 9 12 10 13
REMARK SMILES IDX 12 14 13 15 15 16 16 17 5 18 17 20 14 22
REMARK H PARENT 5 19 17 21 14 23
REMARK Flexibility Score: inf
ROOT
ATOM      1  C   UNL     1     -10.125   5.100  -7.621  1.00  0.00     0.044 C 
ATOM      2  C   UNL     1      -8.690   5.528  -7.729  1.00  0.00    -0.047 A 
ATOM      3  C   UNL     1      -8.072   6.190  -6.662  1.00  0.00     0.016 A 
ATOM      4  C   UNL     1      -6.719   6.566  -6.740  1.00  0.00     0.038 A 
ATOM      5  C   UNL     1      -5.970   6.256  -7.895  1.00  0.00     0.076 A 
ATOM      6  C   UNL     1      -6.596   5.576  -8.965  1.00  0.00     0.127 A 
ATOM      7  C   UNL     1      -7.945   5.212  -8.871  1.00  0.00     0.050 A 
ATOM      8  C   UNL     1      -4.530   6.625  -7.945  1.00  0.00     0.201 C 
ATOM      9  O   UNL     1      -3.773   6.057  -8.776  1.00  0.00    -0.288 OA
ATOM     10  C   UNL     1      -3.965   7.572  -6.942  1.00  0.00     0.076 A 
ATOM     11  C   UNL     1      -4.704   7.819  -5.761  1.00  0.00     0.041 A 
ATOM     12  C   UNL     1      -6.075   7.278  -5.613  1.00  0.00     0.194 C 
ATOM     13  O   UNL     1      -6.704   7.442  -4.531  1.00  0.00    -0.289 OA
ATOM     14  C   UNL     1      -4.138   8.589  -4.730  1.00  0.00     0.059 A 
ATOM     15  C   UNL     1      -2.859   9.127  -4.866  1.00  0.00     0.120 A 
ATOM     16  C   UNL     1      -2.144   8.927  -6.048  1.00  0.00     0.093 A 
ATOM     17  C   UNL     1      -2.693   8.187  -7.100  1.00  0.00     0.131 A 
ENDROOT
BRANCH   6  18
ATOM     18  O   UNL     1      -5.885   5.267 -10.125  1.00  0.00    -0.507 OA
ATOM     19  H   UNL     1      -5.411   4.379 -10.240  1.00  0.00     0.293 HD
ENDBRANCH   6  18
BRANCH  17  20
ATOM     20  O   UNL     1      -1.959   8.125  -8.286  1.00  0.00    -0.507 OA
ATOM     21  H   UNL     1      -2.319   8.412  -9.185  1.00  0.00     0.293 HD
ENDBRANCH  17  20
BRANCH  15  22
ATOM     22  O   UNL     1      -2.313   9.873  -3.823  1.00  0.00    -0.508 OA
ATOM     23  H   UNL     1      -1.491  10.451  -3.958  1.00  0.00     0.293 HD
ENDBRANCH  15  22
TORSDOF 3
ENDMDL
MODEL 8
REMARK VINA RESULT:    -4.497      3.120      6.523
REMARK INTER + INTRA:          -4.892
REMARK INTER:                  -4.892
REMARK INTRA:                   0.000
REMARK UNBOUND:                 0.000
REMARK SMILES Cc1cc(O)c2c(c1)C(=O)c1cc(O)cc(O)c1C2=O
REMARK SMILES IDX 1 1 2 2 8 3 7 4 6 5 4 6 3 7 19 8 20 9 18 10 11 11 9 12 10 13
REMARK SMILES IDX 12 14 13 15 15 16 16 17 5 18 17 20 14 22
REMARK H PARENT 5 19 17 21 14 23
REMARK Flexibility Score: inf
ROOT
ATOM      1  C   UNL     1       1.633   9.035  -8.545  1.00  0.00     0.044 C 
ATOM      2  C   UNL     1       0.358   9.000  -7.754  1.00  0.00    -0.047 A 
ATOM      3  C   UNL     1      -0.878   9.066  -8.408  1.00  0.00     0.016 A 
ATOM      4  C   UNL     1      -2.079   9.000  -7.679  1.00  0.00     0.038 A 
ATOM      5  C   UNL     1      -2.041   8.846  -6.277  1.00  0.00     0.076 A 
ATOM      6  C   UNL     1      -0.790   8.767  -5.623  1.00  0.00     0.127 A 
ATOM      7  C   UNL     1       0.396   8.838  -6.364  1.00  0.00     0.050 A 
ATOM      8  C   UNL     1      -3.320   8.737  -5.526  1.00  0.00     0.201 C 
ATOM      9  O   UNL     1      -3.318   8.249  -4.364  1.00  0.00    -0.288 OA
ATOM     10  C   UNL     1      -4.607   9.096  -6.185  1.00  0.00     0.076 A 
ATOM     11  C   UNL     1      -4.638   9.183  -7.597  1.00  0.00     0.041 A 
ATOM     12  C   UNL     1      -3.382   9.085  -8.377  1.00  0.00     0.194 C 
ATOM     13  O   UNL     1      -3.420   9.093  -9.638  1.00  0.00    -0.289 OA
ATOM     14  C   UNL     1      -5.863   9.373  -8.260  1.00  0.00     0.059 A 
ATOM     15  C   UNL     1      -7.049   9.494  -7.539  1.00  0.00     0.120 A 
ATOM     16  C   UNL     1      -7.020   9.457  -6.144  1.00  0.00     0.093 A 
ATOM     17  C   UNL     1      -5.812   9.295  -5.457  1.00  0.00     0.131 A 
ENDROOT
BRANCH   6  18
ATOM     18  O   UNL     1      -0.721   8.627  -4.236  1.00  0.00    -0.507 OA
ATOM     19  H   UNL     1       0.118   8.295  -3.774  1.00  0.00     0.293 HD
ENDBRANCH   6  18
BRANCH  17  20
ATOM     20  O   UNL     1      -5.856   9.377  -4.064  1.00  0.00    -0.507 OA
ATOM     21  H   UNL     1      -6.531   8.888  -3.494  1.00  0.00     0.293 HD
ENDBRANCH  17  20
BRANCH  15  22
ATOM     22  O   UNL     1      -8.253   9.665  -8.220  1.00  0.00    -0.508 OA
ATOM     23  H   UNL     1      -8.728   8.887  -8.661  1.00  0.00     0.293 HD
ENDBRANCH  15  22
TORSDOF 3
ENDMDL
MODEL 9
REMARK VINA RESULT:    -3.316      1.993      6.135
REMARK INTER + INTRA:          -3.607
REMARK INTER:                  -3.607
REMARK INTRA:                   0.000
REMARK UNBOUND:                 0.000
REMARK SMILES Cc1cc(O)c2c(c1)C(=O)c1cc(O)cc(O)c1C2=O
REMARK SMILES IDX 1 1 2 2 8 3 7 4 6 5 4 6 3 7 19 8 20 9 18 10 11 11 9 12 10 13
REMARK SMILES IDX 12 14 13 15 15 16 16 17 5 18 17 20 14 22
REMARK H PARENT 5 19 17 21 14 23
REMARK Flexibility Score: inf
ROOT
ATOM      1  C   UNL     1      -4.290  10.125  -2.949  1.00  0.00     0.044 C 
ATOM      2  C   UNL     1      -4.424   9.289  -4.189  1.00  0.00    -0.047 A 
ATOM      3  C   UNL     1      -5.683   9.081  -4.764  1.00  0.00     0.016 A 
ATOM      4  C   UNL     1      -5.815   8.328  -5.944  1.00  0.00     0.038 A 
ATOM      5  C   UNL     1      -4.668   7.793  -6.568  1.00  0.00     0.076 A 
ATOM      6  C   UNL     1      -3.398   8.017  -5.989  1.00  0.00     0.127 A 
ATOM      7  C   UNL     1      -3.285   8.767  -4.812  1.00  0.00     0.050 A 
ATOM      8  C   UNL     1      -4.822   7.033  -7.837  1.00  0.00     0.201 C 
ATOM      9  O   UNL     1      -3.821   6.864  -8.584  1.00  0.00    -0.288 OA
ATOM     10  C   UNL     1      -6.170   6.576  -8.276  1.00  0.00     0.076 A 
ATOM     11  C   UNL     1      -7.308   7.170  -7.683  1.00  0.00     0.041 A 
ATOM     12  C   UNL     1      -7.152   8.099  -6.539  1.00  0.00     0.194 C 
ATOM     13  O   UNL     1      -8.162   8.682  -6.057  1.00  0.00    -0.289 OA
ATOM     14  C   UNL     1      -8.591   6.872  -8.174  1.00  0.00     0.059 A 
ATOM     15  C   UNL     1      -8.756   5.980  -9.233  1.00  0.00     0.120 A 
ATOM     16  C   UNL     1      -7.641   5.353  -9.791  1.00  0.00     0.093 A 
ATOM     17  C   UNL     1      -6.355   5.611  -9.305  1.00  0.00     0.131 A 
ENDROOT
BRANCH   6  18
ATOM     18  O   UNL     1      -2.246   7.490  -6.576  1.00  0.00    -0.507 OA
ATOM     19  H   UNL     1      -2.168   6.508  -6.810  1.00  0.00     0.293 HD
ENDBRANCH   6  18
BRANCH  17  20
ATOM     20  O   UNL     1      -5.307   4.863  -9.845  1.00  0.00    -0.507 OA
ATOM     21  H   UNL     1      -5.405   3.910 -10.165  1.00  0.00     0.293 HD
ENDBRANCH  17  20
BRANCH  15  22
ATOM     22  O   UNL     1     -10.036   5.713  -9.714  1.00  0.00    -0.508 OA
ATOM     23  H   UNL     1     -10.239   4.872 -10.241  1.00  0.00     0.293 HD
ENDBRANCH  15  22
TORSDOF 3
ENDMDL
