MODEL 1
REMARK VINA RESULT:    -4.321      0.000      0.000
REMARK INTER + INTRA:          -6.052
REMARK INTER:                  -5.585
REMARK INTRA:                  -0.467
REMARK UNBOUND:                -0.467
REMARK SMILES CCCCC(=O)c1ccccc1C(=O)[O-]
REMARK SMILES IDX 4 1 5 2 6 3 7 4 12 5 11 6 10 7 8 8 9 9 13 10 14 11 15 12
REMARK SMILES IDX 3 13 2 14 1 15
REMARK H PARENT
REMARK Flexibility Score: inf
ROOT
ATOM      1  C   UNL     1      30.479   6.864   1.887  1.00  0.00     0.081 C 
ENDROOT
BRANCH   1   2
ATOM      2  C   UNL     1      29.390   7.909   1.852  1.00  0.00     0.163 C 
ATOM      3  O   UNL     1      29.671   9.124   2.033  1.00  0.00    -0.294 OA
BRANCH   2   4
ATOM      4  C   UNL     1      27.971   7.508   1.773  1.00  0.00     0.027 A 
ATOM      5  C   UNL     1      27.134   7.403   2.917  1.00  0.00     0.008 A 
ATOM      6  C   UNL     1      25.766   7.124   2.736  1.00  0.00     0.011 A 
ATOM      7  C   UNL     1      25.241   6.918   1.459  1.00  0.00     0.001 A 
ATOM      8  C   UNL     1      27.427   7.276   0.497  1.00  0.00     0.012 A 
ATOM      9  C   UNL     1      26.072   6.984   0.343  1.00  0.00     0.001 A 
BRANCH   5  10
ATOM     10  C   UNL     1      27.658   7.516   4.301  1.00  0.00     0.072 C 
ATOM     11  O   UNL     1      28.111   6.499   4.892  1.00  0.00    -0.545 OA
ATOM     12  O   UNL     1      27.702   8.744   4.947  1.00  0.00    -0.545 OA
ENDBRANCH   5  10
ENDBRANCH   2   4
ENDBRANCH   1   2
BRANCH   1  13
ATOM     13  C   UNL     1      31.621   7.140   0.891  1.00  0.00     0.008 C 
BRANCH  13  14
ATOM     14  C   UNL     1      32.079   5.869   0.159  1.00  0.00    -0.003 C 
ATOM     15  C   UNL     1      33.590   5.689   0.263  1.00  0.00     0.004 C 
ENDBRANCH  13  14
ENDBRANCH   1  13
TORSDOF 5
ENDMDL
MODEL 2
REMARK VINA RESULT:    -4.288      1.782      4.888
REMARK INTER + INTRA:          -6.008
REMARK INTER:                  -5.541
REMARK INTRA:                  -0.467
REMARK UNBOUND:                -0.467
REMARK SMILES CCCCC(=O)c1ccccc1C(=O)[O-]
REMARK SMILES IDX 4 1 5 2 6 3 7 4 12 5 11 6 10 7 8 8 9 9 13 10 14 11 15 12
REMARK SMILES IDX 3 13 2 14 1 15
REMARK H PARENT
REMARK Flexibility Score: inf
ROOT
ATOM      1  C   UNL     1      28.504   7.443   2.517  1.00  0.00     0.081 C 
ENDROOT
BRANCH   1   2
ATOM      2  C   UNL     1      29.968   7.755   2.717  1.00  0.00     0.163 C 
ATOM      3  O   UNL     1      30.323   8.889   3.137  1.00  0.00    -0.294 OA
BRANCH   2   4
ATOM      4  C   UNL     1      31.004   6.804   2.267  1.00  0.00     0.027 A 
ATOM      5  C   UNL     1      31.475   5.736   3.079  1.00  0.00     0.008 A 
ATOM      6  C   UNL     1      32.382   4.811   2.526  1.00  0.00     0.011 A 
ATOM      7  C   UNL     1      32.841   4.955   1.216  1.00  0.00     0.001 A 
ATOM      8  C   UNL     1      31.494   6.943   0.957  1.00  0.00     0.012 A 
ATOM      9  C   UNL     1      32.406   6.025   0.436  1.00  0.00     0.001 A 
BRANCH   5  10
ATOM     10  C   UNL     1      31.096   5.592   4.505  1.00  0.00     0.072 C 
ATOM     11  O   UNL     1      31.770   6.167   5.401  1.00  0.00    -0.545 OA
ATOM     12  O   UNL     1      29.972   4.865   4.873  1.00  0.00    -0.545 OA
ENDBRANCH   5  10
ENDBRANCH   2   4
ENDBRANCH   1   2
BRANCH   1  13
ATOM     13  C   UNL     1      28.057   7.534   1.046  1.00  0.00     0.008 C 
BRANCH  13  14
ATOM     14  C   UNL     1      26.592   7.115   0.852  1.00  0.00    -0.003 C 
ATOM     15  C   UNL     1      26.261   6.938  -0.627  1.00  0.00     0.004 C 
ENDBRANCH  13  14
ENDBRANCH   1  13
TORSDOF 5
ENDMDL
MODEL 3
REMARK VINA RESULT:    -4.252      1.691      2.749
REMARK INTER + INTRA:          -5.962
REMARK INTER:                  -5.685
REMARK INTRA:                  -0.277
REMARK UNBOUND:                -0.467
REMARK SMILES CCCCC(=O)c1ccccc1C(=O)[O-]
REMARK SMILES IDX 4 1 5 2 6 3 7 4 12 5 11 6 10 7 8 8 9 9 13 10 14 11 15 12
REMARK SMILES IDX 3 13 2 14 1 15
REMARK H PARENT
REMARK Flexibility Score: inf
ROOT
ATOM      1  C   UNL     1      28.460   8.767   2.375  1.00  0.00     0.081 C 
ENDROOT
BRANCH   1   2
ATOM      2  C   UNL     1      27.537   7.595   2.608  1.00  0.00     0.163 C 
ATOM      3  O   UNL     1      27.668   6.879   3.636  1.00  0.00    -0.294 OA
BRANCH   2   4
ATOM      4  C   UNL     1      26.584   7.174   1.561  1.00  0.00     0.027 A 
ATOM      5  C   UNL     1      25.224   6.866   1.835  1.00  0.00     0.008 A 
ATOM      6  C   UNL     1      24.361   6.582   0.759  1.00  0.00     0.011 A 
ATOM      7  C   UNL     1      24.835   6.569  -0.554  1.00  0.00     0.001 A 
ATOM      8  C   UNL     1      27.047   7.134   0.234  1.00  0.00     0.012 A 
ATOM      9  C   UNL     1      26.177   6.834  -0.815  1.00  0.00     0.001 A 
BRANCH   5  10
ATOM     10  C   UNL     1      24.691   6.770   3.216  1.00  0.00     0.072 C 
ATOM     11  O   UNL     1      24.220   7.791   3.786  1.00  0.00    -0.545 OA
ATOM     12  O   UNL     1      24.658   5.553   3.883  1.00  0.00    -0.545 OA
ENDBRANCH   5  10
ENDBRANCH   2   4
ENDBRANCH   1   2
BRANCH   1  13
ATOM     13  C   UNL     1      29.951   8.400   2.493  1.00  0.00     0.008 C 
BRANCH  13  14
ATOM     14  C   UNL     1      30.379   7.346   1.461  1.00  0.00    -0.003 C 
ATOM     15  C   UNL     1      31.777   7.638   0.923  1.00  0.00     0.004 C 
ENDBRANCH  13  14
ENDBRANCH   1  13
TORSDOF 5
ENDMDL
MODEL 4
REMARK VINA RESULT:    -4.085      3.437      6.098
REMARK INTER + INTRA:          -5.746
REMARK INTER:                  -5.145
REMARK INTRA:                  -0.601
REMARK UNBOUND:                -0.467
REMARK SMILES CCCCC(=O)c1ccccc1C(=O)[O-]
REMARK SMILES IDX 4 1 5 2 6 3 7 4 12 5 11 6 10 7 8 8 9 9 13 10 14 11 15 12
REMARK SMILES IDX 3 13 2 14 1 15
REMARK H PARENT
REMARK Flexibility Score: inf
ROOT
ATOM      1  C   UNL     1      23.025   4.624   2.388  1.00  0.00     0.081 C 
ENDROOT
BRANCH   1   2
ATOM      2  C   UNL     1      23.145   6.037   1.869  1.00  0.00     0.163 C 
ATOM      3  O   UNL     1      22.136   6.792   1.846  1.00  0.00    -0.294 OA
BRANCH   2   4
ATOM      4  C   UNL     1      24.396   6.495   1.231  1.00  0.00     0.027 A 
ATOM      5  C   UNL     1      25.504   6.988   1.971  1.00  0.00     0.008 A 
ATOM      6  C   UNL     1      26.696   7.297   1.287  1.00  0.00     0.011 A 
ATOM      7  C   UNL     1      26.782   7.157  -0.099  1.00  0.00     0.001 A 
ATOM      8  C   UNL     1      24.495   6.381  -0.167  1.00  0.00     0.012 A 
ATOM      9  C   UNL     1      25.680   6.709  -0.826  1.00  0.00     0.001 A 
BRANCH   5  10
ATOM     10  C   UNL     1      25.436   7.248   3.430  1.00  0.00     0.072 C 
ATOM     11  O   UNL     1      26.014   6.475   4.240  1.00  0.00    -0.545 OA
ATOM     12  O   UNL     1      24.778   8.367   3.923  1.00  0.00    -0.545 OA
ENDBRANCH   5  10
ENDBRANCH   2   4
ENDBRANCH   1   2
BRANCH   1  13
ATOM     13  C   UNL     1      22.892   4.547   3.920  1.00  0.00     0.008 C 
BRANCH  13  14
ATOM     14  C   UNL     1      23.792   3.463   4.533  1.00  0.00    -0.003 C 
ATOM     15  C   UNL     1      23.010   2.586   5.507  1.00  0.00     0.004 C 
ENDBRANCH  13  14
ENDBRANCH   1  13
TORSDOF 5
ENDMDL
MODEL 5
REMARK VINA RESULT:    -3.937      3.582      6.303
REMARK INTER + INTRA:          -5.554
REMARK INTER:                  -4.789
REMARK INTRA:                  -0.765
REMARK UNBOUND:                -0.467
REMARK SMILES CCCCC(=O)c1ccccc1C(=O)[O-]
REMARK SMILES IDX 4 1 5 2 6 3 7 4 12 5 11 6 10 7 8 8 9 9 13 10 14 11 15 12
REMARK SMILES IDX 3 13 2 14 1 15
REMARK H PARENT
REMARK Flexibility Score: inf
ROOT
ATOM      1  C   UNL     1      23.286   5.628   1.253  1.00  0.00     0.081 C 
ENDROOT
BRANCH   1   2
ATOM      2  C   UNL     1      23.899   6.992   1.460  1.00  0.00     0.163 C 
ATOM      3  O   UNL     1      23.219   8.032   1.248  1.00  0.00    -0.294 OA
BRANCH   2   4
ATOM      4  C   UNL     1      25.341   7.128   1.748  1.00  0.00     0.027 A 
ATOM      5  C   UNL     1      26.316   7.318   0.731  1.00  0.00     0.008 A 
ATOM      6  C   UNL     1      27.654   7.551   1.107  1.00  0.00     0.011 A 
ATOM      7  C   UNL     1      28.028   7.560   2.452  1.00  0.00     0.001 A 
ATOM      8  C   UNL     1      25.741   7.120   3.096  1.00  0.00     0.012 A 
ATOM      9  C   UNL     1      27.075   7.335   3.443  1.00  0.00     0.001 A 
BRANCH   5  10
ATOM     10  C   UNL     1      25.992   7.220  -0.713  1.00  0.00     0.072 C 
ATOM     11  O   UNL     1      25.933   6.094  -1.274  1.00  0.00    -0.545 OA
ATOM     12  O   UNL     1      25.702   8.357  -1.455  1.00  0.00    -0.545 OA
ENDBRANCH   5  10
ENDBRANCH   2   4
ENDBRANCH   1   2
BRANCH   1  13
ATOM     13  C   UNL     1      22.537   5.102   2.491  1.00  0.00     0.008 C 
BRANCH  13  14
ATOM     14  C   UNL     1      23.442   4.276   3.417  1.00  0.00    -0.003 C 
ATOM     15  C   UNL     1      23.371   4.786   4.853  1.00  0.00     0.004 C 
ENDBRANCH  13  14
ENDBRANCH   1  13
TORSDOF 5
ENDMDL
MODEL 6
REMARK VINA RESULT:    -3.893     11.187     13.159
REMARK INTER + INTRA:          -5.498
REMARK INTER:                  -4.722
REMARK INTRA:                  -0.776
REMARK UNBOUND:                -0.467
REMARK SMILES CCCCC(=O)c1ccccc1C(=O)[O-]
REMARK SMILES IDX 4 1 5 2 6 3 7 4 12 5 11 6 10 7 8 8 9 9 13 10 14 11 15 12
REMARK SMILES IDX 3 13 2 14 1 15
REMARK H PARENT
REMARK Flexibility Score: inf
ROOT
ATOM      1  C   UNL     1      34.020  -2.483  -4.847  1.00  0.00     0.081 C 
ENDROOT
BRANCH   1   2
ATOM      2  C   UNL     1      35.427  -1.993  -4.604  1.00  0.00     0.163 C 
ATOM      3  O   UNL     1      36.370  -2.377  -5.347  1.00  0.00    -0.294 OA
BRANCH   2   4
ATOM      4  C   UNL     1      35.745  -1.199  -3.400  1.00  0.00     0.027 A 
ATOM      5  C   UNL     1      35.833   0.220  -3.413  1.00  0.00     0.008 A 
ATOM      6  C   UNL     1      36.030   0.900  -2.196  1.00  0.00     0.011 A 
ATOM      7  C   UNL     1      36.171   0.197  -0.998  1.00  0.00     0.001 A 
ATOM      8  C   UNL     1      35.910  -1.890  -2.187  1.00  0.00     0.012 A 
ATOM      9  C   UNL     1      36.121  -1.195  -0.995  1.00  0.00     0.001 A 
BRANCH   5  10
ATOM     10  C   UNL     1      35.789   1.009  -4.668  1.00  0.00     0.072 C 
ATOM     11  O   UNL     1      34.683   1.388  -5.140  1.00  0.00    -0.545 OA
ATOM     12  O   UNL     1      36.959   1.384  -5.315  1.00  0.00    -0.545 OA
ENDBRANCH   5  10
ENDBRANCH   2   4
ENDBRANCH   1   2
BRANCH   1  13
ATOM     13  C   UNL     1      33.928  -4.010  -5.019  1.00  0.00     0.008 C 
BRANCH  13  14
ATOM     14  C   UNL     1      34.006  -4.757  -3.678  1.00  0.00    -0.003 C 
ATOM     15  C   UNL     1      35.345  -5.472  -3.524  1.00  0.00     0.004 C 
ENDBRANCH  13  14
ENDBRANCH   1  13
TORSDOF 5
ENDMDL
MODEL 7
REMARK VINA RESULT:    -3.890     11.824     13.341
REMARK INTER + INTRA:          -5.494
REMARK INTER:                  -4.777
REMARK INTRA:                  -0.717
REMARK UNBOUND:                -0.467
REMARK SMILES CCCCC(=O)c1ccccc1C(=O)[O-]
REMARK SMILES IDX 4 1 5 2 6 3 7 4 12 5 11 6 10 7 8 8 9 9 13 10 14 11 15 12
REMARK SMILES IDX 3 13 2 14 1 15
REMARK H PARENT
REMARK Flexibility Score: inf
ROOT
ATOM      1  C   UNL     1      32.663  -6.345   1.264  1.00  0.00     0.081 C 
ENDROOT
BRANCH   1   2
ATOM      2  C   UNL     1      32.243  -5.056   1.927  1.00  0.00     0.163 C 
ATOM      3  O   UNL     1      31.035  -4.694   1.902  1.00  0.00    -0.294 OA
BRANCH   2   4
ATOM      4  C   UNL     1      33.256  -4.126   2.464  1.00  0.00     0.027 A 
ATOM      5  C   UNL     1      33.836  -4.277   3.753  1.00  0.00     0.008 A 
ATOM      6  C   UNL     1      34.876  -3.408   4.137  1.00  0.00     0.011 A 
ATOM      7  C   UNL     1      35.311  -2.392   3.284  1.00  0.00     0.001 A 
ATOM      8  C   UNL     1      33.694  -3.084   1.628  1.00  0.00     0.012 A 
ATOM      9  C   UNL     1      34.714  -2.224   2.036  1.00  0.00     0.001 A 
BRANCH   5  10
ATOM     10  C   UNL     1      33.346  -5.274   4.735  1.00  0.00     0.072 C 
ATOM     11  O   UNL     1      32.581  -4.920   5.671  1.00  0.00    -0.545 OA
ATOM     12  O   UNL     1      33.682  -6.616   4.614  1.00  0.00    -0.545 OA
ENDBRANCH   5  10
ENDBRANCH   2   4
ENDBRANCH   1   2
BRANCH   1  13
ATOM     13  C   UNL     1      31.964  -6.592  -0.086  1.00  0.00     0.008 C 
BRANCH  13  14
ATOM     14  C   UNL     1      32.539  -5.720  -1.213  1.00  0.00    -0.003 C 
ATOM     15  C   UNL     1      34.064  -5.734  -1.194  1.00  0.00     0.004 C 
ENDBRANCH  13  14
ENDBRANCH   1  13
TORSDOF 5
ENDMDL
MODEL 8
REMARK VINA RESULT:    -3.870      3.761      7.233
REMARK INTER + INTRA:          -5.469
REMARK INTER:                  -4.809
REMARK INTRA:                  -0.660
REMARK UNBOUND:                -0.467
REMARK SMILES CCCCC(=O)c1ccccc1C(=O)[O-]
REMARK SMILES IDX 4 1 5 2 6 3 7 4 12 5 11 6 10 7 8 8 9 9 13 10 14 11 15 12
REMARK SMILES IDX 3 13 2 14 1 15
REMARK H PARENT
REMARK Flexibility Score: inf
ROOT
ATOM      1  C   UNL     1      33.572   5.629  -0.012  1.00  0.00     0.081 C 
ENDROOT
BRANCH   1   2
ATOM      2  C   UNL     1      34.501   5.368   1.149  1.00  0.00     0.163 C 
ATOM      3  O   UNL     1      35.168   6.311   1.653  1.00  0.00    -0.294 OA
BRANCH   2   4
ATOM      4  C   UNL     1      34.768   3.986   1.597  1.00  0.00     0.027 A 
ATOM      5  C   UNL     1      34.107   3.395   2.708  1.00  0.00     0.008 A 
ATOM      6  C   UNL     1      34.341   2.036   2.994  1.00  0.00     0.011 A 
ATOM      7  C   UNL     1      35.233   1.286   2.225  1.00  0.00     0.001 A 
ATOM      8  C   UNL     1      35.678   3.220   0.849  1.00  0.00     0.012 A 
ATOM      9  C   UNL     1      35.908   1.880   1.161  1.00  0.00     0.001 A 
BRANCH   5  10
ATOM     10  C   UNL     1      33.225   4.169   3.616  1.00  0.00     0.072 C 
ATOM     11  O   UNL     1      31.973   4.091   3.503  1.00  0.00    -0.545 OA
ATOM     12  O   UNL     1      33.760   4.952   4.630  1.00  0.00    -0.545 OA
ENDBRANCH   5  10
ENDBRANCH   2   4
ENDBRANCH   1   2
BRANCH   1  13
ATOM     13  C   UNL     1      32.100   5.787   0.410  1.00  0.00     0.008 C 
BRANCH  13  14
ATOM     14  C   UNL     1      31.782   7.204   0.909  1.00  0.00    -0.003 C 
ATOM     15  C   UNL     1      30.379   7.276   1.505  1.00  0.00     0.004 C 
ENDBRANCH  13  14
ENDBRANCH   1  13
TORSDOF 5
ENDMDL
MODEL 9
REMARK VINA RESULT:    -3.863     11.476     13.417
REMARK INTER + INTRA:          -5.459
REMARK INTER:                  -4.499
REMARK INTRA:                  -0.960
REMARK UNBOUND:                -0.467
REMARK SMILES CCCCC(=O)c1ccccc1C(=O)[O-]
REMARK SMILES IDX 4 1 5 2 6 3 7 4 12 5 11 6 10 7 8 8 9 9 13 10 14 11 15 12
REMARK SMILES IDX 3 13 2 14 1 15
REMARK H PARENT
REMARK Flexibility Score: inf
ROOT
ATOM      1  C   UNL     1      33.286  -5.140   5.732  1.00  0.00     0.081 C 
ENDROOT
BRANCH   1   2
ATOM      2  C   UNL     1      33.736  -5.564   4.354  1.00  0.00     0.163 C 
ATOM      3  O   UNL     1      33.867  -6.787   4.078  1.00  0.00    -0.294 OA
BRANCH   2   4
ATOM      4  C   UNL     1      34.187  -4.557   3.373  1.00  0.00     0.027 A 
ATOM      5  C   UNL     1      33.449  -4.239   2.200  1.00  0.00     0.008 A 
ATOM      6  C   UNL     1      33.898  -3.187   1.379  1.00  0.00     0.011 A 
ATOM      7  C   UNL     1      35.066  -2.487   1.687  1.00  0.00     0.001 A 
ATOM      8  C   UNL     1      35.372  -3.856   3.654  1.00  0.00     0.012 A 
ATOM      9  C   UNL     1      35.807  -2.828   2.816  1.00  0.00     0.001 A 
BRANCH   5  10
ATOM     10  C   UNL     1      32.257  -5.012   1.774  1.00  0.00     0.072 C 
ATOM     11  O   UNL     1      31.099  -4.571   2.006  1.00  0.00    -0.545 OA
ATOM     12  O   UNL     1      32.394  -6.203   1.075  1.00  0.00    -0.545 OA
ENDBRANCH   5  10
ENDBRANCH   2   4
ENDBRANCH   1   2
BRANCH   1  13
ATOM     13  C   UNL     1      32.210  -4.039   5.710  1.00  0.00     0.008 C 
BRANCH  13  14
ATOM     14  C   UNL     1      32.588  -2.833   6.583  1.00  0.00    -0.003 C 
ATOM     15  C   UNL     1      33.218  -1.724   5.747  1.00  0.00     0.004 C 
ENDBRANCH  13  14
ENDBRANCH   1  13
TORSDOF 5
ENDMDL
