MODEL 1
REMARK VINA RESULT:    -3.941      0.000      0.000
REMARK INTER + INTRA:          -6.002
REMARK INTER:                  -5.324
REMARK INTRA:                  -0.679
REMARK UNBOUND:                -0.679
REMARK SMILES CCCCCCC=CC(=O)[O-]
REMARK SMILES IDX 5 1 6 2 7 3 8 4 9 5 10 6 11 7 4 8 3 9 2 10 1 11
REMARK H PARENT
REMARK Flexibility Score: inf
ROOT
ATOM      1  C   UNL     1       6.878  48.528  33.939  1.00  0.00     0.004 C 
ENDROOT
BRANCH   1   2
ATOM      2  C   UNL     1       5.793  47.898  33.052  1.00  0.00     0.027 C 
BRANCH   2   3
ATOM      3  C   UNL     1       5.668  48.588  31.722  1.00  0.00    -0.025 C 
ATOM      4  C   UNL     1       5.966  47.962  30.579  1.00  0.00     0.020 C 
BRANCH   4   5
ATOM      5  C   UNL     1       5.843  48.618  29.267  1.00  0.00     0.064 C 
ATOM      6  O   UNL     1       5.585  47.954  28.229  1.00  0.00    -0.545 OA
ATOM      7  O   UNL     1       6.012  49.993  29.174  1.00  0.00    -0.545 OA
ENDBRANCH   4   5
ENDBRANCH   2   3
ENDBRANCH   1   2
BRANCH   1   8
ATOM      8  C   UNL     1       8.287  48.051  33.558  1.00  0.00     0.000 C 
BRANCH   8   9
ATOM      9  C   UNL     1       9.167  49.231  33.120  1.00  0.00    -0.000 C 
BRANCH   9  10
ATOM     10  C   UNL     1       9.859  48.984  31.770  1.00  0.00    -0.003 C 
ATOM     11  C   UNL     1       9.250  49.806  30.635  1.00  0.00     0.004 C 
ENDBRANCH   9  10
ENDBRANCH   8   9
ENDBRANCH   1   8
TORSDOF 6
ENDMDL
MODEL 2
REMARK VINA RESULT:    -3.751      2.941      4.181
REMARK INTER + INTRA:          -5.745
REMARK INTER:                  -5.145
REMARK INTRA:                  -0.600
REMARK UNBOUND:                -0.679
REMARK SMILES CCCCCCC=CC(=O)[O-]
REMARK SMILES IDX 5 1 6 2 7 3 8 4 9 5 10 6 11 7 4 8 3 9 2 10 1 11
REMARK H PARENT
REMARK Flexibility Score: inf
ROOT
ATOM      1  C   UNL     1       5.544  48.826  30.188  1.00  0.00     0.004 C 
ENDROOT
BRANCH   1   2
ATOM      2  C   UNL     1       4.966  48.346  31.528  1.00  0.00     0.027 C 
BRANCH   2   3
ATOM      3  C   UNL     1       6.035  47.889  32.481  1.00  0.00    -0.025 C 
ATOM      4  C   UNL     1       6.174  48.439  33.692  1.00  0.00     0.020 C 
BRANCH   4   5
ATOM      5  C   UNL     1       7.208  48.000  34.643  1.00  0.00     0.064 C 
ATOM      6  O   UNL     1       7.272  48.482  35.804  1.00  0.00    -0.545 OA
ATOM      7  O   UNL     1       8.128  47.036  34.252  1.00  0.00    -0.545 OA
ENDBRANCH   4   5
ENDBRANCH   2   3
ENDBRANCH   1   2
BRANCH   1   8
ATOM      8  C   UNL     1       7.067  48.637  30.113  1.00  0.00     0.000 C 
BRANCH   8   9
ATOM      9  C   UNL     1       7.777  49.982  29.903  1.00  0.00    -0.000 C 
BRANCH   9  10
ATOM     10  C   UNL     1       9.205  49.992  30.473  1.00  0.00    -0.003 C 
ATOM     11  C   UNL     1       9.396  48.982  31.604  1.00  0.00     0.004 C 
ENDBRANCH   9  10
ENDBRANCH   8   9
ENDBRANCH   1   8
TORSDOF 6
ENDMDL
MODEL 3
REMARK VINA RESULT:    -3.727     17.642     18.779
REMARK INTER + INTRA:          -5.712
REMARK INTER:                  -5.175
REMARK INTRA:                  -0.538
REMARK UNBOUND:                -0.679
REMARK SMILES CCCCCCC=CC(=O)[O-]
REMARK SMILES IDX 5 1 6 2 7 3 8 4 9 5 10 6 11 7 4 8 3 9 2 10 1 11
REMARK H PARENT
REMARK Flexibility Score: inf
ROOT
ATOM      1  C   UNL     1      12.779  36.168  21.004  1.00  0.00     0.004 C 
ENDROOT
BRANCH   1   2
ATOM      2  C   UNL     1      13.597  35.226  20.107  1.00  0.00     0.027 C 
BRANCH   2   3
ATOM      3  C   UNL     1      14.161  34.058  20.866  1.00  0.00    -0.025 C 
ATOM      4  C   UNL     1      13.404  33.005  21.194  1.00  0.00     0.020 C 
BRANCH   4   5
ATOM      5  C   UNL     1      13.939  31.849  21.930  1.00  0.00     0.064 C 
ATOM      6  O   UNL     1      15.176  31.712  22.118  1.00  0.00    -0.545 OA
ATOM      7  O   UNL     1      13.062  30.894  22.429  1.00  0.00    -0.545 OA
ENDBRANCH   4   5
ENDBRANCH   2   3
ENDBRANCH   1   2
BRANCH   1   8
ATOM      8  C   UNL     1      11.297  36.206  20.604  1.00  0.00     0.000 C 
BRANCH   8   9
ATOM      9  C   UNL     1      10.392  36.066  21.838  1.00  0.00    -0.000 C 
BRANCH   9  10
ATOM     10  C   UNL     1      11.091  35.351  23.005  1.00  0.00    -0.003 C 
ATOM     11  C   UNL     1      11.040  36.154  24.305  1.00  0.00     0.004 C 
ENDBRANCH   9  10
ENDBRANCH   8   9
ENDBRANCH   1   8
TORSDOF 6
ENDMDL
MODEL 4
REMARK VINA RESULT:    -3.686     17.858     18.961
REMARK INTER + INTRA:          -5.658
REMARK INTER:                  -5.309
REMARK INTRA:                  -0.349
REMARK UNBOUND:                -0.679
REMARK SMILES CCCCCCC=CC(=O)[O-]
REMARK SMILES IDX 5 1 6 2 7 3 8 4 9 5 10 6 11 7 4 8 3 9 2 10 1 11
REMARK H PARENT
REMARK Flexibility Score: inf
ROOT
ATOM      1  C   UNL     1      12.909  35.891  21.136  1.00  0.00     0.004 C 
ENDROOT
BRANCH   1   2
ATOM      2  C   UNL     1      13.730  35.326  19.966  1.00  0.00     0.027 C 
BRANCH   2   3
ATOM      3  C   UNL     1      14.792  34.365  20.423  1.00  0.00    -0.025 C 
ATOM      4  C   UNL     1      14.482  33.227  21.053  1.00  0.00     0.020 C 
BRANCH   4   5
ATOM      5  C   UNL     1      15.507  32.271  21.501  1.00  0.00     0.064 C 
ATOM      6  O   UNL     1      15.207  31.287  22.228  1.00  0.00    -0.545 OA
ATOM      7  O   UNL     1      16.827  32.455  21.113  1.00  0.00    -0.545 OA
ENDBRANCH   4   5
ENDBRANCH   2   3
ENDBRANCH   1   2
BRANCH   1   8
ATOM      8  C   UNL     1      11.448  36.156  20.744  1.00  0.00     0.000 C 
BRANCH   8   9
ATOM      9  C   UNL     1      10.558  36.273  21.991  1.00  0.00    -0.000 C 
BRANCH   9  10
ATOM     10  C   UNL     1      11.104  35.472  23.184  1.00  0.00    -0.003 C 
ATOM     11  C   UNL     1      11.020  36.243  24.501  1.00  0.00     0.004 C 
ENDBRANCH   9  10
ENDBRANCH   8   9
ENDBRANCH   1   8
TORSDOF 6
ENDMDL
MODEL 5
REMARK VINA RESULT:    -3.613     17.029     18.275
REMARK INTER + INTRA:          -5.559
REMARK INTER:                  -5.349
REMARK INTRA:                  -0.209
REMARK UNBOUND:                -0.679
REMARK SMILES CCCCCCC=CC(=O)[O-]
REMARK SMILES IDX 5 1 6 2 7 3 8 4 9 5 10 6 11 7 4 8 3 9 2 10 1 11
REMARK H PARENT
REMARK Flexibility Score: inf
ROOT
ATOM      1  C   UNL     1       8.994  34.848  20.279  1.00  0.00     0.004 C 
ENDROOT
BRANCH   1   2
ATOM      2  C   UNL     1       7.461  34.814  20.183  1.00  0.00     0.027 C 
BRANCH   2   3
ATOM      3  C   UNL     1       6.921  33.411  20.132  1.00  0.00    -0.025 C 
ATOM      4  C   UNL     1       5.855  33.045  20.852  1.00  0.00     0.020 C 
BRANCH   4   5
ATOM      5  C   UNL     1       5.308  31.680  20.810  1.00  0.00     0.064 C 
ATOM      6  O   UNL     1       4.080  31.475  20.622  1.00  0.00    -0.545 OA
ATOM      7  O   UNL     1       6.162  30.597  20.977  1.00  0.00    -0.545 OA
ENDBRANCH   4   5
ENDBRANCH   2   3
ENDBRANCH   1   2
BRANCH   1   8
ATOM      8  C   UNL     1       9.493  36.004  21.158  1.00  0.00     0.000 C 
BRANCH   8   9
ATOM      9  C   UNL     1      11.006  36.211  20.985  1.00  0.00    -0.000 C 
BRANCH   9  10
ATOM     10  C   UNL     1      11.811  35.719  22.199  1.00  0.00    -0.003 C 
ATOM     11  C   UNL     1      11.072  35.922  23.520  1.00  0.00     0.004 C 
ENDBRANCH   9  10
ENDBRANCH   8   9
ENDBRANCH   1   8
TORSDOF 6
ENDMDL
MODEL 6
REMARK VINA RESULT:    -3.605     17.770     18.754
REMARK INTER + INTRA:          -5.548
REMARK INTER:                  -5.185
REMARK INTRA:                  -0.363
REMARK UNBOUND:                -0.679
REMARK SMILES CCCCCCC=CC(=O)[O-]
REMARK SMILES IDX 5 1 6 2 7 3 8 4 9 5 10 6 11 7 4 8 3 9 2 10 1 11
REMARK H PARENT
REMARK Flexibility Score: inf
ROOT
ATOM      1  C   UNL     1      13.437  34.562  19.001  1.00  0.00     0.004 C 
ENDROOT
BRANCH   1   2
ATOM      2  C   UNL     1      13.607  35.852  19.820  1.00  0.00     0.027 C 
BRANCH   2   3
ATOM      3  C   UNL     1      12.380  36.186  20.622  1.00  0.00    -0.025 C 
ATOM      4  C   UNL     1      12.217  35.737  21.871  1.00  0.00     0.020 C 
BRANCH   4   5
ATOM      5  C   UNL     1      11.027  36.060  22.674  1.00  0.00     0.064 C 
ATOM      6  O   UNL     1       9.998  36.557  22.145  1.00  0.00    -0.545 OA
ATOM      7  O   UNL     1      11.039  35.808  24.040  1.00  0.00    -0.545 OA
ENDBRANCH   4   5
ENDBRANCH   2   3
ENDBRANCH   1   2
BRANCH   1   8
ATOM      8  C   UNL     1      14.634  33.614  19.159  1.00  0.00     0.000 C 
BRANCH   8   9
ATOM      9  C   UNL     1      15.292  33.786  20.537  1.00  0.00    -0.000 C 
BRANCH   9  10
ATOM     10  C   UNL     1      15.951  32.492  21.042  1.00  0.00    -0.003 C 
ATOM     11  C   UNL     1      17.478  32.554  21.005  1.00  0.00     0.004 C 
ENDBRANCH   9  10
ENDBRANCH   8   9
ENDBRANCH   1   8
TORSDOF 6
ENDMDL
MODEL 7
REMARK VINA RESULT:    -3.543      2.860      4.793
REMARK INTER + INTRA:          -5.464
REMARK INTER:                  -4.768
REMARK INTRA:                  -0.696
REMARK UNBOUND:                -0.679
REMARK SMILES CCCCCCC=CC(=O)[O-]
REMARK SMILES IDX 5 1 6 2 7 3 8 4 9 5 10 6 11 7 4 8 3 9 2 10 1 11
REMARK H PARENT
REMARK Flexibility Score: inf
ROOT
ATOM      1  C   UNL     1       8.918  49.715  30.498  1.00  0.00     0.004 C 
ENDROOT
BRANCH   1   2
ATOM      2  C   UNL     1       9.482  49.121  31.798  1.00  0.00     0.027 C 
BRANCH   2   3
ATOM      3  C   UNL     1       8.506  49.206  32.938  1.00  0.00    -0.025 C 
ATOM      4  C   UNL     1       8.142  48.121  33.630  1.00  0.00     0.020 C 
BRANCH   4   5
ATOM      5  C   UNL     1       7.194  48.184  34.753  1.00  0.00     0.064 C 
ATOM      6  O   UNL     1       7.373  47.501  35.796  1.00  0.00    -0.545 OA
ATOM      7  O   UNL     1       6.084  49.014  34.662  1.00  0.00    -0.545 OA
ENDBRANCH   4   5
ENDBRANCH   2   3
ENDBRANCH   1   2
BRANCH   1   8
ATOM      8  C   UNL     1       7.444  50.124  30.641  1.00  0.00     0.000 C 
BRANCH   8   9
ATOM      9  C   UNL     1       6.572  49.408  29.599  1.00  0.00    -0.000 C 
BRANCH   9  10
ATOM     10  C   UNL     1       5.997  48.081  30.122  1.00  0.00    -0.003 C 
ATOM     11  C   UNL     1       5.169  48.257  31.394  1.00  0.00     0.004 C 
ENDBRANCH   9  10
ENDBRANCH   8   9
ENDBRANCH   1   8
TORSDOF 6
ENDMDL
MODEL 8
REMARK VINA RESULT:    -3.516      1.031      2.928
REMARK INTER + INTRA:          -5.428
REMARK INTER:                  -4.679
REMARK INTRA:                  -0.749
REMARK UNBOUND:                -0.679
REMARK SMILES CCCCCCC=CC(=O)[O-]
REMARK SMILES IDX 5 1 6 2 7 3 8 4 9 5 10 6 11 7 4 8 3 9 2 10 1 11
REMARK H PARENT
REMARK Flexibility Score: inf
ROOT
ATOM      1  C   UNL     1       9.839  48.988  31.653  1.00  0.00     0.004 C 
ENDROOT
BRANCH   1   2
ATOM      2  C   UNL     1       9.350  50.042  30.647  1.00  0.00     0.027 C 
BRANCH   2   3
ATOM      3  C   UNL     1       7.887  49.897  30.332  1.00  0.00    -0.025 C 
ATOM      4  C   UNL     1       7.337  48.700  30.099  1.00  0.00     0.020 C 
BRANCH   4   5
ATOM      5  C   UNL     1       5.906  48.537  29.796  1.00  0.00     0.064 C 
ATOM      6  O   UNL     1       5.030  48.681  30.689  1.00  0.00    -0.545 OA
ATOM      7  O   UNL     1       5.516  48.221  28.501  1.00  0.00    -0.545 OA
ENDBRANCH   4   5
ENDBRANCH   2   3
ENDBRANCH   1   2
BRANCH   1   8
ATOM      8  C   UNL     1       9.254  49.210  33.055  1.00  0.00     0.000 C 
BRANCH   8   9
ATOM      9  C   UNL     1       8.533  47.950  33.556  1.00  0.00    -0.000 C 
BRANCH   9  10
ATOM     10  C   UNL     1       7.031  48.181  33.790  1.00  0.00    -0.003 C 
ATOM     11  C   UNL     1       6.673  49.663  33.906  1.00  0.00     0.004 C 
ENDBRANCH   9  10
ENDBRANCH   8   9
ENDBRANCH   1   8
TORSDOF 6
ENDMDL
MODEL 9
REMARK VINA RESULT:    -3.477     19.295     20.390
REMARK INTER + INTRA:          -5.375
REMARK INTER:                  -5.211
REMARK INTRA:                  -0.164
REMARK UNBOUND:                -0.679
REMARK SMILES CCCCCCC=CC(=O)[O-]
REMARK SMILES IDX 5 1 6 2 7 3 8 4 9 5 10 6 11 7 4 8 3 9 2 10 1 11
REMARK H PARENT
REMARK Flexibility Score: inf
ROOT
ATOM      1  C   UNL     1      14.029  34.114  20.743  1.00  0.00     0.004 C 
ENDROOT
BRANCH   1   2
ATOM      2  C   UNL     1      15.391  33.624  20.228  1.00  0.00     0.027 C 
BRANCH   2   3
ATOM      3  C   UNL     1      16.035  32.636  21.162  1.00  0.00    -0.025 C 
ATOM      4  C   UNL     1      17.350  32.396  21.128  1.00  0.00     0.020 C 
BRANCH   4   5
ATOM      5  C   UNL     1      17.999  31.440  22.038  1.00  0.00     0.064 C 
ATOM      6  O   UNL     1      18.882  30.643  21.624  1.00  0.00    -0.545 OA
ATOM      7  O   UNL     1      17.634  31.418  23.378  1.00  0.00    -0.545 OA
ENDBRANCH   4   5
ENDBRANCH   2   3
ENDBRANCH   1   2
BRANCH   1   8
ATOM      8  C   UNL     1      13.830  35.619  20.510  1.00  0.00     0.000 C 
BRANCH   8   9
ATOM      9  C   UNL     1      12.351  36.006  20.659  1.00  0.00    -0.000 C 
BRANCH   9  10
ATOM     10  C   UNL     1      11.867  35.941  22.117  1.00  0.00    -0.003 C 
ATOM     11  C   UNL     1      10.393  36.315  22.267  1.00  0.00     0.004 C 
ENDBRANCH   9  10
ENDBRANCH   8   9
ENDBRANCH   1   8
TORSDOF 6
ENDMDL
