MODEL 1
REMARK VINA RESULT:    -4.781      0.000      0.000
REMARK INTER + INTRA:          -5.532
REMARK INTER:                  -5.479
REMARK INTRA:                  -0.053
REMARK UNBOUND:                -0.053
REMARK SMILES O=C([O-])c1cc(O)c(O)c(O)c1
REMARK SMILES IDX 4 1 5 2 12 3 6 4 10 5 8 6 2 7 1 8 3 9 7 10 11 12 9 14
REMARK H PARENT 7 11 11 13 9 15
REMARK Flexibility Score: inf
ROOT
ATOM      1  C   UNL     1      13.837  37.000  49.564  1.00  0.00     0.005 A 
ATOM      2  C   UNL     1      14.501  37.380  50.744  1.00  0.00     0.060 A 
ATOM      3  C   UNL     1      14.549  36.992  48.353  1.00  0.00     0.060 A 
ATOM      4  C   UNL     1      15.853  37.747  50.714  1.00  0.00     0.162 A 
ATOM      5  C   UNL     1      15.902  37.359  48.318  1.00  0.00     0.162 A 
ATOM      6  C   UNL     1      16.556  37.737  49.503  1.00  0.00     0.200 A 
ENDROOT
BRANCH   1   7
ATOM      7  C   UNL     1      12.409  36.612  49.593  1.00  0.00     0.072 C 
ATOM      8  O   UNL     1      11.824  36.242  48.540  1.00  0.00    -0.545 OA
ATOM      9  O   UNL     1      11.693  36.651  50.783  1.00  0.00    -0.545 OA
ENDBRANCH   1   7
BRANCH   4  10
ATOM     10  O   UNL     1      16.506  38.123  51.886  1.00  0.00    -0.504 OA
ATOM     11  H   UNL     1      16.410  37.590  52.742  1.00  0.00     0.293 HD
ENDBRANCH   4  10
BRANCH   5  12
ATOM     12  O   UNL     1      16.599  37.348  47.111  1.00  0.00    -0.504 OA
ATOM     13  H   UNL     1      16.294  36.783  46.326  1.00  0.00     0.293 HD
ENDBRANCH   5  12
BRANCH   6  14
ATOM     14  O   UNL     1      17.902  38.105  49.492  1.00  0.00    -0.502 OA
ATOM     15  H   UNL     1      18.645  37.434  49.636  1.00  0.00     0.293 HD
ENDBRANCH   6  14
TORSDOF 4
ENDMDL
MODEL 2
REMARK VINA RESULT:    -4.406      1.447      3.174
REMARK INTER + INTRA:          -5.103
REMARK INTER:                  -5.058
REMARK INTRA:                  -0.045
REMARK UNBOUND:                -0.053
REMARK SMILES O=C([O-])c1cc(O)c(O)c(O)c1
REMARK SMILES IDX 4 1 5 2 12 3 6 4 10 5 8 6 2 7 1 8 3 9 7 10 11 12 9 14
REMARK H PARENT 7 11 11 13 9 15
REMARK Flexibility Score: inf
ROOT
ATOM      1  C   UNL     1      14.719  37.079  48.008  1.00  0.00     0.005 A 
ATOM      2  C   UNL     1      13.682  36.889  48.939  1.00  0.00     0.060 A 
ATOM      3  C   UNL     1      15.980  37.492  48.467  1.00  0.00     0.060 A 
ATOM      4  C   UNL     1      13.903  37.108  50.305  1.00  0.00     0.162 A 
ATOM      5  C   UNL     1      16.205  37.713  49.833  1.00  0.00     0.162 A 
ATOM      6  C   UNL     1      15.163  37.520  50.754  1.00  0.00     0.200 A 
ENDROOT
BRANCH   1   7
ATOM      7  C   UNL     1      14.488  36.848  46.564  1.00  0.00     0.072 C 
ATOM      8  O   UNL     1      14.580  35.689  46.078  1.00  0.00    -0.545 OA
ATOM      9  O   UNL     1      14.167  37.907  45.723  1.00  0.00    -0.545 OA
ENDBRANCH   1   7
BRANCH   4  10
ATOM     10  O   UNL     1      12.872  36.918  51.223  1.00  0.00    -0.504 OA
ATOM     11  H   UNL     1      12.841  36.104  51.826  1.00  0.00     0.293 HD
ENDBRANCH   4  10
BRANCH   5  12
ATOM     12  O   UNL     1      17.462  38.123  50.278  1.00  0.00    -0.504 OA
ATOM     13  H   UNL     1      18.117  38.591  49.661  1.00  0.00     0.293 HD
ENDBRANCH   5  12
BRANCH   6  14
ATOM     14  O   UNL     1      15.364  37.733  52.119  1.00  0.00    -0.502 OA
ATOM     15  H   UNL     1      14.708  37.409  52.818  1.00  0.00     0.293 HD
ENDBRANCH   6  14
TORSDOF 4
ENDMDL
MODEL 3
REMARK VINA RESULT:    -4.318      1.504      3.352
REMARK INTER + INTRA:          -5.002
REMARK INTER:                  -4.957
REMARK INTRA:                  -0.045
REMARK UNBOUND:                -0.053
REMARK SMILES O=C([O-])c1cc(O)c(O)c(O)c1
REMARK SMILES IDX 4 1 5 2 12 3 6 4 10 5 8 6 2 7 1 8 3 9 7 10 11 12 9 14
REMARK H PARENT 7 11 11 13 9 15
REMARK Flexibility Score: inf
ROOT
ATOM      1  C   UNL     1      14.579  36.977  47.942  1.00  0.00     0.005 A 
ATOM      2  C   UNL     1      15.822  37.433  48.416  1.00  0.00     0.060 A 
ATOM      3  C   UNL     1      13.535  36.764  48.857  1.00  0.00     0.060 A 
ATOM      4  C   UNL     1      16.017  37.673  49.784  1.00  0.00     0.162 A 
ATOM      5  C   UNL     1      13.727  37.001  50.226  1.00  0.00     0.162 A 
ATOM      6  C   UNL     1      14.972  37.457  50.690  1.00  0.00     0.200 A 
ENDROOT
BRANCH   1   7
ATOM      7  C   UNL     1      14.370  36.723  46.498  1.00  0.00     0.072 C 
ATOM      8  O   UNL     1      14.370  35.546  46.048  1.00  0.00    -0.545 OA
ATOM      9  O   UNL     1      14.172  37.781  45.619  1.00  0.00    -0.545 OA
ENDBRANCH   1   7
BRANCH   4  10
ATOM     10  O   UNL     1      17.250  38.125  50.249  1.00  0.00    -0.504 OA
ATOM     11  H   UNL     1      17.364  38.485  51.189  1.00  0.00     0.293 HD
ENDBRANCH   4  10
BRANCH   5  12
ATOM     12  O   UNL     1      12.684  36.786  51.126  1.00  0.00    -0.504 OA
ATOM     13  H   UNL     1      12.837  36.793  52.128  1.00  0.00     0.293 HD
ENDBRANCH   5  12
BRANCH   6  14
ATOM     14  O   UNL     1      15.186  37.701  52.047  1.00  0.00    -0.502 OA
ATOM     15  H   UNL     1      14.424  37.755  52.711  1.00  0.00     0.293 HD
ENDBRANCH   6  14
TORSDOF 4
ENDMDL
MODEL 4
REMARK VINA RESULT:    -3.860      1.314      4.467
REMARK INTER + INTRA:          -4.477
REMARK INTER:                  -4.426
REMARK INTRA:                  -0.051
REMARK UNBOUND:                -0.053
REMARK SMILES O=C([O-])c1cc(O)c(O)c(O)c1
REMARK SMILES IDX 4 1 5 2 12 3 6 4 10 5 8 6 2 7 1 8 3 9 7 10 11 12 9 14
REMARK H PARENT 7 11 11 13 9 15
REMARK Flexibility Score: inf
ROOT
ATOM      1  C   UNL     1      14.811  36.857  48.129  1.00  0.00     0.005 A 
ATOM      2  C   UNL     1      13.459  36.508  47.956  1.00  0.00     0.060 A 
ATOM      3  C   UNL     1      15.258  37.243  49.403  1.00  0.00     0.060 A 
ATOM      4  C   UNL     1      12.570  36.545  49.039  1.00  0.00     0.162 A 
ATOM      5  C   UNL     1      14.372  37.282  50.489  1.00  0.00     0.162 A 
ATOM      6  C   UNL     1      13.025  36.931  50.306  1.00  0.00     0.200 A 
ENDROOT
BRANCH   1   7
ATOM      7  C   UNL     1      15.751  36.819  46.986  1.00  0.00     0.072 C 
ATOM      8  O   UNL     1      16.982  36.628  47.176  1.00  0.00    -0.545 OA
ATOM      9  O   UNL     1      15.289  36.996  45.688  1.00  0.00    -0.545 OA
ENDBRANCH   1   7
BRANCH   4  10
ATOM     10  O   UNL     1      11.233  36.198  48.863  1.00  0.00    -0.504 OA
ATOM     11  H   UNL     1      10.666  36.621  48.137  1.00  0.00     0.293 HD
ENDBRANCH   4  10
BRANCH   5  12
ATOM     12  O   UNL     1      14.828  37.667  51.750  1.00  0.00    -0.504 OA
ATOM     13  H   UNL     1      14.294  38.297  52.338  1.00  0.00     0.293 HD
ENDBRANCH   5  12
BRANCH   6  14
ATOM     14  O   UNL     1      12.125  36.962  51.373  1.00  0.00    -0.502 OA
ATOM     15  H   UNL     1      12.143  37.693  52.072  1.00  0.00     0.293 HD
ENDBRANCH   6  14
TORSDOF 4
ENDMDL
MODEL 5
REMARK VINA RESULT:    -3.739      6.675      8.620
REMARK INTER + INTRA:          -4.338
REMARK INTER:                  -4.285
REMARK INTRA:                  -0.053
REMARK UNBOUND:                -0.053
REMARK SMILES O=C([O-])c1cc(O)c(O)c(O)c1
REMARK SMILES IDX 4 1 5 2 12 3 6 4 10 5 8 6 2 7 1 8 3 9 7 10 11 12 9 14
REMARK H PARENT 7 11 11 13 9 15
REMARK Flexibility Score: inf
ROOT
ATOM      1  C   UNL     1      14.555  33.026  55.778  1.00  0.00     0.005 A 
ATOM      2  C   UNL     1      13.765  32.564  56.846  1.00  0.00     0.060 A 
ATOM      3  C   UNL     1      13.947  33.766  54.751  1.00  0.00     0.060 A 
ATOM      4  C   UNL     1      12.390  32.838  56.885  1.00  0.00     0.162 A 
ATOM      5  C   UNL     1      12.573  34.041  54.785  1.00  0.00     0.162 A 
ATOM      6  C   UNL     1      11.793  33.575  55.857  1.00  0.00     0.200 A 
ENDROOT
BRANCH   1   7
ATOM      7  C   UNL     1      16.006  32.739  55.735  1.00  0.00     0.072 C 
ATOM      8  O   UNL     1      16.564  32.114  56.676  1.00  0.00    -0.545 OA
ATOM      9  O   UNL     1      16.775  33.157  54.655  1.00  0.00    -0.545 OA
ENDBRANCH   1   7
BRANCH   4  10
ATOM     10  O   UNL     1      11.612  32.377  57.946  1.00  0.00    -0.504 OA
ATOM     11  H   UNL     1      11.383  31.396  58.050  1.00  0.00     0.293 HD
ENDBRANCH   4  10
BRANCH   5  12
ATOM     12  O   UNL     1      11.980  34.776  53.760  1.00  0.00    -0.504 OA
ATOM     13  H   UNL     1      11.205  34.408  53.221  1.00  0.00     0.293 HD
ENDBRANCH   5  12
BRANCH   6  14
ATOM     14  O   UNL     1      10.423  33.837  55.913  1.00  0.00    -0.502 OA
ATOM     15  H   UNL     1      10.058  34.755  56.135  1.00  0.00     0.293 HD
ENDBRANCH   6  14
TORSDOF 4
ENDMDL
MODEL 6
REMARK VINA RESULT:    -3.668     18.624     19.432
REMARK INTER + INTRA:          -4.257
REMARK INTER:                  -4.210
REMARK INTRA:                  -0.046
REMARK UNBOUND:                -0.053
REMARK SMILES O=C([O-])c1cc(O)c(O)c(O)c1
REMARK SMILES IDX 4 1 5 2 12 3 6 4 10 5 8 6 2 7 1 8 3 9 7 10 11 12 9 14
REMARK H PARENT 7 11 11 13 9 15
REMARK Flexibility Score: inf
ROOT
ATOM      1  C   UNL     1      22.928  21.483  45.163  1.00  0.00     0.005 A 
ATOM      2  C   UNL     1      23.106  20.864  46.413  1.00  0.00     0.060 A 
ATOM      3  C   UNL     1      23.478  20.882  44.019  1.00  0.00     0.060 A 
ATOM      4  C   UNL     1      23.822  19.663  46.517  1.00  0.00     0.162 A 
ATOM      5  C   UNL     1      24.196  19.681  44.119  1.00  0.00     0.162 A 
ATOM      6  C   UNL     1      24.367  19.071  45.372  1.00  0.00     0.200 A 
ENDROOT
BRANCH   1   7
ATOM      7  C   UNL     1      22.173  22.751  45.050  1.00  0.00     0.072 C 
ATOM      8  O   UNL     1      22.730  23.792  44.609  1.00  0.00    -0.545 OA
ATOM      9  O   UNL     1      20.838  22.812  45.430  1.00  0.00    -0.545 OA
ENDBRANCH   1   7
BRANCH   4  10
ATOM     10  O   UNL     1      23.994  19.053  47.758  1.00  0.00    -0.504 OA
ATOM     11  H   UNL     1      24.354  18.110  47.840  1.00  0.00     0.293 HD
ENDBRANCH   4  10
BRANCH   5  12
ATOM     12  O   UNL     1      24.738  19.093  42.976  1.00  0.00    -0.504 OA
ATOM     13  H   UNL     1      24.159  18.592  42.312  1.00  0.00     0.293 HD
ENDBRANCH   5  12
BRANCH   6  14
ATOM     14  O   UNL     1      25.077  17.875  45.495  1.00  0.00    -0.502 OA
ATOM     15  H   UNL     1      25.929  17.807  46.036  1.00  0.00     0.293 HD
ENDBRANCH   6  14
TORSDOF 4
ENDMDL
MODEL 7
REMARK VINA RESULT:    -3.660      6.658      8.827
REMARK INTER + INTRA:          -4.248
REMARK INTER:                  -4.196
REMARK INTRA:                  -0.052
REMARK UNBOUND:                -0.053
REMARK SMILES O=C([O-])c1cc(O)c(O)c(O)c1
REMARK SMILES IDX 4 1 5 2 12 3 6 4 10 5 8 6 2 7 1 8 3 9 7 10 11 12 9 14
REMARK H PARENT 7 11 11 13 9 15
REMARK Flexibility Score: inf
ROOT
ATOM      1  C   UNL     1      14.557  32.969  55.564  1.00  0.00     0.005 A 
ATOM      2  C   UNL     1      13.829  33.716  54.621  1.00  0.00     0.060 A 
ATOM      3  C   UNL     1      13.909  32.522  56.727  1.00  0.00     0.060 A 
ATOM      4  C   UNL     1      12.475  34.011  54.837  1.00  0.00     0.162 A 
ATOM      5  C   UNL     1      12.555  32.815  56.948  1.00  0.00     0.162 A 
ATOM      6  C   UNL     1      11.837  33.562  55.999  1.00  0.00     0.200 A 
ENDROOT
BRANCH   1   7
ATOM      7  C   UNL     1      15.986  32.657  55.338  1.00  0.00     0.072 C 
ATOM      8  O   UNL     1      16.557  31.750  56.001  1.00  0.00    -0.545 OA
ATOM      9  O   UNL     1      16.720  33.362  54.391  1.00  0.00    -0.545 OA
ENDBRANCH   1   7
BRANCH   4  10
ATOM     10  O   UNL     1      11.758  34.751  53.899  1.00  0.00    -0.504 OA
ATOM     11  H   UNL     1      11.519  34.369  52.992  1.00  0.00     0.293 HD
ENDBRANCH   4  10
BRANCH   5  12
ATOM     12  O   UNL     1      11.923  32.366  58.106  1.00  0.00    -0.504 OA
ATOM     13  H   UNL     1      11.163  32.885  58.533  1.00  0.00     0.293 HD
ENDBRANCH   5  12
BRANCH   6  14
ATOM     14  O   UNL     1      10.489  33.864  56.198  1.00  0.00    -0.502 OA
ATOM     15  H   UNL     1      10.185  34.758  56.562  1.00  0.00     0.293 HD
ENDBRANCH   6  14
TORSDOF 4
ENDMDL
MODEL 8
REMARK VINA RESULT:    -3.605      1.183      5.038
REMARK INTER + INTRA:          -4.184
REMARK INTER:                  -4.133
REMARK INTRA:                  -0.052
REMARK UNBOUND:                -0.053
REMARK SMILES O=C([O-])c1cc(O)c(O)c(O)c1
REMARK SMILES IDX 4 1 5 2 12 3 6 4 10 5 8 6 2 7 1 8 3 9 7 10 11 12 9 14
REMARK H PARENT 7 11 11 13 9 15
REMARK Flexibility Score: inf
ROOT
ATOM      1  C   UNL     1      14.630  37.038  48.905  1.00  0.00     0.005 A 
ATOM      2  C   UNL     1      13.914  36.612  47.772  1.00  0.00     0.060 A 
ATOM      3  C   UNL     1      13.966  37.124  50.139  1.00  0.00     0.060 A 
ATOM      4  C   UNL     1      12.556  36.279  47.872  1.00  0.00     0.162 A 
ATOM      5  C   UNL     1      12.608  36.793  50.244  1.00  0.00     0.162 A 
ATOM      6  C   UNL     1      11.901  36.368  49.106  1.00  0.00     0.200 A 
ENDROOT
BRANCH   1   7
ATOM      7  C   UNL     1      16.064  37.390  48.802  1.00  0.00     0.072 C 
ATOM      8  O   UNL     1      16.608  38.125  49.669  1.00  0.00    -0.545 OA
ATOM      9  O   UNL     1      16.832  36.916  47.745  1.00  0.00    -0.545 OA
ENDBRANCH   1   7
BRANCH   4  10
ATOM     10  O   UNL     1      11.851  35.857  46.746  1.00  0.00    -0.504 OA
ATOM     11  H   UNL     1      11.434  34.935  46.695  1.00  0.00     0.293 HD
ENDBRANCH   4  10
BRANCH   5  12
ATOM     12  O   UNL     1      11.958  36.882  51.474  1.00  0.00    -0.504 OA
ATOM     13  H   UNL     1      10.955  36.757  51.556  1.00  0.00     0.293 HD
ENDBRANCH   5  12
BRANCH   6  14
ATOM     14  O   UNL     1      10.549  36.032  49.186  1.00  0.00    -0.502 OA
ATOM     15  H   UNL     1       9.915  36.498  49.822  1.00  0.00     0.293 HD
ENDBRANCH   6  14
TORSDOF 4
ENDMDL
