MODEL 1
REMARK VINA RESULT:    -2.135      0.000      0.000
REMARK INTER + INTRA:          -5.001
REMARK INTER:                  -3.384
REMARK INTRA:                  -1.617
REMARK UNBOUND:                -1.617
REMARK SMILES CCCCCCCCCCCC=O
REMARK SMILES IDX 7 1 6 2 5 3 4 4 3 5 2 6 1 7 8 8 9 9 10 10 11 11 12 12 13 13
REMARK H PARENT
REMARK Flexibility Score: inf
ROOT
ATOM      1  C   UNL     1     113.916 122.300 105.962  1.00  0.00     0.000 C 
ENDROOT
BRANCH   1   2
ATOM      2  C   UNL     1     115.293 121.647 105.759  1.00  0.00     0.000 C 
BRANCH   2   3
ATOM      3  C   UNL     1     115.857 121.031 107.051  1.00  0.00    -0.000 C 
BRANCH   3   4
ATOM      4  C   UNL     1     117.140 121.700 107.587  1.00  0.00    -0.000 C 
BRANCH   4   5
ATOM      5  C   UNL     1     116.918 122.723 108.716  1.00  0.00    -0.000 C 
BRANCH   5   6
ATOM      6  C   UNL     1     117.330 124.148 108.318  1.00  0.00    -0.003 C 
ATOM      7  C   UNL     1     117.731 124.213 106.846  1.00  0.00     0.004 C 
ENDBRANCH   5   6
ENDBRANCH   4   5
ENDBRANCH   3   4
ENDBRANCH   2   3
ENDBRANCH   1   2
BRANCH   1   8
ATOM      8  C   UNL     1     114.019 123.736 106.497  1.00  0.00     0.000 C 
BRANCH   8   9
ATOM      9  C   UNL     1     113.465 123.874 107.925  1.00  0.00     0.000 C 
BRANCH   9  10
ATOM     10  C   UNL     1     112.645 122.650 108.374  1.00  0.00     0.008 C 
BRANCH  10  11
ATOM     11  C   UNL     1     113.087 122.068 109.728  1.00  0.00     0.072 C 
BRANCH  11  12
ATOM     12  C   UNL     1     113.215 120.573 109.696  1.00  0.00     0.224 C 
ATOM     13  O   UNL     1     112.836 119.940 108.724  1.00  0.00    -0.303 OA
ENDBRANCH  11  12
ENDBRANCH  10  11
ENDBRANCH   9  10
ENDBRANCH   8   9
ENDBRANCH   1   8
TORSDOF 10
ENDMDL
MODEL 2
REMARK VINA RESULT:    -2.002      7.799      9.898
REMARK INTER + INTRA:          -4.789
REMARK INTER:                  -3.244
REMARK INTRA:                  -1.545
REMARK UNBOUND:                -1.617
REMARK SMILES CCCCCCCCCCCC=O
REMARK SMILES IDX 7 1 6 2 5 3 4 4 3 5 2 6 1 7 8 8 9 9 10 10 11 11 12 12 13 13
REMARK H PARENT
REMARK Flexibility Score: inf
ROOT
ATOM      1  C   UNL     1     122.935 117.890 105.775  1.00  0.00     0.000 C 
ENDROOT
BRANCH   1   2
ATOM      2  C   UNL     1     123.024 119.070 106.758  1.00  0.00     0.000 C 
BRANCH   2   3
ATOM      3  C   UNL     1     123.539 118.652 108.146  1.00  0.00    -0.000 C 
BRANCH   3   4
ATOM      4  C   UNL     1     122.696 119.158 109.335  1.00  0.00    -0.000 C 
BRANCH   4   5
ATOM      5  C   UNL     1     121.523 118.247 109.737  1.00  0.00    -0.000 C 
BRANCH   5   6
ATOM      6  C   UNL     1     120.153 118.891 109.479  1.00  0.00    -0.003 C 
ATOM      7  C   UNL     1     119.327 118.054 108.507  1.00  0.00     0.004 C 
ENDBRANCH   5   6
ENDBRANCH   4   5
ENDBRANCH   3   4
ENDBRANCH   2   3
ENDBRANCH   1   2
BRANCH   1   8
ATOM      8  C   UNL     1     121.718 116.992 106.041  1.00  0.00     0.000 C 
BRANCH   8   9
ATOM      9  C   UNL     1     122.116 115.545 106.379  1.00  0.00     0.000 C 
BRANCH   9  10
ATOM     10  C   UNL     1     121.771 115.148 107.826  1.00  0.00     0.008 C 
BRANCH  10  11
ATOM     11  C   UNL     1     123.003 114.959 108.729  1.00  0.00     0.072 C 
BRANCH  11  12
ATOM     12  C   UNL     1     124.247 114.659 107.947  1.00  0.00     0.224 C 
ATOM     13  O   UNL     1     125.248 115.344 108.087  1.00  0.00    -0.303 OA
ENDBRANCH  11  12
ENDBRANCH  10  11
ENDBRANCH   9  10
ENDBRANCH   8   9
ENDBRANCH   1   8
TORSDOF 10
ENDMDL
MODEL 3
REMARK VINA RESULT:    -1.981      0.802      2.466
REMARK INTER + INTRA:          -4.756
REMARK INTER:                  -3.308
REMARK INTRA:                  -1.448
REMARK UNBOUND:                -1.617
REMARK SMILES CCCCCCCCCCCC=O
REMARK SMILES IDX 7 1 6 2 5 3 4 4 3 5 2 6 1 7 8 8 9 9 10 10 11 11 12 12 13 13
REMARK H PARENT
REMARK Flexibility Score: inf
ROOT
ATOM      1  C   UNL     1     115.308 124.762 106.434  1.00  0.00     0.000 C 
ENDROOT
BRANCH   1   2
ATOM      2  C   UNL     1     115.972 124.995 107.802  1.00  0.00     0.000 C 
BRANCH   2   3
ATOM      3  C   UNL     1     117.223 124.127 108.013  1.00  0.00    -0.000 C 
BRANCH   3   4
ATOM      4  C   UNL     1     116.968 122.769 108.699  1.00  0.00    -0.000 C 
BRANCH   4   5
ATOM      5  C   UNL     1     117.284 121.533 107.837  1.00  0.00    -0.000 C 
BRANCH   5   6
ATOM      6  C   UNL     1     116.106 121.110 106.947  1.00  0.00    -0.003 C 
ATOM      7  C   UNL     1     115.832 119.614 107.072  1.00  0.00     0.004 C 
ENDBRANCH   5   6
ENDBRANCH   4   5
ENDBRANCH   3   4
ENDBRANCH   2   3
ENDBRANCH   1   2
BRANCH   1   8
ATOM      8  C   UNL     1     113.932 124.089 106.555  1.00  0.00     0.000 C 
BRANCH   8   9
ATOM      9  C   UNL     1     113.501 123.889 108.017  1.00  0.00     0.000 C 
BRANCH   9  10
ATOM     10  C   UNL     1     112.950 122.478 108.295  1.00  0.00     0.008 C 
BRANCH  10  11
ATOM     11  C   UNL     1     113.312 121.933 109.688  1.00  0.00     0.072 C 
BRANCH  11  12
ATOM     12  C   UNL     1     113.401 120.436 109.713  1.00  0.00     0.224 C 
ATOM     13  O   UNL     1     112.706 119.762 108.969  1.00  0.00    -0.303 OA
ENDBRANCH  11  12
ENDBRANCH  10  11
ENDBRANCH   9  10
ENDBRANCH   8   9
ENDBRANCH   1   8
TORSDOF 10
ENDMDL
MODEL 4
REMARK VINA RESULT:    -1.965     12.598     14.191
REMARK INTER + INTRA:          -4.731
REMARK INTER:                  -3.638
REMARK INTRA:                  -1.093
REMARK UNBOUND:                -1.617
REMARK SMILES CCCCCCCCCCCC=O
REMARK SMILES IDX 7 1 6 2 5 3 4 4 3 5 2 6 1 7 8 8 9 9 10 10 11 11 12 12 13 13
REMARK H PARENT
REMARK Flexibility Score: inf
ROOT
ATOM      1  C   UNL     1     114.522 107.303 108.233  1.00  0.00     0.000 C 
ENDROOT
BRANCH   1   2
ATOM      2  C   UNL     1     115.489 106.168 107.854  1.00  0.00     0.000 C 
BRANCH   2   3
ATOM      3  C   UNL     1     116.720 106.668 107.079  1.00  0.00    -0.000 C 
BRANCH   3   4
ATOM      4  C   UNL     1     118.036 106.684 107.885  1.00  0.00    -0.000 C 
BRANCH   4   5
ATOM      5  C   UNL     1     119.044 107.770 107.466  1.00  0.00    -0.000 C 
BRANCH   5   6
ATOM      6  C   UNL     1     120.335 107.736 108.296  1.00  0.00    -0.003 C 
ATOM      7  C   UNL     1     120.232 108.654 109.511  1.00  0.00     0.004 C 
ENDBRANCH   5   6
ENDBRANCH   4   5
ENDBRANCH   3   4
ENDBRANCH   2   3
ENDBRANCH   1   2
BRANCH   1   8
ATOM      8  C   UNL     1     114.836 108.614 107.498  1.00  0.00     0.000 C 
BRANCH   8   9
ATOM      9  C   UNL     1     115.028 109.798 108.461  1.00  0.00     0.000 C 
BRANCH   9  10
ATOM     10  C   UNL     1     116.502 110.037 108.837  1.00  0.00     0.008 C 
BRANCH  10  11
ATOM     11  C   UNL     1     117.192 111.119 107.988  1.00  0.00     0.072 C 
BRANCH  11  12
ATOM     12  C   UNL     1     118.361 111.743 108.692  1.00  0.00     0.224 C 
ATOM     13  O   UNL     1     118.335 111.918 109.900  1.00  0.00    -0.303 OA
ENDBRANCH  11  12
ENDBRANCH  10  11
ENDBRANCH   9  10
ENDBRANCH   8   9
ENDBRANCH   1   8
TORSDOF 10
ENDMDL
MODEL 5
REMARK VINA RESULT:    -1.947      8.522     10.565
REMARK INTER + INTRA:          -4.701
REMARK INTER:                  -3.084
REMARK INTRA:                  -1.617
REMARK UNBOUND:                -1.617
REMARK SMILES CCCCCCCCCCCC=O
REMARK SMILES IDX 7 1 6 2 5 3 4 4 3 5 2 6 1 7 8 8 9 9 10 10 11 11 12 12 13 13
REMARK H PARENT
REMARK Flexibility Score: inf
ROOT
ATOM      1  C   UNL     1     124.226 114.549 107.663  1.00  0.00     0.000 C 
ENDROOT
BRANCH   1   2
ATOM      2  C   UNL     1     125.539 115.204 108.126  1.00  0.00     0.000 C 
BRANCH   2   3
ATOM      3  C   UNL     1     125.903 116.454 107.307  1.00  0.00    -0.000 C 
BRANCH   3   4
ATOM      4  C   UNL     1     125.216 117.757 107.766  1.00  0.00    -0.000 C 
BRANCH   4   5
ATOM      5  C   UNL     1     124.331 118.436 106.705  1.00  0.00    -0.000 C 
BRANCH   5   6
ATOM      6  C   UNL     1     124.238 117.630 105.402  1.00  0.00    -0.003 C 
ATOM      7  C   UNL     1     122.839 117.718 104.800  1.00  0.00     0.004 C 
ENDBRANCH   5   6
ENDBRANCH   4   5
ENDBRANCH   3   4
ENDBRANCH   2   3
ENDBRANCH   1   2
BRANCH   1   8
ATOM      8  C   UNL     1     123.018 115.002 108.497  1.00  0.00     0.000 C 
BRANCH   8   9
ATOM      9  C   UNL     1     121.836 115.456 107.624  1.00  0.00     0.000 C 
BRANCH   9  10
ATOM     10  C   UNL     1     121.258 116.817 108.052  1.00  0.00     0.008 C 
BRANCH  10  11
ATOM     11  C   UNL     1     121.860 117.364 109.359  1.00  0.00     0.072 C 
BRANCH  11  12
ATOM     12  C   UNL     1     121.607 118.832 109.536  1.00  0.00     0.224 C 
ATOM     13  O   UNL     1     122.538 119.608 109.687  1.00  0.00    -0.303 OA
ENDBRANCH  11  12
ENDBRANCH  10  11
ENDBRANCH   9  10
ENDBRANCH   8   9
ENDBRANCH   1   8
TORSDOF 10
ENDMDL
MODEL 6
REMARK VINA RESULT:    -1.946      8.465     10.989
REMARK INTER + INTRA:          -4.700
REMARK INTER:                  -3.292
REMARK INTRA:                  -1.408
REMARK UNBOUND:                -1.617
REMARK SMILES CCCCCCCCCCCC=O
REMARK SMILES IDX 7 1 6 2 5 3 4 4 3 5 2 6 1 7 8 8 9 9 10 10 11 11 12 12 13 13
REMARK H PARENT
REMARK Flexibility Score: inf
ROOT
ATOM      1  C   UNL     1     109.805 115.675 108.896  1.00  0.00     0.000 C 
ENDROOT
BRANCH   1   2
ATOM      2  C   UNL     1     109.443 117.006 108.215  1.00  0.00     0.000 C 
BRANCH   2   3
ATOM      3  C   UNL     1     107.949 117.352 108.341  1.00  0.00    -0.000 C 
BRANCH   3   4
ATOM      4  C   UNL     1     107.037 116.708 107.276  1.00  0.00    -0.000 C 
BRANCH   4   5
ATOM      5  C   UNL     1     106.330 115.415 107.719  1.00  0.00    -0.000 C 
BRANCH   5   6
ATOM      6  C   UNL     1     106.602 114.234 106.776  1.00  0.00    -0.003 C 
ATOM      7  C   UNL     1     107.795 114.519 105.869  1.00  0.00     0.004 C 
ENDBRANCH   5   6
ENDBRANCH   4   5
ENDBRANCH   3   4
ENDBRANCH   2   3
ENDBRANCH   1   2
BRANCH   1   8
ATOM      8  C   UNL     1     110.790 114.838 108.066  1.00  0.00     0.000 C 
BRANCH   8   9
ATOM      9  C   UNL     1     110.528 113.327 108.189  1.00  0.00     0.000 C 
BRANCH   9  10
ATOM     10  C   UNL     1     109.545 112.976 109.322  1.00  0.00     0.008 C 
BRANCH  10  11
ATOM     11  C   UNL     1     108.483 111.937 108.922  1.00  0.00     0.072 C 
BRANCH  11  12
ATOM     12  C   UNL     1     107.381 111.825 109.934  1.00  0.00     0.224 C 
ATOM     13  O   UNL     1     106.225 112.059 109.620  1.00  0.00    -0.303 OA
ENDBRANCH  11  12
ENDBRANCH  10  11
ENDBRANCH   9  10
ENDBRANCH   8   9
ENDBRANCH   1   8
TORSDOF 10
ENDMDL
MODEL 7
REMARK VINA RESULT:    -1.943      7.792      9.699
REMARK INTER + INTRA:          -4.696
REMARK INTER:                  -3.119
REMARK INTRA:                  -1.577
REMARK UNBOUND:                -1.617
REMARK SMILES CCCCCCCCCCCC=O
REMARK SMILES IDX 7 1 6 2 5 3 4 4 3 5 2 6 1 7 8 8 9 9 10 10 11 11 12 12 13 13
REMARK H PARENT
REMARK Flexibility Score: inf
ROOT
ATOM      1  C   UNL     1     109.744 113.630 105.758  1.00  0.00     0.000 C 
ENDROOT
BRANCH   1   2
ATOM      2  C   UNL     1     108.393 113.945 106.421  1.00  0.00     0.000 C 
BRANCH   2   3
ATOM      3  C   UNL     1     108.277 113.366 107.842  1.00  0.00    -0.000 C 
BRANCH   3   4
ATOM      4  C   UNL     1     109.586 112.790 108.421  1.00  0.00    -0.000 C 
BRANCH   4   5
ATOM      5  C   UNL     1     110.110 113.500 109.682  1.00  0.00    -0.000 C 
BRANCH   5   6
ATOM      6  C   UNL     1     111.644 113.524 109.759  1.00  0.00    -0.003 C 
ATOM      7  C   UNL     1     112.266 112.964 108.483  1.00  0.00     0.004 C 
ENDBRANCH   5   6
ENDBRANCH   4   5
ENDBRANCH   3   4
ENDBRANCH   2   3
ENDBRANCH   1   2
BRANCH   1   8
ATOM      8  C   UNL     1     110.668 114.855 105.692  1.00  0.00     0.000 C 
BRANCH   8   9
ATOM      9  C   UNL     1     109.969 116.144 106.156  1.00  0.00     0.000 C 
BRANCH   9  10
ATOM     10  C   UNL     1     110.462 116.636 107.530  1.00  0.00     0.008 C 
BRANCH  10  11
ATOM     11  C   UNL     1     109.328 116.914 108.533  1.00  0.00     0.072 C 
BRANCH  11  12
ATOM     12  C   UNL     1     108.081 117.415 107.865  1.00  0.00     0.224 C 
ATOM     13  O   UNL     1     107.003 117.347 108.435  1.00  0.00    -0.303 OA
ENDBRANCH  11  12
ENDBRANCH  10  11
ENDBRANCH   9  10
ENDBRANCH   8   9
ENDBRANCH   1   8
TORSDOF 10
ENDMDL
MODEL 8
REMARK VINA RESULT:    -1.923     12.488     14.384
REMARK INTER + INTRA:          -4.663
REMARK INTER:                  -3.189
REMARK INTRA:                  -1.474
REMARK UNBOUND:                -1.617
REMARK SMILES CCCCCCCCCCCC=O
REMARK SMILES IDX 7 1 6 2 5 3 4 4 3 5 2 6 1 7 8 8 9 9 10 10 11 11 12 12 13 13
REMARK H PARENT
REMARK Flexibility Score: inf
ROOT
ATOM      1  C   UNL     1     117.328 106.817 106.543  1.00  0.00     0.000 C 
ENDROOT
BRANCH   1   2
ATOM      2  C   UNL     1     116.718 106.259 107.840  1.00  0.00     0.000 C 
BRANCH   2   3
ATOM      3  C   UNL     1     115.180 106.259 107.824  1.00  0.00    -0.000 C 
BRANCH   3   4
ATOM      4  C   UNL     1     114.529 107.653 107.695  1.00  0.00    -0.000 C 
BRANCH   4   5
ATOM      5  C   UNL     1     114.967 108.678 108.756  1.00  0.00    -0.000 C 
BRANCH   5   6
ATOM      6  C   UNL     1     115.292 110.054 108.157  1.00  0.00    -0.003 C 
ATOM      7  C   UNL     1     115.433 109.973 106.640  1.00  0.00     0.004 C 
ENDBRANCH   5   6
ENDBRANCH   4   5
ENDBRANCH   3   4
ENDBRANCH   2   3
ENDBRANCH   1   2
BRANCH   1   8
ATOM      8  C   UNL     1     118.507 107.766 106.808  1.00  0.00     0.000 C 
BRANCH   8   9
ATOM      9  C   UNL     1     118.668 108.101 108.300  1.00  0.00     0.000 C 
BRANCH   9  10
ATOM     10  C   UNL     1     119.475 109.390 108.544  1.00  0.00     0.008 C 
BRANCH  10  11
ATOM     11  C   UNL     1     118.922 110.620 107.802  1.00  0.00     0.072 C 
BRANCH  11  12
ATOM     12  C   UNL     1     118.810 111.823 108.691  1.00  0.00     0.224 C 
ATOM     13  O   UNL     1     119.142 111.760 109.864  1.00  0.00    -0.303 OA
ENDBRANCH  11  12
ENDBRANCH  10  11
ENDBRANCH   9  10
ENDBRANCH   8   9
ENDBRANCH   1   8
TORSDOF 10
ENDMDL
MODEL 9
REMARK VINA RESULT:    -1.904     12.448     14.229
REMARK INTER + INTRA:          -4.634
REMARK INTER:                  -2.983
REMARK INTRA:                  -1.651
REMARK UNBOUND:                -1.617
REMARK SMILES CCCCCCCCCCCC=O
REMARK SMILES IDX 7 1 6 2 5 3 4 4 3 5 2 6 1 7 8 8 9 9 10 10 11 11 12 12 13 13
REMARK H PARENT
REMARK Flexibility Score: inf
ROOT
ATOM      1  C   UNL     1     117.050 109.068 104.937  1.00  0.00     0.000 C 
ENDROOT
BRANCH   1   2
ATOM      2  C   UNL     1     116.451 110.354 105.532  1.00  0.00     0.000 C 
BRANCH   2   3
ATOM      3  C   UNL     1     115.155 110.099 106.319  1.00  0.00    -0.000 C 
BRANCH   3   4
ATOM      4  C   UNL     1     115.311 110.103 107.854  1.00  0.00    -0.000 C 
BRANCH   4   5
ATOM      5  C   UNL     1     114.944 108.779 108.550  1.00  0.00    -0.000 C 
BRANCH   5   6
ATOM      6  C   UNL     1     114.493 107.692 107.562  1.00  0.00    -0.003 C 
ATOM      7  C   UNL     1     114.924 106.307 108.035  1.00  0.00     0.004 C 
ENDBRANCH   5   6
ENDBRANCH   4   5
ENDBRANCH   3   4
ENDBRANCH   2   3
ENDBRANCH   1   2
BRANCH   1   8
ATOM      8  C   UNL     1     118.351 108.647 105.636  1.00  0.00     0.000 C 
BRANCH   8   9
ATOM      9  C   UNL     1     118.133 107.518 106.657  1.00  0.00     0.000 C 
BRANCH   9  10
ATOM     10  C   UNL     1     118.544 107.912 108.088  1.00  0.00     0.008 C 
BRANCH  10  11
ATOM     11  C   UNL     1     118.955 109.389 108.232  1.00  0.00     0.072 C 
BRANCH  11  12
ATOM     12  C   UNL     1     118.908 109.861 109.655  1.00  0.00     0.224 C 
ATOM     13  O   UNL     1     117.989 110.563 110.046  1.00  0.00    -0.303 OA
ENDBRANCH  11  12
ENDBRANCH  10  11
ENDBRANCH   9  10
ENDBRANCH   8   9
ENDBRANCH   1   8
TORSDOF 10
ENDMDL
