MODEL 1
REMARK VINA RESULT:     2.316      0.000      0.000
REMARK INTER + INTRA:           3.182
REMARK INTER:                   4.211
REMARK INTRA:                  -1.029
REMARK UNBOUND:                -1.029
REMARK SMILES CCCCCC=CCC=CCCCCCCCC(=O)[O-]
REMARK SMILES IDX 11 1 12 2 13 3 14 4 15 5 16 6 17 7 18 8 19 9 20 10 10 11
REMARK SMILES IDX 9 12 8 13 7 14 6 15 5 16 4 17 3 18 2 19 1 20
REMARK H PARENT
REMARK Flexibility Score: inf
ROOT
ATOM      1  C   UNL     1      18.881 -16.596  -5.338  1.00  0.00     0.027 C 
ENDROOT
BRANCH   1   2
ATOM      2  C   UNL     1      19.569 -16.673  -6.709  1.00  0.00     0.004 C 
BRANCH   2   3
ATOM      3  C   UNL     1      20.439 -17.934  -6.849  1.00  0.00     0.000 C 
BRANCH   3   4
ATOM      4  C   UNL     1      20.599 -18.382  -8.312  1.00  0.00     0.000 C 
BRANCH   4   5
ATOM      5  C   UNL     1      20.360 -17.234  -9.308  1.00  0.00     0.000 C 
BRANCH   5   6
ATOM      6  C   UNL     1      21.648 -16.798 -10.025  1.00  0.00     0.006 C 
BRANCH   6   7
ATOM      7  C   UNL     1      21.475 -15.486 -10.804  1.00  0.00     0.053 C 
BRANCH   7   8
ATOM      8  C   UNL     1      22.496 -14.483 -10.370  1.00  0.00     0.041 C 
ATOM      9  O   UNL     1      22.802 -13.523 -11.124  1.00  0.00    -0.550 OA
ATOM     10  O   UNL     1      23.084 -14.585  -9.115  1.00  0.00    -0.550 OA
ENDBRANCH   7   8
ENDBRANCH   6   7
ENDBRANCH   5   6
ENDBRANCH   4   5
ENDBRANCH   3   4
ENDBRANCH   2   3
ENDBRANCH   1   2
BRANCH   1  11
ATOM     11  C   UNL     1      19.051 -15.242  -4.689  1.00  0.00    -0.031 C 
ATOM     12  C   UNL     1      20.084 -14.904  -3.898  1.00  0.00    -0.027 C 
BRANCH  12  13
ATOM     13  C   UNL     1      21.243 -15.823  -3.598  1.00  0.00     0.054 C 
BRANCH  13  14
ATOM     14  C   UNL     1      21.324 -16.127  -2.128  1.00  0.00    -0.027 C 
ATOM     15  C   UNL     1      21.720 -15.202  -1.243  1.00  0.00    -0.031 C 
BRANCH  15  16
ATOM     16  C   UNL     1      21.795 -15.500   0.229  1.00  0.00     0.027 C 
BRANCH  16  17
ATOM     17  C   UNL     1      21.041 -16.794   0.570  1.00  0.00     0.004 C 
BRANCH  17  18
ATOM     18  C   UNL     1      21.824 -17.699   1.532  1.00  0.00     0.000 C 
BRANCH  18  19
ATOM     19  C   UNL     1      20.910 -18.607   2.368  1.00  0.00    -0.003 C 
ATOM     20  C   UNL     1      19.450 -18.180   2.245  1.00  0.00     0.004 C 
ENDBRANCH  18  19
ENDBRANCH  17  18
ENDBRANCH  16  17
ENDBRANCH  15  16
ENDBRANCH  13  14
ENDBRANCH  12  13
ENDBRANCH   1  11
TORSDOF 14
ENDMDL
MODEL 2
REMARK VINA RESULT:     2.611      0.679      1.097
REMARK INTER + INTRA:           3.718
REMARK INTER:                   4.708
REMARK INTRA:                  -0.990
REMARK UNBOUND:                -1.029
REMARK SMILES CCCCCC=CCC=CCCCCCCCC(=O)[O-]
REMARK SMILES IDX 11 1 12 2 13 3 14 4 15 5 16 6 17 7 18 8 19 9 20 10 10 11
REMARK SMILES IDX 9 12 8 13 7 14 6 15 5 16 4 17 3 18 2 19 1 20
REMARK H PARENT
REMARK Flexibility Score: inf
ROOT
ATOM      1  C   UNL     1      18.762 -16.564  -5.445  1.00  0.00     0.027 C 
ENDROOT
BRANCH   1   2
ATOM      2  C   UNL     1      19.423 -16.616  -6.831  1.00  0.00     0.004 C 
BRANCH   2   3
ATOM      3  C   UNL     1      20.317 -17.856  -7.000  1.00  0.00     0.000 C 
BRANCH   3   4
ATOM      4  C   UNL     1      20.146 -18.525  -8.375  1.00  0.00     0.000 C 
BRANCH   4   5
ATOM      5  C   UNL     1      21.484 -18.996  -8.970  1.00  0.00     0.000 C 
BRANCH   5   6
ATOM      6  C   UNL     1      22.275 -17.852  -9.622  1.00  0.00     0.006 C 
BRANCH   6   7
ATOM      7  C   UNL     1      21.380 -16.676 -10.038  1.00  0.00     0.053 C 
BRANCH   7   8
ATOM      8  C   UNL     1      22.151 -15.395 -10.005  1.00  0.00     0.041 C 
ATOM      9  O   UNL     1      22.797 -15.070  -8.974  1.00  0.00    -0.550 OA
ATOM     10  O   UNL     1      22.186 -14.574 -11.125  1.00  0.00    -0.550 OA
ENDBRANCH   7   8
ENDBRANCH   6   7
ENDBRANCH   5   6
ENDBRANCH   4   5
ENDBRANCH   3   4
ENDBRANCH   2   3
ENDBRANCH   1   2
BRANCH   1  11
ATOM     11  C   UNL     1      19.060 -15.274  -4.719  1.00  0.00    -0.031 C 
ATOM     12  C   UNL     1      20.144 -15.068  -3.951  1.00  0.00    -0.027 C 
BRANCH  12  13
ATOM     13  C   UNL     1      21.239 -16.089  -3.758  1.00  0.00     0.054 C 
BRANCH  13  14
ATOM     14  C   UNL     1      21.735 -16.086  -2.339  1.00  0.00    -0.027 C 
ATOM     15  C   UNL     1      21.087 -15.420  -1.372  1.00  0.00    -0.031 C 
BRANCH  15  16
ATOM     16  C   UNL     1      21.576 -15.421   0.050  1.00  0.00     0.027 C 
BRANCH  16  17
ATOM     17  C   UNL     1      21.953 -16.840   0.503  1.00  0.00     0.004 C 
BRANCH  17  18
ATOM     18  C   UNL     1      21.416 -17.175   1.902  1.00  0.00     0.000 C 
BRANCH  18  19
ATOM     19  C   UNL     1      20.714 -18.541   1.956  1.00  0.00    -0.003 C 
ATOM     20  C   UNL     1      19.243 -18.388   2.327  1.00  0.00     0.004 C 
ENDBRANCH  18  19
ENDBRANCH  17  18
ENDBRANCH  16  17
ENDBRANCH  15  16
ENDBRANCH  13  14
ENDBRANCH  12  13
ENDBRANCH   1  11
TORSDOF 14
ENDMDL
MODEL 3
REMARK VINA RESULT:     2.730      4.316      9.920
REMARK INTER + INTRA:           3.934
REMARK INTER:                   4.752
REMARK INTRA:                  -0.817
REMARK UNBOUND:                -1.029
REMARK SMILES CCCCCC=CCC=CCCCCCCCC(=O)[O-]
REMARK SMILES IDX 11 1 12 2 13 3 14 4 15 5 16 6 17 7 18 8 19 9 20 10 10 11
REMARK SMILES IDX 9 12 8 13 7 14 6 15 5 16 4 17 3 18 2 19 1 20
REMARK H PARENT
REMARK Flexibility Score: inf
ROOT
ATOM      1  C   UNL     1      20.929 -15.618  -3.235  1.00  0.00     0.027 C 
ENDROOT
BRANCH   1   2
ATOM      2  C   UNL     1      20.755 -15.281  -1.747  1.00  0.00     0.004 C 
BRANCH   2   3
ATOM      3  C   UNL     1      22.093 -14.933  -1.073  1.00  0.00     0.000 C 
BRANCH   3   4
ATOM      4  C   UNL     1      22.189 -15.475   0.364  1.00  0.00     0.000 C 
BRANCH   4   5
ATOM      5  C   UNL     1      21.400 -16.783   0.552  1.00  0.00     0.000 C 
BRANCH   5   6
ATOM      6  C   UNL     1      21.954 -17.644   1.699  1.00  0.00     0.006 C 
BRANCH   6   7
ATOM      7  C   UNL     1      21.018 -18.802   2.072  1.00  0.00     0.053 C 
BRANCH   7   8
ATOM      8  C   UNL     1      19.706 -18.278   2.561  1.00  0.00     0.041 C 
ATOM      9  O   UNL     1      19.653 -17.572   3.602  1.00  0.00    -0.550 OA
ATOM     10  O   UNL     1      18.543 -18.538   1.846  1.00  0.00    -0.550 OA
ENDBRANCH   7   8
ENDBRANCH   6   7
ENDBRANCH   5   6
ENDBRANCH   4   5
ENDBRANCH   3   4
ENDBRANCH   2   3
ENDBRANCH   1   2
BRANCH   1  11
ATOM     11  C   UNL     1      19.950 -14.870  -4.109  1.00  0.00    -0.031 C 
ATOM     12  C   UNL     1      19.265 -15.420  -5.126  1.00  0.00    -0.027 C 
BRANCH  12  13
ATOM     13  C   UNL     1      19.346 -16.881  -5.496  1.00  0.00     0.054 C 
BRANCH  13  14
ATOM     14  C   UNL     1      19.817 -17.054  -6.913  1.00  0.00    -0.027 C 
ATOM     15  C   UNL     1      20.383 -18.197  -7.327  1.00  0.00    -0.031 C 
BRANCH  15  16
ATOM     16  C   UNL     1      20.849 -18.378  -8.745  1.00  0.00     0.027 C 
BRANCH  16  17
ATOM     17  C   UNL     1      20.574 -17.118  -9.581  1.00  0.00     0.004 C 
BRANCH  17  18
ATOM     18  C   UNL     1      21.854 -16.331  -9.902  1.00  0.00     0.000 C 
BRANCH  18  19
ATOM     19  C   UNL     1      21.616 -15.200 -10.913  1.00  0.00    -0.003 C 
ATOM     20  C   UNL     1      22.671 -14.107 -10.773  1.00  0.00     0.004 C 
ENDBRANCH  18  19
ENDBRANCH  17  18
ENDBRANCH  16  17
ENDBRANCH  15  16
ENDBRANCH  13  14
ENDBRANCH  12  13
ENDBRANCH   1  11
TORSDOF 14
ENDMDL
MODEL 4
REMARK VINA RESULT:     3.201      2.135      2.669
REMARK INTER + INTRA:           4.791
REMARK INTER:                   5.696
REMARK INTRA:                  -0.904
REMARK UNBOUND:                -1.029
REMARK SMILES CCCCCC=CCC=CCCCCCCCC(=O)[O-]
REMARK SMILES IDX 11 1 12 2 13 3 14 4 15 5 16 6 17 7 18 8 19 9 20 10 10 11
REMARK SMILES IDX 9 12 8 13 7 14 6 15 5 16 4 17 3 18 2 19 1 20
REMARK H PARENT
REMARK Flexibility Score: inf
ROOT
ATOM      1  C   UNL     1      18.711 -16.453  -5.366  1.00  0.00     0.027 C 
ENDROOT
BRANCH   1   2
ATOM      2  C   UNL     1      19.423 -16.510  -6.726  1.00  0.00     0.004 C 
BRANCH   2   3
ATOM      3  C   UNL     1      20.019 -17.899  -7.008  1.00  0.00     0.000 C 
BRANCH   3   4
ATOM      4  C   UNL     1      20.114 -18.206  -8.513  1.00  0.00     0.000 C 
BRANCH   4   5
ATOM      5  C   UNL     1      21.112 -17.286  -9.239  1.00  0.00     0.000 C 
BRANCH   5   6
ATOM      6  C   UNL     1      22.436 -17.994  -9.564  1.00  0.00     0.006 C 
BRANCH   6   7
ATOM      7  C   UNL     1      22.423 -19.480  -9.179  1.00  0.00     0.053 C 
BRANCH   7   8
ATOM      8  C   UNL     1      23.793 -19.931  -8.786  1.00  0.00     0.041 C 
ATOM      9  O   UNL     1      24.804 -19.263  -9.130  1.00  0.00    -0.550 OA
ATOM     10  O   UNL     1      23.955 -21.071  -8.009  1.00  0.00    -0.550 OA
ENDBRANCH   7   8
ENDBRANCH   6   7
ENDBRANCH   5   6
ENDBRANCH   4   5
ENDBRANCH   3   4
ENDBRANCH   2   3
ENDBRANCH   1   2
BRANCH   1  11
ATOM     11  C   UNL     1      19.019 -15.181  -4.612  1.00  0.00    -0.031 C 
ATOM     12  C   UNL     1      20.141 -14.972  -3.902  1.00  0.00    -0.027 C 
BRANCH  12  13
ATOM     13  C   UNL     1      21.270 -15.969  -3.810  1.00  0.00     0.054 C 
BRANCH  13  14
ATOM     14  C   UNL     1      21.676 -16.195  -2.380  1.00  0.00    -0.027 C 
ATOM     15  C   UNL     1      21.295 -15.358  -1.405  1.00  0.00    -0.031 C 
BRANCH  15  16
ATOM     16  C   UNL     1      21.693 -15.584   0.028  1.00  0.00     0.027 C 
BRANCH  16  17
ATOM     17  C   UNL     1      20.887 -16.734   0.650  1.00  0.00     0.004 C 
BRANCH  17  18
ATOM     18  C   UNL     1      21.729 -17.599   1.601  1.00  0.00     0.000 C 
BRANCH  18  19
ATOM     19  C   UNL     1      20.903 -18.693   2.294  1.00  0.00    -0.003 C 
ATOM     20  C   UNL     1      19.460 -18.243   2.501  1.00  0.00     0.004 C 
ENDBRANCH  18  19
ENDBRANCH  17  18
ENDBRANCH  16  17
ENDBRANCH  15  16
ENDBRANCH  13  14
ENDBRANCH  12  13
ENDBRANCH   1  11
TORSDOF 14
ENDMDL
MODEL 5
REMARK VINA RESULT:     3.233      4.381      9.579
REMARK INTER + INTRA:           4.851
REMARK INTER:                   5.684
REMARK INTRA:                  -0.833
REMARK UNBOUND:                -1.029
REMARK SMILES CCCCCC=CCC=CCCCCCCCC(=O)[O-]
REMARK SMILES IDX 11 1 12 2 13 3 14 4 15 5 16 6 17 7 18 8 19 9 20 10 10 11
REMARK SMILES IDX 9 12 8 13 7 14 6 15 5 16 4 17 3 18 2 19 1 20
REMARK H PARENT
REMARK Flexibility Score: inf
ROOT
ATOM      1  C   UNL     1      20.954 -15.691  -3.278  1.00  0.00     0.027 C 
ENDROOT
BRANCH   1   2
ATOM      2  C   UNL     1      20.711 -15.363  -1.797  1.00  0.00     0.004 C 
BRANCH   2   3
ATOM      3  C   UNL     1      21.983 -14.846  -1.104  1.00  0.00     0.000 C 
BRANCH   3   4
ATOM      4  C   UNL     1      22.158 -15.421   0.313  1.00  0.00     0.000 C 
BRANCH   4   5
ATOM      5  C   UNL     1      21.413 -16.754   0.503  1.00  0.00     0.000 C 
BRANCH   5   6
ATOM      6  C   UNL     1      21.980 -17.586   1.664  1.00  0.00     0.006 C 
BRANCH   6   7
ATOM      7  C   UNL     1      21.100 -18.795   2.009  1.00  0.00     0.053 C 
BRANCH   7   8
ATOM      8  C   UNL     1      19.769 -18.344   2.520  1.00  0.00     0.041 C 
ATOM      9  O   UNL     1      19.646 -17.955   3.711  1.00  0.00    -0.550 OA
ATOM     10  O   UNL     1      18.670 -18.318   1.671  1.00  0.00    -0.550 OA
ENDBRANCH   7   8
ENDBRANCH   6   7
ENDBRANCH   5   6
ENDBRANCH   4   5
ENDBRANCH   3   4
ENDBRANCH   2   3
ENDBRANCH   1   2
BRANCH   1  11
ATOM     11  C   UNL     1      20.145 -14.808  -4.199  1.00  0.00    -0.031 C 
ATOM     12  C   UNL     1      19.333 -15.263  -5.168  1.00  0.00    -0.027 C 
BRANCH  12  13
ATOM     13  C   UNL     1      19.081 -16.728  -5.428  1.00  0.00     0.054 C 
BRANCH  13  14
ATOM     14  C   UNL     1      19.950 -17.236  -6.544  1.00  0.00    -0.027 C 
ATOM     15  C   UNL     1      19.687 -16.939  -7.826  1.00  0.00    -0.031 C 
BRANCH  15  16
ATOM     16  C   UNL     1      20.558 -17.438  -8.945  1.00  0.00     0.027 C 
BRANCH  16  17
ATOM     17  C   UNL     1      20.839 -18.942  -8.798  1.00  0.00     0.004 C 
BRANCH  17  18
ATOM     18  C   UNL     1      22.047 -19.401  -9.628  1.00  0.00     0.000 C 
BRANCH  18  19
ATOM     19  C   UNL     1      23.383 -19.177  -8.905  1.00  0.00    -0.003 C 
ATOM     20  C   UNL     1      24.010 -20.503  -8.487  1.00  0.00     0.004 C 
ENDBRANCH  18  19
ENDBRANCH  17  18
ENDBRANCH  16  17
ENDBRANCH  15  16
ENDBRANCH  13  14
ENDBRANCH  12  13
ENDBRANCH   1  11
TORSDOF 14
ENDMDL
MODEL 6
REMARK VINA RESULT:     3.524      2.162      2.798
REMARK INTER + INTRA:           5.380
REMARK INTER:                   5.914
REMARK INTRA:                  -0.534
REMARK UNBOUND:                -1.029
REMARK SMILES CCCCCC=CCC=CCCCCCCCC(=O)[O-]
REMARK SMILES IDX 11 1 12 2 13 3 14 4 15 5 16 6 17 7 18 8 19 9 20 10 10 11
REMARK SMILES IDX 9 12 8 13 7 14 6 15 5 16 4 17 3 18 2 19 1 20
REMARK H PARENT
REMARK Flexibility Score: inf
ROOT
ATOM      1  C   UNL     1      19.506 -15.140  -4.412  1.00  0.00     0.027 C 
ENDROOT
BRANCH   1   2
ATOM      2  C   UNL     1      18.661 -16.118  -5.242  1.00  0.00     0.004 C 
BRANCH   2   3
ATOM      3  C   UNL     1      19.295 -16.410  -6.613  1.00  0.00     0.000 C 
BRANCH   3   4
ATOM      4  C   UNL     1      20.113 -17.712  -6.619  1.00  0.00     0.000 C 
BRANCH   4   5
ATOM      5  C   UNL     1      20.108 -18.404  -7.993  1.00  0.00     0.000 C 
BRANCH   5   6
ATOM      6  C   UNL     1      20.580 -17.475  -9.123  1.00  0.00     0.006 C 
BRANCH   6   7
ATOM      7  C   UNL     1      22.047 -17.711  -9.509  1.00  0.00     0.053 C 
BRANCH   7   8
ATOM      8  C   UNL     1      22.390 -19.162  -9.395  1.00  0.00     0.041 C 
ATOM      9  O   UNL     1      23.420 -19.523  -8.767  1.00  0.00    -0.550 OA
ATOM     10  O   UNL     1      21.554 -20.121  -9.952  1.00  0.00    -0.550 OA
ENDBRANCH   7   8
ENDBRANCH   6   7
ENDBRANCH   5   6
ENDBRANCH   4   5
ENDBRANCH   3   4
ENDBRANCH   2   3
ENDBRANCH   1   2
BRANCH   1  11
ATOM     11  C   UNL     1      20.802 -15.759  -3.946  1.00  0.00    -0.031 C 
ATOM     12  C   UNL     1      21.287 -15.656  -2.696  1.00  0.00    -0.027 C 
BRANCH  12  13
ATOM     13  C   UNL     1      20.566 -14.948  -1.576  1.00  0.00     0.054 C 
BRANCH  13  14
ATOM     14  C   UNL     1      21.304 -15.104  -0.275  1.00  0.00    -0.027 C 
ATOM     15  C   UNL     1      21.855 -16.274   0.081  1.00  0.00    -0.031 C 
BRANCH  15  16
ATOM     16  C   UNL     1      22.600 -16.432   1.377  1.00  0.00     0.027 C 
BRANCH  16  17
ATOM     17  C   UNL     1      22.279 -17.782   2.037  1.00  0.00     0.004 C 
BRANCH  17  18
ATOM     18  C   UNL     1      20.887 -18.309   1.658  1.00  0.00     0.000 C 
BRANCH  18  19
ATOM     19  C   UNL     1      19.829 -18.011   2.731  1.00  0.00    -0.003 C 
ATOM     20  C   UNL     1      18.521 -18.735   2.427  1.00  0.00     0.004 C 
ENDBRANCH  18  19
ENDBRANCH  17  18
ENDBRANCH  16  17
ENDBRANCH  15  16
ENDBRANCH  13  14
ENDBRANCH  12  13
ENDBRANCH   1  11
TORSDOF 14
ENDMDL
MODEL 7
REMARK VINA RESULT:     4.503      5.099      9.323
REMARK INTER + INTRA:           7.159
REMARK INTER:                   7.726
REMARK INTRA:                  -0.566
REMARK UNBOUND:                -1.029
REMARK SMILES CCCCCC=CCC=CCCCCCCCC(=O)[O-]
REMARK SMILES IDX 11 1 12 2 13 3 14 4 15 5 16 6 17 7 18 8 19 9 20 10 10 11
REMARK SMILES IDX 9 12 8 13 7 14 6 15 5 16 4 17 3 18 2 19 1 20
REMARK H PARENT
REMARK Flexibility Score: inf
ROOT
ATOM      1  C   UNL     1      20.125 -17.399  -6.615  1.00  0.00     0.027 C 
ENDROOT
BRANCH   1   2
ATOM      2  C   UNL     1      19.217 -16.432  -5.840  1.00  0.00     0.004 C 
BRANCH   2   3
ATOM      3  C   UNL     1      20.012 -15.283  -5.197  1.00  0.00     0.000 C 
BRANCH   3   4
ATOM      4  C   UNL     1      19.989 -15.338  -3.660  1.00  0.00     0.000 C 
BRANCH   4   5
ATOM      5  C   UNL     1      21.312 -15.861  -3.071  1.00  0.00     0.000 C 
BRANCH   5   6
ATOM      6  C   UNL     1      21.652 -15.212  -1.720  1.00  0.00     0.006 C 
BRANCH   6   7
ATOM      7  C   UNL     1      20.848 -15.811  -0.558  1.00  0.00     0.053 C 
BRANCH   7   8
ATOM      8  C   UNL     1      21.765 -16.270   0.531  1.00  0.00     0.041 C 
ATOM      9  O   UNL     1      22.762 -15.573   0.857  1.00  0.00    -0.550 OA
ATOM     10  O   UNL     1      21.500 -17.451   1.212  1.00  0.00    -0.550 OA
ENDBRANCH   7   8
ENDBRANCH   6   7
ENDBRANCH   5   6
ENDBRANCH   4   5
ENDBRANCH   3   4
ENDBRANCH   2   3
ENDBRANCH   1   2
BRANCH   1  11
ATOM     11  C   UNL     1      20.109 -17.130  -8.102  1.00  0.00    -0.031 C 
ATOM     12  C   UNL     1      20.666 -17.933  -9.025  1.00  0.00    -0.027 C 
BRANCH  12  13
ATOM     13  C   UNL     1      21.338 -19.244  -8.697  1.00  0.00     0.054 C 
BRANCH  13  14
ATOM     14  C   UNL     1      22.778 -19.234  -9.127  1.00  0.00    -0.027 C 
ATOM     15  C   UNL     1      23.693 -20.009  -8.526  1.00  0.00    -0.031 C 
BRANCH  15  16
ATOM     16  C   UNL     1      25.133 -20.009  -8.958  1.00  0.00     0.027 C 
BRANCH  16  17
ATOM     17  C   UNL     1      25.835 -21.310  -8.541  1.00  0.00     0.004 C 
BRANCH  17  18
ATOM     18  C   UNL     1      26.876 -21.776  -9.571  1.00  0.00     0.000 C 
BRANCH  18  19
ATOM     19  C   UNL     1      27.955 -22.679  -8.956  1.00  0.00    -0.003 C 
ATOM     20  C   UNL     1      28.139 -23.951  -9.777  1.00  0.00     0.004 C 
ENDBRANCH  18  19
ENDBRANCH  17  18
ENDBRANCH  16  17
ENDBRANCH  15  16
ENDBRANCH  13  14
ENDBRANCH  12  13
ENDBRANCH   1  11
TORSDOF 14
ENDMDL
MODEL 8
REMARK VINA RESULT:     5.121      5.643      9.441
REMARK INTER + INTRA:           8.282
REMARK INTER:                   8.833
REMARK INTRA:                  -0.551
REMARK UNBOUND:                -1.029
REMARK SMILES CCCCCC=CCC=CCCCCCCCC(=O)[O-]
REMARK SMILES IDX 11 1 12 2 13 3 14 4 15 5 16 6 17 7 18 8 19 9 20 10 10 11
REMARK SMILES IDX 9 12 8 13 7 14 6 15 5 16 4 17 3 18 2 19 1 20
REMARK H PARENT
REMARK Flexibility Score: inf
ROOT
ATOM      1  C   UNL     1      20.419 -18.603  -8.542  1.00  0.00     0.027 C 
ENDROOT
BRANCH   1   2
ATOM      2  C   UNL     1      19.752 -17.394  -7.871  1.00  0.00     0.004 C 
BRANCH   2   3
ATOM      3  C   UNL     1      19.931 -17.409  -6.343  1.00  0.00     0.000 C 
BRANCH   3   4
ATOM      4  C   UNL     1      19.330 -16.165  -5.666  1.00  0.00     0.000 C 
BRANCH   4   5
ATOM      5  C   UNL     1      20.389 -15.328  -4.927  1.00  0.00     0.000 C 
BRANCH   5   6
ATOM      6  C   UNL     1      20.133 -15.257  -3.413  1.00  0.00     0.006 C 
BRANCH   6   7
ATOM      7  C   UNL     1      21.335 -15.733  -2.587  1.00  0.00     0.053 C 
BRANCH   7   8
ATOM      8  C   UNL     1      21.173 -15.340  -1.153  1.00  0.00     0.041 C 
ATOM      9  O   UNL     1      21.970 -15.776  -0.282  1.00  0.00    -0.550 OA
ATOM     10  O   UNL     1      20.162 -14.463  -0.781  1.00  0.00    -0.550 OA
ENDBRANCH   7   8
ENDBRANCH   6   7
ENDBRANCH   5   6
ENDBRANCH   4   5
ENDBRANCH   3   4
ENDBRANCH   2   3
ENDBRANCH   1   2
BRANCH   1  11
ATOM     11  C   UNL     1      21.545 -18.196  -9.463  1.00  0.00    -0.031 C 
ATOM     12  C   UNL     1      22.766 -18.758  -9.465  1.00  0.00    -0.027 C 
BRANCH  12  13
ATOM     13  C   UNL     1      23.155 -19.914  -8.577  1.00  0.00     0.054 C 
BRANCH  13  14
ATOM     14  C   UNL     1      24.643 -20.131  -8.594  1.00  0.00    -0.027 C 
ATOM     15  C   UNL     1      25.181 -21.317  -8.275  1.00  0.00    -0.031 C 
BRANCH  15  16
ATOM     16  C   UNL     1      26.668 -21.540  -8.297  1.00  0.00     0.027 C 
BRANCH  16  17
ATOM     17  C   UNL     1      27.089 -22.325  -9.549  1.00  0.00     0.004 C 
BRANCH  17  18
ATOM     18  C   UNL     1      28.297 -23.240  -9.294  1.00  0.00     0.000 C 
BRANCH  18  19
ATOM     19  C   UNL     1      28.382 -24.401 -10.296  1.00  0.00    -0.003 C 
ATOM     20  C   UNL     1      28.370 -25.747  -9.578  1.00  0.00     0.004 C 
ENDBRANCH  18  19
ENDBRANCH  17  18
ENDBRANCH  16  17
ENDBRANCH  15  16
ENDBRANCH  13  14
ENDBRANCH  12  13
ENDBRANCH   1  11
TORSDOF 14
ENDMDL
MODEL 9
REMARK VINA RESULT:     5.208      6.144      7.892
REMARK INTER + INTRA:           8.441
REMARK INTER:                   8.983
REMARK INTRA:                  -0.543
REMARK UNBOUND:                -1.029
REMARK SMILES CCCCCC=CCC=CCCCCCCCC(=O)[O-]
REMARK SMILES IDX 11 1 12 2 13 3 14 4 15 5 16 6 17 7 18 8 19 9 20 10 10 11
REMARK SMILES IDX 9 12 8 13 7 14 6 15 5 16 4 17 3 18 2 19 1 20
REMARK H PARENT
REMARK Flexibility Score: inf
ROOT
ATOM      1  C   UNL     1      22.983 -19.257  -8.944  1.00  0.00     0.027 C 
ENDROOT
BRANCH   1   2
ATOM      2  C   UNL     1      23.878 -20.375  -8.391  1.00  0.00     0.004 C 
BRANCH   2   3
ATOM      3  C   UNL     1      25.338 -20.228  -8.851  1.00  0.00     0.000 C 
BRANCH   3   4
ATOM      4  C   UNL     1      26.214 -21.420  -8.428  1.00  0.00     0.000 C 
BRANCH   4   5
ATOM      5  C   UNL     1      27.040 -21.988  -9.595  1.00  0.00     0.000 C 
BRANCH   5   6
ATOM      6  C   UNL     1      27.997 -23.106  -9.151  1.00  0.00     0.006 C 
BRANCH   6   7
ATOM      7  C   UNL     1      28.248 -24.142 -10.256  1.00  0.00     0.053 C 
BRANCH   7   8
ATOM      8  C   UNL     1      28.102 -25.529  -9.715  1.00  0.00     0.041 C 
ATOM      9  O   UNL     1      28.224 -25.745  -8.481  1.00  0.00    -0.550 OA
ATOM     10  O   UNL     1      27.794 -26.580 -10.570  1.00  0.00    -0.550 OA
ENDBRANCH   7   8
ENDBRANCH   6   7
ENDBRANCH   5   6
ENDBRANCH   4   5
ENDBRANCH   3   4
ENDBRANCH   2   3
ENDBRANCH   1   2
BRANCH   1  11
ATOM     11  C   UNL     1      21.571 -19.730  -9.202  1.00  0.00    -0.031 C 
ATOM     12  C   UNL     1      20.471 -18.986  -8.993  1.00  0.00    -0.027 C 
BRANCH  12  13
ATOM     13  C   UNL     1      20.508 -17.553  -8.523  1.00  0.00     0.054 C 
BRANCH  13  14
ATOM     14  C   UNL     1      20.183 -17.457  -7.058  1.00  0.00    -0.027 C 
ATOM     15  C   UNL     1      19.536 -16.397  -6.553  1.00  0.00    -0.031 C 
BRANCH  15  16
ATOM     16  C   UNL     1      19.202 -16.300  -5.090  1.00  0.00     0.027 C 
BRANCH  16  17
ATOM     17  C   UNL     1      20.077 -15.247  -4.393  1.00  0.00     0.004 C 
BRANCH  17  18
ATOM     18  C   UNL     1      20.907 -15.836  -3.242  1.00  0.00     0.000 C 
BRANCH  18  19
ATOM     19  C   UNL     1      20.921 -14.934  -2.000  1.00  0.00    -0.003 C 
ATOM     20  C   UNL     1      21.535 -15.655  -0.804  1.00  0.00     0.004 C 
ENDBRANCH  18  19
ENDBRANCH  17  18
ENDBRANCH  16  17
ENDBRANCH  15  16
ENDBRANCH  13  14
ENDBRANCH  12  13
ENDBRANCH   1  11
TORSDOF 14
ENDMDL
