MODEL 1
REMARK VINA RESULT:    -5.847      0.000      0.000
REMARK INTER + INTRA:          -7.376
REMARK INTER:                  -7.043
REMARK INTRA:                  -0.333
REMARK UNBOUND:                -0.333
REMARK SMILES O=c1c(O)c(-c2ccc(O)c(O)c2)oc2cc(O)cc(O)c12
REMARK SMILES IDX 5 1 3 2 2 3 1 4 22 5 20 6 19 7 17 8 16 9 15 10 14 11 6 12
REMARK SMILES IDX 7 13 8 14 9 15 13 16 11 17 10 18 12 20 4 22 21 24 18 26
REMARK H PARENT 10 19 12 21 4 23 21 25 18 27
REMARK Flexibility Score: inf
ROOT
ATOM      1  C   UNL     1     102.979 115.876  88.422  1.00  0.00     0.180 A 
ATOM      2  C   UNL     1     104.299 115.394  88.384  1.00  0.00     0.208 A 
ATOM      3  C   UNL     1     104.837 114.977  87.157  1.00  0.00     0.238 A 
ATOM      4  O   UNL     1     106.000 114.495  87.139  1.00  0.00    -0.285 OA
ATOM      5  C   UNL     1     104.057 115.065  85.979  1.00  0.00     0.111 A 
ATOM      6  C   UNL     1     104.515 114.709  84.675  1.00  0.00     0.134 A 
ATOM      7  C   UNL     1     103.615 114.712  83.602  1.00  0.00     0.093 A 
ATOM      8  C   UNL     1     102.294 115.119  83.772  1.00  0.00     0.123 A 
ATOM      9  C   UNL     1     101.849 115.526  85.031  1.00  0.00     0.094 A 
ATOM     10  C   UNL     1     102.714 115.500  86.128  1.00  0.00     0.146 A 
ATOM     11  O   UNL     1     102.250 115.885  87.311  1.00  0.00    -0.452 OA
ENDROOT
BRANCH   1  12
ATOM     12  C   UNL     1     102.350 116.357  89.673  1.00  0.00     0.025 A 
ATOM     13  C   UNL     1     102.497 117.688  90.102  1.00  0.00     0.016 A 
ATOM     14  C   UNL     1     101.875 118.125  91.275  1.00  0.00     0.051 A 
ATOM     15  C   UNL     1     101.086 117.244  92.027  1.00  0.00     0.157 A 
ATOM     16  C   UNL     1     101.542 115.483  90.420  1.00  0.00     0.062 A 
ATOM     17  C   UNL     1     100.917 115.922  91.597  1.00  0.00     0.158 A 
BRANCH  15  18
ATOM     18  O   UNL     1     100.466 117.676  93.197  1.00  0.00    -0.504 OA
ATOM     19  H   UNL     1     100.859 118.419  93.762  1.00  0.00     0.293 HD
ENDBRANCH  15  18
BRANCH  17  20
ATOM     20  O   UNL     1     100.127 115.049  92.343  1.00  0.00    -0.504 OA
ATOM     21  H   UNL     1      99.991 115.178  93.339  1.00  0.00     0.293 HD
ENDBRANCH  17  20
ENDBRANCH   1  12
BRANCH   2  22
ATOM     22  O   UNL     1     105.044 115.295  89.562  1.00  0.00    -0.502 OA
ATOM     23  H   UNL     1     105.623 114.492  89.774  1.00  0.00     0.293 HD
ENDBRANCH   2  22
BRANCH   6  24
ATOM     24  O   UNL     1     105.840 114.375  84.377  1.00  0.00    -0.507 OA
ATOM     25  H   UNL     1     106.557 115.039  84.126  1.00  0.00     0.293 HD
ENDBRANCH   6  24
BRANCH   8  26
ATOM     26  O   UNL     1     101.429 115.125  82.679  1.00  0.00    -0.508 OA
ATOM     27  H   UNL     1     101.177 114.270  82.199  1.00  0.00     0.293 HD
ENDBRANCH   8  26
TORSDOF 6
ENDMDL
MODEL 2
REMARK VINA RESULT:    -5.717      1.191      1.697
REMARK INTER + INTRA:          -7.219
REMARK INTER:                  -7.316
REMARK INTRA:                   0.096
REMARK UNBOUND:                -0.333
REMARK SMILES O=c1c(O)c(-c2ccc(O)c(O)c2)oc2cc(O)cc(O)c12
REMARK SMILES IDX 5 1 3 2 2 3 1 4 22 5 20 6 19 7 17 8 16 9 15 10 14 11 6 12
REMARK SMILES IDX 7 13 8 14 9 15 13 16 11 17 10 18 12 20 4 22 21 24 18 26
REMARK H PARENT 10 19 12 21 4 23 21 25 18 27
REMARK Flexibility Score: inf
ROOT
ATOM      1  C   UNL     1     102.455 115.777  89.125  1.00  0.00     0.180 A 
ATOM      2  C   UNL     1     103.712 115.229  89.435  1.00  0.00     0.208 A 
ATOM      3  C   UNL     1     104.570 114.856  88.390  1.00  0.00     0.238 A 
ATOM      4  O   UNL     1     105.671 114.316  88.675  1.00  0.00    -0.285 OA
ATOM      5  C   UNL     1     104.171 115.053  87.046  1.00  0.00     0.111 A 
ATOM      6  C   UNL     1     104.977 114.750  85.908  1.00  0.00     0.134 A 
ATOM      7  C   UNL     1     104.430 114.862  84.624  1.00  0.00     0.093 A 
ATOM      8  C   UNL     1     103.130 115.327  84.434  1.00  0.00     0.123 A 
ATOM      9  C   UNL     1     102.352 115.684  85.537  1.00  0.00     0.094 A 
ATOM     10  C   UNL     1     102.858 115.548  86.832  1.00  0.00     0.146 A 
ATOM     11  O   UNL     1     102.082 115.888  87.854  1.00  0.00    -0.452 OA
ENDROOT
BRANCH   1  12
ATOM     12  C   UNL     1     101.506 116.216  90.172  1.00  0.00     0.025 A 
ATOM     13  C   UNL     1     100.148 115.853  90.128  1.00  0.00     0.016 A 
ATOM     14  C   UNL     1      99.274 116.259  91.140  1.00  0.00     0.051 A 
ATOM     15  C   UNL     1      99.747 117.021  92.217  1.00  0.00     0.157 A 
ATOM     16  C   UNL     1     101.978 116.963  91.264  1.00  0.00     0.062 A 
ATOM     17  C   UNL     1     101.101 117.371  92.280  1.00  0.00     0.158 A 
BRANCH  15  18
ATOM     18  O   UNL     1      98.879 117.430  93.227  1.00  0.00    -0.504 OA
ATOM     19  H   UNL     1      99.006 117.133  94.187  1.00  0.00     0.293 HD
ENDBRANCH  15  18
BRANCH  17  20
ATOM     20  O   UNL     1     101.570 118.124  93.356  1.00  0.00    -0.504 OA
ATOM     21  H   UNL     1     102.160 117.716  94.072  1.00  0.00     0.293 HD
ENDBRANCH  17  20
ENDBRANCH   1  12
BRANCH   2  22
ATOM     22  O   UNL     1     104.078 115.023  90.769  1.00  0.00    -0.502 OA
ATOM     23  H   UNL     1     103.890 114.156  91.257  1.00  0.00     0.293 HD
ENDBRANCH   2  22
BRANCH   6  24
ATOM     24  O   UNL     1     106.319 114.364  85.982  1.00  0.00    -0.507 OA
ATOM     25  H   UNL     1     107.042 114.889  86.450  1.00  0.00     0.293 HD
ENDBRANCH   6  24
BRANCH   8  26
ATOM     26  O   UNL     1     102.623 115.442  83.141  1.00  0.00    -0.508 OA
ATOM     27  H   UNL     1     101.644 115.644  82.972  1.00  0.00     0.293 HD
ENDBRANCH   8  26
TORSDOF 6
ENDMDL
MODEL 3
REMARK VINA RESULT:    -5.418      2.545      3.639
REMARK INTER + INTRA:          -6.859
REMARK INTER:                  -6.564
REMARK INTRA:                  -0.295
REMARK UNBOUND:                -0.333
REMARK SMILES O=c1c(O)c(-c2ccc(O)c(O)c2)oc2cc(O)cc(O)c12
REMARK SMILES IDX 5 1 3 2 2 3 1 4 22 5 20 6 19 7 17 8 16 9 15 10 14 11 6 12
REMARK SMILES IDX 7 13 8 14 9 15 13 16 11 17 10 18 12 20 4 22 21 24 18 26
REMARK H PARENT 10 19 12 21 4 23 21 25 18 27
REMARK Flexibility Score: inf
ROOT
ATOM      1  C   UNL     1     102.997 114.522  89.972  1.00  0.00     0.180 A 
ATOM      2  C   UNL     1     103.363 113.324  90.610  1.00  0.00     0.208 A 
ATOM      3  C   UNL     1     104.408 112.557  90.071  1.00  0.00     0.238 A 
ATOM      4  O   UNL     1     104.694 111.459  90.616  1.00  0.00    -0.285 OA
ATOM      5  C   UNL     1     105.087 113.006  88.914  1.00  0.00     0.111 A 
ATOM      6  C   UNL     1     106.188 112.330  88.306  1.00  0.00     0.134 A 
ATOM      7  C   UNL     1     106.698 112.796  87.088  1.00  0.00     0.093 A 
ATOM      8  C   UNL     1     106.192 113.948  86.490  1.00  0.00     0.123 A 
ATOM      9  C   UNL     1     105.155 114.652  87.105  1.00  0.00     0.094 A 
ATOM     10  C   UNL     1     104.601 114.191  88.302  1.00  0.00     0.146 A 
ATOM     11  O   UNL     1     103.609 114.883  88.850  1.00  0.00    -0.452 OA
ENDROOT
BRANCH   1  12
ATOM     12  C   UNL     1     101.922 115.396  90.493  1.00  0.00     0.025 A 
ATOM     13  C   UNL     1     100.619 115.347  89.968  1.00  0.00     0.016 A 
ATOM     14  C   UNL     1      99.614 116.165  90.491  1.00  0.00     0.051 A 
ATOM     15  C   UNL     1      99.893 117.032  91.556  1.00  0.00     0.157 A 
ATOM     16  C   UNL     1     102.191 116.253  91.574  1.00  0.00     0.062 A 
ATOM     17  C   UNL     1     101.182 117.074  92.099  1.00  0.00     0.158 A 
BRANCH  15  18
ATOM     18  O   UNL     1      98.894 117.851  92.079  1.00  0.00    -0.504 OA
ATOM     19  H   UNL     1      99.117 118.683  92.612  1.00  0.00     0.293 HD
ENDBRANCH  15  18
BRANCH  17  20
ATOM     20  O   UNL     1     101.456 117.934  93.162  1.00  0.00    -0.504 OA
ATOM     21  H   UNL     1     102.177 117.724  93.842  1.00  0.00     0.293 HD
ENDBRANCH  17  20
ENDBRANCH   1  12
BRANCH   2  22
ATOM     22  O   UNL     1     102.665 112.888  91.740  1.00  0.00    -0.502 OA
ATOM     23  H   UNL     1     102.895 113.200  92.675  1.00  0.00     0.293 HD
ENDBRANCH   2  22
BRANCH   6  24
ATOM     24  O   UNL     1     106.830 111.222  88.867  1.00  0.00    -0.507 OA
ATOM     25  H   UNL     1     107.794 110.974  88.706  1.00  0.00     0.293 HD
ENDBRANCH   6  24
BRANCH   8  26
ATOM     26  O   UNL     1     106.734 114.393  85.286  1.00  0.00    -0.508 OA
ATOM     27  H   UNL     1     107.300 115.232  85.237  1.00  0.00     0.293 HD
ENDBRANCH   8  26
TORSDOF 6
ENDMDL
MODEL 4
REMARK VINA RESULT:    -5.359     16.200     17.271
REMARK INTER + INTRA:          -6.789
REMARK INTER:                  -6.477
REMARK INTRA:                  -0.312
REMARK UNBOUND:                -0.333
REMARK SMILES O=c1c(O)c(-c2ccc(O)c(O)c2)oc2cc(O)cc(O)c12
REMARK SMILES IDX 5 1 3 2 2 3 1 4 22 5 20 6 19 7 17 8 16 9 15 10 14 11 6 12
REMARK SMILES IDX 7 13 8 14 9 15 13 16 11 17 10 18 12 20 4 22 21 24 18 26
REMARK H PARENT 10 19 12 21 4 23 21 25 18 27
REMARK Flexibility Score: inf
ROOT
ATOM      1  C   UNL     1     110.925 100.408  89.959  1.00  0.00     0.180 A 
ATOM      2  C   UNL     1     112.184 101.008  89.790  1.00  0.00     0.208 A 
ATOM      3  C   UNL     1     112.494 101.607  88.559  1.00  0.00     0.238 A 
ATOM      4  O   UNL     1     113.644 102.094  88.396  1.00  0.00    -0.285 OA
ATOM      5  C   UNL     1     111.535 101.616  87.519  1.00  0.00     0.111 A 
ATOM      6  C   UNL     1     111.727 102.231  86.245  1.00  0.00     0.134 A 
ATOM      7  C   UNL     1     110.760 102.064  85.245  1.00  0.00     0.093 A 
ATOM      8  C   UNL     1     109.582 101.363  85.493  1.00  0.00     0.123 A 
ATOM      9  C   UNL     1     109.356 100.808  86.754  1.00  0.00     0.094 A 
ATOM     10  C   UNL     1     110.318 100.926  87.760  1.00  0.00     0.146 A 
ATOM     11  O   UNL     1     110.070 100.375  88.942  1.00  0.00    -0.452 OA
ENDROOT
BRANCH   1  12
ATOM     12  C   UNL     1     110.516  99.778  91.235  1.00  0.00     0.025 A 
ATOM     13  C   UNL     1     110.870  98.454  91.544  1.00  0.00     0.016 A 
ATOM     14  C   UNL     1     110.493  97.887  92.765  1.00  0.00     0.051 A 
ATOM     15  C   UNL     1     109.770  98.640  93.700  1.00  0.00     0.157 A 
ATOM     16  C   UNL     1     109.809 100.536  92.184  1.00  0.00     0.062 A 
ATOM     17  C   UNL     1     109.430  99.967  93.410  1.00  0.00     0.158 A 
BRANCH  15  18
ATOM     18  O   UNL     1     109.391  98.079  94.917  1.00  0.00    -0.504 OA
ATOM     19  H   UNL     1     109.418  98.613  95.778  1.00  0.00     0.293 HD
ENDBRANCH  15  18
BRANCH  17  20
ATOM     20  O   UNL     1     108.717 100.716  94.344  1.00  0.00    -0.504 OA
ATOM     21  H   UNL     1     109.000 100.760  95.316  1.00  0.00     0.293 HD
ENDBRANCH  17  20
ENDBRANCH   1  12
BRANCH   2  22
ATOM     22  O   UNL     1     113.125 100.969  90.823  1.00  0.00    -0.502 OA
ATOM     23  H   UNL     1     112.895 101.214  91.778  1.00  0.00     0.293 HD
ENDBRANCH   2  22
BRANCH   6  24
ATOM     24  O   UNL     1     112.826 103.031  85.921  1.00  0.00    -0.507 OA
ATOM     25  H   UNL     1     113.338 102.980  85.054  1.00  0.00     0.293 HD
ENDBRANCH   6  24
BRANCH   8  26
ATOM     26  O   UNL     1     108.634 101.230  84.480  1.00  0.00    -0.508 OA
ATOM     27  H   UNL     1     107.985 101.976  84.261  1.00  0.00     0.293 HD
ENDBRANCH   8  26
TORSDOF 6
ENDMDL
MODEL 5
REMARK VINA RESULT:    -5.234      2.639      4.299
REMARK INTER + INTRA:          -6.637
REMARK INTER:                  -6.311
REMARK INTRA:                  -0.327
REMARK UNBOUND:                -0.333
REMARK SMILES O=c1c(O)c(-c2ccc(O)c(O)c2)oc2cc(O)cc(O)c12
REMARK SMILES IDX 5 1 3 2 2 3 1 4 22 5 20 6 19 7 17 8 16 9 15 10 14 11 6 12
REMARK SMILES IDX 7 13 8 14 9 15 13 16 11 17 10 18 12 20 4 22 21 24 18 26
REMARK H PARENT 10 19 12 21 4 23 21 25 18 27
REMARK Flexibility Score: inf
ROOT
ATOM      1  C   UNL     1     103.184 114.918  89.642  1.00  0.00     0.180 A 
ATOM      2  C   UNL     1     103.849 115.407  88.504  1.00  0.00     0.208 A 
ATOM      3  C   UNL     1     104.898 114.655  87.952  1.00  0.00     0.238 A 
ATOM      4  O   UNL     1     105.525 115.125  86.967  1.00  0.00    -0.285 OA
ATOM      5  C   UNL     1     105.257 113.415  88.532  1.00  0.00     0.111 A 
ATOM      6  C   UNL     1     106.277 112.551  88.031  1.00  0.00     0.134 A 
ATOM      7  C   UNL     1     106.637 111.411  88.762  1.00  0.00     0.093 A 
ATOM      8  C   UNL     1     105.971 111.070  89.938  1.00  0.00     0.123 A 
ATOM      9  C   UNL     1     104.932 111.876  90.406  1.00  0.00     0.094 A 
ATOM     10  C   UNL     1     104.574 113.039  89.719  1.00  0.00     0.146 A 
ATOM     11  O   UNL     1     103.588 113.783  90.203  1.00  0.00    -0.452 OA
ENDROOT
BRANCH   1  12
ATOM     12  C   UNL     1     102.054 115.642  90.266  1.00  0.00     0.025 A 
ATOM     13  C   UNL     1     100.739 115.498  89.789  1.00  0.00     0.016 A 
ATOM     14  C   UNL     1      99.684 116.172  90.409  1.00  0.00     0.051 A 
ATOM     15  C   UNL     1      99.924 116.988  91.523  1.00  0.00     0.157 A 
ATOM     16  C   UNL     1     102.286 116.445  91.396  1.00  0.00     0.062 A 
ATOM     17  C   UNL     1     101.227 117.122  92.018  1.00  0.00     0.158 A 
BRANCH  15  18
ATOM     18  O   UNL     1      98.875 117.664  92.143  1.00  0.00    -0.504 OA
ATOM     19  H   UNL     1      98.830 118.676  92.153  1.00  0.00     0.293 HD
ENDBRANCH  15  18
BRANCH  17  20
ATOM     20  O   UNL     1     101.463 117.930  93.130  1.00  0.00    -0.504 OA
ATOM     21  H   UNL     1     100.984 117.773  94.010  1.00  0.00     0.293 HD
ENDBRANCH  17  20
ENDBRANCH   1  12
BRANCH   2  22
ATOM     22  O   UNL     1     103.493 116.644  87.960  1.00  0.00    -0.502 OA
ATOM     23  H   UNL     1     103.077 117.383  88.514  1.00  0.00     0.293 HD
ENDBRANCH   2  22
BRANCH   6  24
ATOM     24  O   UNL     1     106.942 112.749  86.818  1.00  0.00    -0.507 OA
ATOM     25  H   UNL     1     107.935 112.635  86.682  1.00  0.00     0.293 HD
ENDBRANCH   6  24
BRANCH   8  26
ATOM     26  O   UNL     1     106.344 109.920  90.630  1.00  0.00    -0.508 OA
ATOM     27  H   UNL     1     105.709 109.456  91.269  1.00  0.00     0.293 HD
ENDBRANCH   8  26
TORSDOF 6
ENDMDL
MODEL 6
REMARK VINA RESULT:    -5.209      1.724      6.892
REMARK INTER + INTRA:          -6.608
REMARK INTER:                  -6.275
REMARK INTRA:                  -0.333
REMARK UNBOUND:                -0.333
REMARK SMILES O=c1c(O)c(-c2ccc(O)c(O)c2)oc2cc(O)cc(O)c12
REMARK SMILES IDX 5 1 3 2 2 3 1 4 22 5 20 6 19 7 17 8 16 9 15 10 14 11 6 12
REMARK SMILES IDX 7 13 8 14 9 15 13 16 11 17 10 18 12 20 4 22 21 24 18 26
REMARK H PARENT 10 19 12 21 4 23 21 25 18 27
REMARK Flexibility Score: inf
ROOT
ATOM      1  C   UNL     1     103.038 115.182  88.416  1.00  0.00     0.180 A 
ATOM      2  C   UNL     1     102.978 116.440  89.040  1.00  0.00     0.208 A 
ATOM      3  C   UNL     1     102.111 116.619  90.129  1.00  0.00     0.238 A 
ATOM      4  O   UNL     1     102.021 117.763  90.649  1.00  0.00    -0.285 OA
ATOM      5  C   UNL     1     101.329 115.535  90.593  1.00  0.00     0.111 A 
ATOM      6  C   UNL     1     100.447 115.592  91.714  1.00  0.00     0.134 A 
ATOM      7  C   UNL     1      99.624 114.496  92.003  1.00  0.00     0.093 A 
ATOM      8  C   UNL     1      99.697 113.324  91.253  1.00  0.00     0.123 A 
ATOM      9  C   UNL     1     100.598 113.235  90.191  1.00  0.00     0.094 A 
ATOM     10  C   UNL     1     101.407 114.324  89.856  1.00  0.00     0.146 A 
ATOM     11  O   UNL     1     102.243 114.202  88.833  1.00  0.00    -0.452 OA
ENDROOT
BRANCH   1  12
ATOM     12  C   UNL     1     103.945 114.909  87.278  1.00  0.00     0.025 A 
ATOM     13  C   UNL     1     105.264 114.467  87.483  1.00  0.00     0.016 A 
ATOM     14  C   UNL     1     106.095 114.193  86.393  1.00  0.00     0.051 A 
ATOM     15  C   UNL     1     105.616 114.342  85.085  1.00  0.00     0.157 A 
ATOM     16  C   UNL     1     103.463 115.037  85.964  1.00  0.00     0.062 A 
ATOM     17  C   UNL     1     104.297 114.762  84.870  1.00  0.00     0.158 A 
BRANCH  15  18
ATOM     18  O   UNL     1     106.442 114.071  83.996  1.00  0.00    -0.504 OA
ATOM     19  H   UNL     1     107.319 113.578  84.107  1.00  0.00     0.293 HD
ENDBRANCH  15  18
BRANCH  17  20
ATOM     20  O   UNL     1     103.821 114.903  83.568  1.00  0.00    -0.504 OA
ATOM     21  H   UNL     1     103.196 114.221  83.155  1.00  0.00     0.293 HD
ENDBRANCH  17  20
ENDBRANCH   1  12
BRANCH   2  22
ATOM     22  O   UNL     1     103.742 117.503  88.552  1.00  0.00    -0.502 OA
ATOM     23  H   UNL     1     104.738 117.578  88.718  1.00  0.00     0.293 HD
ENDBRANCH   2  22
BRANCH   6  24
ATOM     24  O   UNL     1     100.362 116.682  92.586  1.00  0.00    -0.507 OA
ATOM     25  H   UNL     1     100.515 116.634  93.582  1.00  0.00     0.293 HD
ENDBRANCH   6  24
BRANCH   8  26
ATOM     26  O   UNL     1      98.875 112.247  91.578  1.00  0.00    -0.508 OA
ATOM     27  H   UNL     1      98.045 112.367  92.147  1.00  0.00     0.293 HD
ENDBRANCH   8  26
TORSDOF 6
ENDMDL
MODEL 7
REMARK VINA RESULT:    -5.201      3.818      6.097
REMARK INTER + INTRA:          -6.598
REMARK INTER:                  -6.357
REMARK INTRA:                  -0.242
REMARK UNBOUND:                -0.333
REMARK SMILES O=c1c(O)c(-c2ccc(O)c(O)c2)oc2cc(O)cc(O)c12
REMARK SMILES IDX 5 1 3 2 2 3 1 4 22 5 20 6 19 7 17 8 16 9 15 10 14 11 6 12
REMARK SMILES IDX 7 13 8 14 9 15 13 16 11 17 10 18 12 20 4 22 21 24 18 26
REMARK H PARENT 10 19 12 21 4 23 21 25 18 27
REMARK Flexibility Score: inf
ROOT
ATOM      1  C   UNL     1     103.191 113.815  91.169  1.00  0.00     0.180 A 
ATOM      2  C   UNL     1     102.709 114.897  91.926  1.00  0.00     0.208 A 
ATOM      3  C   UNL     1     101.548 115.561  91.503  1.00  0.00     0.238 A 
ATOM      4  O   UNL     1     101.153 116.563  92.155  1.00  0.00    -0.285 OA
ATOM      5  C   UNL     1     100.872 115.124  90.339  1.00  0.00     0.111 A 
ATOM      6  C   UNL     1      99.663 115.698  89.841  1.00  0.00     0.134 A 
ATOM      7  C   UNL     1      99.153 115.272  88.608  1.00  0.00     0.093 A 
ATOM      8  C   UNL     1      99.770 114.250  87.888  1.00  0.00     0.123 A 
ATOM      9  C   UNL     1     100.919 113.641  88.394  1.00  0.00     0.094 A 
ATOM     10  C   UNL     1     101.472 114.069  89.604  1.00  0.00     0.146 A 
ATOM     11  O   UNL     1     102.572 113.471  90.046  1.00  0.00    -0.452 OA
ENDROOT
BRANCH   1  12
ATOM     12  C   UNL     1     104.396 113.050  91.565  1.00  0.00     0.025 A 
ATOM     13  C   UNL     1     105.618 113.206  90.888  1.00  0.00     0.016 A 
ATOM     14  C   UNL     1     106.748 112.491  91.293  1.00  0.00     0.051 A 
ATOM     15  C   UNL     1     106.677 111.621  92.390  1.00  0.00     0.157 A 
ATOM     16  C   UNL     1     104.335 112.192  92.676  1.00  0.00     0.062 A 
ATOM     17  C   UNL     1     105.469 111.474  93.084  1.00  0.00     0.158 A 
BRANCH  15  18
ATOM     18  O   UNL     1     107.800 110.905  92.797  1.00  0.00    -0.504 OA
ATOM     19  H   UNL     1     108.238 111.072  93.695  1.00  0.00     0.293 HD
ENDBRANCH  15  18
BRANCH  17  20
ATOM     20  O   UNL     1     105.403 110.613  94.178  1.00  0.00    -0.504 OA
ATOM     21  H   UNL     1     105.767 109.668  94.132  1.00  0.00     0.293 HD
ENDBRANCH  17  20
ENDBRANCH   1  12
BRANCH   2  22
ATOM     22  O   UNL     1     103.405 115.325  93.061  1.00  0.00    -0.502 OA
ATOM     23  H   UNL     1     103.525 114.740  93.878  1.00  0.00     0.293 HD
ENDBRANCH   2  22
BRANCH   6  24
ATOM     24  O   UNL     1      98.915 116.661  90.525  1.00  0.00    -0.507 OA
ATOM     25  H   UNL     1      98.874 116.749  91.529  1.00  0.00     0.293 HD
ENDBRANCH   6  24
BRANCH   8  26
ATOM     26  O   UNL     1      99.226 113.839  86.673  1.00  0.00    -0.508 OA
ATOM     27  H   UNL     1      99.151 112.859  86.430  1.00  0.00     0.293 HD
ENDBRANCH   8  26
TORSDOF 6
ENDMDL
MODEL 8
REMARK VINA RESULT:    -5.171      1.397      2.913
REMARK INTER + INTRA:          -6.561
REMARK INTER:                  -6.439
REMARK INTRA:                  -0.122
REMARK UNBOUND:                -0.333
REMARK SMILES O=c1c(O)c(-c2ccc(O)c(O)c2)oc2cc(O)cc(O)c12
REMARK SMILES IDX 5 1 3 2 2 3 1 4 22 5 20 6 19 7 17 8 16 9 15 10 14 11 6 12
REMARK SMILES IDX 7 13 8 14 9 15 13 16 11 17 10 18 12 20 4 22 21 24 18 26
REMARK H PARENT 10 19 12 21 4 23 21 25 18 27
REMARK Flexibility Score: inf
ROOT
ATOM      1  C   UNL     1     102.317 115.532  88.365  1.00  0.00     0.180 A 
ATOM      2  C   UNL     1     101.427 115.214  87.325  1.00  0.00     0.208 A 
ATOM      3  C   UNL     1     101.932 114.646  86.146  1.00  0.00     0.238 A 
ATOM      4  O   UNL     1     101.137 114.414  85.198  1.00  0.00    -0.285 OA
ATOM      5  C   UNL     1     103.318 114.385  86.027  1.00  0.00     0.111 A 
ATOM      6  C   UNL     1     103.934 113.774  84.893  1.00  0.00     0.134 A 
ATOM      7  C   UNL     1     105.330 113.685  84.829  1.00  0.00     0.093 A 
ATOM      8  C   UNL     1     106.128 114.123  85.884  1.00  0.00     0.123 A 
ATOM      9  C   UNL     1     105.534 114.668  87.024  1.00  0.00     0.094 A 
ATOM     10  C   UNL     1     104.146 114.804  87.101  1.00  0.00     0.146 A 
ATOM     11  O   UNL     1     103.620 115.336  88.198  1.00  0.00    -0.452 OA
ENDROOT
BRANCH   1  12
ATOM     12  C   UNL     1     101.857 116.111  89.648  1.00  0.00     0.025 A 
ATOM     13  C   UNL     1     102.259 117.394  90.059  1.00  0.00     0.016 A 
ATOM     14  C   UNL     1     101.794 117.929  91.263  1.00  0.00     0.051 A 
ATOM     15  C   UNL     1     100.909 117.197  92.066  1.00  0.00     0.157 A 
ATOM     16  C   UNL     1     100.954 115.390  90.447  1.00  0.00     0.062 A 
ATOM     17  C   UNL     1     100.487 115.927  91.656  1.00  0.00     0.158 A 
BRANCH  15  18
ATOM     18  O   UNL     1     100.444 117.727  93.267  1.00  0.00    -0.504 OA
ATOM     19  H   UNL     1     100.995 118.386  93.804  1.00  0.00     0.293 HD
ENDBRANCH  15  18
BRANCH  17  20
ATOM     20  O   UNL     1      99.602 115.203  92.454  1.00  0.00    -0.504 OA
ATOM     21  H   UNL     1      99.248 115.577  93.327  1.00  0.00     0.293 HD
ENDBRANCH  17  20
ENDBRANCH   1  12
BRANCH   2  22
ATOM     22  O   UNL     1     100.065 115.500  87.455  1.00  0.00    -0.502 OA
ATOM     23  H   UNL     1      99.669 115.887  88.303  1.00  0.00     0.293 HD
ENDBRANCH   2  22
BRANCH   6  24
ATOM     24  O   UNL     1     103.224 113.219  83.824  1.00  0.00    -0.507 OA
ATOM     25  H   UNL     1     103.564 113.166  82.875  1.00  0.00     0.293 HD
ENDBRANCH   6  24
BRANCH   8  26
ATOM     26  O   UNL     1     107.513 114.005  85.794  1.00  0.00    -0.508 OA
ATOM     27  H   UNL     1     107.949 113.340  85.166  1.00  0.00     0.293 HD
ENDBRANCH   8  26
TORSDOF 6
ENDMDL
MODEL 9
REMARK VINA RESULT:    -5.075      3.399      6.339
REMARK INTER + INTRA:          -6.447
REMARK INTER:                  -6.124
REMARK INTRA:                  -0.323
REMARK UNBOUND:                -0.333
REMARK SMILES O=c1c(O)c(-c2ccc(O)c(O)c2)oc2cc(O)cc(O)c12
REMARK SMILES IDX 5 1 3 2 2 3 1 4 22 5 20 6 19 7 17 8 16 9 15 10 14 11 6 12
REMARK SMILES IDX 7 13 8 14 9 15 13 16 11 17 10 18 12 20 4 22 21 24 18 26
REMARK H PARENT 10 19 12 21 4 23 21 25 18 27
REMARK Flexibility Score: inf
ROOT
ATOM      1  C   UNL     1     103.953 115.439  82.877  1.00  0.00     0.180 A 
ATOM      2  C   UNL     1     103.151 115.330  81.728  1.00  0.00     0.208 A 
ATOM      3  C   UNL     1     103.766 115.313  80.467  1.00  0.00     0.238 A 
ATOM      4  O   UNL     1     103.039 115.271  79.440  1.00  0.00    -0.285 OA
ATOM      5  C   UNL     1     105.176 115.386  80.370  1.00  0.00     0.111 A 
ATOM      6  C   UNL     1     105.908 115.337  79.145  1.00  0.00     0.134 A 
ATOM      7  C   UNL     1     107.292 115.550  79.158  1.00  0.00     0.093 A 
ATOM      8  C   UNL     1     107.979 115.747  80.355  1.00  0.00     0.123 A 
ATOM      9  C   UNL     1     107.282 115.738  81.564  1.00  0.00     0.094 A 
ATOM     10  C   UNL     1     105.896 115.564  81.580  1.00  0.00     0.146 A 
ATOM     11  O   UNL     1     105.269 115.572  82.750  1.00  0.00    -0.452 OA
ENDROOT
BRANCH   1  12
ATOM     12  C   UNL     1     103.380 115.439  84.242  1.00  0.00     0.025 A 
ATOM     13  C   UNL     1     102.963 116.630  84.861  1.00  0.00     0.016 A 
ATOM     14  C   UNL     1     102.403 116.603  86.142  1.00  0.00     0.051 A 
ATOM     15  C   UNL     1     102.238 115.385  86.815  1.00  0.00     0.157 A 
ATOM     16  C   UNL     1     103.194 114.218  84.914  1.00  0.00     0.062 A 
ATOM     17  C   UNL     1     102.632 114.191  86.198  1.00  0.00     0.158 A 
BRANCH  15  18
ATOM     18  O   UNL     1     101.682 115.354  88.092  1.00  0.00    -0.504 OA
ATOM     19  H   UNL     1     100.787 115.787  88.290  1.00  0.00     0.293 HD
ENDBRANCH  15  18
BRANCH  17  20
ATOM     20  O   UNL     1     102.461 112.980  86.868  1.00  0.00    -0.504 OA
ATOM     21  H   UNL     1     101.776 112.298  86.563  1.00  0.00     0.293 HD
ENDBRANCH  17  20
ENDBRANCH   1  12
BRANCH   2  22
ATOM     22  O   UNL     1     101.759 115.280  81.846  1.00  0.00    -0.502 OA
ATOM     23  H   UNL     1     101.194 116.111  81.971  1.00  0.00     0.293 HD
ENDBRANCH   2  22
BRANCH   6  24
ATOM     24  O   UNL     1     105.333 115.055  77.902  1.00  0.00    -0.507 OA
ATOM     25  H   UNL     1     105.279 115.706  77.133  1.00  0.00     0.293 HD
ENDBRANCH   6  24
BRANCH   8  26
ATOM     26  O   UNL     1     109.358 115.940  80.332  1.00  0.00    -0.508 OA
ATOM     27  H   UNL     1     109.763 116.849  80.143  1.00  0.00     0.293 HD
ENDBRANCH   8  26
TORSDOF 6
ENDMDL
