MODEL 1
REMARK VINA RESULT:    -4.197      0.000      0.000
REMARK INTER + INTRA:          -5.290
REMARK INTER:                  -4.933
REMARK INTRA:                  -0.357
REMARK UNBOUND:                -0.357
REMARK SMILES C=CC(C)=CCC=C(C)C
REMARK SMILES IDX 5 1 3 2 4 3 6 4 7 5 9 6 8 7 10 8 2 9 1 10
REMARK H PARENT
REMARK Flexibility Score: inf
ROOT
ATOM      1  C   UNL     1      13.045  15.635  37.610  1.00  0.00    -0.020 C 
ATOM      2  C   UNL     1      12.272  14.591  37.973  1.00  0.00    -0.055 C 
ATOM      3  C   UNL     1      11.505  14.676  39.270  1.00  0.00     0.044 C 
ENDROOT
BRANCH   1   4
ATOM      4  C   UNL     1      13.831  15.723  36.328  1.00  0.00     0.055 C 
BRANCH   4   5
ATOM      5  C   UNL     1      15.314  15.572  36.570  1.00  0.00    -0.024 C 
ATOM      6  C   UNL     1      17.467  14.405  36.775  1.00  0.00     0.039 C 
ATOM      7  C   UNL     1      15.983  14.400  36.514  1.00  0.00    -0.080 C 
ATOM      8  C   UNL     1      15.288  13.098  36.192  1.00  0.00     0.039 C 
ENDBRANCH   4   5
ENDBRANCH   1   4
BRANCH   2   9
ATOM      9  C   UNL     1      12.135  13.383  37.110  1.00  0.00    -0.005 C 
ATOM     10  C   UNL     1      10.957  12.875  36.744  1.00  0.00     0.009 C 
ENDBRANCH   2   9
TORSDOF 3
ENDMDL
MODEL 2
REMARK VINA RESULT:    -4.121      1.928      3.958
REMARK INTER + INTRA:          -5.201
REMARK INTER:                  -4.570
REMARK INTRA:                  -0.631
REMARK UNBOUND:                -0.357
REMARK SMILES C=CC(C)=CCC=C(C)C
REMARK SMILES IDX 5 1 3 2 4 3 6 4 7 5 9 6 8 7 10 8 2 9 1 10
REMARK H PARENT
REMARK Flexibility Score: inf
ROOT
ATOM      1  C   UNL     1      15.152  15.318  36.284  1.00  0.00    -0.020 C 
ATOM      2  C   UNL     1      14.474  14.248  36.747  1.00  0.00    -0.055 C 
ATOM      3  C   UNL     1      15.069  12.875  36.546  1.00  0.00     0.044 C 
ENDROOT
BRANCH   1   4
ATOM      4  C   UNL     1      14.717  16.751  36.447  1.00  0.00     0.055 C 
BRANCH   4   5
ATOM      5  C   UNL     1      13.962  17.249  35.238  1.00  0.00    -0.024 C 
ATOM      6  C   UNL     1      12.064  18.168  33.975  1.00  0.00     0.039 C 
ATOM      7  C   UNL     1      12.688  17.699  35.264  1.00  0.00    -0.080 C 
ATOM      8  C   UNL     1      11.885  17.751  36.543  1.00  0.00     0.039 C 
ENDBRANCH   4   5
ENDBRANCH   1   4
BRANCH   2   9
ATOM      9  C   UNL     1      13.182  14.396  37.475  1.00  0.00    -0.005 C 
ATOM     10  C   UNL     1      12.070  13.745  37.131  1.00  0.00     0.009 C 
ENDBRANCH   2   9
TORSDOF 3
ENDMDL
MODEL 3
REMARK VINA RESULT:    -4.031      1.136      4.338
REMARK INTER + INTRA:          -5.095
REMARK INTER:                  -4.506
REMARK INTRA:                  -0.589
REMARK UNBOUND:                -0.357
REMARK SMILES C=CC(C)=CCC=C(C)C
REMARK SMILES IDX 5 1 3 2 4 3 6 4 7 5 9 6 8 7 10 8 2 9 1 10
REMARK H PARENT
REMARK Flexibility Score: inf
ROOT
ATOM      1  C   UNL     1      14.326  16.751  37.441  1.00  0.00    -0.020 C 
ATOM      2  C   UNL     1      15.512  16.195  37.121  1.00  0.00    -0.055 C 
ATOM      3  C   UNL     1      16.744  16.642  37.870  1.00  0.00     0.044 C 
ENDROOT
BRANCH   1   4
ATOM      4  C   UNL     1      13.003  16.381  36.822  1.00  0.00     0.055 C 
BRANCH   4   5
ATOM      5  C   UNL     1      12.018  15.890  37.856  1.00  0.00    -0.024 C 
ATOM      6  C   UNL     1      10.620  14.265  39.058  1.00  0.00     0.039 C 
ATOM      7  C   UNL     1      11.608  14.608  37.972  1.00  0.00    -0.080 C 
ATOM      8  C   UNL     1      12.117  13.519  37.057  1.00  0.00     0.039 C 
ENDBRANCH   4   5
ENDBRANCH   1   4
BRANCH   2   9
ATOM      9  C   UNL     1      15.622  15.135  36.079  1.00  0.00    -0.005 C 
ATOM     10  C   UNL     1      15.697  13.834  36.365  1.00  0.00     0.009 C 
ENDBRANCH   2   9
TORSDOF 3
ENDMDL
MODEL 4
REMARK VINA RESULT:    -4.000     13.614     15.018
REMARK INTER + INTRA:          -5.059
REMARK INTER:                  -4.471
REMARK INTRA:                  -0.589
REMARK UNBOUND:                -0.357
REMARK SMILES C=CC(C)=CCC=C(C)C
REMARK SMILES IDX 5 1 3 2 4 3 6 4 7 5 9 6 8 7 10 8 2 9 1 10
REMARK H PARENT
REMARK Flexibility Score: inf
ROOT
ATOM      1  C   UNL     1       8.836  19.615  25.796  1.00  0.00    -0.020 C 
ATOM      2  C   UNL     1      10.159  19.357  25.841  1.00  0.00    -0.055 C 
ATOM      3  C   UNL     1      10.706  18.596  27.025  1.00  0.00     0.044 C 
ENDROOT
BRANCH   1   4
ATOM      4  C   UNL     1       8.132  20.318  24.666  1.00  0.00     0.055 C 
BRANCH   4   5
ATOM      5  C   UNL     1       6.989  19.496  24.119  1.00  0.00    -0.024 C 
ATOM      6  C   UNL     1       5.818  18.013  22.548  1.00  0.00     0.039 C 
ATOM      7  C   UNL     1       7.039  18.791  22.967  1.00  0.00    -0.080 C 
ATOM      8  C   UNL     1       8.277  18.757  22.103  1.00  0.00     0.039 C 
ENDBRANCH   4   5
ENDBRANCH   1   4
BRANCH   2   9
ATOM      9  C   UNL     1      11.074  19.773  24.741  1.00  0.00    -0.005 C 
ATOM     10  C   UNL     1      11.534  18.932  23.815  1.00  0.00     0.009 C 
ENDBRANCH   2   9
TORSDOF 3
ENDMDL
MODEL 5
REMARK VINA RESULT:    -3.942     13.132     14.451
REMARK INTER + INTRA:          -4.991
REMARK INTER:                  -4.322
REMARK INTRA:                  -0.668
REMARK UNBOUND:                -0.357
REMARK SMILES C=CC(C)=CCC=C(C)C
REMARK SMILES IDX 5 1 3 2 4 3 6 4 7 5 9 6 8 7 10 8 2 9 1 10
REMARK H PARENT
REMARK Flexibility Score: inf
ROOT
ATOM      1  C   UNL     1      10.545  19.489  25.102  1.00  0.00    -0.020 C 
ATOM      2  C   UNL     1      10.150  19.277  26.374  1.00  0.00    -0.055 C 
ATOM      3  C   UNL     1      11.142  18.693  27.350  1.00  0.00     0.044 C 
ENDROOT
BRANCH   1   4
ATOM      4  C   UNL     1       9.693  20.105  24.024  1.00  0.00     0.055 C 
BRANCH   4   5
ATOM      5  C   UNL     1       8.813  19.080  23.349  1.00  0.00    -0.024 C 
ATOM      6  C   UNL     1       6.720  18.060  22.562  1.00  0.00     0.039 C 
ATOM      7  C   UNL     1       7.467  19.161  23.272  1.00  0.00    -0.080 C 
ATOM      8  C   UNL     1       6.700  20.319  23.864  1.00  0.00     0.039 C 
ENDBRANCH   4   5
ENDBRANCH   1   4
BRANCH   2   9
ATOM      9  C   UNL     1       8.779  19.636  26.836  1.00  0.00    -0.005 C 
ATOM     10  C   UNL     1       7.808  18.739  27.012  1.00  0.00     0.009 C 
ENDBRANCH   2   9
TORSDOF 3
ENDMDL
MODEL 6
REMARK VINA RESULT:    -3.866     13.597     14.621
REMARK INTER + INTRA:          -4.901
REMARK INTER:                  -4.578
REMARK INTRA:                  -0.323
REMARK UNBOUND:                -0.357
REMARK SMILES C=CC(C)=CCC=C(C)C
REMARK SMILES IDX 5 1 3 2 4 3 6 4 7 5 9 6 8 7 10 8 2 9 1 10
REMARK H PARENT
REMARK Flexibility Score: inf
ROOT
ATOM      1  C   UNL     1       7.049  19.999  24.788  1.00  0.00    -0.020 C 
ATOM      2  C   UNL     1       6.647  19.519  23.593  1.00  0.00    -0.055 C 
ATOM      3  C   UNL     1       5.642  20.315  22.797  1.00  0.00     0.044 C 
ENDROOT
BRANCH   1   4
ATOM      4  C   UNL     1       8.076  19.351  25.678  1.00  0.00     0.055 C 
BRANCH   4   5
ATOM      5  C   UNL     1       9.481  19.751  25.297  1.00  0.00    -0.024 C 
ATOM      6  C   UNL     1      11.925  19.911  25.506  1.00  0.00     0.039 C 
ATOM      7  C   UNL     1      10.584  19.446  26.015  1.00  0.00    -0.080 C 
ATOM      8  C   UNL     1      10.509  18.650  27.297  1.00  0.00     0.039 C 
ENDBRANCH   4   5
ENDBRANCH   1   4
BRANCH   2   9
ATOM      9  C   UNL     1       7.197  18.251  23.036  1.00  0.00    -0.005 C 
ATOM     10  C   UNL     1       8.218  18.211  22.179  1.00  0.00     0.009 C 
ENDBRANCH   2   9
TORSDOF 3
ENDMDL
MODEL 7
REMARK VINA RESULT:    -3.825      1.569      2.582
REMARK INTER + INTRA:          -4.853
REMARK INTER:                  -4.626
REMARK INTRA:                  -0.227
REMARK UNBOUND:                -0.357
REMARK SMILES C=CC(C)=CCC=C(C)C
REMARK SMILES IDX 5 1 3 2 4 3 6 4 7 5 9 6 8 7 10 8 2 9 1 10
REMARK H PARENT
REMARK Flexibility Score: inf
ROOT
ATOM      1  C   UNL     1      11.767  14.339  38.260  1.00  0.00    -0.020 C 
ATOM      2  C   UNL     1      10.687  14.813  38.915  1.00  0.00    -0.055 C 
ATOM      3  C   UNL     1      10.100  13.985  40.033  1.00  0.00     0.044 C 
ENDROOT
BRANCH   1   4
ATOM      4  C   UNL     1      12.494  15.063  37.157  1.00  0.00     0.055 C 
BRANCH   4   5
ATOM      5  C   UNL     1      13.921  14.587  37.020  1.00  0.00    -0.024 C 
ATOM      6  C   UNL     1      16.258  14.632  36.264  1.00  0.00     0.039 C 
ATOM      7  C   UNL     1      14.874  15.225  36.306  1.00  0.00    -0.080 C 
ATOM      8  C   UNL     1      14.590  16.510  35.564  1.00  0.00     0.039 C 
ENDBRANCH   4   5
ENDBRANCH   1   4
BRANCH   2   9
ATOM      9  C   UNL     1      10.090  16.137  38.582  1.00  0.00    -0.005 C 
ATOM     10  C   UNL     1       8.776  16.362  38.561  1.00  0.00     0.009 C 
ENDBRANCH   2   9
TORSDOF 3
ENDMDL
MODEL 8
REMARK VINA RESULT:    -3.818     12.940     14.121
REMARK INTER + INTRA:          -4.845
REMARK INTER:                  -4.180
REMARK INTRA:                  -0.665
REMARK UNBOUND:                -0.357
REMARK SMILES C=CC(C)=CCC=C(C)C
REMARK SMILES IDX 5 1 3 2 4 3 6 4 7 5 9 6 8 7 10 8 2 9 1 10
REMARK H PARENT
REMARK Flexibility Score: inf
ROOT
ATOM      1  C   UNL     1       9.732  19.111  23.183  1.00  0.00    -0.020 C 
ATOM      2  C   UNL     1       8.398  19.066  23.376  1.00  0.00    -0.055 C 
ATOM      3  C   UNL     1       7.573  18.149  22.506  1.00  0.00     0.044 C 
ENDROOT
BRANCH   1   4
ATOM      4  C   UNL     1      10.695  19.936  23.996  1.00  0.00     0.055 C 
BRANCH   4   5
ATOM      5  C   UNL     1      11.135  19.213  25.247  1.00  0.00    -0.024 C 
ATOM      6  C   UNL     1      11.536  18.888  27.650  1.00  0.00     0.039 C 
ATOM      7  C   UNL     1      11.062  19.730  26.493  1.00  0.00    -0.080 C 
ATOM      8  C   UNL     1      10.513  21.113  26.754  1.00  0.00     0.039 C 
ENDBRANCH   4   5
ENDBRANCH   1   4
BRANCH   2   9
ATOM      9  C   UNL     1       7.736  19.870  24.442  1.00  0.00    -0.005 C 
ATOM     10  C   UNL     1       7.429  19.379  25.644  1.00  0.00     0.009 C 
ENDBRANCH   2   9
TORSDOF 3
ENDMDL
MODEL 9
REMARK VINA RESULT:    -3.785     15.988     17.345
REMARK INTER + INTRA:          -4.806
REMARK INTER:                  -4.220
REMARK INTRA:                  -0.586
REMARK UNBOUND:                -0.357
REMARK SMILES C=CC(C)=CCC=C(C)C
REMARK SMILES IDX 5 1 3 2 4 3 6 4 7 5 9 6 8 7 10 8 2 9 1 10
REMARK H PARENT
REMARK Flexibility Score: inf
ROOT
ATOM      1  C   UNL     1       6.584  20.696  24.260  1.00  0.00    -0.020 C 
ATOM      2  C   UNL     1       7.267  19.539  24.376  1.00  0.00    -0.055 C 
ATOM      3  C   UNL     1       7.963  19.239  25.682  1.00  0.00     0.044 C 
ENDROOT
BRANCH   1   4
ATOM      4  C   UNL     1       5.800  21.118  23.045  1.00  0.00     0.055 C 
BRANCH   4   5
ATOM      5  C   UNL     1       4.340  20.755  23.165  1.00  0.00    -0.024 C 
ATOM      6  C   UNL     1       2.227  19.648  22.574  1.00  0.00     0.039 C 
ATOM      7  C   UNL     1       3.688  19.920  22.326  1.00  0.00    -0.080 C 
ATOM      8  C   UNL     1       4.384  19.252  21.164  1.00  0.00     0.039 C 
ENDBRANCH   4   5
ENDBRANCH   1   4
BRANCH   2   9
ATOM      9  C   UNL     1       7.319  18.548  23.264  1.00  0.00    -0.005 C 
ATOM     10  C   UNL     1       8.314  18.496  22.378  1.00  0.00     0.009 C 
ENDBRANCH   2   9
TORSDOF 3
ENDMDL
