MODEL 1
REMARK VINA RESULT:    -3.345      0.000      0.000
REMARK INTER + INTRA:          -5.285
REMARK INTER:                  -4.714
REMARK INTRA:                  -0.571
REMARK UNBOUND:                -0.571
REMARK SMILES C=CCCCCCCC(=O)[O-]
REMARK SMILES IDX 6 1 7 2 8 3 9 4 10 5 11 6 5 7 4 8 3 9 2 10 1 11
REMARK H PARENT
REMARK Flexibility Score: inf
ROOT
ATOM      1  C   UNL     1       4.013  25.546  73.296  1.00  0.00     0.000 C 
ENDROOT
BRANCH   1   2
ATOM      2  C   UNL     1       2.942  26.216  72.418  1.00  0.00     0.006 C 
BRANCH   2   3
ATOM      3  C   UNL     1       1.994  25.208  71.757  1.00  0.00     0.053 C 
BRANCH   3   4
ATOM      4  C   UNL     1       0.594  25.732  71.749  1.00  0.00     0.041 C 
ATOM      5  O   UNL     1       0.380  26.967  71.628  1.00  0.00    -0.550 OA
ATOM      6  O   UNL     1      -0.476  24.864  71.928  1.00  0.00    -0.550 OA
ENDBRANCH   3   4
ENDBRANCH   2   3
ENDBRANCH   1   2
BRANCH   1   7
ATOM      7  C   UNL     1       5.159  24.900  72.488  1.00  0.00     0.000 C 
BRANCH   7   8
ATOM      8  C   UNL     1       5.159  23.369  72.604  1.00  0.00     0.004 C 
BRANCH   8   9
ATOM      9  C   UNL     1       5.758  22.723  71.349  1.00  0.00     0.027 C 
BRANCH   9  10
ATOM     10  C   UNL     1       5.215  23.356  70.098  1.00  0.00    -0.035 C 
ATOM     11  C   UNL     1       4.073  22.942  69.539  1.00  0.00     0.004 C 
ENDBRANCH   9  10
ENDBRANCH   8   9
ENDBRANCH   7   8
ENDBRANCH   1   7
TORSDOF 7
ENDMDL
MODEL 2
REMARK VINA RESULT:    -3.345      1.777      2.848
REMARK INTER + INTRA:          -5.285
REMARK INTER:                  -5.015
REMARK INTRA:                  -0.270
REMARK UNBOUND:                -0.571
REMARK SMILES C=CCCCCCCC(=O)[O-]
REMARK SMILES IDX 6 1 7 2 8 3 9 4 10 5 11 6 5 7 4 8 3 9 2 10 1 11
REMARK H PARENT
REMARK Flexibility Score: inf
ROOT
ATOM      1  C   UNL     1       2.500  25.124  71.286  1.00  0.00     0.000 C 
ENDROOT
BRANCH   1   2
ATOM      2  C   UNL     1       1.080  25.365  70.744  1.00  0.00     0.006 C 
BRANCH   2   3
ATOM      3  C   UNL     1      -0.015  24.995  71.752  1.00  0.00     0.053 C 
BRANCH   3   4
ATOM      4  C   UNL     1      -1.355  24.991  71.090  1.00  0.00     0.041 C 
ATOM      5  O   UNL     1      -2.269  24.234  71.512  1.00  0.00    -0.550 OA
ATOM      6  O   UNL     1      -1.583  25.787  69.974  1.00  0.00    -0.550 OA
ENDBRANCH   3   4
ENDBRANCH   2   3
ENDBRANCH   1   2
BRANCH   1   7
ATOM      7  C   UNL     1       2.851  26.000  72.508  1.00  0.00     0.000 C 
BRANCH   7   8
ATOM      8  C   UNL     1       3.976  25.388  73.356  1.00  0.00     0.004 C 
BRANCH   8   9
ATOM      9  C   UNL     1       5.060  24.767  72.467  1.00  0.00     0.027 C 
BRANCH   9  10
ATOM     10  C   UNL     1       5.500  23.430  72.995  1.00  0.00    -0.035 C 
ATOM     11  C   UNL     1       6.788  23.071  73.015  1.00  0.00     0.004 C 
ENDBRANCH   9  10
ENDBRANCH   8   9
ENDBRANCH   7   8
ENDBRANCH   1   7
TORSDOF 7
ENDMDL
MODEL 3
REMARK VINA RESULT:    -3.321     13.441     14.670
REMARK INTER + INTRA:          -5.252
REMARK INTER:                  -4.523
REMARK INTRA:                  -0.729
REMARK UNBOUND:                -0.571
REMARK SMILES C=CCCCCCCC(=O)[O-]
REMARK SMILES IDX 6 1 7 2 8 3 9 4 10 5 11 6 5 7 4 8 3 9 2 10 1 11
REMARK H PARENT
REMARK Flexibility Score: inf
ROOT
ATOM      1  C   UNL     1      15.279  24.212  82.761  1.00  0.00     0.000 C 
ENDROOT
BRANCH   1   2
ATOM      2  C   UNL     1      14.453  25.199  83.603  1.00  0.00     0.006 C 
BRANCH   2   3
ATOM      3  C   UNL     1      12.942  24.950  83.505  1.00  0.00     0.053 C 
BRANCH   3   4
ATOM      4  C   UNL     1      12.252  26.144  82.926  1.00  0.00     0.041 C 
ATOM      5  O   UNL     1      11.427  26.797  83.618  1.00  0.00    -0.550 OA
ATOM      6  O   UNL     1      12.480  26.507  81.605  1.00  0.00    -0.550 OA
ENDBRANCH   3   4
ENDBRANCH   2   3
ENDBRANCH   1   2
BRANCH   1   7
ATOM      7  C   UNL     1      15.821  24.821  81.450  1.00  0.00     0.000 C 
BRANCH   7   8
ATOM      8  C   UNL     1      14.976  24.420  80.231  1.00  0.00     0.004 C 
BRANCH   8   9
ATOM      9  C   UNL     1      14.274  23.077  80.467  1.00  0.00     0.027 C 
BRANCH   9  10
ATOM     10  C   UNL     1      12.793  23.187  80.227  1.00  0.00    -0.035 C 
ATOM     11  C   UNL     1      12.017  22.104  80.118  1.00  0.00     0.004 C 
ENDBRANCH   9  10
ENDBRANCH   8   9
ENDBRANCH   7   8
ENDBRANCH   1   7
TORSDOF 7
ENDMDL
MODEL 4
REMARK VINA RESULT:    -3.284      0.878      1.781
REMARK INTER + INTRA:          -5.200
REMARK INTER:                  -4.722
REMARK INTRA:                  -0.477
REMARK UNBOUND:                -0.571
REMARK SMILES C=CCCCCCCC(=O)[O-]
REMARK SMILES IDX 6 1 7 2 8 3 9 4 10 5 11 6 5 7 4 8 3 9 2 10 1 11
REMARK H PARENT
REMARK Flexibility Score: inf
ROOT
ATOM      1  C   UNL     1       2.884  26.108  72.507  1.00  0.00     0.000 C 
ENDROOT
BRANCH   1   2
ATOM      2  C   UNL     1       2.111  25.233  71.505  1.00  0.00     0.006 C 
BRANCH   2   3
ATOM      3  C   UNL     1       0.601  25.214  71.770  1.00  0.00     0.053 C 
BRANCH   3   4
ATOM      4  C   UNL     1      -0.122  26.021  70.739  1.00  0.00     0.041 C 
ATOM      5  O   UNL     1      -1.267  25.672  70.348  1.00  0.00    -0.550 OA
ATOM      6  O   UNL     1       0.490  27.132  70.171  1.00  0.00    -0.550 OA
ENDBRANCH   3   4
ENDBRANCH   2   3
ENDBRANCH   1   2
BRANCH   1   7
ATOM      7  C   UNL     1       3.935  25.328  73.325  1.00  0.00     0.000 C 
BRANCH   7   8
ATOM      8  C   UNL     1       5.130  24.888  72.467  1.00  0.00     0.004 C 
BRANCH   8   9
ATOM      9  C   UNL     1       5.516  23.434  72.765  1.00  0.00     0.027 C 
BRANCH   9  10
ATOM     10  C   UNL     1       5.529  22.605  71.510  1.00  0.00    -0.035 C 
ATOM     11  C   UNL     1       4.965  23.035  70.378  1.00  0.00     0.004 C 
ENDBRANCH   9  10
ENDBRANCH   8   9
ENDBRANCH   7   8
ENDBRANCH   1   7
TORSDOF 7
ENDMDL
MODEL 5
REMARK VINA RESULT:    -3.257     12.142     13.459
REMARK INTER + INTRA:          -5.161
REMARK INTER:                  -4.428
REMARK INTRA:                  -0.733
REMARK UNBOUND:                -0.571
REMARK SMILES C=CCCCCCCC(=O)[O-]
REMARK SMILES IDX 6 1 7 2 8 3 9 4 10 5 11 6 5 7 4 8 3 9 2 10 1 11
REMARK H PARENT
REMARK Flexibility Score: inf
ROOT
ATOM      1  C   UNL     1      13.708  23.168  80.359  1.00  0.00     0.000 C 
ENDROOT
BRANCH   1   2
ATOM      2  C   UNL     1      14.013  24.308  81.345  1.00  0.00     0.006 C 
BRANCH   2   3
ATOM      3  C   UNL     1      12.798  25.203  81.619  1.00  0.00     0.053 C 
BRANCH   3   4
ATOM      4  C   UNL     1      12.736  25.571  83.067  1.00  0.00     0.041 C 
ATOM      5  O   UNL     1      13.561  25.081  83.882  1.00  0.00    -0.550 OA
ATOM      6  O   UNL     1      11.735  26.417  83.528  1.00  0.00    -0.550 OA
ENDBRANCH   3   4
ENDBRANCH   2   3
ENDBRANCH   1   2
BRANCH   1   7
ATOM      7  C   UNL     1      12.285  22.589  80.506  1.00  0.00     0.000 C 
BRANCH   7   8
ATOM      8  C   UNL     1      11.529  22.559  79.169  1.00  0.00     0.004 C 
BRANCH   8   9
ATOM      9  C   UNL     1      12.228  23.435  78.123  1.00  0.00     0.027 C 
BRANCH   9  10
ATOM     10  C   UNL     1      11.418  24.664  77.811  1.00  0.00    -0.035 C 
ATOM     11  C   UNL     1      11.915  25.894  77.976  1.00  0.00     0.004 C 
ENDBRANCH   9  10
ENDBRANCH   8   9
ENDBRANCH   7   8
ENDBRANCH   1   7
TORSDOF 7
ENDMDL
MODEL 6
REMARK VINA RESULT:    -3.208      1.440      2.385
REMARK INTER + INTRA:          -5.092
REMARK INTER:                  -4.833
REMARK INTRA:                  -0.259
REMARK UNBOUND:                -0.571
REMARK SMILES C=CCCCCCCC(=O)[O-]
REMARK SMILES IDX 6 1 7 2 8 3 9 4 10 5 11 6 5 7 4 8 3 9 2 10 1 11
REMARK H PARENT
REMARK Flexibility Score: inf
ROOT
ATOM      1  C   UNL     1       4.292  25.235  73.286  1.00  0.00     0.000 C 
ENDROOT
BRANCH   1   2
ATOM      2  C   UNL     1       3.112  26.043  72.720  1.00  0.00     0.006 C 
BRANCH   2   3
ATOM      3  C   UNL     1       2.263  25.243  71.724  1.00  0.00     0.053 C 
BRANCH   3   4
ATOM      4  C   UNL     1       0.833  25.674  71.792  1.00  0.00     0.041 C 
ATOM      5  O   UNL     1      -0.087  24.814  71.834  1.00  0.00    -0.550 OA
ATOM      6  O   UNL     1       0.510  27.025  71.759  1.00  0.00    -0.550 OA
ENDBRANCH   3   4
ENDBRANCH   2   3
ENDBRANCH   1   2
BRANCH   1   7
ATOM      7  C   UNL     1       4.681  24.019  72.419  1.00  0.00     0.000 C 
BRANCH   7   8
ATOM      8  C   UNL     1       5.799  23.182  73.060  1.00  0.00     0.004 C 
BRANCH   8   9
ATOM      9  C   UNL     1       6.742  22.615  71.993  1.00  0.00     0.027 C 
BRANCH   9  10
ATOM     10  C   UNL     1       8.177  22.687  72.439  1.00  0.00    -0.035 C 
ATOM     11  C   UNL     1       8.697  23.806  72.952  1.00  0.00     0.004 C 
ENDBRANCH   9  10
ENDBRANCH   8   9
ENDBRANCH   7   8
ENDBRANCH   1   7
TORSDOF 7
ENDMDL
MODEL 7
REMARK VINA RESULT:    -3.203     12.987     14.228
REMARK INTER + INTRA:          -5.085
REMARK INTER:                  -4.368
REMARK INTRA:                  -0.717
REMARK UNBOUND:                -0.571
REMARK SMILES C=CCCCCCCC(=O)[O-]
REMARK SMILES IDX 6 1 7 2 8 3 9 4 10 5 11 6 5 7 4 8 3 9 2 10 1 11
REMARK H PARENT
REMARK Flexibility Score: inf
ROOT
ATOM      1  C   UNL     1      14.982  24.518  80.501  1.00  0.00     0.000 C 
ENDROOT
BRANCH   1   2
ATOM      2  C   UNL     1      13.708  25.260  80.940  1.00  0.00     0.006 C 
BRANCH   2   3
ATOM      3  C   UNL     1      12.939  24.525  82.045  1.00  0.00     0.053 C 
BRANCH   3   4
ATOM      4  C   UNL     1      13.099  25.231  83.353  1.00  0.00     0.041 C 
ATOM      5  O   UNL     1      12.220  26.040  83.750  1.00  0.00    -0.550 OA
ATOM      6  O   UNL     1      14.246  25.036  84.114  1.00  0.00    -0.550 OA
ENDBRANCH   3   4
ENDBRANCH   2   3
ENDBRANCH   1   2
BRANCH   1   7
ATOM      7  C   UNL     1      14.875  22.983  80.623  1.00  0.00     0.000 C 
BRANCH   7   8
ATOM      8  C   UNL     1      14.356  22.333  79.332  1.00  0.00     0.004 C 
BRANCH   8   9
ATOM      9  C   UNL     1      13.138  21.446  79.614  1.00  0.00     0.027 C 
BRANCH   9  10
ATOM     10  C   UNL     1      11.867  22.250  79.616  1.00  0.00    -0.035 C 
ATOM     11  C   UNL     1      11.536  23.043  78.594  1.00  0.00     0.004 C 
ENDBRANCH   9  10
ENDBRANCH   8   9
ENDBRANCH   7   8
ENDBRANCH   1   7
TORSDOF 7
ENDMDL
MODEL 8
REMARK VINA RESULT:    -3.167     12.900     13.666
REMARK INTER + INTRA:          -5.034
REMARK INTER:                  -4.843
REMARK INTRA:                  -0.191
REMARK UNBOUND:                -0.571
REMARK SMILES C=CCCCCCCC(=O)[O-]
REMARK SMILES IDX 6 1 7 2 8 3 9 4 10 5 11 6 5 7 4 8 3 9 2 10 1 11
REMARK H PARENT
REMARK Flexibility Score: inf
ROOT
ATOM      1  C   UNL     1      12.313  21.827  79.989  1.00  0.00     0.000 C 
ENDROOT
BRANCH   1   2
ATOM      2  C   UNL     1      12.266  23.357  80.142  1.00  0.00     0.006 C 
BRANCH   2   3
ATOM      3  C   UNL     1      13.412  23.908  81.000  1.00  0.00     0.053 C 
BRANCH   3   4
ATOM      4  C   UNL     1      12.906  24.957  81.937  1.00  0.00     0.041 C 
ATOM      5  O   UNL     1      12.480  26.055  81.489  1.00  0.00    -0.550 OA
ATOM      6  O   UNL     1      12.950  24.745  83.309  1.00  0.00    -0.550 OA
ENDBRANCH   3   4
ENDBRANCH   2   3
ENDBRANCH   1   2
BRANCH   1   7
ATOM      7  C   UNL     1      13.321  21.343  78.926  1.00  0.00     0.000 C 
BRANCH   7   8
ATOM      8  C   UNL     1      13.738  19.881  79.144  1.00  0.00     0.004 C 
BRANCH   8   9
ATOM      9  C   UNL     1      13.898  19.149  77.806  1.00  0.00     0.027 C 
BRANCH   9  10
ATOM     10  C   UNL     1      13.388  17.737  77.892  1.00  0.00    -0.035 C 
ATOM     11  C   UNL     1      13.590  16.982  78.976  1.00  0.00     0.004 C 
ENDBRANCH   9  10
ENDBRANCH   8   9
ENDBRANCH   7   8
ENDBRANCH   1   7
TORSDOF 7
ENDMDL
MODEL 9
REMARK VINA RESULT:    -3.151     12.870     13.896
REMARK INTER + INTRA:          -5.012
REMARK INTER:                  -4.689
REMARK INTRA:                  -0.322
REMARK UNBOUND:                -0.571
REMARK SMILES C=CCCCCCCC(=O)[O-]
REMARK SMILES IDX 6 1 7 2 8 3 9 4 10 5 11 6 5 7 4 8 3 9 2 10 1 11
REMARK H PARENT
REMARK Flexibility Score: inf
ROOT
ATOM      1  C   UNL     1      14.026  23.602  81.052  1.00  0.00     0.000 C 
ENDROOT
BRANCH   1   2
ATOM      2  C   UNL     1      14.137  24.769  82.048  1.00  0.00     0.006 C 
BRANCH   2   3
ATOM      3  C   UNL     1      12.925  24.876  82.981  1.00  0.00     0.053 C 
BRANCH   3   4
ATOM      4  C   UNL     1      12.205  26.167  82.758  1.00  0.00     0.041 C 
ATOM      5  O   UNL     1      12.360  26.802  81.682  1.00  0.00    -0.550 OA
ATOM      6  O   UNL     1      11.400  26.697  83.759  1.00  0.00    -0.550 OA
ENDBRANCH   3   4
ENDBRANCH   2   3
ENDBRANCH   1   2
BRANCH   1   7
ATOM      7  C   UNL     1      12.604  23.405  80.487  1.00  0.00     0.000 C 
BRANCH   7   8
ATOM      8  C   UNL     1      12.337  21.947  80.082  1.00  0.00     0.004 C 
BRANCH   8   9
ATOM      9  C   UNL     1      12.988  21.623  78.733  1.00  0.00     0.027 C 
BRANCH   9  10
ATOM     10  C   UNL     1      14.175  20.716  78.904  1.00  0.00    -0.035 C 
ATOM     11  C   UNL     1      14.032  19.420  79.199  1.00  0.00     0.004 C 
ENDBRANCH   9  10
ENDBRANCH   8   9
ENDBRANCH   7   8
ENDBRANCH   1   7
TORSDOF 7
ENDMDL
