MODEL 1
REMARK VINA RESULT:    -4.841      0.000      0.000
REMARK INTER + INTRA:          -8.699
REMARK INTER:                  -7.387
REMARK INTRA:                  -1.312
REMARK UNBOUND:                -1.312
REMARK SMILES CC(=O)CCC=C(C)CCC=C(C)CCC=C(C)C
REMARK SMILES IDX 10 1 11 2 12 3 13 4 14 5 15 6 16 7 18 8 17 9 19 10 9 11 7 12
REMARK SMILES IDX 6 13 8 14 5 15 4 16 2 17 3 18 1 19
REMARK H PARENT
REMARK Flexibility Score: inf
ROOT
ATOM      1  C   UNL     1    -116.251 -98.498   1.024  1.00  0.00     0.032 C 
ENDROOT
BRANCH   1   2
ATOM      2  C   UNL     1    -117.035 -99.724   1.425  1.00  0.00    -0.028 C 
ATOM      3  C   UNL     1    -117.068-100.880   0.720  1.00  0.00    -0.077 C 
ATOM      4  C   UNL     1    -116.272-101.057  -0.550  1.00  0.00     0.039 C 
BRANCH   3   5
ATOM      5  C   UNL     1    -117.948-102.016   1.204  1.00  0.00     0.034 C 
BRANCH   5   6
ATOM      6  C   UNL     1    -119.417-101.828   0.798  1.00  0.00     0.032 C 
BRANCH   6   7
ATOM      7  C   UNL     1    -120.327-101.698   1.996  1.00  0.00    -0.028 C 
ATOM      8  C   UNL     1    -120.556 -99.233   1.665  1.00  0.00     0.039 C 
ATOM      9  C   UNL     1    -120.853-100.521   2.396  1.00  0.00    -0.080 C 
ATOM     10  C   UNL     1    -121.745-100.500   3.612  1.00  0.00     0.039 C 
ENDBRANCH   6   7
ENDBRANCH   5   6
ENDBRANCH   3   5
ENDBRANCH   1   2
BRANCH   1  11
ATOM     11  C   UNL     1    -116.996 -97.230   1.452  1.00  0.00     0.034 C 
BRANCH  11  12
ATOM     12  C   UNL     1    -116.147 -96.389   2.381  1.00  0.00    -0.077 C 
ATOM     13  C   UNL     1    -116.722 -95.357   3.039  1.00  0.00    -0.028 C 
ATOM     14  C   UNL     1    -114.683 -96.724   2.548  1.00  0.00     0.039 C 
BRANCH  13  15
ATOM     15  C   UNL     1    -115.997 -94.425   3.976  1.00  0.00     0.035 C 
BRANCH  15  16
ATOM     16  C   UNL     1    -116.428 -94.659   5.426  1.00  0.00     0.079 C 
BRANCH  16  17
ATOM     17  C   UNL     1    -115.427 -95.527   6.144  1.00  0.00     0.130 C 
ATOM     18  O   UNL     1    -115.778 -96.606   6.593  1.00  0.00    -0.300 OA
ATOM     19  C   UNL     1    -114.002 -95.093   6.320  1.00  0.00     0.087 C 
ENDBRANCH  16  17
ENDBRANCH  15  16
ENDBRANCH  13  15
ENDBRANCH  11  12
ENDBRANCH   1  11
TORSDOF 9
ENDMDL
MODEL 2
REMARK VINA RESULT:    -4.745      3.001      5.028
REMARK INTER + INTRA:          -8.553
REMARK INTER:                  -6.854
REMARK INTRA:                  -1.699
REMARK UNBOUND:                -1.312
REMARK SMILES CC(=O)CCC=C(C)CCC=C(C)CCC=C(C)C
REMARK SMILES IDX 10 1 11 2 12 3 13 4 14 5 15 6 16 7 18 8 17 9 19 10 9 11 7 12
REMARK SMILES IDX 6 13 8 14 5 15 4 16 2 17 3 18 1 19
REMARK H PARENT
REMARK Flexibility Score: inf
ROOT
ATOM      1  C   UNL     1    -119.495-102.259   0.618  1.00  0.00     0.032 C 
ENDROOT
BRANCH   1   2
ATOM      2  C   UNL     1    -120.166-101.473   1.717  1.00  0.00    -0.028 C 
ATOM      3  C   UNL     1    -120.564-100.183   1.608  1.00  0.00    -0.077 C 
ATOM      4  C   UNL     1    -120.390 -99.406   0.326  1.00  0.00     0.039 C 
BRANCH   3   5
ATOM      5  C   UNL     1    -121.171 -99.492   2.814  1.00  0.00     0.034 C 
BRANCH   5   6
ATOM      6  C   UNL     1    -121.738-100.492   3.833  1.00  0.00     0.032 C 
BRANCH   6   7
ATOM      7  C   UNL     1    -122.929 -99.935   4.575  1.00  0.00    -0.028 C 
ATOM      8  C   UNL     1    -124.486-100.566   2.727  1.00  0.00     0.039 C 
ATOM      9  C   UNL     1    -124.185 -99.967   4.081  1.00  0.00    -0.080 C 
ATOM     10  C   UNL     1    -125.304 -99.376   4.901  1.00  0.00     0.039 C 
ENDBRANCH   6   7
ENDBRANCH   5   6
ENDBRANCH   3   5
ENDBRANCH   1   2
BRANCH   1  11
ATOM     11  C   UNL     1    -117.998-102.403   0.908  1.00  0.00     0.034 C 
BRANCH  11  12
ATOM     12  C   UNL     1    -117.224-101.218   0.370  1.00  0.00    -0.077 C 
ATOM     13  C   UNL     1    -116.767-100.286   1.238  1.00  0.00    -0.028 C 
ATOM     14  C   UNL     1    -116.983-101.108  -1.117  1.00  0.00     0.039 C 
BRANCH  13  15
ATOM     15  C   UNL     1    -116.004 -99.048   0.844  1.00  0.00     0.035 C 
BRANCH  15  16
ATOM     16  C   UNL     1    -116.476 -97.834   1.649  1.00  0.00     0.079 C 
BRANCH  16  17
ATOM     17  C   UNL     1    -117.566 -97.100   0.912  1.00  0.00     0.130 C 
ATOM     18  O   UNL     1    -117.573 -97.099  -0.308  1.00  0.00    -0.300 OA
ATOM     19  C   UNL     1    -118.649 -96.366   1.647  1.00  0.00     0.087 C 
ENDBRANCH  16  17
ENDBRANCH  15  16
ENDBRANCH  13  15
ENDBRANCH  11  12
ENDBRANCH   1  11
TORSDOF 9
ENDMDL
MODEL 3
REMARK VINA RESULT:    -4.729      1.651      2.840
REMARK INTER + INTRA:          -8.528
REMARK INTER:                  -7.681
REMARK INTRA:                  -0.848
REMARK UNBOUND:                -1.312
REMARK SMILES CC(=O)CCC=C(C)CCC=C(C)CCC=C(C)C
REMARK SMILES IDX 10 1 11 2 12 3 13 4 14 5 15 6 16 7 18 8 17 9 19 10 9 11 7 12
REMARK SMILES IDX 6 13 8 14 5 15 4 16 2 17 3 18 1 19
REMARK H PARENT
REMARK Flexibility Score: inf
ROOT
ATOM      1  C   UNL     1    -117.933 -99.487   0.416  1.00  0.00     0.032 C 
ENDROOT
BRANCH   1   2
ATOM      2  C   UNL     1    -119.134 -99.832   1.261  1.00  0.00    -0.028 C 
ATOM      3  C   UNL     1    -119.666-101.072   1.373  1.00  0.00    -0.077 C 
ATOM      4  C   UNL     1    -119.063-102.259   0.662  1.00  0.00     0.039 C 
BRANCH   3   5
ATOM      5  C   UNL     1    -120.915-101.269   2.210  1.00  0.00     0.034 C 
BRANCH   5   6
ATOM      6  C   UNL     1    -121.389 -99.963   2.864  1.00  0.00     0.032 C 
BRANCH   6   7
ATOM      7  C   UNL     1    -122.765-100.096   3.470  1.00  0.00    -0.028 C 
ATOM      8  C   UNL     1    -122.155 -98.631   5.399  1.00  0.00     0.039 C 
ATOM      9  C   UNL     1    -123.125 -99.491   4.622  1.00  0.00    -0.080 C 
ATOM     10  C   UNL     1    -124.524 -99.696   5.145  1.00  0.00     0.039 C 
ENDBRANCH   6   7
ENDBRANCH   5   6
ENDBRANCH   3   5
ENDBRANCH   1   2
BRANCH   1  11
ATOM     11  C   UNL     1    -116.656 -99.552   1.258  1.00  0.00     0.034 C 
BRANCH  11  12
ATOM     12  C   UNL     1    -115.930 -98.222   1.247  1.00  0.00    -0.077 C 
ATOM     13  C   UNL     1    -116.092 -97.379   2.292  1.00  0.00    -0.028 C 
ATOM     14  C   UNL     1    -115.047 -97.874   0.071  1.00  0.00     0.039 C 
BRANCH  13  15
ATOM     15  C   UNL     1    -115.452 -96.020   2.406  1.00  0.00     0.035 C 
BRANCH  15  16
ATOM     16  C   UNL     1    -114.890 -95.794   3.812  1.00  0.00     0.079 C 
BRANCH  16  17
ATOM     17  C   UNL     1    -115.836 -94.957   4.633  1.00  0.00     0.130 C 
ATOM     18  O   UNL     1    -116.361 -93.974   4.133  1.00  0.00    -0.300 OA
ATOM     19  C   UNL     1    -116.151 -95.305   6.058  1.00  0.00     0.087 C 
ENDBRANCH  16  17
ENDBRANCH  15  16
ENDBRANCH  13  15
ENDBRANCH  11  12
ENDBRANCH   1  11
TORSDOF 9
ENDMDL
MODEL 4
REMARK VINA RESULT:    -4.680      1.463      2.777
REMARK INTER + INTRA:          -8.454
REMARK INTER:                  -7.374
REMARK INTRA:                  -1.080
REMARK UNBOUND:                -1.312
REMARK SMILES CC(=O)CCC=C(C)CCC=C(C)CCC=C(C)C
REMARK SMILES IDX 10 1 11 2 12 3 13 4 14 5 15 6 16 7 18 8 17 9 19 10 9 11 7 12
REMARK SMILES IDX 6 13 8 14 5 15 4 16 2 17 3 18 1 19
REMARK H PARENT
REMARK Flexibility Score: inf
ROOT
ATOM      1  C   UNL     1    -117.773 -98.961   0.526  1.00  0.00     0.032 C 
ENDROOT
BRANCH   1   2
ATOM      2  C   UNL     1    -118.861 -99.947   0.873  1.00  0.00    -0.028 C 
ATOM      3  C   UNL     1    -120.005 -99.632   1.526  1.00  0.00    -0.077 C 
ATOM      4  C   UNL     1    -120.313 -98.216   1.947  1.00  0.00     0.039 C 
BRANCH   3   5
ATOM      5  C   UNL     1    -120.989-100.735   1.868  1.00  0.00     0.034 C 
BRANCH   5   6
ATOM      6  C   UNL     1    -121.337-100.761   3.364  1.00  0.00     0.032 C 
BRANCH   6   7
ATOM      7  C   UNL     1    -122.788-100.430   3.617  1.00  0.00    -0.028 C 
ATOM      8  C   UNL     1    -122.192 -98.773   5.388  1.00  0.00     0.039 C 
ATOM      9  C   UNL     1    -123.187 -99.523   4.535  1.00  0.00    -0.080 C 
ATOM     10  C   UNL     1    -124.663 -99.272   4.714  1.00  0.00     0.039 C 
ENDBRANCH   6   7
ENDBRANCH   5   6
ENDBRANCH   3   5
ENDBRANCH   1   2
BRANCH   1  11
ATOM     11  C   UNL     1    -116.541 -99.200   1.403  1.00  0.00     0.034 C 
BRANCH  11  12
ATOM     12  C   UNL     1    -115.718 -97.936   1.539  1.00  0.00    -0.077 C 
ATOM     13  C   UNL     1    -115.881 -97.164   2.636  1.00  0.00    -0.028 C 
ATOM     14  C   UNL     1    -114.739 -97.573   0.447  1.00  0.00     0.039 C 
BRANCH  13  15
ATOM     15  C   UNL     1    -115.149 -95.872   2.894  1.00  0.00     0.035 C 
BRANCH  15  16
ATOM     16  C   UNL     1    -115.921 -94.991   3.880  1.00  0.00     0.079 C 
BRANCH  16  17
ATOM     17  C   UNL     1    -115.626 -95.399   5.301  1.00  0.00     0.130 C 
ATOM     18  O   UNL     1    -116.549 -95.594   6.075  1.00  0.00    -0.300 OA
ATOM     19  C   UNL     1    -114.217 -95.574   5.786  1.00  0.00     0.087 C 
ENDBRANCH  16  17
ENDBRANCH  15  16
ENDBRANCH  13  15
ENDBRANCH  11  12
ENDBRANCH   1  11
TORSDOF 9
ENDMDL
MODEL 5
REMARK VINA RESULT:    -4.606      2.705      6.070
REMARK INTER + INTRA:          -8.341
REMARK INTER:                  -6.883
REMARK INTRA:                  -1.459
REMARK UNBOUND:                -1.312
REMARK SMILES CC(=O)CCC=C(C)CCC=C(C)CCC=C(C)C
REMARK SMILES IDX 10 1 11 2 12 3 13 4 14 5 15 6 16 7 18 8 17 9 19 10 9 11 7 12
REMARK SMILES IDX 6 13 8 14 5 15 4 16 2 17 3 18 1 19
REMARK H PARENT
REMARK Flexibility Score: inf
ROOT
ATOM      1  C   UNL     1    -117.631-101.749   0.210  1.00  0.00     0.032 C 
ENDROOT
BRANCH   1   2
ATOM      2  C   UNL     1    -117.093-100.407   0.643  1.00  0.00    -0.028 C 
ATOM      3  C   UNL     1    -116.138 -99.711  -0.019  1.00  0.00    -0.077 C 
ATOM      4  C   UNL     1    -115.533-100.222  -1.305  1.00  0.00     0.039 C 
BRANCH   3   5
ATOM      5  C   UNL     1    -115.643 -98.400   0.560  1.00  0.00     0.034 C 
BRANCH   5   6
ATOM      6  C   UNL     1    -116.329 -98.055   1.890  1.00  0.00     0.032 C 
BRANCH   6   7
ATOM      7  C   UNL     1    -116.849 -96.638   1.911  1.00  0.00    -0.028 C 
ATOM      8  C   UNL     1    -119.151 -97.380   1.288  1.00  0.00     0.039 C 
ATOM      9  C   UNL     1    -118.134 -96.321   1.642  1.00  0.00    -0.080 C 
ATOM     10  C   UNL     1    -118.549 -94.872   1.684  1.00  0.00     0.039 C 
ENDBRANCH   6   7
ENDBRANCH   5   6
ENDBRANCH   3   5
ENDBRANCH   1   2
BRANCH   1  11
ATOM     11  C   UNL     1    -118.423-102.394   1.351  1.00  0.00     0.034 C 
BRANCH  11  12
ATOM     12  C   UNL     1    -119.848-101.882   1.379  1.00  0.00    -0.077 C 
ATOM     13  C   UNL     1    -120.283-101.218   2.474  1.00  0.00    -0.028 C 
ATOM     14  C   UNL     1    -120.743-102.125   0.186  1.00  0.00     0.039 C 
BRANCH  13  15
ATOM     15  C   UNL     1    -121.677-100.673   2.650  1.00  0.00     0.035 C 
BRANCH  15  16
ATOM     16  C   UNL     1    -121.643 -99.251   3.217  1.00  0.00     0.079 C 
BRANCH  16  17
ATOM     17  C   UNL     1    -122.023 -99.252   4.675  1.00  0.00     0.130 C 
ATOM     18  O   UNL     1    -121.925 -98.223   5.324  1.00  0.00    -0.300 OA
ATOM     19  C   UNL     1    -122.523-100.494   5.351  1.00  0.00     0.087 C 
ENDBRANCH  16  17
ENDBRANCH  15  16
ENDBRANCH  13  15
ENDBRANCH  11  12
ENDBRANCH   1  11
TORSDOF 9
ENDMDL
MODEL 6
REMARK VINA RESULT:    -4.606      2.271      3.642
REMARK INTER + INTRA:          -8.341
REMARK INTER:                  -7.166
REMARK INTRA:                  -1.175
REMARK UNBOUND:                -1.312
REMARK SMILES CC(=O)CCC=C(C)CCC=C(C)CCC=C(C)C
REMARK SMILES IDX 10 1 11 2 12 3 13 4 14 5 15 6 16 7 18 8 17 9 19 10 9 11 7 12
REMARK SMILES IDX 6 13 8 14 5 15 4 16 2 17 3 18 1 19
REMARK H PARENT
REMARK Flexibility Score: inf
ROOT
ATOM      1  C   UNL     1    -117.929 -99.576   0.313  1.00  0.00     0.032 C 
ENDROOT
BRANCH   1   2
ATOM      2  C   UNL     1    -119.062 -99.863   1.268  1.00  0.00    -0.028 C 
ATOM      3  C   UNL     1    -119.660-101.070   1.412  1.00  0.00    -0.077 C 
ATOM      4  C   UNL     1    -119.207-102.277   0.626  1.00  0.00     0.039 C 
BRANCH   3   5
ATOM      5  C   UNL     1    -120.832-101.206   2.364  1.00  0.00     0.034 C 
BRANCH   5   6
ATOM      6  C   UNL     1    -121.393 -99.843   2.795  1.00  0.00     0.032 C 
BRANCH   6   7
ATOM      7  C   UNL     1    -122.791 -99.954   3.354  1.00  0.00    -0.028 C 
ATOM      8  C   UNL     1    -122.147 -98.750   5.445  1.00  0.00     0.039 C 
ATOM      9  C   UNL     1    -123.145 -99.456   4.558  1.00  0.00    -0.080 C 
ATOM     10  C   UNL     1    -124.569 -99.627   5.025  1.00  0.00     0.039 C 
ENDBRANCH   6   7
ENDBRANCH   5   6
ENDBRANCH   3   5
ENDBRANCH   1   2
BRANCH   1  11
ATOM     11  C   UNL     1    -116.583 -99.767   1.017  1.00  0.00     0.034 C 
BRANCH  11  12
ATOM     12  C   UNL     1    -115.864 -98.444   1.180  1.00  0.00    -0.077 C 
ATOM     13  C   UNL     1    -116.105 -97.699   2.282  1.00  0.00    -0.028 C 
ATOM     14  C   UNL     1    -114.897 -97.993   0.110  1.00  0.00     0.039 C 
BRANCH  13  15
ATOM     15  C   UNL     1    -115.481 -96.357   2.566  1.00  0.00     0.035 C 
BRANCH  15  16
ATOM     16  C   UNL     1    -116.555 -95.291   2.802  1.00  0.00     0.079 C 
BRANCH  16  17
ATOM     17  C   UNL     1    -117.418 -95.127   1.577  1.00  0.00     0.130 C 
ATOM     18  O   UNL     1    -116.938 -94.651   0.561  1.00  0.00    -0.300 OA
ATOM     19  C   UNL     1    -118.860 -95.540   1.578  1.00  0.00     0.087 C 
ENDBRANCH  16  17
ENDBRANCH  15  16
ENDBRANCH  13  15
ENDBRANCH  11  12
ENDBRANCH   1  11
TORSDOF 9
ENDMDL
MODEL 7
REMARK VINA RESULT:    -4.590      1.980      6.713
REMARK INTER + INTRA:          -8.316
REMARK INTER:                  -7.029
REMARK INTRA:                  -1.287
REMARK UNBOUND:                -1.312
REMARK SMILES CC(=O)CCC=C(C)CCC=C(C)CCC=C(C)C
REMARK SMILES IDX 10 1 11 2 12 3 13 4 14 5 15 6 16 7 18 8 17 9 19 10 9 11 7 12
REMARK SMILES IDX 6 13 8 14 5 15 4 16 2 17 3 18 1 19
REMARK H PARENT
REMARK Flexibility Score: inf
ROOT
ATOM      1  C   UNL     1    -117.604-101.103   0.260  1.00  0.00     0.032 C 
ENDROOT
BRANCH   1   2
ATOM      2  C   UNL     1    -116.772-100.110   1.033  1.00  0.00    -0.028 C 
ATOM      3  C   UNL     1    -117.157 -98.844   1.323  1.00  0.00    -0.077 C 
ATOM      4  C   UNL     1    -118.508 -98.313   0.909  1.00  0.00     0.039 C 
BRANCH   3   5
ATOM      5  C   UNL     1    -116.196 -97.928   2.055  1.00  0.00     0.034 C 
BRANCH   5   6
ATOM      6  C   UNL     1    -116.311 -96.470   1.587  1.00  0.00     0.032 C 
BRANCH   6   7
ATOM      7  C   UNL     1    -116.738 -95.546   2.702  1.00  0.00    -0.028 C 
ATOM      8  C   UNL     1    -114.370 -95.094   3.355  1.00  0.00     0.039 C 
ATOM      9  C   UNL     1    -115.861 -94.913   3.511  1.00  0.00    -0.080 C 
ATOM     10  C   UNL     1    -116.394 -94.016   4.600  1.00  0.00     0.039 C 
ENDBRANCH   6   7
ENDBRANCH   5   6
ENDBRANCH   3   5
ENDBRANCH   1   2
BRANCH   1  11
ATOM     11  C   UNL     1    -118.291-102.080   1.219  1.00  0.00     0.034 C 
BRANCH  11  12
ATOM     12  C   UNL     1    -119.776-101.797   1.310  1.00  0.00    -0.077 C 
ATOM     13  C   UNL     1    -120.260-101.193   2.419  1.00  0.00    -0.028 C 
ATOM     14  C   UNL     1    -120.675-102.196   0.163  1.00  0.00     0.039 C 
BRANCH  13  15
ATOM     15  C   UNL     1    -121.713-100.870   2.656  1.00  0.00     0.035 C 
BRANCH  15  16
ATOM     16  C   UNL     1    -121.888 -99.412   3.091  1.00  0.00     0.079 C 
BRANCH  16  17
ATOM     17  C   UNL     1    -122.114 -99.325   4.578  1.00  0.00     0.130 C 
ATOM     18  O   UNL     1    -121.877 -98.281   5.163  1.00  0.00    -0.300 OA
ATOM     19  C   UNL     1    -122.627-100.498   5.360  1.00  0.00     0.087 C 
ENDBRANCH  16  17
ENDBRANCH  15  16
ENDBRANCH  13  15
ENDBRANCH  11  12
ENDBRANCH   1  11
TORSDOF 9
ENDMDL
MODEL 8
REMARK VINA RESULT:    -4.590      2.814      7.127
REMARK INTER + INTRA:          -8.316
REMARK INTER:                  -7.133
REMARK INTRA:                  -1.183
REMARK UNBOUND:                -1.312
REMARK SMILES CC(=O)CCC=C(C)CCC=C(C)CCC=C(C)C
REMARK SMILES IDX 10 1 11 2 12 3 13 4 14 5 15 6 16 7 18 8 17 9 19 10 9 11 7 12
REMARK SMILES IDX 6 13 8 14 5 15 4 16 2 17 3 18 1 19
REMARK H PARENT
REMARK Flexibility Score: inf
ROOT
ATOM      1  C   UNL     1    -119.505 -99.302   1.031  1.00  0.00     0.032 C 
ENDROOT
BRANCH   1   2
ATOM      2  C   UNL     1    -118.179 -98.588   1.125  1.00  0.00    -0.028 C 
ATOM      3  C   UNL     1    -116.973 -99.204   1.137  1.00  0.00    -0.077 C 
ATOM      4  C   UNL     1    -116.848-100.703   1.021  1.00  0.00     0.039 C 
BRANCH   3   5
ATOM      5  C   UNL     1    -115.718 -98.368   1.299  1.00  0.00     0.034 C 
BRANCH   5   6
ATOM      6  C   UNL     1    -115.983 -96.871   1.082  1.00  0.00     0.032 C 
BRANCH   6   7
ATOM      7  C   UNL     1    -115.796 -96.070   2.348  1.00  0.00    -0.028 C 
ATOM      8  C   UNL     1    -118.000 -94.933   2.060  1.00  0.00     0.039 C 
ATOM      9  C   UNL     1    -116.710 -95.187   2.803  1.00  0.00    -0.080 C 
ATOM     10  C   UNL     1    -116.421 -94.433   4.076  1.00  0.00     0.039 C 
ENDBRANCH   6   7
ENDBRANCH   5   6
ENDBRANCH   3   5
ENDBRANCH   1   2
BRANCH   1  11
ATOM     11  C   UNL     1    -120.507 -98.690   2.015  1.00  0.00     0.034 C 
BRANCH  11  12
ATOM     12  C   UNL     1    -121.275 -99.770   2.748  1.00  0.00    -0.077 C 
ATOM     13  C   UNL     1    -121.957 -99.442   3.869  1.00  0.00    -0.028 C 
ATOM     14  C   UNL     1    -121.259-101.182   2.211  1.00  0.00     0.039 C 
BRANCH  13  15
ATOM     15  C   UNL     1    -122.744-100.412   4.711  1.00  0.00     0.035 C 
BRANCH  15  16
ATOM     16  C   UNL     1    -124.015 -99.758   5.258  1.00  0.00     0.079 C 
BRANCH  16  17
ATOM     17  C   UNL     1    -124.937 -99.365   4.133  1.00  0.00     0.130 C 
ATOM     18  O   UNL     1    -125.476 -98.270   4.150  1.00  0.00    -0.300 OA
ATOM     19  C   UNL     1    -125.207-100.292   2.985  1.00  0.00     0.087 C 
ENDBRANCH  16  17
ENDBRANCH  15  16
ENDBRANCH  13  15
ENDBRANCH  11  12
ENDBRANCH   1  11
TORSDOF 9
ENDMDL
MODEL 9
REMARK VINA RESULT:    -4.473      2.919      6.919
REMARK INTER + INTRA:          -8.137
REMARK INTER:                  -6.770
REMARK INTRA:                  -1.368
REMARK UNBOUND:                -1.312
REMARK SMILES CC(=O)CCC=C(C)CCC=C(C)CCC=C(C)C
REMARK SMILES IDX 10 1 11 2 12 3 13 4 14 5 15 6 16 7 18 8 17 9 19 10 9 11 7 12
REMARK SMILES IDX 6 13 8 14 5 15 4 16 2 17 3 18 1 19
REMARK H PARENT
REMARK Flexibility Score: inf
ROOT
ATOM      1  C   UNL     1    -118.985 -99.105   0.064  1.00  0.00     0.032 C 
ENDROOT
BRANCH   1   2
ATOM      2  C   UNL     1    -117.929 -98.253   0.725  1.00  0.00    -0.028 C 
ATOM      3  C   UNL     1    -116.796 -98.733   1.290  1.00  0.00    -0.077 C 
ATOM      4  C   UNL     1    -116.468-100.206   1.278  1.00  0.00     0.039 C 
BRANCH   3   5
ATOM      5  C   UNL     1    -115.847 -97.770   1.977  1.00  0.00     0.034 C 
BRANCH   5   6
ATOM      6  C   UNL     1    -115.159 -96.822   0.984  1.00  0.00     0.032 C 
BRANCH   6   7
ATOM      7  C   UNL     1    -113.693 -97.140   0.816  1.00  0.00    -0.028 C 
ATOM      8  C   UNL     1    -114.123 -98.429  -1.280  1.00  0.00     0.039 C 
ATOM      9  C   UNL     1    -113.211 -97.869  -0.214  1.00  0.00    -0.080 C 
ATOM     10  C   UNL     1    -111.729 -98.135  -0.285  1.00  0.00     0.039 C 
ENDBRANCH   6   7
ENDBRANCH   5   6
ENDBRANCH   3   5
ENDBRANCH   1   2
BRANCH   1  11
ATOM     11  C   UNL     1    -120.334 -98.914   0.763  1.00  0.00     0.034 C 
BRANCH  11  12
ATOM     12  C   UNL     1    -120.641-100.081   1.677  1.00  0.00    -0.077 C 
ATOM     13  C   UNL     1    -121.402 -99.870   2.775  1.00  0.00    -0.028 C 
ATOM     14  C   UNL     1    -120.091-101.447   1.340  1.00  0.00     0.039 C 
BRANCH  13  15
ATOM     15  C   UNL     1    -121.770-100.929   3.782  1.00  0.00     0.035 C 
BRANCH  15  16
ATOM     16  C   UNL     1    -121.749-100.364   5.205  1.00  0.00     0.079 C 
BRANCH  16  17
ATOM     17  C   UNL     1    -122.644 -99.156   5.309  1.00  0.00     0.130 C 
ATOM     18  O   UNL     1    -122.174 -98.086   5.659  1.00  0.00    -0.300 OA
ATOM     19  C   UNL     1    -124.108 -99.239   4.989  1.00  0.00     0.087 C 
ENDBRANCH  16  17
ENDBRANCH  15  16
ENDBRANCH  13  15
ENDBRANCH  11  12
ENDBRANCH   1  11
TORSDOF 9
ENDMDL
