MODEL 1
REMARK VINA RESULT:    51.631      0.000      0.000
REMARK INTER + INTRA:          80.596
REMARK INTER:                  75.778
REMARK INTRA:                   4.817
REMARK UNBOUND:                 4.817
REMARK SMILES Cc1cc2c(C(C)C)c(O)c(O)c(C=O)c2c(O)c1-c1c(C)cc2c(C(C)C)c(O)c(O)c(C=O)c2c1O
REMARK SMILES IDX 1 1 2 2 3 3 4 4 16 5 13 6 11 7 9 8 5 9 17 10 19 11 20 12
REMARK SMILES IDX 37 13 21 14 36 15 23 16 22 17 24 18 33 19 25 20 31 21 29 22
REMARK SMILES IDX 38 23 34 25 35 26 26 27 27 28 28 29 32 30 30 32 18 34 6 36
REMARK SMILES IDX 7 37 8 38 14 39 15 40 10 41 12 43
REMARK H PARENT 38 24 32 31 30 33 18 35 10 42 12 44
REMARK Flexibility Score: inf
ROOT
ATOM      1  C   UNL     1     -10.800 -39.611  -7.992  1.00  0.00     0.045 C 
ATOM      2  C   UNL     1     -11.244 -38.303  -7.382  1.00  0.00    -0.039 A 
ATOM      3  C   UNL     1     -10.283 -37.390  -6.942  1.00  0.00     0.013 A 
ATOM      4  C   UNL     1     -10.638 -36.173  -6.318  1.00  0.00    -0.006 A 
ATOM      5  C   UNL     1     -12.022 -35.849  -6.181  1.00  0.00     0.039 A 
ATOM      6  C   UNL     1     -12.383 -34.610  -5.574  1.00  0.00     0.072 A 
ATOM      7  C   UNL     1     -11.391 -33.653  -5.292  1.00  0.00     0.169 A 
ATOM      8  C   UNL     1     -10.035 -33.945  -5.520  1.00  0.00     0.162 A 
ATOM      9  C   UNL     1      -9.639 -35.256  -5.867  1.00  0.00     0.008 A 
ATOM     10  C   UNL     1     -12.999 -36.753  -6.699  1.00  0.00     0.132 A 
ATOM     11  C   UNL     1     -12.607 -37.984  -7.266  1.00  0.00     0.031 A 
ENDROOT
BRANCH  11  12
ATOM     12  C   UNL     1     -13.632 -38.923  -7.790  1.00  0.00     0.031 A 
ATOM     13  C   UNL     1     -13.605 -40.284  -7.420  1.00  0.00     0.132 A 
ATOM     14  C   UNL     1     -14.610 -38.459  -8.685  1.00  0.00    -0.039 A 
ATOM     15  C   UNL     1     -14.620 -41.175  -7.874  1.00  0.00     0.039 A 
ATOM     16  C   UNL     1     -15.534 -39.358  -9.221  1.00  0.00     0.013 A 
ATOM     17  C   UNL     1     -14.646 -37.014  -9.120  1.00  0.00     0.045 C 
ATOM     18  C   UNL     1     -15.582 -40.709  -8.824  1.00  0.00    -0.006 A 
ATOM     19  C   UNL     1     -14.672 -42.534  -7.455  1.00  0.00     0.072 A 
ATOM     20  C   UNL     1     -16.543 -41.616  -9.374  1.00  0.00     0.008 A 
ATOM     21  C   UNL     1     -15.475 -43.444  -8.155  1.00  0.00     0.169 A 
ATOM     22  C   UNL     1     -16.359 -43.003  -9.143  1.00  0.00     0.162 A 
BRANCH  13  23
ATOM     23  O   UNL     1     -12.542 -40.765  -6.647  1.00  0.00    -0.507 OA
ATOM     24  H   UNL     1     -12.342 -40.451  -5.706  1.00  0.00     0.293 HD
ENDBRANCH  13  23
BRANCH  19  25
ATOM     25  C   UNL     1     -13.975 -43.045  -6.252  1.00  0.00     0.264 C 
ATOM     26  O   UNL     1     -14.450 -44.005  -5.589  1.00  0.00    -0.298 OA
ENDBRANCH  19  25
BRANCH  20  27
ATOM     27  C   UNL     1     -17.805 -41.169 -10.136  1.00  0.00     0.017 C 
ATOM     28  C   UNL     1     -19.049 -42.042  -9.877  1.00  0.00     0.012 C 
ATOM     29  C   UNL     1     -18.086 -39.667  -9.986  1.00  0.00     0.012 C 
ENDBRANCH  20  27
BRANCH  21  30
ATOM     30  O   UNL     1     -15.403 -44.805  -7.839  1.00  0.00    -0.504 OA
ATOM     31  H   UNL     1     -14.673 -45.413  -8.191  1.00  0.00     0.293 HD
ENDBRANCH  21  30
BRANCH  22  32
ATOM     32  O   UNL     1     -17.050 -43.974  -9.877  1.00  0.00    -0.504 OA
ATOM     33  H   UNL     1     -16.828 -44.224 -10.831  1.00  0.00     0.293 HD
ENDBRANCH  22  32
ENDBRANCH  11  12
BRANCH  10  34
ATOM     34  O   UNL     1     -14.355 -36.408  -6.690  1.00  0.00    -0.507 OA
ATOM     35  H   UNL     1     -14.732 -35.608  -6.199  1.00  0.00     0.293 HD
ENDBRANCH  10  34
BRANCH   9  36
ATOM     36  C   UNL     1      -8.151 -35.643  -5.803  1.00  0.00     0.017 C 
ATOM     37  C   UNL     1      -7.261 -34.482  -6.261  1.00  0.00     0.012 C 
ATOM     38  C   UNL     1      -7.706 -36.181  -4.430  1.00  0.00     0.012 C 
ENDBRANCH   9  36
BRANCH   6  39
ATOM     39  C   UNL     1     -13.771 -34.315  -5.143  1.00  0.00     0.264 C 
ATOM     40  O   UNL     1     -14.220 -33.139  -5.153  1.00  0.00    -0.298 OA
ENDBRANCH   6  39
BRANCH   8  41
ATOM     41  O   UNL     1      -9.064 -32.946  -5.417  1.00  0.00    -0.504 OA
ATOM     42  H   UNL     1      -9.023 -32.269  -4.667  1.00  0.00     0.293 HD
ENDBRANCH   8  41
BRANCH   7  43
ATOM     43  O   UNL     1     -11.777 -32.428  -4.735  1.00  0.00    -0.504 OA
ATOM     44  H   UNL     1     -12.553 -32.315  -4.097  1.00  0.00     0.293 HD
ENDBRANCH   7  43
TORSDOF 11
ENDMDL
MODEL 2
REMARK VINA RESULT:    52.001      0.126      9.476
REMARK INTER + INTRA:          81.138
REMARK INTER:                  76.485
REMARK INTRA:                   4.653
REMARK UNBOUND:                 4.817
REMARK SMILES Cc1cc2c(C(C)C)c(O)c(O)c(C=O)c2c(O)c1-c1c(C)cc2c(C(C)C)c(O)c(O)c(C=O)c2c1O
REMARK SMILES IDX 1 1 2 2 3 3 4 4 16 5 13 6 11 7 9 8 5 9 17 10 19 11 20 12
REMARK SMILES IDX 37 13 21 14 36 15 23 16 22 17 24 18 33 19 25 20 31 21 29 22
REMARK SMILES IDX 38 23 34 25 35 26 26 27 27 28 28 29 32 30 30 32 18 34 6 36
REMARK SMILES IDX 7 37 8 38 14 39 15 40 10 41 12 43
REMARK H PARENT 38 24 32 31 30 33 18 35 10 42 12 44
REMARK Flexibility Score: inf
ROOT
ATOM      1  C   UNL     1     -14.732 -37.096  -9.136  1.00  0.00     0.045 C 
ATOM      2  C   UNL     1     -14.675 -38.539  -8.692  1.00  0.00    -0.039 A 
ATOM      3  C   UNL     1     -15.592 -39.453  -9.211  1.00  0.00     0.013 A 
ATOM      4  C   UNL     1     -15.620 -40.804  -8.796  1.00  0.00    -0.006 A 
ATOM      5  C   UNL     1     -14.644 -41.253  -7.854  1.00  0.00     0.039 A 
ATOM      6  C   UNL     1     -14.654 -42.621  -7.452  1.00  0.00     0.072 A 
ATOM      7  C   UNL     1     -15.487 -43.541  -8.115  1.00  0.00     0.169 A 
ATOM      8  C   UNL     1     -16.378 -43.104  -9.111  1.00  0.00     0.162 A 
ATOM      9  C   UNL     1     -16.572 -41.722  -9.334  1.00  0.00     0.008 A 
ATOM     10  C   UNL     1     -13.663 -40.330  -7.381  1.00  0.00     0.132 A 
ATOM     11  C   UNL     1     -13.703 -38.976  -7.777  1.00  0.00     0.031 A 
ENDROOT
BRANCH  11  12
ATOM     12  C   UNL     1     -12.683 -38.021  -7.269  1.00  0.00     0.031 A 
ATOM     13  C   UNL     1     -13.079 -36.778  -6.734  1.00  0.00     0.132 A 
ATOM     14  C   UNL     1     -11.320 -38.345  -7.356  1.00  0.00    -0.039 A 
ATOM     15  C   UNL     1     -12.110 -35.884  -6.193  1.00  0.00     0.039 A 
ATOM     16  C   UNL     1     -10.364 -37.419  -6.933  1.00  0.00     0.013 A 
ATOM     17  C   UNL     1     -10.866 -39.657  -7.950  1.00  0.00     0.045 C 
ATOM     18  C   UNL     1     -10.721 -36.197  -6.330  1.00  0.00    -0.006 A 
ATOM     19  C   UNL     1     -12.479 -34.659  -5.569  1.00  0.00     0.072 A 
ATOM     20  C   UNL     1      -9.730 -35.263  -5.890  1.00  0.00     0.008 A 
ATOM     21  C   UNL     1     -11.506 -33.677  -5.342  1.00  0.00     0.169 A 
ATOM     22  C   UNL     1     -10.152 -33.951  -5.553  1.00  0.00     0.162 A 
BRANCH  13  23
ATOM     23  O   UNL     1     -14.427 -36.404  -6.787  1.00  0.00    -0.507 OA
ATOM     24  H   UNL     1     -15.026 -36.569  -7.586  1.00  0.00     0.293 HD
ENDBRANCH  13  23
BRANCH  19  25
ATOM     25  C   UNL     1     -13.844 -34.378  -5.065  1.00  0.00     0.264 C 
ATOM     26  O   UNL     1     -14.320 -33.212  -5.108  1.00  0.00    -0.298 OA
ENDBRANCH  19  25
BRANCH  20  27
ATOM     27  C   UNL     1      -8.245 -35.620  -5.689  1.00  0.00     0.017 C 
ATOM     28  C   UNL     1      -7.257 -34.587  -6.267  1.00  0.00     0.012 C 
ATOM     29  C   UNL     1      -7.921 -36.014  -4.240  1.00  0.00     0.012 C 
ENDBRANCH  20  27
BRANCH  21  30
ATOM     30  O   UNL     1     -11.900 -32.419  -4.875  1.00  0.00    -0.504 OA
ATOM     31  H   UNL     1     -11.281 -31.616  -4.871  1.00  0.00     0.293 HD
ENDBRANCH  21  30
BRANCH  22  32
ATOM     32  O   UNL     1      -9.245 -32.895  -5.411  1.00  0.00    -0.504 OA
ATOM     33  H   UNL     1      -8.320 -32.996  -5.015  1.00  0.00     0.293 HD
ENDBRANCH  22  32
ENDBRANCH  11  12
BRANCH  10  34
ATOM     34  O   UNL     1     -12.623 -40.767  -6.553  1.00  0.00    -0.507 OA
ATOM     35  H   UNL     1     -12.761 -41.168  -5.635  1.00  0.00     0.293 HD
ENDBRANCH  10  34
BRANCH   9  36
ATOM     36  C   UNL     1     -17.764 -41.251 -10.187  1.00  0.00     0.017 C 
ATOM     37  C   UNL     1     -18.984 -42.153  -9.973  1.00  0.00     0.012 C 
ATOM     38  C   UNL     1     -18.124 -39.766  -9.988  1.00  0.00     0.012 C 
ENDBRANCH   9  36
BRANCH   6  39
ATOM     39  C   UNL     1     -13.873 -43.108  -6.289  1.00  0.00     0.264 C 
ATOM     40  O   UNL     1     -14.346 -43.971  -5.502  1.00  0.00    -0.298 OA
ENDBRANCH   6  39
BRANCH   8  41
ATOM     41  O   UNL     1     -17.072 -44.025  -9.898  1.00  0.00    -0.504 OA
ATOM     42  H   UNL     1     -17.040 -45.026  -9.762  1.00  0.00     0.293 HD
ENDBRANCH   8  41
BRANCH   7  43
ATOM     43  O   UNL     1     -15.446 -44.886  -7.728  1.00  0.00    -0.504 OA
ATOM     44  H   UNL     1     -15.254 -45.198  -6.787  1.00  0.00     0.293 HD
ENDBRANCH   7  43
TORSDOF 11
ENDMDL
MODEL 3
REMARK VINA RESULT:    52.108      1.732      3.124
REMARK INTER + INTRA:          81.294
REMARK INTER:                  73.502
REMARK INTRA:                   7.792
REMARK UNBOUND:                 4.817
REMARK SMILES Cc1cc2c(C(C)C)c(O)c(O)c(C=O)c2c(O)c1-c1c(C)cc2c(C(C)C)c(O)c(O)c(C=O)c2c1O
REMARK SMILES IDX 1 1 2 2 3 3 4 4 16 5 13 6 11 7 9 8 5 9 17 10 19 11 20 12
REMARK SMILES IDX 37 13 21 14 36 15 23 16 22 17 24 18 33 19 25 20 31 21 29 22
REMARK SMILES IDX 38 23 34 25 35 26 26 27 27 28 28 29 32 30 30 32 18 34 6 36
REMARK SMILES IDX 7 37 8 38 14 39 15 40 10 41 12 43
REMARK H PARENT 38 24 32 31 30 33 18 35 10 42 12 44
REMARK Flexibility Score: inf
ROOT
ATOM      1  C   UNL     1     -10.908 -39.383  -8.054  1.00  0.00     0.045 C 
ATOM      2  C   UNL     1     -11.525 -38.149  -7.439  1.00  0.00    -0.039 A 
ATOM      3  C   UNL     1     -10.698 -37.114  -7.001  1.00  0.00     0.013 A 
ATOM      4  C   UNL     1     -11.214 -35.958  -6.373  1.00  0.00    -0.006 A 
ATOM      5  C   UNL     1     -12.630 -35.828  -6.230  1.00  0.00     0.039 A 
ATOM      6  C   UNL     1     -13.155 -34.651  -5.619  1.00  0.00     0.072 A 
ATOM      7  C   UNL     1     -12.303 -33.567  -5.340  1.00  0.00     0.169 A 
ATOM      8  C   UNL     1     -10.921 -33.670  -5.573  1.00  0.00     0.162 A 
ATOM      9  C   UNL     1     -10.350 -34.913  -5.925  1.00  0.00     0.008 A 
ATOM     10  C   UNL     1     -13.474 -36.857  -6.746  1.00  0.00     0.132 A 
ATOM     11  C   UNL     1     -12.919 -38.022  -7.317  1.00  0.00     0.031 A 
ENDROOT
BRANCH  11  12
ATOM     12  C   UNL     1     -13.807 -39.093  -7.839  1.00  0.00     0.031 A 
ATOM     13  C   UNL     1     -15.035 -38.763  -8.449  1.00  0.00     0.132 A 
ATOM     14  C   UNL     1     -13.437 -40.439  -7.690  1.00  0.00    -0.039 A 
ATOM     15  C   UNL     1     -15.862 -39.783  -9.003  1.00  0.00     0.039 A 
ATOM     16  C   UNL     1     -14.304 -41.443  -8.129  1.00  0.00     0.013 A 
ATOM     17  C   UNL     1     -12.142 -40.822  -7.016  1.00  0.00     0.045 C 
ATOM     18  C   UNL     1     -15.505 -41.153  -8.805  1.00  0.00    -0.006 A 
ATOM     19  C   UNL     1     -17.066 -39.481  -9.700  1.00  0.00     0.072 A 
ATOM     20  C   UNL     1     -16.377 -42.193  -9.258  1.00  0.00     0.008 A 
ATOM     21  C   UNL     1     -17.998 -40.499  -9.944  1.00  0.00     0.169 A 
ATOM     22  C   UNL     1     -17.684 -41.834  -9.675  1.00  0.00     0.162 A 
BRANCH  13  23
ATOM     23  O   UNL     1     -15.461 -37.429  -8.460  1.00  0.00    -0.507 OA
ATOM     24  H   UNL     1     -15.381 -36.818  -9.262  1.00  0.00     0.293 HD
ENDBRANCH  13  23
BRANCH  19  25
ATOM     25  C   UNL     1     -17.372 -38.145 -10.262  1.00  0.00     0.264 C 
ATOM     26  O   UNL     1     -16.620 -37.619 -11.125  1.00  0.00    -0.298 OA
ENDBRANCH  19  25
BRANCH  20  27
ATOM     27  C   UNL     1     -15.955 -43.669  -9.391  1.00  0.00     0.017 C 
ATOM     28  C   UNL     1     -14.514 -43.875  -9.900  1.00  0.00     0.012 C 
ATOM     29  C   UNL     1     -16.269 -44.491  -8.133  1.00  0.00     0.012 C 
ENDBRANCH  20  27
BRANCH  21  30
ATOM     30  O   UNL     1     -19.244 -40.169 -10.488  1.00  0.00    -0.504 OA
ATOM     31  H   UNL     1     -20.121 -40.446 -10.060  1.00  0.00     0.293 HD
ENDBRANCH  21  30
BRANCH  22  32
ATOM     32  O   UNL     1     -18.697 -42.785  -9.841  1.00  0.00    -0.504 OA
ATOM     33  H   UNL     1     -19.276 -42.854 -10.668  1.00  0.00     0.293 HD
ENDBRANCH  22  32
ENDBRANCH  11  12
BRANCH  10  34
ATOM     34  O   UNL     1     -14.865 -36.703  -6.730  1.00  0.00    -0.507 OA
ATOM     35  H   UNL     1     -15.442 -36.683  -7.562  1.00  0.00     0.293 HD
ENDBRANCH  10  34
BRANCH   9  36
ATOM     36  C   UNL     1      -8.822 -35.091  -5.867  1.00  0.00     0.017 C 
ATOM     37  C   UNL     1      -8.103 -33.788  -6.233  1.00  0.00     0.012 C 
ATOM     38  C   UNL     1      -8.311 -35.655  -4.528  1.00  0.00     0.012 C 
ENDBRANCH   9  36
BRANCH   6  39
ATOM     39  C   UNL     1     -14.568 -34.552  -5.182  1.00  0.00     0.264 C 
ATOM     40  O   UNL     1     -15.319 -35.564  -5.169  1.00  0.00    -0.298 OA
ENDBRANCH   6  39
BRANCH   8  41
ATOM     41  O   UNL     1     -10.097 -32.546  -5.473  1.00  0.00    -0.504 OA
ATOM     42  H   UNL     1      -9.230 -32.431  -5.980  1.00  0.00     0.293 HD
ENDBRANCH   8  41
BRANCH   7  43
ATOM     43  O   UNL     1     -12.853 -32.408  -4.778  1.00  0.00    -0.504 OA
ATOM     44  H   UNL     1     -13.227 -32.355  -3.842  1.00  0.00     0.293 HD
ENDBRANCH   7  43
TORSDOF 11
ENDMDL
MODEL 4
REMARK VINA RESULT:    53.330      2.936      5.133
REMARK INTER + INTRA:          83.089
REMARK INTER:                  77.210
REMARK INTRA:                   5.878
REMARK UNBOUND:                 4.817
REMARK SMILES Cc1cc2c(C(C)C)c(O)c(O)c(C=O)c2c(O)c1-c1c(C)cc2c(C(C)C)c(O)c(O)c(C=O)c2c1O
REMARK SMILES IDX 1 1 2 2 3 3 4 4 16 5 13 6 11 7 9 8 5 9 17 10 19 11 20 12
REMARK SMILES IDX 37 13 21 14 36 15 23 16 22 17 24 18 33 19 25 20 31 21 29 22
REMARK SMILES IDX 38 23 34 25 35 26 26 27 27 28 28 29 32 30 30 32 18 34 6 36
REMARK SMILES IDX 7 37 8 38 14 39 15 40 10 41 12 43
REMARK H PARENT 38 24 32 31 30 33 18 35 10 42 12 44
REMARK Flexibility Score: inf
ROOT
ATOM      1  C   UNL     1     -15.019 -42.952 -10.226  1.00  0.00     0.045 C 
ATOM      2  C   UNL     1     -14.347 -41.738  -9.629  1.00  0.00    -0.039 A 
ATOM      3  C   UNL     1     -12.954 -41.647  -9.646  1.00  0.00     0.013 A 
ATOM      4  C   UNL     1     -12.268 -40.561  -9.058  1.00  0.00    -0.006 A 
ATOM      5  C   UNL     1     -13.029 -39.502  -8.476  1.00  0.00     0.039 A 
ATOM      6  C   UNL     1     -12.340 -38.392  -7.904  1.00  0.00     0.072 A 
ATOM      7  C   UNL     1     -10.950 -38.262  -8.083  1.00  0.00     0.169 A 
ATOM      8  C   UNL     1     -10.222 -39.266  -8.744  1.00  0.00     0.162 A 
ATOM      9  C   UNL     1     -10.842 -40.491  -9.079  1.00  0.00     0.008 A 
ATOM     10  C   UNL     1     -14.454 -39.565  -8.526  1.00  0.00     0.132 A 
ATOM     11  C   UNL     1     -15.103 -40.693  -9.072  1.00  0.00     0.031 A 
ENDROOT
BRANCH  11  12
ATOM     12  C   UNL     1     -16.587 -40.754  -9.108  1.00  0.00     0.031 A 
ATOM     13  C   UNL     1     -17.256 -41.960  -8.812  1.00  0.00     0.132 A 
ATOM     14  C   UNL     1     -17.323 -39.616  -9.474  1.00  0.00    -0.039 A 
ATOM     15  C   UNL     1     -18.680 -42.008  -8.789  1.00  0.00     0.039 A 
ATOM     16  C   UNL     1     -18.715 -39.696  -9.565  1.00  0.00     0.013 A 
ATOM     17  C   UNL     1     -16.632 -38.320  -9.824  1.00  0.00     0.045 C 
ATOM     18  C   UNL     1     -19.423 -40.861  -9.210  1.00  0.00    -0.006 A 
ATOM     19  C   UNL     1     -19.389 -43.184  -8.413  1.00  0.00     0.072 A 
ATOM     20  C   UNL     1     -20.850 -40.924  -9.297  1.00  0.00     0.008 A 
ATOM     21  C   UNL     1     -20.755 -43.292  -8.705  1.00  0.00     0.169 A 
ATOM     22  C   UNL     1     -21.469 -42.196  -9.196  1.00  0.00     0.162 A 
BRANCH  13  23
ATOM     23  O   UNL     1     -16.510 -43.124  -8.594  1.00  0.00    -0.507 OA
ATOM     24  H   UNL     1     -16.691 -44.005  -9.059  1.00  0.00     0.293 HD
ENDBRANCH  13  23
BRANCH  19  25
ATOM     25  C   UNL     1     -18.778 -44.297  -7.648  1.00  0.00     0.264 C 
ATOM     26  O   UNL     1     -17.840 -44.979  -8.139  1.00  0.00    -0.298 OA
ENDBRANCH  19  25
BRANCH  20  27
ATOM     27  C   UNL     1     -21.756 -39.684  -9.419  1.00  0.00     0.017 C 
ATOM     28  C   UNL     1     -22.599 -39.636 -10.709  1.00  0.00     0.012 C 
ATOM     29  C   UNL     1     -22.585 -39.430  -8.152  1.00  0.00     0.012 C 
ENDBRANCH  20  27
BRANCH  21  30
ATOM     30  O   UNL     1     -21.409 -44.507  -8.476  1.00  0.00    -0.504 OA
ATOM     31  H   UNL     1     -21.774 -44.773  -7.568  1.00  0.00     0.293 HD
ENDBRANCH  21  30
BRANCH  22  32
ATOM     32  O   UNL     1     -22.802 -42.403  -9.567  1.00  0.00    -0.504 OA
ATOM     33  H   UNL     1     -23.153 -43.271  -9.948  1.00  0.00     0.293 HD
ENDBRANCH  22  32
ENDBRANCH  11  12
BRANCH  10  34
ATOM     34  O   UNL     1     -15.226 -38.488  -8.074  1.00  0.00    -0.507 OA
ATOM     35  H   UNL     1     -15.025 -37.520  -8.286  1.00  0.00     0.293 HD
ENDBRANCH  10  34
BRANCH   9  36
ATOM     36  C   UNL     1      -9.975 -41.690  -9.505  1.00  0.00     0.017 C 
ATOM     37  C   UNL     1      -9.918 -41.811 -11.032  1.00  0.00     0.012 C 
ATOM     38  C   UNL     1      -8.562 -41.687  -8.891  1.00  0.00     0.012 C 
ENDBRANCH   9  36
BRANCH   6  39
ATOM     39  C   UNL     1     -13.022 -37.396  -7.043  1.00  0.00     0.264 C 
ATOM     40  O   UNL     1     -12.424 -36.851  -6.077  1.00  0.00    -0.298 OA
ENDBRANCH   6  39
BRANCH   8  41
ATOM     41  O   UNL     1      -8.882 -39.065  -9.087  1.00  0.00    -0.504 OA
ATOM     42  H   UNL     1      -8.538 -38.249  -9.575  1.00  0.00     0.293 HD
ENDBRANCH   8  41
BRANCH   7  43
ATOM     43  O   UNL     1     -10.305 -37.141  -7.547  1.00  0.00    -0.504 OA
ATOM     44  H   UNL     1     -10.279 -36.919  -6.562  1.00  0.00     0.293 HD
ENDBRANCH   7  43
TORSDOF 11
ENDMDL
MODEL 5
REMARK VINA RESULT:    53.684      2.911      9.637
REMARK INTER + INTRA:          83.608
REMARK INTER:                  77.900
REMARK INTRA:                   5.708
REMARK UNBOUND:                 4.817
REMARK SMILES Cc1cc2c(C(C)C)c(O)c(O)c(C=O)c2c(O)c1-c1c(C)cc2c(C(C)C)c(O)c(O)c(C=O)c2c1O
REMARK SMILES IDX 1 1 2 2 3 3 4 4 16 5 13 6 11 7 9 8 5 9 17 10 19 11 20 12
REMARK SMILES IDX 37 13 21 14 36 15 23 16 22 17 24 18 33 19 25 20 31 21 29 22
REMARK SMILES IDX 38 23 34 25 35 26 26 27 27 28 28 29 32 30 30 32 18 34 6 36
REMARK SMILES IDX 7 37 8 38 14 39 15 40 10 41 12 43
REMARK H PARENT 38 24 32 31 30 33 18 35 10 42 12 44
REMARK Flexibility Score: inf
ROOT
ATOM      1  C   UNL     1     -16.567 -38.315  -9.719  1.00  0.00     0.045 C 
ATOM      2  C   UNL     1     -17.251 -39.623  -9.398  1.00  0.00    -0.039 A 
ATOM      3  C   UNL     1     -18.643 -39.701  -9.456  1.00  0.00     0.013 A 
ATOM      4  C   UNL     1     -19.341 -40.883  -9.117  1.00  0.00    -0.006 A 
ATOM      5  C   UNL     1     -18.591 -42.044  -8.755  1.00  0.00     0.039 A 
ATOM      6  C   UNL     1     -19.292 -43.245  -8.438  1.00  0.00     0.072 A 
ATOM      7  C   UNL     1     -20.678 -43.328  -8.663  1.00  0.00     0.169 A 
ATOM      8  C   UNL     1     -21.394 -42.205  -9.112  1.00  0.00     0.162 A 
ATOM      9  C   UNL     1     -20.767 -40.940  -9.176  1.00  0.00     0.008 A 
ATOM     10  C   UNL     1     -17.165 -41.978  -8.768  1.00  0.00     0.132 A 
ATOM     11  C   UNL     1     -16.506 -40.764  -9.058  1.00  0.00     0.031 A 
ENDROOT
BRANCH  11  12
ATOM     12  C   UNL     1     -15.021 -40.704  -9.056  1.00  0.00     0.031 A 
ATOM     13  C   UNL     1     -14.356 -39.601  -8.482  1.00  0.00     0.132 A 
ATOM     14  C   UNL     1     -14.281 -41.733  -9.661  1.00  0.00    -0.039 A 
ATOM     15  C   UNL     1     -12.932 -39.567  -8.427  1.00  0.00     0.039 A 
ATOM     16  C   UNL     1     -12.888 -41.641  -9.710  1.00  0.00     0.013 A 
ATOM     17  C   UNL     1     -14.968 -42.911 -10.308  1.00  0.00     0.045 C 
ATOM     18  C   UNL     1     -12.185 -40.591  -9.088  1.00  0.00    -0.006 A 
ATOM     19  C   UNL     1     -12.228 -38.512  -7.781  1.00  0.00     0.072 A 
ATOM     20  C   UNL     1     -10.756 -40.518  -9.136  1.00  0.00     0.008 A 
ATOM     21  C   UNL     1     -10.857 -38.347  -8.020  1.00  0.00     0.169 A 
ATOM     22  C   UNL     1     -10.137 -39.306  -8.737  1.00  0.00     0.162 A 
BRANCH  13  23
ATOM     23  O   UNL     1     -15.103 -38.514  -8.015  1.00  0.00    -0.507 OA
ATOM     24  H   UNL     1     -15.520 -38.470  -7.094  1.00  0.00     0.293 HD
ENDBRANCH  13  23
BRANCH  19  25
ATOM     25  C   UNL     1     -12.849 -37.600  -6.792  1.00  0.00     0.264 C 
ATOM     26  O   UNL     1     -12.889 -36.357  -6.996  1.00  0.00    -0.298 OA
ENDBRANCH  19  25
BRANCH  20  27
ATOM     27  C   UNL     1      -9.849 -41.701  -9.524  1.00  0.00     0.017 C 
ATOM     28  C   UNL     1      -9.790 -41.989 -11.037  1.00  0.00     0.012 C 
ATOM     29  C   UNL     1      -8.460 -41.620  -8.874  1.00  0.00     0.012 C 
ENDBRANCH  20  27
BRANCH  21  30
ATOM     30  O   UNL     1     -10.204 -37.219  -7.510  1.00  0.00    -0.504 OA
ATOM     31  H   UNL     1      -9.840 -36.481  -8.101  1.00  0.00     0.293 HD
ENDBRANCH  21  30
BRANCH  22  32
ATOM     32  O   UNL     1      -8.797 -39.026  -9.031  1.00  0.00    -0.504 OA
ATOM     33  H   UNL     1      -8.412 -38.092  -9.073  1.00  0.00     0.293 HD
ENDBRANCH  22  32
ENDBRANCH  11  12
BRANCH  10  34
ATOM     34  O   UNL     1     -16.403 -43.129  -8.537  1.00  0.00    -0.507 OA
ATOM     35  H   UNL     1     -16.786 -44.065  -8.508  1.00  0.00     0.293 HD
ENDBRANCH  10  34
BRANCH   9  36
ATOM     36  C   UNL     1     -21.625 -39.675  -9.358  1.00  0.00     0.017 C 
ATOM     37  C   UNL     1     -22.406 -39.726 -10.675  1.00  0.00     0.012 C 
ATOM     38  C   UNL     1     -22.555 -39.376  -8.167  1.00  0.00     0.012 C 
ENDBRANCH   9  36
BRANCH   6  39
ATOM     39  C   UNL     1     -18.625 -44.401  -7.791  1.00  0.00     0.264 C 
ATOM     40  O   UNL     1     -17.663 -44.993  -8.348  1.00  0.00    -0.298 OA
ENDBRANCH   6  39
BRANCH   8  41
ATOM     41  O   UNL     1     -22.728 -42.324  -9.511  1.00  0.00    -0.504 OA
ATOM     42  H   UNL     1     -23.374 -43.005  -9.136  1.00  0.00     0.293 HD
ENDBRANCH   8  41
BRANCH   7  43
ATOM     43  O   UNL     1     -21.334 -44.533  -8.382  1.00  0.00    -0.504 OA
ATOM     44  H   UNL     1     -20.883 -45.343  -7.981  1.00  0.00     0.293 HD
ENDBRANCH   7  43
TORSDOF 11
ENDMDL
MODEL 6
REMARK VINA RESULT:    54.447      1.899      3.534
REMARK INTER + INTRA:          84.728
REMARK INTER:                  77.304
REMARK INTRA:                   7.424
REMARK UNBOUND:                 4.817
REMARK SMILES Cc1cc2c(C(C)C)c(O)c(O)c(C=O)c2c(O)c1-c1c(C)cc2c(C(C)C)c(O)c(O)c(C=O)c2c1O
REMARK SMILES IDX 1 1 2 2 3 3 4 4 16 5 13 6 11 7 9 8 5 9 17 10 19 11 20 12
REMARK SMILES IDX 37 13 21 14 36 15 23 16 22 17 24 18 33 19 25 20 31 21 29 22
REMARK SMILES IDX 38 23 34 25 35 26 26 27 27 28 28 29 32 30 30 32 18 34 6 36
REMARK SMILES IDX 7 37 8 38 14 39 15 40 10 41 12 43
REMARK H PARENT 38 24 32 31 30 33 18 35 10 42 12 44
REMARK Flexibility Score: inf
ROOT
ATOM      1  C   UNL     1     -16.315 -36.827  -6.830  1.00  0.00     0.045 C 
ATOM      2  C   UNL     1     -14.864 -37.183  -7.057  1.00  0.00    -0.039 A 
ATOM      3  C   UNL     1     -13.867 -36.393  -6.484  1.00  0.00     0.013 A 
ATOM      4  C   UNL     1     -12.494 -36.646  -6.702  1.00  0.00    -0.006 A 
ATOM      5  C   UNL     1     -12.121 -37.777  -7.491  1.00  0.00     0.039 A 
ATOM      6  C   UNL     1     -10.735 -38.050  -7.691  1.00  0.00     0.072 A 
ATOM      7  C   UNL     1      -9.767 -37.329  -6.969  1.00  0.00     0.169 A 
ATOM      8  C   UNL     1     -10.151 -36.278  -6.119  1.00  0.00     0.162 A 
ATOM      9  C   UNL     1     -11.488 -35.821  -6.112  1.00  0.00     0.008 A 
ATOM     10  C   UNL     1     -13.145 -38.624  -8.013  1.00  0.00     0.132 A 
ATOM     11  C   UNL     1     -14.506 -38.306  -7.820  1.00  0.00     0.031 A 
ENDROOT
BRANCH  11  12
ATOM     12  C   UNL     1     -15.564 -39.188  -8.379  1.00  0.00     0.031 A 
ATOM     13  C   UNL     1     -15.367 -40.583  -8.440  1.00  0.00     0.132 A 
ATOM     14  C   UNL     1     -16.747 -38.624  -8.881  1.00  0.00    -0.039 A 
ATOM     15  C   UNL     1     -16.402 -41.437  -8.921  1.00  0.00     0.039 A 
ATOM     16  C   UNL     1     -17.712 -39.451  -9.460  1.00  0.00     0.013 A 
ATOM     17  C   UNL     1     -16.972 -37.131  -8.855  1.00  0.00     0.045 C 
ATOM     18  C   UNL     1     -17.583 -40.854  -9.477  1.00  0.00    -0.006 A 
ATOM     19  C   UNL     1     -16.272 -42.854  -8.919  1.00  0.00     0.072 A 
ATOM     20  C   UNL     1     -18.586 -41.689 -10.064  1.00  0.00     0.008 A 
ATOM     21  C   UNL     1     -17.155 -43.632  -9.679  1.00  0.00     0.169 A 
ATOM     22  C   UNL     1     -18.268 -43.052 -10.294  1.00  0.00     0.162 A 
BRANCH  13  23
ATOM     23  O   UNL     1     -14.127 -41.119  -8.074  1.00  0.00    -0.507 OA
ATOM     24  H   UNL     1     -13.244 -40.817  -8.466  1.00  0.00     0.293 HD
ENDBRANCH  13  23
BRANCH  19  25
ATOM     25  C   UNL     1     -15.286 -43.583  -8.086  1.00  0.00     0.264 C 
ATOM     26  O   UNL     1     -15.494 -43.775  -6.859  1.00  0.00    -0.298 OA
ENDBRANCH  19  25
BRANCH  20  27
ATOM     27  C   UNL     1     -20.015 -41.214 -10.389  1.00  0.00     0.017 C 
ATOM     28  C   UNL     1     -21.123 -41.942  -9.604  1.00  0.00     0.012 C 
ATOM     29  C   UNL     1     -20.154 -39.685 -10.345  1.00  0.00     0.012 C 
ENDBRANCH  20  27
BRANCH  21  30
ATOM     30  O   UNL     1     -16.927 -45.007  -9.798  1.00  0.00    -0.504 OA
ATOM     31  H   UNL     1     -16.360 -45.529  -9.140  1.00  0.00     0.293 HD
ENDBRANCH  21  30
BRANCH  22  32
ATOM     32  O   UNL     1     -19.048 -43.865 -11.125  1.00  0.00    -0.504 OA
ATOM     33  H   UNL     1     -19.922 -43.572 -11.541  1.00  0.00     0.293 HD
ENDBRANCH  22  32
ENDBRANCH  11  12
BRANCH  10  34
ATOM     34  O   UNL     1     -12.810 -39.805  -8.686  1.00  0.00    -0.507 OA
ATOM     35  H   UNL     1     -12.564 -40.670  -8.223  1.00  0.00     0.293 HD
ENDBRANCH  10  34
BRANCH   9  36
ATOM     36  C   UNL     1     -11.831 -34.483  -5.431  1.00  0.00     0.017 C 
ATOM     37  C   UNL     1     -10.563 -33.669  -5.150  1.00  0.00     0.012 C 
ATOM     38  C   UNL     1     -12.876 -33.646  -6.193  1.00  0.00     0.012 C 
ENDBRANCH   9  36
BRANCH   6  39
ATOM     39  C   UNL     1     -10.261 -39.020  -8.707  1.00  0.00     0.264 C 
ATOM     40  O   UNL     1     -10.428 -38.809  -9.938  1.00  0.00    -0.298 OA
ENDBRANCH   6  39
BRANCH   8  41
ATOM     41  O   UNL     1      -9.223 -35.679  -5.264  1.00  0.00    -0.504 OA
ATOM     42  H   UNL     1      -8.354 -36.110  -4.978  1.00  0.00     0.293 HD
ENDBRANCH   8  41
BRANCH   7  43
ATOM     43  O   UNL     1      -8.416 -37.646  -7.154  1.00  0.00    -0.504 OA
ATOM     44  H   UNL     1      -7.687 -37.429  -6.489  1.00  0.00     0.293 HD
ENDBRANCH   7  43
TORSDOF 11
ENDMDL
