MODEL 1
REMARK VINA RESULT:    -4.427      0.000      0.000
REMARK INTER + INTRA:          -5.856
REMARK INTER:                  -5.462
REMARK INTRA:                  -0.394
REMARK UNBOUND:                -0.394
REMARK SMILES CCCCC=CC(C)=O
REMARK SMILES IDX 4 1 3 2 2 3 1 4 5 5 6 6 7 7 9 8 8 9
REMARK H PARENT
REMARK Flexibility Score: inf
ROOT
ATOM      1  C   UNL     1      -2.447 -13.581  -8.614  1.00  0.00     0.027 C 
ENDROOT
BRANCH   1   2
ATOM      2  C   UNL     1      -3.136 -12.302  -8.107  1.00  0.00     0.004 C 
BRANCH   2   3
ATOM      3  C   UNL     1      -4.352 -11.870  -8.947  1.00  0.00    -0.003 C 
ATOM      4  C   UNL     1      -5.604 -11.632  -8.104  1.00  0.00     0.004 C 
ENDBRANCH   2   3
ENDBRANCH   1   2
BRANCH   1   5
ATOM      5  C   UNL     1      -3.429 -14.629  -9.069  1.00  0.00    -0.023 C 
ATOM      6  C   UNL     1      -4.208 -15.380  -8.273  1.00  0.00     0.042 C 
BRANCH   6   7
ATOM      7  C   UNL     1      -4.217 -15.377  -6.793  1.00  0.00     0.152 C 
ATOM      8  O   UNL     1      -5.048 -14.692  -6.138  1.00  0.00    -0.295 OA
ATOM      9  C   UNL     1      -3.165 -16.140  -6.054  1.00  0.00     0.093 C 
ENDBRANCH   6   7
ENDBRANCH   1   5
TORSDOF 4
ENDMDL
MODEL 2
REMARK VINA RESULT:    -4.419      1.326      3.171
REMARK INTER + INTRA:          -5.847
REMARK INTER:                  -5.369
REMARK INTRA:                  -0.478
REMARK UNBOUND:                -0.394
REMARK SMILES CCCCC=CC(C)=O
REMARK SMILES IDX 4 1 3 2 2 3 1 4 5 5 6 6 7 7 9 8 8 9
REMARK H PARENT
REMARK Flexibility Score: inf
ROOT
ATOM      1  C   UNL     1      -3.037 -13.614  -9.102  1.00  0.00     0.027 C 
ENDROOT
BRANCH   1   2
ATOM      2  C   UNL     1      -1.919 -14.334  -8.326  1.00  0.00     0.004 C 
BRANCH   2   3
ATOM      3  C   UNL     1      -2.020 -14.182  -6.797  1.00  0.00    -0.003 C 
ATOM      4  C   UNL     1      -2.485 -15.461  -6.101  1.00  0.00     0.004 C 
ENDBRANCH   2   3
ENDBRANCH   1   2
BRANCH   1   5
ATOM      5  C   UNL     1      -4.325 -14.395  -9.125  1.00  0.00    -0.023 C 
ATOM      6  C   UNL     1      -5.394 -14.177  -8.342  1.00  0.00     0.042 C 
BRANCH   6   7
ATOM      7  C   UNL     1      -5.504 -13.171  -7.261  1.00  0.00     0.152 C 
ATOM      8  O   UNL     1      -5.482 -13.503  -6.046  1.00  0.00    -0.295 OA
ATOM      9  C   UNL     1      -5.727 -11.737  -7.617  1.00  0.00     0.093 C 
ENDBRANCH   6   7
ENDBRANCH   1   5
TORSDOF 4
ENDMDL
MODEL 3
REMARK VINA RESULT:    -4.396      1.208      1.674
REMARK INTER + INTRA:          -5.818
REMARK INTER:                  -5.456
REMARK INTRA:                  -0.362
REMARK UNBOUND:                -0.394
REMARK SMILES CCCCC=CC(C)=O
REMARK SMILES IDX 4 1 3 2 2 3 1 4 5 5 6 6 7 7 9 8 8 9
REMARK H PARENT
REMARK Flexibility Score: inf
ROOT
ATOM      1  C   UNL     1      -4.797 -15.035  -9.119  1.00  0.00     0.027 C 
ENDROOT
BRANCH   1   2
ATOM      2  C   UNL     1      -5.761 -13.867  -8.840  1.00  0.00     0.004 C 
BRANCH   2   3
ATOM      3  C   UNL     1      -5.090 -12.482  -8.864  1.00  0.00    -0.003 C 
ATOM      4  C   UNL     1      -5.568 -11.569  -7.736  1.00  0.00     0.004 C 
ENDBRANCH   2   3
ENDBRANCH   1   2
BRANCH   1   5
ATOM      5  C   UNL     1      -3.360 -14.682  -8.838  1.00  0.00    -0.023 C 
ATOM      6  C   UNL     1      -2.747 -14.758  -7.646  1.00  0.00     0.042 C 
BRANCH   6   7
ATOM      7  C   UNL     1      -3.369 -15.140  -6.358  1.00  0.00     0.152 C 
ATOM      8  O   UNL     1      -3.775 -14.274  -5.538  1.00  0.00    -0.295 OA
ATOM      9  C   UNL     1      -3.446 -16.585  -5.984  1.00  0.00     0.093 C 
ENDBRANCH   6   7
ENDBRANCH   1   5
TORSDOF 4
ENDMDL
MODEL 4
REMARK VINA RESULT:    -4.382      1.661      3.795
REMARK INTER + INTRA:          -5.800
REMARK INTER:                  -5.275
REMARK INTRA:                  -0.525
REMARK UNBOUND:                -0.394
REMARK SMILES CCCCC=CC(C)=O
REMARK SMILES IDX 4 1 3 2 2 3 1 4 5 5 6 6 7 7 9 8 8 9
REMARK H PARENT
REMARK Flexibility Score: inf
ROOT
ATOM      1  C   UNL     1      -4.861 -14.753  -6.898  1.00  0.00     0.027 C 
ENDROOT
BRANCH   1   2
ATOM      2  C   UNL     1      -3.527 -15.490  -7.117  1.00  0.00     0.004 C 
BRANCH   2   3
ATOM      3  C   UNL     1      -2.299 -14.563  -7.162  1.00  0.00    -0.003 C 
ATOM      4  C   UNL     1      -1.842 -14.246  -8.586  1.00  0.00     0.004 C 
ENDBRANCH   2   3
ENDBRANCH   1   2
BRANCH   1   5
ATOM      5  C   UNL     1      -5.600 -14.494  -8.185  1.00  0.00    -0.023 C 
ATOM      6  C   UNL     1      -5.705 -13.310  -8.810  1.00  0.00     0.042 C 
BRANCH   6   7
ATOM      7  C   UNL     1      -5.174 -12.013  -8.335  1.00  0.00     0.152 C 
ATOM      8  O   UNL     1      -5.694 -11.403  -7.362  1.00  0.00    -0.295 OA
ATOM      9  C   UNL     1      -4.045 -11.370  -9.074  1.00  0.00     0.093 C 
ENDBRANCH   6   7
ENDBRANCH   1   5
TORSDOF 4
ENDMDL
MODEL 5
REMARK VINA RESULT:    -4.291      1.202      2.019
REMARK INTER + INTRA:          -5.688
REMARK INTER:                  -5.215
REMARK INTRA:                  -0.474
REMARK UNBOUND:                -0.394
REMARK SMILES CCCCC=CC(C)=O
REMARK SMILES IDX 4 1 3 2 2 3 1 4 5 5 6 6 7 7 9 8 8 9
REMARK H PARENT
REMARK Flexibility Score: inf
ROOT
ATOM      1  C   UNL     1      -5.634 -12.998  -7.262  1.00  0.00     0.027 C 
ENDROOT
BRANCH   1   2
ATOM      2  C   UNL     1      -5.542 -11.683  -8.058  1.00  0.00     0.004 C 
BRANCH   2   3
ATOM      3  C   UNL     1      -4.320 -11.600  -8.990  1.00  0.00    -0.003 C 
ATOM      4  C   UNL     1      -2.998 -11.485  -8.231  1.00  0.00     0.004 C 
ENDBRANCH   2   3
ENDBRANCH   1   2
BRANCH   1   5
ATOM      5  C   UNL     1      -5.450 -14.216  -8.128  1.00  0.00    -0.023 C 
ATOM      6  C   UNL     1      -4.617 -15.241  -7.882  1.00  0.00     0.042 C 
BRANCH   6   7
ATOM      7  C   UNL     1      -3.670 -15.354  -6.750  1.00  0.00     0.152 C 
ATOM      8  O   UNL     1      -4.043 -15.750  -5.614  1.00  0.00    -0.295 OA
ATOM      9  C   UNL     1      -2.254 -14.912  -6.935  1.00  0.00     0.093 C 
ENDBRANCH   6   7
ENDBRANCH   1   5
TORSDOF 4
ENDMDL
MODEL 6
REMARK VINA RESULT:    -4.263      1.717      2.682
REMARK INTER + INTRA:          -5.654
REMARK INTER:                  -5.199
REMARK INTRA:                  -0.455
REMARK UNBOUND:                -0.394
REMARK SMILES CCCCC=CC(C)=O
REMARK SMILES IDX 4 1 3 2 2 3 1 4 5 5 6 6 7 7 9 8 8 9
REMARK H PARENT
REMARK Flexibility Score: inf
ROOT
ATOM      1  C   UNL     1      -5.224 -14.372  -6.873  1.00  0.00     0.027 C 
ENDROOT
BRANCH   1   2
ATOM      2  C   UNL     1      -5.605 -14.064  -8.332  1.00  0.00     0.004 C 
BRANCH   2   3
ATOM      3  C   UNL     1      -5.326 -12.612  -8.760  1.00  0.00    -0.003 C 
ATOM      4  C   UNL     1      -5.634 -11.597  -7.660  1.00  0.00     0.004 C 
ENDBRANCH   2   3
ENDBRANCH   1   2
BRANCH   1   5
ATOM      5  C   UNL     1      -4.243 -15.509  -6.755  1.00  0.00    -0.023 C 
ATOM      6  C   UNL     1      -2.921 -15.436  -6.979  1.00  0.00     0.042 C 
BRANCH   6   7
ATOM      7  C   UNL     1      -2.170 -14.248  -7.444  1.00  0.00     0.152 C 
ATOM      8  O   UNL     1      -1.846 -13.321  -6.655  1.00  0.00    -0.295 OA
ATOM      9  C   UNL     1      -1.858 -14.104  -8.899  1.00  0.00     0.093 C 
ENDBRANCH   6   7
ENDBRANCH   1   5
TORSDOF 4
ENDMDL
MODEL 7
REMARK VINA RESULT:    -4.243      1.613      3.711
REMARK INTER + INTRA:          -5.629
REMARK INTER:                  -5.211
REMARK INTRA:                  -0.419
REMARK UNBOUND:                -0.394
REMARK SMILES CCCCC=CC(C)=O
REMARK SMILES IDX 4 1 3 2 2 3 1 4 5 5 6 6 7 7 9 8 8 9
REMARK H PARENT
REMARK Flexibility Score: inf
ROOT
ATOM      1  C   UNL     1      -2.568 -12.726  -7.291  1.00  0.00     0.027 C 
ENDROOT
BRANCH   1   2
ATOM      2  C   UNL     1      -1.985 -14.111  -7.627  1.00  0.00     0.004 C 
BRANCH   2   3
ATOM      3  C   UNL     1      -2.535 -15.252  -6.753  1.00  0.00    -0.003 C 
ATOM      4  C   UNL     1      -3.938 -15.696  -7.165  1.00  0.00     0.004 C 
ENDBRANCH   2   3
ENDBRANCH   1   2
BRANCH   1   5
ATOM      5  C   UNL     1      -2.923 -11.931  -8.521  1.00  0.00    -0.023 C 
ATOM      6  C   UNL     1      -4.160 -11.563  -8.893  1.00  0.00     0.042 C 
BRANCH   6   7
ATOM      7  C   UNL     1      -5.426 -11.914  -8.210  1.00  0.00     0.152 C 
ATOM      8  O   UNL     1      -5.839 -11.266  -7.211  1.00  0.00    -0.295 OA
ATOM      9  C   UNL     1      -6.193 -13.114  -8.663  1.00  0.00     0.093 C 
ENDBRANCH   6   7
ENDBRANCH   1   5
TORSDOF 4
ENDMDL
MODEL 8
REMARK VINA RESULT:    -4.177      1.578      2.965
REMARK INTER + INTRA:          -5.548
REMARK INTER:                  -4.971
REMARK INTRA:                  -0.577
REMARK UNBOUND:                -0.394
REMARK SMILES CCCCC=CC(C)=O
REMARK SMILES IDX 4 1 3 2 2 3 1 4 5 5 6 6 7 7 9 8 8 9
REMARK H PARENT
REMARK Flexibility Score: inf
ROOT
ATOM      1  C   UNL     1      -3.452 -11.971  -8.578  1.00  0.00     0.027 C 
ENDROOT
BRANCH   1   2
ATOM      2  C   UNL     1      -2.691 -12.137  -7.250  1.00  0.00     0.004 C 
BRANCH   2   3
ATOM      3  C   UNL     1      -1.999 -13.503  -7.091  1.00  0.00    -0.003 C 
ATOM      4  C   UNL     1      -1.872 -14.264  -8.410  1.00  0.00     0.004 C 
ENDBRANCH   2   3
ENDBRANCH   1   2
BRANCH   1   5
ATOM      5  C   UNL     1      -4.928 -11.751  -8.377  1.00  0.00    -0.023 C 
ATOM      6  C   UNL     1      -5.830 -12.693  -8.055  1.00  0.00     0.042 C 
BRANCH   6   7
ATOM      7  C   UNL     1      -5.571 -14.141  -7.893  1.00  0.00     0.152 C 
ATOM      8  O   UNL     1      -5.349 -14.650  -6.762  1.00  0.00    -0.295 OA
ATOM      9  C   UNL     1      -5.492 -15.010  -9.107  1.00  0.00     0.093 C 
ENDBRANCH   6   7
ENDBRANCH   1   5
TORSDOF 4
ENDMDL
MODEL 9
REMARK VINA RESULT:    -3.973      1.418      3.915
REMARK INTER + INTRA:          -5.296
REMARK INTER:                  -4.954
REMARK INTRA:                  -0.343
REMARK UNBOUND:                -0.394
REMARK SMILES CCCCC=CC(C)=O
REMARK SMILES IDX 4 1 3 2 2 3 1 4 5 5 6 6 7 7 9 8 8 9
REMARK H PARENT
REMARK Flexibility Score: inf
ROOT
ATOM      1  C   UNL     1      -2.296 -14.226  -6.809  1.00  0.00     0.027 C 
ENDROOT
BRANCH   1   2
ATOM      2  C   UNL     1      -2.423 -15.527  -5.996  1.00  0.00     0.004 C 
BRANCH   2   3
ATOM      3  C   UNL     1      -3.708 -16.323  -6.283  1.00  0.00    -0.003 C 
ATOM      4  C   UNL     1      -3.616 -17.784  -5.843  1.00  0.00     0.004 C 
ENDBRANCH   2   3
ENDBRANCH   1   2
BRANCH   1   5
ATOM      5  C   UNL     1      -2.328 -14.464  -8.296  1.00  0.00    -0.023 C 
ATOM      6  C   UNL     1      -3.336 -14.146  -9.125  1.00  0.00     0.042 C 
BRANCH   6   7
ATOM      7  C   UNL     1      -4.639 -13.556  -8.742  1.00  0.00     0.152 C 
ATOM      8  O   UNL     1      -5.638 -14.277  -8.478  1.00  0.00    -0.295 OA
ATOM      9  C   UNL     1      -4.797 -12.070  -8.745  1.00  0.00     0.093 C 
ENDBRANCH   6   7
ENDBRANCH   1   5
TORSDOF 4
ENDMDL
