MODEL 1
REMARK VINA RESULT:    -4.745      0.000      0.000
REMARK INTER + INTRA:          -6.025
REMARK INTER:                  -5.855
REMARK INTRA:                  -0.170
REMARK UNBOUND:                -0.170
REMARK SMILES CCCCC=CC(C)=O
REMARK SMILES IDX 4 1 3 2 2 3 1 4 5 5 6 6 7 7 9 8 8 9
REMARK H PARENT
REMARK Flexibility Score: inf
ROOT
ATOM      1  C   UNL     1       6.973  20.885   5.691  1.00  0.00     0.027 C 
ENDROOT
BRANCH   1   2
ATOM      2  C   UNL     1       6.591  21.295   7.121  1.00  0.00     0.004 C 
BRANCH   2   3
ATOM      3  C   UNL     1       6.128  20.104   7.972  1.00  0.00    -0.003 C 
ATOM      4  C   UNL     1       6.368  18.760   7.286  1.00  0.00     0.004 C 
ENDBRANCH   2   3
ENDBRANCH   1   2
BRANCH   1   5
ATOM      5  C   UNL     1       5.898  21.260   4.713  1.00  0.00    -0.023 C 
ATOM      6  C   UNL     1       5.880  20.764   3.470  1.00  0.00     0.042 C 
BRANCH   6   7
ATOM      7  C   UNL     1       4.837  21.095   2.477  1.00  0.00     0.152 C 
ATOM      8  O   UNL     1       4.025  22.021   2.742  1.00  0.00    -0.295 OA
ATOM      9  C   UNL     1       4.712  20.371   1.171  1.00  0.00     0.093 C 
ENDBRANCH   6   7
ENDBRANCH   1   5
TORSDOF 4
ENDMDL
MODEL 2
REMARK VINA RESULT:    -4.696      2.935      4.189
REMARK INTER + INTRA:          -5.964
REMARK INTER:                  -5.713
REMARK INTRA:                  -0.252
REMARK UNBOUND:                -0.170
REMARK SMILES CCCCC=CC(C)=O
REMARK SMILES IDX 4 1 3 2 2 3 1 4 5 5 6 6 7 7 9 8 8 9
REMARK H PARENT
REMARK Flexibility Score: inf
ROOT
ATOM      1  C   UNL     1       6.227  18.805   7.009  1.00  0.00     0.027 C 
ENDROOT
BRANCH   1   2
ATOM      2  C   UNL     1       6.169  20.118   7.804  1.00  0.00     0.004 C 
BRANCH   2   3
ATOM      3  C   UNL     1       6.820  21.290   7.054  1.00  0.00    -0.003 C 
ATOM      4  C   UNL     1       6.562  21.244   5.548  1.00  0.00     0.004 C 
ENDBRANCH   2   3
ENDBRANCH   1   2
BRANCH   1   5
ATOM      5  C   UNL     1       4.849  18.302   6.692  1.00  0.00    -0.023 C 
ATOM      6  C   UNL     1       3.759  19.020   6.989  1.00  0.00     0.042 C 
BRANCH   6   7
ATOM      7  C   UNL     1       2.384  18.572   6.687  1.00  0.00     0.152 C 
ATOM      8  O   UNL     1       1.458  19.426   6.683  1.00  0.00    -0.295 OA
ATOM      9  C   UNL     1       2.052  17.141   6.386  1.00  0.00     0.093 C 
ENDBRANCH   6   7
ENDBRANCH   1   5
TORSDOF 4
ENDMDL
MODEL 3
REMARK VINA RESULT:    -4.626      3.185      3.769
REMARK INTER + INTRA:          -5.878
REMARK INTER:                  -5.598
REMARK INTRA:                  -0.279
REMARK UNBOUND:                -0.170
REMARK SMILES CCCCC=CC(C)=O
REMARK SMILES IDX 4 1 3 2 2 3 1 4 5 5 6 6 7 7 9 8 8 9
REMARK H PARENT
REMARK Flexibility Score: inf
ROOT
ATOM      1  C   UNL     1       6.571  21.110   7.021  1.00  0.00     0.027 C 
ENDROOT
BRANCH   1   2
ATOM      2  C   UNL     1       6.193  20.027   8.043  1.00  0.00     0.004 C 
BRANCH   2   3
ATOM      3  C   UNL     1       6.199  18.616   7.436  1.00  0.00    -0.003 C 
ATOM      4  C   UNL     1       6.500  18.620   5.937  1.00  0.00     0.004 C 
ENDBRANCH   2   3
ENDBRANCH   1   2
BRANCH   1   5
ATOM      5  C   UNL     1       5.446  22.083   6.821  1.00  0.00    -0.023 C 
ATOM      6  C   UNL     1       4.185  21.767   7.142  1.00  0.00     0.042 C 
BRANCH   6   7
ATOM      7  C   UNL     1       3.047  22.694   6.973  1.00  0.00     0.152 C 
ATOM      8  O   UNL     1       1.878  22.242   7.092  1.00  0.00    -0.295 OA
ATOM      9  C   UNL     1       3.236  24.150   6.667  1.00  0.00     0.093 C 
ENDBRANCH   6   7
ENDBRANCH   1   5
TORSDOF 4
ENDMDL
MODEL 4
REMARK VINA RESULT:    -4.468      2.106      5.347
REMARK INTER + INTRA:          -5.682
REMARK INTER:                  -5.584
REMARK INTRA:                  -0.099
REMARK UNBOUND:                -0.170
REMARK SMILES CCCCC=CC(C)=O
REMARK SMILES IDX 4 1 3 2 2 3 1 4 5 5 6 6 7 7 9 8 8 9
REMARK H PARENT
REMARK Flexibility Score: inf
ROOT
ATOM      1  C   UNL     1       5.654  21.183   2.576  1.00  0.00     0.027 C 
ENDROOT
BRANCH   1   2
ATOM      2  C   UNL     1       4.358  20.785   1.852  1.00  0.00     0.004 C 
BRANCH   2   3
ATOM      3  C   UNL     1       4.623  20.030   0.542  1.00  0.00    -0.003 C 
ATOM      4  C   UNL     1       3.393  19.278   0.035  1.00  0.00     0.004 C 
ENDBRANCH   2   3
ENDBRANCH   1   2
BRANCH   1   5
ATOM      5  C   UNL     1       5.619  20.765   4.017  1.00  0.00    -0.023 C 
ATOM      6  C   UNL     1       6.667  20.964   4.827  1.00  0.00     0.042 C 
BRANCH   6   7
ATOM      7  C   UNL     1       6.676  20.581   6.254  1.00  0.00     0.152 C 
ATOM      8  O   UNL     1       6.937  19.386   6.555  1.00  0.00    -0.295 OA
ATOM      9  C   UNL     1       6.385  21.560   7.351  1.00  0.00     0.093 C 
ENDBRANCH   6   7
ENDBRANCH   1   5
TORSDOF 4
ENDMDL
MODEL 5
REMARK VINA RESULT:    -4.247      3.310      4.293
REMARK INTER + INTRA:          -5.410
REMARK INTER:                  -5.142
REMARK INTRA:                  -0.268
REMARK UNBOUND:                -0.170
REMARK SMILES CCCCC=CC(C)=O
REMARK SMILES IDX 4 1 3 2 2 3 1 4 5 5 6 6 7 7 9 8 8 9
REMARK H PARENT
REMARK Flexibility Score: inf
ROOT
ATOM      1  C   UNL     1       5.056  18.444   6.674  1.00  0.00     0.027 C 
ENDROOT
BRANCH   1   2
ATOM      2  C   UNL     1       6.215  19.105   7.437  1.00  0.00     0.004 C 
BRANCH   2   3
ATOM      3  C   UNL     1       6.789  20.323   6.698  1.00  0.00    -0.003 C 
ATOM      4  C   UNL     1       6.579  21.629   7.463  1.00  0.00     0.004 C 
ENDBRANCH   2   3
ENDBRANCH   1   2
BRANCH   1   5
ATOM      5  C   UNL     1       3.945  19.422   6.424  1.00  0.00    -0.023 C 
ATOM      6  C   UNL     1       3.250  19.961   7.433  1.00  0.00     0.042 C 
BRANCH   6   7
ATOM      7  C   UNL     1       2.156  20.935   7.237  1.00  0.00     0.152 C 
ATOM      8  O   UNL     1       0.986  20.501   7.067  1.00  0.00    -0.295 OA
ATOM      9  C   UNL     1       2.390  22.416   7.231  1.00  0.00     0.093 C 
ENDBRANCH   6   7
ENDBRANCH   1   5
TORSDOF 4
ENDMDL
MODEL 6
REMARK VINA RESULT:    -4.218      1.181      1.516
REMARK INTER + INTRA:          -5.374
REMARK INTER:                  -5.153
REMARK INTRA:                  -0.221
REMARK UNBOUND:                -0.170
REMARK SMILES CCCCC=CC(C)=O
REMARK SMILES IDX 4 1 3 2 2 3 1 4 5 5 6 6 7 7 9 8 8 9
REMARK H PARENT
REMARK Flexibility Score: inf
ROOT
ATOM      1  C   UNL     1       5.101  21.783   7.069  1.00  0.00     0.027 C 
ENDROOT
BRANCH   1   2
ATOM      2  C   UNL     1       6.502  21.292   7.464  1.00  0.00     0.004 C 
BRANCH   2   3
ATOM      3  C   UNL     1       6.887  19.981   6.762  1.00  0.00    -0.003 C 
ATOM      4  C   UNL     1       6.230  18.756   7.399  1.00  0.00     0.004 C 
ENDBRANCH   2   3
ENDBRANCH   1   2
BRANCH   1   5
ATOM      5  C   UNL     1       4.999  21.996   5.586  1.00  0.00    -0.023 C 
ATOM      6  C   UNL     1       4.182  21.253   4.829  1.00  0.00     0.042 C 
BRANCH   6   7
ATOM      7  C   UNL     1       4.040  21.433   3.370  1.00  0.00     0.152 C 
ATOM      8  O   UNL     1       2.934  21.830   2.916  1.00  0.00    -0.295 OA
ATOM      9  C   UNL     1       5.162  21.159   2.413  1.00  0.00     0.093 C 
ENDBRANCH   6   7
ENDBRANCH   1   5
TORSDOF 4
ENDMDL
MODEL 7
REMARK VINA RESULT:    -4.047      3.130      3.591
REMARK INTER + INTRA:          -5.164
REMARK INTER:                  -4.934
REMARK INTRA:                  -0.229
REMARK UNBOUND:                -0.170
REMARK SMILES CCCCC=CC(C)=O
REMARK SMILES IDX 4 1 3 2 2 3 1 4 5 5 6 6 7 7 9 8 8 9
REMARK H PARENT
REMARK Flexibility Score: inf
ROOT
ATOM      1  C   UNL     1       4.631  20.712   7.811  1.00  0.00     0.027 C 
ENDROOT
BRANCH   1   2
ATOM      2  C   UNL     1       6.144  20.961   7.723  1.00  0.00     0.004 C 
BRANCH   2   3
ATOM      3  C   UNL     1       6.826  20.078   6.668  1.00  0.00    -0.003 C 
ATOM      4  C   UNL     1       6.502  18.594   6.840  1.00  0.00     0.004 C 
ENDBRANCH   2   3
ENDBRANCH   1   2
BRANCH   1   5
ATOM      5  C   UNL     1       3.871  21.689   6.961  1.00  0.00    -0.023 C 
ATOM      6  C   UNL     1       4.220  22.980   6.899  1.00  0.00     0.042 C 
BRANCH   6   7
ATOM      7  C   UNL     1       3.510  23.974   6.069  1.00  0.00     0.152 C 
ATOM      8  O   UNL     1       3.510  25.178   6.439  1.00  0.00    -0.295 OA
ATOM      9  C   UNL     1       2.792  23.602   4.806  1.00  0.00     0.093 C 
ENDBRANCH   6   7
ENDBRANCH   1   5
TORSDOF 4
ENDMDL
MODEL 8
REMARK VINA RESULT:    -3.718     13.238     15.789
REMARK INTER + INTRA:          -4.758
REMARK INTER:                  -4.654
REMARK INTRA:                  -0.104
REMARK UNBOUND:                -0.170
REMARK SMILES CCCCC=CC(C)=O
REMARK SMILES IDX 4 1 3 2 2 3 1 4 5 5 6 6 7 7 9 8 8 9
REMARK H PARENT
REMARK Flexibility Score: inf
ROOT
ATOM      1  C   UNL     1       3.416  10.071  14.666  1.00  0.00     0.027 C 
ENDROOT
BRANCH   1   2
ATOM      2  C   UNL     1       3.953   9.752  13.263  1.00  0.00     0.004 C 
BRANCH   2   3
ATOM      3  C   UNL     1       2.869   9.856  12.179  1.00  0.00    -0.003 C 
ATOM      4  C   UNL     1       2.769  11.258  11.579  1.00  0.00     0.004 C 
ENDBRANCH   2   3
ENDBRANCH   1   2
BRANCH   1   5
ATOM      5  C   UNL     1       4.520  10.066  15.683  1.00  0.00    -0.023 C 
ATOM      6  C   UNL     1       4.419  10.757  16.826  1.00  0.00     0.042 C 
BRANCH   6   7
ATOM      7  C   UNL     1       5.474  10.773  17.860  1.00  0.00     0.152 C 
ATOM      8  O   UNL     1       5.558   9.797  18.652  1.00  0.00    -0.295 OA
ATOM      9  C   UNL     1       6.444  11.908  18.002  1.00  0.00     0.093 C 
ENDBRANCH   6   7
ENDBRANCH   1   5
TORSDOF 4
ENDMDL
MODEL 9
REMARK VINA RESULT:    -3.702     15.579     16.307
REMARK INTER + INTRA:          -4.738
REMARK INTER:                  -4.516
REMARK INTRA:                  -0.222
REMARK UNBOUND:                -0.170
REMARK SMILES CCCCC=CC(C)=O
REMARK SMILES IDX 4 1 3 2 2 3 1 4 5 5 6 6 7 7 9 8 8 9
REMARK H PARENT
REMARK Flexibility Score: inf
ROOT
ATOM      1  C   UNL     1       7.119  11.818  18.593  1.00  0.00     0.027 C 
ENDROOT
BRANCH   1   2
ATOM      2  C   UNL     1       8.186  10.784  18.983  1.00  0.00     0.004 C 
BRANCH   2   3
ATOM      3  C   UNL     1       8.592   9.883  17.808  1.00  0.00    -0.003 C 
ATOM      4  C   UNL     1      10.059   9.460  17.868  1.00  0.00     0.004 C 
ENDBRANCH   2   3
ENDBRANCH   1   2
BRANCH   1   5
ATOM      5  C   UNL     1       6.337  11.364  17.394  1.00  0.00    -0.023 C 
ATOM      6  C   UNL     1       5.042  11.040  17.488  1.00  0.00     0.042 C 
BRANCH   6   7
ATOM      7  C   UNL     1       4.229  10.599  16.335  1.00  0.00     0.152 C 
ATOM      8  O   UNL     1       3.092  11.113  16.167  1.00  0.00    -0.295 OA
ATOM      9  C   UNL     1       4.710   9.564  15.363  1.00  0.00     0.093 C 
ENDBRANCH   6   7
ENDBRANCH   1   5
TORSDOF 4
ENDMDL
