MODEL 1
REMARK VINA RESULT:    -7.085      0.000      0.000
REMARK INTER + INTRA:         -12.898
REMARK INTER:                 -11.227
REMARK INTRA:                  -1.672
REMARK UNBOUND:                -1.672
REMARK SMILES C[C@H]1O[C@H](O[C@@H]2[C@H](Oc3cc(O)c4c(c3)O[C@H](c3ccc(O)cc3)CC4=O)O[C@H](CO)[C@H](O)[C@@H]2O)[C@@H](O)[C@H](O)[C@H]1O
REMARK SMILES IDX 6 1 34 2 32 3 29 4 28 5 7 6 5 7 4 8 1 9 2 10 40 11 3 12
REMARK SMILES IDX 38 13 36 14 41 15 39 17 37 19 35 21 8 23 9 24 10 25 15 26
REMARK SMILES IDX 11 27 14 28 13 29 16 30 26 31 17 32 27 33 25 34 12 35 18 37
REMARK SMILES IDX 19 38 24 39 20 40 23 41 21 42 22 43 33 45 30 47 31 48
REMARK H PARENT 41 16 39 18 37 20 35 22 12 36 22 44 33 46 31 49
REMARK Flexibility Score: inf
ROOT
ATOM      1  C   UNL     1      55.118 -32.621  57.505  1.00  0.00     0.221 C 
ATOM      2  C   UNL     1      53.763 -32.097  56.989  1.00  0.00     0.181 C 
ATOM      3  C   UNL     1      53.301 -32.977  55.800  1.00  0.00     0.177 C 
ATOM      4  C   UNL     1      54.499 -33.522  54.959  1.00  0.00     0.179 C 
ATOM      5  O   UNL     1      55.603 -32.645  55.043  1.00  0.00    -0.332 OA
ATOM      6  C   UNL     1      56.172 -32.647  56.344  1.00  0.00     0.339 C 
ENDROOT
BRANCH   1   7
ATOM      7  O   UNL     1      55.643 -31.856  58.586  1.00  0.00    -0.337 OA
BRANCH   7   8
ATOM      8  C   UNL     1      55.992 -32.598  59.752  1.00  0.00     0.282 C 
ATOM      9  C   UNL     1      58.163 -34.077  61.155  1.00  0.00     0.041 C 
ATOM     10  C   UNL     1      57.528 -32.726  61.545  1.00  0.00     0.150 C 
ATOM     11  C   UNL     1      56.433 -32.812  62.651  1.00  0.00     0.174 C 
ATOM     12  O   UNL     1      57.091 -31.995  60.411  1.00  0.00    -0.344 OA
ATOM     13  C   UNL     1      55.035 -32.394  62.133  1.00  0.00     0.179 C 
ATOM     14  C   UNL     1      54.786 -32.917  60.695  1.00  0.00     0.202 C 
BRANCH  11  15
ATOM     15  O   UNL     1      56.367 -34.112  63.188  1.00  0.00    -0.388 OA
ATOM     16  H   UNL     1      57.133 -34.208  63.815  1.00  0.00     0.211 HD
ENDBRANCH  11  15
BRANCH  13  17
ATOM     17  O   UNL     1      54.846 -30.997  62.213  1.00  0.00    -0.387 OA
ATOM     18  H   UNL     1      54.061 -30.750  61.650  1.00  0.00     0.211 HD
ENDBRANCH  13  17
BRANCH  14  19
ATOM     19  O   UNL     1      54.594 -34.308  60.730  1.00  0.00    -0.385 OA
ATOM     20  H   UNL     1      53.753 -34.500  60.226  1.00  0.00     0.211 HD
ENDBRANCH  14  19
ENDBRANCH   7   8
ENDBRANCH   1   7
BRANCH   2  21
ATOM     21  O   UNL     1      53.898 -30.749  56.619  1.00  0.00    -0.387 OA
ATOM     22  H   UNL     1      52.986 -30.389  56.449  1.00  0.00     0.211 HD
ENDBRANCH   2  21
BRANCH   6  23
ATOM     23  O   UNL     1      57.108 -31.564  56.468  1.00  0.00    -0.462 OA
BRANCH  23  24
ATOM     24  C   UNL     1      57.824 -30.982  55.407  1.00  0.00     0.130 A 
ATOM     25  C   UNL     1      59.001 -31.596  54.981  1.00  0.00     0.093 A 
ATOM     26  C   UNL     1      57.372 -29.829  54.738  1.00  0.00     0.094 A 
ATOM     27  C   UNL     1      59.760 -31.059  53.930  1.00  0.00     0.133 A 
ATOM     28  C   UNL     1      58.111 -29.286  53.684  1.00  0.00     0.138 A 
ATOM     29  C   UNL     1      59.293 -29.911  53.235  1.00  0.00     0.102 A 
ATOM     30  O   UNL     1      57.657 -28.108  53.077  1.00  0.00    -0.484 OA
ATOM     31  C   UNL     1      59.898 -29.385  51.975  1.00  0.00     0.174 C 
ATOM     32  C   UNL     1      58.502 -27.321  52.236  1.00  0.00     0.211 C 
ATOM     33  O   UNL     1      60.857 -29.972  51.409  1.00  0.00    -0.294 OA
ATOM     34  C   UNL     1      59.259 -28.225  51.255  1.00  0.00     0.131 C 
BRANCH  27  35
ATOM     35  O   UNL     1      60.976 -31.685  53.638  1.00  0.00    -0.507 OA
ATOM     36  H   UNL     1      61.812 -31.188  53.388  1.00  0.00     0.293 HD
ENDBRANCH  27  35
BRANCH  32  37
ATOM     37  C   UNL     1      57.684 -26.294  51.487  1.00  0.00    -0.007 A 
ATOM     38  C   UNL     1      58.327 -25.263  50.783  1.00  0.00     0.011 A 
ATOM     39  C   UNL     1      56.282 -26.380  51.440  1.00  0.00     0.011 A 
ATOM     40  C   UNL     1      57.582 -24.317  50.070  1.00  0.00     0.046 A 
ATOM     41  C   UNL     1      55.538 -25.434  50.723  1.00  0.00     0.046 A 
ATOM     42  C   UNL     1      56.187 -24.398  50.039  1.00  0.00     0.115 A 
BRANCH  42  43
ATOM     43  O   UNL     1      55.454 -23.449  49.324  1.00  0.00    -0.508 OA
ATOM     44  H   UNL     1      55.903 -22.773  48.709  1.00  0.00     0.293 HD
ENDBRANCH  42  43
ENDBRANCH  32  37
ENDBRANCH  23  24
ENDBRANCH   6  23
BRANCH   3  45
ATOM     45  O   UNL     1      52.324 -32.324  55.030  1.00  0.00    -0.387 OA
ATOM     46  H   UNL     1      52.798 -31.710  54.407  1.00  0.00     0.211 HD
ENDBRANCH   3  45
BRANCH   4  47
ATOM     47  C   UNL     1      54.160 -33.777  53.481  1.00  0.00     0.191 C 
BRANCH  47  48
ATOM     48  O   UNL     1      54.045 -32.565  52.781  1.00  0.00    -0.394 OA
ATOM     49  H   UNL     1      53.197 -32.142  53.080  1.00  0.00     0.210 HD
ENDBRANCH  47  48
ENDBRANCH   4  47
TORSDOF 14
ENDMDL
MODEL 2
REMARK VINA RESULT:    -7.038      3.254      6.874
REMARK INTER + INTRA:         -12.824
REMARK INTER:                 -10.969
REMARK INTRA:                  -1.855
REMARK UNBOUND:                -1.672
REMARK SMILES C[C@H]1O[C@H](O[C@@H]2[C@H](Oc3cc(O)c4c(c3)O[C@H](c3ccc(O)cc3)CC4=O)O[C@H](CO)[C@H](O)[C@@H]2O)[C@@H](O)[C@H](O)[C@H]1O
REMARK SMILES IDX 6 1 34 2 32 3 29 4 28 5 7 6 5 7 4 8 1 9 2 10 40 11 3 12
REMARK SMILES IDX 38 13 36 14 41 15 39 17 37 19 35 21 8 23 9 24 10 25 15 26
REMARK SMILES IDX 11 27 14 28 13 29 16 30 26 31 17 32 27 33 25 34 12 35 18 37
REMARK SMILES IDX 19 38 24 39 20 40 23 41 21 42 22 43 33 45 30 47 31 48
REMARK H PARENT 41 16 39 18 37 20 35 22 12 36 22 44 33 46 31 49
REMARK Flexibility Score: inf
ROOT
ATOM      1  C   UNL     1      55.259 -33.562  58.954  1.00  0.00     0.221 C 
ATOM      2  C   UNL     1      54.987 -34.713  59.943  1.00  0.00     0.181 C 
ATOM      3  C   UNL     1      54.764 -34.121  61.358  1.00  0.00     0.177 C 
ATOM      4  C   UNL     1      55.603 -32.827  61.603  1.00  0.00     0.179 C 
ATOM      5  O   UNL     1      56.777 -32.840  60.819  1.00  0.00    -0.332 OA
ATOM      6  C   UNL     1      56.481 -32.704  59.437  1.00  0.00     0.339 C 
ENDROOT
BRANCH   1   7
ATOM      7  O   UNL     1      55.508 -34.009  57.625  1.00  0.00    -0.337 OA
BRANCH   7   8
ATOM      8  C   UNL     1      54.714 -33.395  56.612  1.00  0.00     0.282 C 
ATOM      9  C   UNL     1      54.381 -32.971  53.683  1.00  0.00     0.041 C 
ATOM     10  C   UNL     1      53.497 -33.811  54.628  1.00  0.00     0.150 C 
ATOM     11  C   UNL     1      52.200 -33.097  55.117  1.00  0.00     0.174 C 
ATOM     12  O   UNL     1      54.239 -34.369  55.700  1.00  0.00    -0.344 OA
ATOM     13  C   UNL     1      52.196 -32.860  56.647  1.00  0.00     0.179 C 
ATOM     14  C   UNL     1      53.600 -32.444  57.157  1.00  0.00     0.202 C 
BRANCH  11  15
ATOM     15  O   UNL     1      52.024 -31.869  54.449  1.00  0.00    -0.388 OA
ATOM     16  H   UNL     1      52.816 -31.741  53.861  1.00  0.00     0.211 HD
ENDBRANCH  11  15
BRANCH  13  17
ATOM     17  O   UNL     1      51.706 -33.984  57.348  1.00  0.00    -0.387 OA
ATOM     18  H   UNL     1      51.085 -34.484  56.750  1.00  0.00     0.211 HD
ENDBRANCH  13  17
BRANCH  14  19
ATOM     19  O   UNL     1      53.880 -31.132  56.739  1.00  0.00    -0.385 OA
ATOM     20  H   UNL     1      53.405 -30.993  55.872  1.00  0.00     0.211 HD
ENDBRANCH  14  19
ENDBRANCH   7   8
ENDBRANCH   1   7
BRANCH   2  21
ATOM     21  O   UNL     1      56.067 -35.611  59.919  1.00  0.00    -0.387 OA
ATOM     22  H   UNL     1      56.770 -35.258  60.528  1.00  0.00     0.211 HD
ENDBRANCH   2  21
BRANCH   6  23
ATOM     23  O   UNL     1      57.654 -32.987  58.657  1.00  0.00    -0.462 OA
BRANCH  23  24
ATOM     24  C   UNL     1      58.057 -32.284  57.508  1.00  0.00     0.130 A 
ATOM     25  C   UNL     1      57.733 -30.932  57.407  1.00  0.00     0.093 A 
ATOM     26  C   UNL     1      58.807 -32.888  56.482  1.00  0.00     0.094 A 
ATOM     27  C   UNL     1      58.105 -30.179  56.282  1.00  0.00     0.133 A 
ATOM     28  C   UNL     1      59.192 -32.152  55.359  1.00  0.00     0.138 A 
ATOM     29  C   UNL     1      58.885 -30.779  55.257  1.00  0.00     0.102 A 
ATOM     30  O   UNL     1      59.892 -32.800  54.333  1.00  0.00    -0.484 OA
ATOM     31  C   UNL     1      59.517 -30.028  54.130  1.00  0.00     0.174 C 
ATOM     32  C   UNL     1      60.032 -32.221  53.035  1.00  0.00     0.211 C 
ATOM     33  O   UNL     1      59.433 -28.774  54.045  1.00  0.00    -0.294 OA
ATOM     34  C   UNL     1      60.418 -30.741  53.156  1.00  0.00     0.131 C 
BRANCH  27  35
ATOM     35  O   UNL     1      57.651 -28.858  56.221  1.00  0.00    -0.507 OA
ATOM     36  H   UNL     1      56.680 -28.603  56.188  1.00  0.00     0.293 HD
ENDBRANCH  27  35
BRANCH  32  37
ATOM     37  C   UNL     1      61.069 -32.975  52.235  1.00  0.00    -0.007 A 
ATOM     38  C   UNL     1      62.421 -32.602  52.308  1.00  0.00     0.011 A 
ATOM     39  C   UNL     1      60.709 -34.084  51.449  1.00  0.00     0.011 A 
ATOM     40  C   UNL     1      63.392 -33.305  51.587  1.00  0.00     0.046 A 
ATOM     41  C   UNL     1      61.685 -34.788  50.730  1.00  0.00     0.046 A 
ATOM     42  C   UNL     1      63.028 -34.398  50.795  1.00  0.00     0.115 A 
BRANCH  42  43
ATOM     43  O   UNL     1      64.006 -35.090  50.080  1.00  0.00    -0.508 OA
ATOM     44  H   UNL     1      63.768 -35.758  49.349  1.00  0.00     0.293 HD
ENDBRANCH  42  43
ENDBRANCH  32  37
ENDBRANCH  23  24
ENDBRANCH   6  23
BRANCH   3  45
ATOM     45  O   UNL     1      54.932 -35.098  62.354  1.00  0.00    -0.387 OA
ATOM     46  H   UNL     1      54.322 -34.865  63.105  1.00  0.00     0.211 HD
ENDBRANCH   3  45
BRANCH   4  47
ATOM     47  C   UNL     1      55.976 -32.594  63.078  1.00  0.00     0.191 C 
BRANCH  47  48
ATOM     48  O   UNL     1      54.833 -32.644  63.892  1.00  0.00    -0.394 OA
ATOM     49  H   UNL     1      55.147 -32.829  64.816  1.00  0.00     0.210 HD
ENDBRANCH  47  48
ENDBRANCH   4  47
TORSDOF 14
ENDMDL
MODEL 3
REMARK VINA RESULT:    -6.981      4.009      9.811
REMARK INTER + INTRA:         -12.733
REMARK INTER:                 -10.629
REMARK INTRA:                  -2.104
REMARK UNBOUND:                -1.672
REMARK SMILES C[C@H]1O[C@H](O[C@@H]2[C@H](Oc3cc(O)c4c(c3)O[C@H](c3ccc(O)cc3)CC4=O)O[C@H](CO)[C@H](O)[C@@H]2O)[C@@H](O)[C@H](O)[C@H]1O
REMARK SMILES IDX 6 1 34 2 32 3 29 4 28 5 7 6 5 7 4 8 1 9 2 10 40 11 3 12
REMARK SMILES IDX 38 13 36 14 41 15 39 17 37 19 35 21 8 23 9 24 10 25 15 26
REMARK SMILES IDX 11 27 14 28 13 29 16 30 26 31 17 32 27 33 25 34 12 35 18 37
REMARK SMILES IDX 19 38 24 39 20 40 23 41 21 42 22 43 33 45 30 47 31 48
REMARK H PARENT 41 16 39 18 37 20 35 22 12 36 22 44 33 46 31 49
REMARK Flexibility Score: inf
ROOT
ATOM      1  C   UNL     1      57.536 -32.429  57.032  1.00  0.00     0.221 C 
ATOM      2  C   UNL     1      58.894 -32.238  56.328  1.00  0.00     0.181 C 
ATOM      3  C   UNL     1      58.929 -30.836  55.668  1.00  0.00     0.177 C 
ATOM      4  C   UNL     1      57.522 -30.375  55.172  1.00  0.00     0.179 C 
ATOM      5  O   UNL     1      56.718 -31.491  54.852  1.00  0.00    -0.332 OA
ATOM      6  C   UNL     1      56.360 -32.225  56.014  1.00  0.00     0.339 C 
ENDROOT
BRANCH   1   7
ATOM      7  O   UNL     1      57.395 -33.705  57.648  1.00  0.00    -0.337 OA
BRANCH   7   8
ATOM      8  C   UNL     1      57.188 -33.687  59.058  1.00  0.00     0.282 C 
ATOM      9  C   UNL     1      58.446 -34.116  61.723  1.00  0.00     0.041 C 
ATOM     10  C   UNL     1      57.985 -32.786  61.093  1.00  0.00     0.150 C 
ATOM     11  C   UNL     1      56.588 -32.285  61.571  1.00  0.00     0.174 C 
ATOM     12  O   UNL     1      58.097 -32.796  59.680  1.00  0.00    -0.344 OA
ATOM     13  C   UNL     1      55.548 -32.249  60.425  1.00  0.00     0.179 C 
ATOM     14  C   UNL     1      55.700 -33.473  59.486  1.00  0.00     0.202 C 
BRANCH  11  15
ATOM     15  O   UNL     1      56.102 -33.087  62.622  1.00  0.00    -0.388 OA
ATOM     16  H   UNL     1      56.809 -33.755  62.829  1.00  0.00     0.211 HD
ENDBRANCH  11  15
BRANCH  13  17
ATOM     17  O   UNL     1      55.610 -31.036  59.702  1.00  0.00    -0.387 OA
ATOM     18  H   UNL     1      54.720 -30.867  59.289  1.00  0.00     0.211 HD
ENDBRANCH  13  17
BRANCH  14  19
ATOM     19  O   UNL     1      55.248 -34.628  60.147  1.00  0.00    -0.385 OA
ATOM     20  H   UNL     1      55.748 -35.401  59.761  1.00  0.00     0.211 HD
ENDBRANCH  14  19
ENDBRANCH   7   8
ENDBRANCH   1   7
BRANCH   2  21
ATOM     21  O   UNL     1      59.077 -33.263  55.386  1.00  0.00    -0.387 OA
ATOM     22  H   UNL     1      58.869 -34.127  55.833  1.00  0.00     0.211 HD
ENDBRANCH   2  21
BRANCH   6  23
ATOM     23  O   UNL     1      55.778 -33.483  55.635  1.00  0.00    -0.462 OA
BRANCH  23  24
ATOM     24  C   UNL     1      54.523 -33.958  56.055  1.00  0.00     0.130 A 
ATOM     25  C   UNL     1      53.427 -33.100  55.980  1.00  0.00     0.093 A 
ATOM     26  C   UNL     1      54.332 -35.277  56.507  1.00  0.00     0.094 A 
ATOM     27  C   UNL     1      52.150 -33.517  56.388  1.00  0.00     0.133 A 
ATOM     28  C   UNL     1      53.067 -35.711  56.910  1.00  0.00     0.138 A 
ATOM     29  C   UNL     1      51.949 -34.856  56.820  1.00  0.00     0.102 A 
ATOM     30  O   UNL     1      52.925 -37.014  57.404  1.00  0.00    -0.484 OA
ATOM     31  C   UNL     1      50.609 -35.469  57.069  1.00  0.00     0.174 C 
ATOM     32  C   UNL     1      51.765 -37.422  58.129  1.00  0.00     0.211 C 
ATOM     33  O   UNL     1      49.544 -34.831  56.859  1.00  0.00    -0.294 OA
ATOM     34  C   UNL     1      50.498 -36.930  57.418  1.00  0.00     0.131 C 
BRANCH  27  35
ATOM     35  O   UNL     1      51.131 -32.560  56.372  1.00  0.00    -0.507 OA
ATOM     36  H   UNL     1      50.371 -32.567  55.717  1.00  0.00     0.293 HD
ENDBRANCH  27  35
BRANCH  32  37
ATOM     37  C   UNL     1      51.741 -38.926  58.276  1.00  0.00    -0.007 A 
ATOM     38  C   UNL     1      50.529 -39.587  58.539  1.00  0.00     0.011 A 
ATOM     39  C   UNL     1      52.909 -39.688  58.103  1.00  0.00     0.011 A 
ATOM     40  C   UNL     1      50.491 -40.980  58.657  1.00  0.00     0.046 A 
ATOM     41  C   UNL     1      52.867 -41.085  58.219  1.00  0.00     0.046 A 
ATOM     42  C   UNL     1      51.658 -41.733  58.499  1.00  0.00     0.115 A 
BRANCH  42  43
ATOM     43  O   UNL     1      51.607 -43.123  58.621  1.00  0.00    -0.508 OA
ATOM     44  H   UNL     1      50.877 -43.590  59.154  1.00  0.00     0.293 HD
ENDBRANCH  42  43
ENDBRANCH  32  37
ENDBRANCH  23  24
ENDBRANCH   6  23
BRANCH   3  45
ATOM     45  O   UNL     1      59.926 -30.760  54.681  1.00  0.00    -0.387 OA
ATOM     46  H   UNL     1      60.571 -30.057  54.964  1.00  0.00     0.211 HD
ENDBRANCH   3  45
BRANCH   4  47
ATOM     47  C   UNL     1      57.566 -29.415  53.971  1.00  0.00     0.191 C 
BRANCH  47  48
ATOM     48  O   UNL     1      58.365 -28.296  54.259  1.00  0.00    -0.394 OA
ATOM     49  H   UNL     1      58.022 -27.548  53.702  1.00  0.00     0.210 HD
ENDBRANCH  47  48
ENDBRANCH   4  47
TORSDOF 14
ENDMDL
MODEL 4
REMARK VINA RESULT:    -6.890      2.645      5.176
REMARK INTER + INTRA:         -12.589
REMARK INTER:                 -11.035
REMARK INTRA:                  -1.554
REMARK UNBOUND:                -1.672
REMARK SMILES C[C@H]1O[C@H](O[C@@H]2[C@H](Oc3cc(O)c4c(c3)O[C@H](c3ccc(O)cc3)CC4=O)O[C@H](CO)[C@H](O)[C@@H]2O)[C@@H](O)[C@H](O)[C@H]1O
REMARK SMILES IDX 6 1 34 2 32 3 29 4 28 5 7 6 5 7 4 8 1 9 2 10 40 11 3 12
REMARK SMILES IDX 38 13 36 14 41 15 39 17 37 19 35 21 8 23 9 24 10 25 15 26
REMARK SMILES IDX 11 27 14 28 13 29 16 30 26 31 17 32 27 33 25 34 12 35 18 37
REMARK SMILES IDX 19 38 24 39 20 40 23 41 21 42 22 43 33 45 30 47 31 48
REMARK H PARENT 41 16 39 18 37 20 35 22 12 36 22 44 33 46 31 49
REMARK Flexibility Score: inf
ROOT
ATOM      1  C   UNL     1      55.105 -32.760  57.358  1.00  0.00     0.221 C 
ATOM      2  C   UNL     1      53.643 -32.469  56.968  1.00  0.00     0.181 C 
ATOM      3  C   UNL     1      53.238 -33.398  55.796  1.00  0.00     0.177 C 
ATOM      4  C   UNL     1      54.435 -33.718  54.846  1.00  0.00     0.179 C 
ATOM      5  O   UNL     1      55.378 -32.667  54.865  1.00  0.00    -0.332 OA
ATOM      6  C   UNL     1      56.047 -32.589  56.115  1.00  0.00     0.339 C 
ENDROOT
BRANCH   1   7
ATOM      7  O   UNL     1      55.582 -31.931  58.413  1.00  0.00    -0.337 OA
BRANCH   7   8
ATOM      8  C   UNL     1      55.949 -32.611  59.612  1.00  0.00     0.282 C 
ATOM      9  C   UNL     1      58.132 -34.043  61.045  1.00  0.00     0.041 C 
ATOM     10  C   UNL     1      57.527 -32.662  61.371  1.00  0.00     0.150 C 
ATOM     11  C   UNL     1      56.458 -32.668  62.507  1.00  0.00     0.174 C 
ATOM     12  O   UNL     1      57.072 -31.989  60.209  1.00  0.00    -0.344 OA
ATOM     13  C   UNL     1      55.054 -32.257  61.999  1.00  0.00     0.179 C 
ATOM     14  C   UNL     1      54.763 -32.856  60.599  1.00  0.00     0.202 C 
BRANCH  11  15
ATOM     15  O   UNL     1      56.387 -33.934  63.118  1.00  0.00    -0.388 OA
ATOM     16  H   UNL     1      55.786 -34.495  62.558  1.00  0.00     0.211 HD
ENDBRANCH  11  15
BRANCH  13  17
ATOM     17  O   UNL     1      54.888 -30.855  62.003  1.00  0.00    -0.387 OA
ATOM     18  H   UNL     1      54.238 -30.610  61.289  1.00  0.00     0.211 HD
ENDBRANCH  13  17
BRANCH  14  19
ATOM     19  O   UNL     1      54.550 -34.240  60.718  1.00  0.00    -0.385 OA
ATOM     20  H   UNL     1      53.841 -34.370  61.409  1.00  0.00     0.211 HD
ENDBRANCH  14  19
ENDBRANCH   7   8
ENDBRANCH   1   7
BRANCH   2  21
ATOM     21  O   UNL     1      53.515 -31.112  56.626  1.00  0.00    -0.387 OA
ATOM     22  H   UNL     1      54.283 -30.873  56.041  1.00  0.00     0.211 HD
ENDBRANCH   2  21
BRANCH   6  23
ATOM     23  O   UNL     1      56.792 -31.363  56.193  1.00  0.00    -0.462 OA
BRANCH  23  24
ATOM     24  C   UNL     1      57.812 -30.973  55.306  1.00  0.00     0.130 A 
ATOM     25  C   UNL     1      58.056 -29.612  55.130  1.00  0.00     0.093 A 
ATOM     26  C   UNL     1      58.615 -31.908  54.626  1.00  0.00     0.094 A 
ATOM     27  C   UNL     1      59.058 -29.162  54.256  1.00  0.00     0.133 A 
ATOM     28  C   UNL     1      59.622 -31.477  53.759  1.00  0.00     0.138 A 
ATOM     29  C   UNL     1      59.888 -30.102  53.589  1.00  0.00     0.102 A 
ATOM     30  O   UNL     1      60.366 -32.435  53.059  1.00  0.00    -0.484 OA
ATOM     31  C   UNL     1      61.113 -29.743  52.813  1.00  0.00     0.174 C 
ATOM     32  C   UNL     1      61.170 -32.087  51.931  1.00  0.00     0.211 C 
ATOM     33  O   UNL     1      61.522 -28.555  52.740  1.00  0.00    -0.294 OA
ATOM     34  C   UNL     1      61.988 -30.825  52.235  1.00  0.00     0.131 C 
BRANCH  27  35
ATOM     35  O   UNL     1      59.165 -27.780  54.067  1.00  0.00    -0.507 OA
ATOM     36  H   UNL     1      58.420 -27.133  54.255  1.00  0.00     0.293 HD
ENDBRANCH  27  35
BRANCH  32  37
ATOM     37  C   UNL     1      62.083 -33.235  51.565  1.00  0.00    -0.007 A 
ATOM     38  C   UNL     1      63.467 -33.127  51.777  1.00  0.00     0.011 A 
ATOM     39  C   UNL     1      61.563 -34.438  51.056  1.00  0.00     0.011 A 
ATOM     40  C   UNL     1      64.320 -34.190  51.460  1.00  0.00     0.046 A 
ATOM     41  C   UNL     1      62.420 -35.502  50.742  1.00  0.00     0.046 A 
ATOM     42  C   UNL     1      63.800 -35.378  50.941  1.00  0.00     0.115 A 
BRANCH  42  43
ATOM     43  O   UNL     1      64.662 -36.431  50.628  1.00  0.00    -0.508 OA
ATOM     44  H   UNL     1      65.179 -36.936  51.344  1.00  0.00     0.293 HD
ENDBRANCH  42  43
ENDBRANCH  32  37
ENDBRANCH  23  24
ENDBRANCH   6  23
BRANCH   3  45
ATOM     45  O   UNL     1      52.102 -32.912  55.126  1.00  0.00    -0.387 OA
ATOM     46  H   UNL     1      51.794 -32.101  55.614  1.00  0.00     0.211 HD
ENDBRANCH   3  45
BRANCH   4  47
ATOM     47  C   UNL     1      54.021 -34.008  53.393  1.00  0.00     0.191 C 
BRANCH  47  48
ATOM     48  O   UNL     1      53.806 -32.811  52.691  1.00  0.00    -0.394 OA
ATOM     49  H   UNL     1      54.456 -32.799  51.940  1.00  0.00     0.210 HD
ENDBRANCH  47  48
ENDBRANCH   4  47
TORSDOF 14
ENDMDL
MODEL 5
REMARK VINA RESULT:    -6.797      3.099      5.884
REMARK INTER + INTRA:         -12.442
REMARK INTER:                 -10.647
REMARK INTRA:                  -1.795
REMARK UNBOUND:                -1.672
REMARK SMILES C[C@H]1O[C@H](O[C@@H]2[C@H](Oc3cc(O)c4c(c3)O[C@H](c3ccc(O)cc3)CC4=O)O[C@H](CO)[C@H](O)[C@@H]2O)[C@@H](O)[C@H](O)[C@H]1O
REMARK SMILES IDX 6 1 34 2 32 3 29 4 28 5 7 6 5 7 4 8 1 9 2 10 40 11 3 12
REMARK SMILES IDX 38 13 36 14 41 15 39 17 37 19 35 21 8 23 9 24 10 25 15 26
REMARK SMILES IDX 11 27 14 28 13 29 16 30 26 31 17 32 27 33 25 34 12 35 18 37
REMARK SMILES IDX 19 38 24 39 20 40 23 41 21 42 22 43 33 45 30 47 31 48
REMARK H PARENT 41 16 39 18 37 20 35 22 12 36 22 44 33 46 31 49
REMARK Flexibility Score: inf
ROOT
ATOM      1  C   UNL     1      56.610 -33.566  59.777  1.00  0.00     0.221 C 
ATOM      2  C   UNL     1      56.976 -33.605  61.274  1.00  0.00     0.181 C 
ATOM      3  C   UNL     1      55.849 -32.922  62.088  1.00  0.00     0.177 C 
ATOM      4  C   UNL     1      55.164 -31.760  61.302  1.00  0.00     0.179 C 
ATOM      5  O   UNL     1      56.064 -31.190  60.375  1.00  0.00    -0.332 OA
ATOM      6  C   UNL     1      56.358 -32.088  59.315  1.00  0.00     0.339 C 
ENDROOT
BRANCH   1   7
ATOM      7  O   UNL     1      57.603 -34.148  58.939  1.00  0.00    -0.337 OA
BRANCH   7   8
ATOM      8  C   UNL     1      57.124 -35.085  57.977  1.00  0.00     0.282 C 
ATOM      9  C   UNL     1      56.051 -35.434  55.221  1.00  0.00     0.041 C 
ATOM     10  C   UNL     1      57.423 -35.877  55.770  1.00  0.00     0.150 C 
ATOM     11  C   UNL     1      57.510 -37.379  56.180  1.00  0.00     0.174 C 
ATOM     12  O   UNL     1      57.895 -35.014  56.791  1.00  0.00    -0.344 OA
ATOM     13  C   UNL     1      57.754 -37.565  57.697  1.00  0.00     0.179 C 
ATOM     14  C   UNL     1      56.945 -36.537  58.529  1.00  0.00     0.202 C 
BRANCH  11  15
ATOM     15  O   UNL     1      56.341 -38.068  55.803  1.00  0.00    -0.388 OA
ATOM     16  H   UNL     1      55.706 -38.004  56.565  1.00  0.00     0.211 HD
ENDBRANCH  11  15
BRANCH  13  17
ATOM     17  O   UNL     1      59.129 -37.516  58.015  1.00  0.00    -0.387 OA
ATOM     18  H   UNL     1      59.282 -36.762  58.647  1.00  0.00     0.211 HD
ENDBRANCH  13  17
BRANCH  14  19
ATOM     19  O   UNL     1      55.582 -36.872  58.490  1.00  0.00    -0.385 OA
ATOM     20  H   UNL     1      55.354 -37.062  57.537  1.00  0.00     0.211 HD
ENDBRANCH  14  19
ENDBRANCH   7   8
ENDBRANCH   1   7
BRANCH   2  21
ATOM     21  O   UNL     1      58.215 -32.972  61.465  1.00  0.00    -0.387 OA
ATOM     22  H   UNL     1      58.860 -33.365  60.818  1.00  0.00     0.211 HD
ENDBRANCH   2  21
BRANCH   6  23
ATOM     23  O   UNL     1      57.465 -31.589  58.546  1.00  0.00    -0.462 OA
BRANCH  23  24
ATOM     24  C   UNL     1      57.497 -31.474  57.146  1.00  0.00     0.130 A 
ATOM     25  C   UNL     1      56.362 -31.840  56.421  1.00  0.00     0.093 A 
ATOM     26  C   UNL     1      58.615 -30.967  56.458  1.00  0.00     0.094 A 
ATOM     27  C   UNL     1      56.336 -31.750  55.021  1.00  0.00     0.133 A 
ATOM     28  C   UNL     1      58.603 -30.864  55.065  1.00  0.00     0.138 A 
ATOM     29  C   UNL     1      57.453 -31.214  54.326  1.00  0.00     0.102 A 
ATOM     30  O   UNL     1      59.754 -30.405  54.411  1.00  0.00    -0.484 OA
ATOM     31  C   UNL     1      57.456 -30.871  52.872  1.00  0.00     0.174 C 
ATOM     32  C   UNL     1      59.940 -30.577  53.006  1.00  0.00     0.211 C 
ATOM     33  O   UNL     1      56.423 -30.997  52.163  1.00  0.00    -0.294 OA
ATOM     34  C   UNL     1      58.657 -30.204  52.253  1.00  0.00     0.131 C 
BRANCH  27  35
ATOM     35  O   UNL     1      55.194 -32.232  54.373  1.00  0.00    -0.507 OA
ATOM     36  H   UNL     1      55.183 -32.531  53.415  1.00  0.00     0.293 HD
ENDBRANCH  27  35
BRANCH  32  37
ATOM     37  C   UNL     1      61.101 -29.737  52.525  1.00  0.00    -0.007 A 
ATOM     38  C   UNL     1      61.464 -28.574  53.225  1.00  0.00     0.011 A 
ATOM     39  C   UNL     1      61.862 -30.125  51.409  1.00  0.00     0.011 A 
ATOM     40  C   UNL     1      62.548 -27.799  52.801  1.00  0.00     0.046 A 
ATOM     41  C   UNL     1      62.949 -29.348  50.988  1.00  0.00     0.046 A 
ATOM     42  C   UNL     1      63.293 -28.181  51.682  1.00  0.00     0.115 A 
BRANCH  42  43
ATOM     43  O   UNL     1      64.372 -27.399  51.268  1.00  0.00    -0.508 OA
ATOM     44  H   UNL     1      64.707 -26.610  51.816  1.00  0.00     0.293 HD
ENDBRANCH  42  43
ENDBRANCH  32  37
ENDBRANCH  23  24
ENDBRANCH   6  23
BRANCH   3  45
ATOM     45  O   UNL     1      56.296 -32.549  63.368  1.00  0.00    -0.387 OA
ATOM     46  H   UNL     1      56.272 -33.363  63.940  1.00  0.00     0.211 HD
ENDBRANCH   3  45
BRANCH   4  47
ATOM     47  C   UNL     1      54.586 -30.652  62.200  1.00  0.00     0.191 C 
BRANCH  47  48
ATOM     48  O   UNL     1      53.501 -30.020  61.571  1.00  0.00    -0.394 OA
ATOM     49  H   UNL     1      53.639 -30.119  60.593  1.00  0.00     0.210 HD
ENDBRANCH  47  48
ENDBRANCH   4  47
TORSDOF 14
ENDMDL
MODEL 6
REMARK VINA RESULT:    -6.744      2.850      5.551
REMARK INTER + INTRA:         -12.358
REMARK INTER:                 -10.393
REMARK INTRA:                  -1.965
REMARK UNBOUND:                -1.672
REMARK SMILES C[C@H]1O[C@H](O[C@@H]2[C@H](Oc3cc(O)c4c(c3)O[C@H](c3ccc(O)cc3)CC4=O)O[C@H](CO)[C@H](O)[C@@H]2O)[C@@H](O)[C@H](O)[C@H]1O
REMARK SMILES IDX 6 1 34 2 32 3 29 4 28 5 7 6 5 7 4 8 1 9 2 10 40 11 3 12
REMARK SMILES IDX 38 13 36 14 41 15 39 17 37 19 35 21 8 23 9 24 10 25 15 26
REMARK SMILES IDX 11 27 14 28 13 29 16 30 26 31 17 32 27 33 25 34 12 35 18 37
REMARK SMILES IDX 19 38 24 39 20 40 23 41 21 42 22 43 33 45 30 47 31 48
REMARK H PARENT 41 16 39 18 37 20 35 22 12 36 22 44 33 46 31 49
REMARK Flexibility Score: inf
ROOT
ATOM      1  C   UNL     1      54.577 -32.668  56.721  1.00  0.00     0.221 C 
ATOM      2  C   UNL     1      53.116 -32.718  56.232  1.00  0.00     0.181 C 
ATOM      3  C   UNL     1      52.958 -33.891  55.232  1.00  0.00     0.177 C 
ATOM      4  C   UNL     1      54.255 -34.145  54.399  1.00  0.00     0.179 C 
ATOM      5  O   UNL     1      54.999 -32.952  54.263  1.00  0.00    -0.332 OA
ATOM      6  C   UNL     1      55.558 -32.543  55.503  1.00  0.00     0.339 C 
ENDROOT
BRANCH   1   7
ATOM      7  O   UNL     1      54.832 -31.600  57.628  1.00  0.00    -0.337 OA
BRANCH   7   8
ATOM      8  C   UNL     1      55.678 -31.918  58.730  1.00  0.00     0.282 C 
ATOM      9  C   UNL     1      55.861 -33.316  61.353  1.00  0.00     0.041 C 
ATOM     10  C   UNL     1      56.541 -33.700  60.023  1.00  0.00     0.150 C 
ATOM     11  C   UNL     1      58.028 -33.248  59.894  1.00  0.00     0.174 C 
ATOM     12  O   UNL     1      55.765 -33.321  58.898  1.00  0.00    -0.344 OA
ATOM     13  C   UNL     1      58.235 -32.212  58.762  1.00  0.00     0.179 C 
ATOM     14  C   UNL     1      57.065 -31.197  58.704  1.00  0.00     0.202 C 
BRANCH  11  15
ATOM     15  O   UNL     1      58.495 -32.716  61.111  1.00  0.00    -0.388 OA
ATOM     16  H   UNL     1      58.061 -33.233  61.841  1.00  0.00     0.211 HD
ENDBRANCH  11  15
BRANCH  13  17
ATOM     17  O   UNL     1      58.435 -32.839  57.512  1.00  0.00    -0.387 OA
ATOM     18  H   UNL     1      58.068 -32.248  56.798  1.00  0.00     0.211 HD
ENDBRANCH  13  17
BRANCH  14  19
ATOM     19  O   UNL     1      57.145 -30.328  59.805  1.00  0.00    -0.385 OA
ATOM     20  H   UNL     1      57.970 -30.572  60.312  1.00  0.00     0.211 HD
ENDBRANCH  14  19
ENDBRANCH   7   8
ENDBRANCH   1   7
BRANCH   2  21
ATOM     21  O   UNL     1      52.780 -31.486  55.648  1.00  0.00    -0.387 OA
ATOM     22  H   UNL     1      51.964 -31.146  56.104  1.00  0.00     0.211 HD
ENDBRANCH   2  21
BRANCH   6  23
ATOM     23  O   UNL     1      56.074 -31.208  55.387  1.00  0.00    -0.462 OA
BRANCH  23  24
ATOM     24  C   UNL     1      57.267 -30.850  54.735  1.00  0.00     0.130 A 
ATOM     25  C   UNL     1      57.655 -29.511  54.743  1.00  0.00     0.093 A 
ATOM     26  C   UNL     1      58.099 -31.801  54.115  1.00  0.00     0.094 A 
ATOM     27  C   UNL     1      58.834 -29.093  54.106  1.00  0.00     0.133 A 
ATOM     28  C   UNL     1      59.280 -31.403  53.484  1.00  0.00     0.138 A 
ATOM     29  C   UNL     1      59.689 -30.053  53.502  1.00  0.00     0.102 A 
ATOM     30  O   UNL     1      60.056 -32.371  52.831  1.00  0.00    -0.484 OA
ATOM     31  C   UNL     1      61.061 -29.757  52.991  1.00  0.00     0.174 C 
ATOM     32  C   UNL     1      61.079 -32.013  51.901  1.00  0.00     0.211 C 
ATOM     33  O   UNL     1      61.577 -28.614  53.111  1.00  0.00    -0.294 OA
ATOM     34  C   UNL     1      61.932 -30.870  52.468  1.00  0.00     0.131 C 
BRANCH  27  35
ATOM     35  O   UNL     1      59.091 -27.719  54.079  1.00  0.00    -0.507 OA
ATOM     36  H   UNL     1      59.745 -27.287  53.451  1.00  0.00     0.293 HD
ENDBRANCH  27  35
BRANCH  32  37
ATOM     37  C   UNL     1      61.942 -33.212  51.585  1.00  0.00    -0.007 A 
ATOM     38  C   UNL     1      61.358 -34.383  51.074  1.00  0.00     0.011 A 
ATOM     39  C   UNL     1      63.338 -33.162  51.748  1.00  0.00     0.011 A 
ATOM     40  C   UNL     1      62.150 -35.493  50.760  1.00  0.00     0.046 A 
ATOM     41  C   UNL     1      64.128 -34.274  51.429  1.00  0.00     0.046 A 
ATOM     42  C   UNL     1      63.535 -35.443  50.937  1.00  0.00     0.115 A 
BRANCH  42  43
ATOM     43  O   UNL     1      64.314 -36.558  50.621  1.00  0.00    -0.508 OA
ATOM     44  H   UNL     1      64.049 -37.209  49.885  1.00  0.00     0.293 HD
ENDBRANCH  42  43
ENDBRANCH  32  37
ENDBRANCH  23  24
ENDBRANCH   6  23
BRANCH   3  45
ATOM     45  O   UNL     1      51.804 -33.740  54.444  1.00  0.00    -0.387 OA
ATOM     46  H   UNL     1      52.102 -33.534  53.517  1.00  0.00     0.211 HD
ENDBRANCH   3  45
BRANCH   4  47
ATOM     47  C   UNL     1      53.996 -34.748  53.007  1.00  0.00     0.191 C 
BRANCH  47  48
ATOM     48  O   UNL     1      53.218 -35.913  53.108  1.00  0.00    -0.394 OA
ATOM     49  H   UNL     1      52.636 -35.939  52.304  1.00  0.00     0.210 HD
ENDBRANCH  47  48
ENDBRANCH   4  47
TORSDOF 14
ENDMDL
MODEL 7
REMARK VINA RESULT:    -6.645      5.025      8.630
REMARK INTER + INTRA:         -12.201
REMARK INTER:                 -10.166
REMARK INTRA:                  -2.035
REMARK UNBOUND:                -1.672
REMARK SMILES C[C@H]1O[C@H](O[C@@H]2[C@H](Oc3cc(O)c4c(c3)O[C@H](c3ccc(O)cc3)CC4=O)O[C@H](CO)[C@H](O)[C@@H]2O)[C@@H](O)[C@H](O)[C@H]1O
REMARK SMILES IDX 6 1 34 2 32 3 29 4 28 5 7 6 5 7 4 8 1 9 2 10 40 11 3 12
REMARK SMILES IDX 38 13 36 14 41 15 39 17 37 19 35 21 8 23 9 24 10 25 15 26
REMARK SMILES IDX 11 27 14 28 13 29 16 30 26 31 17 32 27 33 25 34 12 35 18 37
REMARK SMILES IDX 19 38 24 39 20 40 23 41 21 42 22 43 33 45 30 47 31 48
REMARK H PARENT 41 16 39 18 37 20 35 22 12 36 22 44 33 46 31 49
REMARK Flexibility Score: inf
ROOT
ATOM      1  C   UNL     1      57.173 -38.433  56.796  1.00  0.00     0.221 C 
ATOM      2  C   UNL     1      57.518 -39.701  55.991  1.00  0.00     0.181 C 
ATOM      3  C   UNL     1      58.627 -40.486  56.737  1.00  0.00     0.177 C 
ATOM      4  C   UNL     1      59.607 -39.548  57.509  1.00  0.00     0.179 C 
ATOM      5  O   UNL     1      59.677 -38.282  56.887  1.00  0.00    -0.332 OA
ATOM      6  C   UNL     1      58.459 -37.565  57.028  1.00  0.00     0.339 C 
ENDROOT
BRANCH   1   7
ATOM      7  O   UNL     1      56.179 -37.624  56.175  1.00  0.00    -0.337 OA
BRANCH   7   8
ATOM      8  C   UNL     1      55.094 -37.231  57.013  1.00  0.00     0.282 C 
ATOM      9  C   UNL     1      53.891 -34.997  58.573  1.00  0.00     0.041 C 
ATOM     10  C   UNL     1      53.363 -35.642  57.275  1.00  0.00     0.150 C 
ATOM     11  C   UNL     1      52.240 -36.704  57.480  1.00  0.00     0.174 C 
ATOM     12  O   UNL     1      54.413 -36.124  56.452  1.00  0.00    -0.344 OA
ATOM     13  C   UNL     1      52.680 -38.122  57.043  1.00  0.00     0.179 C 
ATOM     14  C   UNL     1      54.152 -38.404  57.438  1.00  0.00     0.202 C 
BRANCH  11  15
ATOM     15  O   UNL     1      51.822 -36.734  58.825  1.00  0.00    -0.388 OA
ATOM     16  H   UNL     1      51.620 -37.682  59.046  1.00  0.00     0.211 HD
ENDBRANCH  11  15
BRANCH  13  17
ATOM     17  O   UNL     1      52.468 -38.331  55.662  1.00  0.00    -0.387 OA
ATOM     18  H   UNL     1      53.018 -39.110  55.371  1.00  0.00     0.211 HD
ENDBRANCH  13  17
BRANCH  14  19
ATOM     19  O   UNL     1      54.239 -38.573  58.830  1.00  0.00    -0.385 OA
ATOM     20  H   UNL     1      54.230 -39.556  59.007  1.00  0.00     0.211 HD
ENDBRANCH  14  19
ENDBRANCH   7   8
ENDBRANCH   1   7
BRANCH   2  21
ATOM     21  O   UNL     1      57.920 -39.334  54.697  1.00  0.00    -0.387 OA
ATOM     22  H   UNL     1      58.797 -38.869  54.771  1.00  0.00     0.211 HD
ENDBRANCH   2  21
BRANCH   6  23
ATOM     23  O   UNL     1      58.471 -36.414  56.168  1.00  0.00    -0.462 OA
BRANCH  23  24
ATOM     24  C   UNL     1      58.363 -35.079  56.595  1.00  0.00     0.130 A 
ATOM     25  C   UNL     1      59.016 -34.090  55.860  1.00  0.00     0.093 A 
ATOM     26  C   UNL     1      57.588 -34.706  57.709  1.00  0.00     0.094 A 
ATOM     27  C   UNL     1      58.948 -32.740  56.239  1.00  0.00     0.133 A 
ATOM     28  C   UNL     1      57.503 -33.366  58.095  1.00  0.00     0.138 A 
ATOM     29  C   UNL     1      58.145 -32.357  57.347  1.00  0.00     0.102 A 
ATOM     30  O   UNL     1      56.766 -33.039  59.241  1.00  0.00    -0.484 OA
ATOM     31  C   UNL     1      57.826 -30.943  57.708  1.00  0.00     0.174 C 
ATOM     32  C   UNL     1      56.895 -31.769  59.882  1.00  0.00     0.211 C 
ATOM     33  O   UNL     1      58.221 -29.977  57.003  1.00  0.00    -0.294 OA
ATOM     34  C   UNL     1      56.874 -30.645  58.837  1.00  0.00     0.131 C 
BRANCH  27  35
ATOM     35  O   UNL     1      59.715 -31.832  55.503  1.00  0.00    -0.507 OA
ATOM     36  H   UNL     1      60.225 -31.071  55.915  1.00  0.00     0.293 HD
ENDBRANCH  27  35
BRANCH  32  37
ATOM     37  C   UNL     1      55.786 -31.576  60.890  1.00  0.00    -0.007 A 
ATOM     38  C   UNL     1      54.803 -30.596  60.674  1.00  0.00     0.011 A 
ATOM     39  C   UNL     1      55.690 -32.399  62.026  1.00  0.00     0.011 A 
ATOM     40  C   UNL     1      53.760 -30.422  61.591  1.00  0.00     0.046 A 
ATOM     41  C   UNL     1      54.643 -32.224  62.941  1.00  0.00     0.046 A 
ATOM     42  C   UNL     1      53.678 -31.232  62.726  1.00  0.00     0.115 A 
BRANCH  42  43
ATOM     43  O   UNL     1      52.633 -31.047  63.634  1.00  0.00    -0.508 OA
ATOM     44  H   UNL     1      51.781 -30.551  63.381  1.00  0.00     0.293 HD
ENDBRANCH  42  43
ENDBRANCH  32  37
ENDBRANCH  23  24
ENDBRANCH   6  23
BRANCH   3  45
ATOM     45  O   UNL     1      59.274 -41.394  55.881  1.00  0.00    -0.387 OA
ATOM     46  H   UNL     1      58.907 -42.299  56.074  1.00  0.00     0.211 HD
ENDBRANCH   3  45
BRANCH   4  47
ATOM     47  C   UNL     1      61.027 -40.120  57.666  1.00  0.00     0.191 C 
BRANCH  47  48
ATOM     48  O   UNL     1      61.759 -39.379  58.609  1.00  0.00    -0.394 OA
ATOM     49  H   UNL     1      62.291 -38.713  58.099  1.00  0.00     0.210 HD
ENDBRANCH  47  48
ENDBRANCH   4  47
TORSDOF 14
ENDMDL
MODEL 8
REMARK VINA RESULT:    -6.626      4.231      9.770
REMARK INTER + INTRA:         -12.171
REMARK INTER:                  -9.932
REMARK INTRA:                  -2.239
REMARK UNBOUND:                -1.672
REMARK SMILES C[C@H]1O[C@H](O[C@@H]2[C@H](Oc3cc(O)c4c(c3)O[C@H](c3ccc(O)cc3)CC4=O)O[C@H](CO)[C@H](O)[C@@H]2O)[C@@H](O)[C@H](O)[C@H]1O
REMARK SMILES IDX 6 1 34 2 32 3 29 4 28 5 7 6 5 7 4 8 1 9 2 10 40 11 3 12
REMARK SMILES IDX 38 13 36 14 41 15 39 17 37 19 35 21 8 23 9 24 10 25 15 26
REMARK SMILES IDX 11 27 14 28 13 29 16 30 26 31 17 32 27 33 25 34 12 35 18 37
REMARK SMILES IDX 19 38 24 39 20 40 23 41 21 42 22 43 33 45 30 47 31 48
REMARK H PARENT 41 16 39 18 37 20 35 22 12 36 22 44 33 46 31 49
REMARK Flexibility Score: inf
ROOT
ATOM      1  C   UNL     1      55.615 -31.832  59.915  1.00  0.00     0.221 C 
ATOM      2  C   UNL     1      54.860 -30.768  60.737  1.00  0.00     0.181 C 
ATOM      3  C   UNL     1      55.022 -31.087  62.245  1.00  0.00     0.177 C 
ATOM      4  C   UNL     1      55.118 -32.621  62.524  1.00  0.00     0.179 C 
ATOM      5  O   UNL     1      54.435 -33.351  61.527  1.00  0.00    -0.332 OA
ATOM      6  C   UNL     1      55.098 -33.269  60.275  1.00  0.00     0.339 C 
ENDROOT
BRANCH   1   7
ATOM      7  O   UNL     1      55.502 -31.641  58.509  1.00  0.00    -0.337 OA
BRANCH   7   8
ATOM      8  C   UNL     1      56.669 -31.952  57.750  1.00  0.00     0.282 C 
ATOM      9  C   UNL     1      57.902 -33.864  55.828  1.00  0.00     0.041 C 
ATOM     10  C   UNL     1      57.463 -32.408  55.571  1.00  0.00     0.150 C 
ATOM     11  C   UNL     1      58.614 -31.357  55.628  1.00  0.00     0.174 C 
ATOM     12  O   UNL     1      56.354 -32.034  56.372  1.00  0.00    -0.344 OA
ATOM     13  C   UNL     1      58.436 -30.348  56.788  1.00  0.00     0.179 C 
ATOM     14  C   UNL     1      57.901 -31.044  58.065  1.00  0.00     0.202 C 
BRANCH  11  15
ATOM     15  O   UNL     1      59.865 -31.994  55.745  1.00  0.00    -0.388 OA
ATOM     16  H   UNL     1      60.410 -31.710  54.963  1.00  0.00     0.211 HD
ENDBRANCH  11  15
BRANCH  13  17
ATOM     17  O   UNL     1      57.615 -29.261  56.412  1.00  0.00    -0.387 OA
ATOM     18  H   UNL     1      56.872 -29.182  57.070  1.00  0.00     0.211 HD
ENDBRANCH  13  17
BRANCH  14  19
ATOM     19  O   UNL     1      58.916 -31.836  58.626  1.00  0.00    -0.385 OA
ATOM     20  H   UNL     1      58.844 -31.746  59.618  1.00  0.00     0.211 HD
ENDBRANCH  14  19
ENDBRANCH   7   8
ENDBRANCH   1   7
BRANCH   2  21
ATOM     21  O   UNL     1      53.511 -30.753  60.349  1.00  0.00    -0.387 OA
ATOM     22  H   UNL     1      53.472 -30.465  59.398  1.00  0.00     0.211 HD
ENDBRANCH   2  21
BRANCH   6  23
ATOM     23  O   UNL     1      54.249 -33.789  59.239  1.00  0.00    -0.462 OA
BRANCH  23  24
ATOM     24  C   UNL     1      54.622 -34.757  58.290  1.00  0.00     0.130 A 
ATOM     25  C   UNL     1      53.916 -34.820  57.090  1.00  0.00     0.093 A 
ATOM     26  C   UNL     1      55.706 -35.632  58.495  1.00  0.00     0.094 A 
ATOM     27  C   UNL     1      54.240 -35.767  56.106  1.00  0.00     0.133 A 
ATOM     28  C   UNL     1      56.047 -36.575  57.523  1.00  0.00     0.138 A 
ATOM     29  C   UNL     1      55.350 -36.634  56.298  1.00  0.00     0.102 A 
ATOM     30  O   UNL     1      57.097 -37.465  57.785  1.00  0.00    -0.484 OA
ATOM     31  C   UNL     1      55.917 -37.524  55.241  1.00  0.00     0.174 C 
ATOM     32  C   UNL     1      57.294 -38.647  57.007  1.00  0.00     0.211 C 
ATOM     33  O   UNL     1      55.462 -37.525  54.067  1.00  0.00    -0.294 OA
ATOM     34  C   UNL     1      57.165 -38.323  55.513  1.00  0.00     0.131 C 
BRANCH  27  35
ATOM     35  O   UNL     1      53.416 -35.823  54.978  1.00  0.00    -0.507 OA
ATOM     36  H   UNL     1      53.016 -35.012  54.541  1.00  0.00     0.293 HD
ENDBRANCH  27  35
BRANCH  32  37
ATOM     37  C   UNL     1      58.647 -39.250  57.304  1.00  0.00    -0.007 A 
ATOM     38  C   UNL     1      58.908 -40.589  56.972  1.00  0.00     0.011 A 
ATOM     39  C   UNL     1      59.676 -38.475  57.867  1.00  0.00     0.011 A 
ATOM     40  C   UNL     1      60.163 -41.153  57.224  1.00  0.00     0.046 A 
ATOM     41  C   UNL     1      60.934 -39.041  58.116  1.00  0.00     0.046 A 
ATOM     42  C   UNL     1      61.179 -40.383  57.797  1.00  0.00     0.115 A 
BRANCH  42  43
ATOM     43  O   UNL     1      62.427 -40.957  58.045  1.00  0.00    -0.508 OA
ATOM     44  H   UNL     1      62.931 -40.796  58.914  1.00  0.00     0.293 HD
ENDBRANCH  42  43
ENDBRANCH  32  37
ENDBRANCH  23  24
ENDBRANCH   6  23
BRANCH   3  45
ATOM     45  O   UNL     1      54.041 -30.436  63.014  1.00  0.00    -0.387 OA
ATOM     46  H   UNL     1      54.450 -29.603  63.373  1.00  0.00     0.211 HD
ENDBRANCH   3  45
BRANCH   4  47
ATOM     47  C   UNL     1      54.598 -33.038  63.911  1.00  0.00     0.191 C 
BRANCH  47  48
ATOM     48  O   UNL     1      53.195 -33.105  63.915  1.00  0.00    -0.394 OA
ATOM     49  H   UNL     1      52.870 -32.341  63.371  1.00  0.00     0.210 HD
ENDBRANCH  47  48
ENDBRANCH   4  47
TORSDOF 14
ENDMDL
MODEL 9
REMARK VINA RESULT:    -6.611      3.816      6.604
REMARK INTER + INTRA:         -12.148
REMARK INTER:                 -10.695
REMARK INTRA:                  -1.454
REMARK UNBOUND:                -1.672
REMARK SMILES C[C@H]1O[C@H](O[C@@H]2[C@H](Oc3cc(O)c4c(c3)O[C@H](c3ccc(O)cc3)CC4=O)O[C@H](CO)[C@H](O)[C@@H]2O)[C@@H](O)[C@H](O)[C@H]1O
REMARK SMILES IDX 6 1 34 2 32 3 29 4 28 5 7 6 5 7 4 8 1 9 2 10 40 11 3 12
REMARK SMILES IDX 38 13 36 14 41 15 39 17 37 19 35 21 8 23 9 24 10 25 15 26
REMARK SMILES IDX 11 27 14 28 13 29 16 30 26 31 17 32 27 33 25 34 12 35 18 37
REMARK SMILES IDX 19 38 24 39 20 40 23 41 21 42 22 43 33 45 30 47 31 48
REMARK H PARENT 41 16 39 18 37 20 35 22 12 36 22 44 33 46 31 49
REMARK Flexibility Score: inf
ROOT
ATOM      1  C   UNL     1      51.320 -35.067  56.092  1.00  0.00     0.221 C 
ATOM      2  C   UNL     1      49.779 -35.096  56.127  1.00  0.00     0.181 C 
ATOM      3  C   UNL     1      49.232 -34.284  54.926  1.00  0.00     0.177 C 
ATOM      4  C   UNL     1      50.157 -33.086  54.543  1.00  0.00     0.179 C 
ATOM      5  O   UNL     1      50.875 -32.633  55.672  1.00  0.00    -0.332 OA
ATOM      6  C   UNL     1      51.839 -33.587  56.093  1.00  0.00     0.339 C 
ENDROOT
BRANCH   1   7
ATOM      7  O   UNL     1      51.920 -35.766  57.178  1.00  0.00    -0.337 OA
BRANCH   7   8
ATOM      8  C   UNL     1      51.320 -37.015  57.513  1.00  0.00     0.282 C 
ATOM      9  C   UNL     1      49.434 -39.142  56.624  1.00  0.00     0.041 C 
ATOM     10  C   UNL     1      50.968 -39.227  56.757  1.00  0.00     0.150 C 
ATOM     11  C   UNL     1      51.476 -39.897  58.070  1.00  0.00     0.174 C 
ATOM     12  O   UNL     1      51.597 -37.979  56.514  1.00  0.00    -0.344 OA
ATOM     13  C   UNL     1      52.267 -38.915  58.968  1.00  0.00     0.179 C 
ATOM     14  C   UNL     1      51.624 -37.505  58.966  1.00  0.00     0.202 C 
BRANCH  11  15
ATOM     15  O   UNL     1      50.401 -40.441  58.800  1.00  0.00    -0.388 OA
ATOM     16  H   UNL     1      49.816 -39.682  59.066  1.00  0.00     0.211 HD
ENDBRANCH  11  15
BRANCH  13  17
ATOM     17  O   UNL     1      53.631 -38.860  58.603  1.00  0.00    -0.387 OA
ATOM     18  H   UNL     1      54.130 -39.536  59.138  1.00  0.00     0.211 HD
ENDBRANCH  13  17
BRANCH  14  19
ATOM     19  O   UNL     1      50.423 -37.537  59.694  1.00  0.00    -0.385 OA
ATOM     20  H   UNL     1      50.265 -38.488  59.955  1.00  0.00     0.211 HD
ENDBRANCH  14  19
ENDBRANCH   7   8
ENDBRANCH   1   7
BRANCH   2  21
ATOM     21  O   UNL     1      49.332 -34.578  57.353  1.00  0.00    -0.387 OA
ATOM     22  H   UNL     1      49.967 -34.877  58.058  1.00  0.00     0.211 HD
ENDBRANCH   2  21
BRANCH   6  23
ATOM     23  O   UNL     1      52.357 -33.219  57.382  1.00  0.00    -0.462 OA
BRANCH  23  24
ATOM     24  C   UNL     1      53.659 -32.751  57.633  1.00  0.00     0.130 A 
ATOM     25  C   UNL     1      54.215 -32.972  58.892  1.00  0.00     0.093 A 
ATOM     26  C   UNL     1      54.429 -32.107  56.646  1.00  0.00     0.094 A 
ATOM     27  C   UNL     1      55.509 -32.526  59.202  1.00  0.00     0.133 A 
ATOM     28  C   UNL     1      55.721 -31.663  56.936  1.00  0.00     0.138 A 
ATOM     29  C   UNL     1      56.299 -31.899  58.201  1.00  0.00     0.102 A 
ATOM     30  O   UNL     1      56.438 -30.979  55.946  1.00  0.00    -0.484 OA
ATOM     31  C   UNL     1      57.751 -31.581  58.350  1.00  0.00     0.174 C 
ATOM     32  C   UNL     1      57.607 -30.218  56.253  1.00  0.00     0.211 C 
ATOM     33  O   UNL     1      58.393 -31.901  59.385  1.00  0.00    -0.294 OA
ATOM     34  C   UNL     1      58.526 -31.016  57.188  1.00  0.00     0.131 C 
BRANCH  27  35
ATOM     35  O   UNL     1      55.946 -32.703  60.519  1.00  0.00    -0.507 OA
ATOM     36  H   UNL     1      55.858 -32.003  61.233  1.00  0.00     0.293 HD
ENDBRANCH  27  35
BRANCH  32  37
ATOM     37  C   UNL     1      58.338 -29.845  54.984  1.00  0.00    -0.007 A 
ATOM     38  C   UNL     1      57.932 -28.723  54.243  1.00  0.00     0.011 A 
ATOM     39  C   UNL     1      59.457 -30.578  54.552  1.00  0.00     0.011 A 
ATOM     40  C   UNL     1      58.613 -28.357  53.077  1.00  0.00     0.046 A 
ATOM     41  C   UNL     1      60.139 -30.207  53.385  1.00  0.00     0.046 A 
ATOM     42  C   UNL     1      59.716 -29.097  52.644  1.00  0.00     0.115 A 
BRANCH  42  43
ATOM     43  O   UNL     1      60.386 -28.722  51.478  1.00  0.00    -0.508 OA
ATOM     44  H   UNL     1      60.011 -28.921  50.553  1.00  0.00     0.293 HD
ENDBRANCH  42  43
ENDBRANCH  32  37
ENDBRANCH  23  24
ENDBRANCH   6  23
BRANCH   3  45
ATOM     45  O   UNL     1      47.890 -33.916  55.126  1.00  0.00    -0.387 OA
ATOM     46  H   UNL     1      47.440 -34.675  55.586  1.00  0.00     0.211 HD
ENDBRANCH   3  45
BRANCH   4  47
ATOM     47  C   UNL     1      49.414 -31.901  53.901  1.00  0.00     0.191 C 
BRANCH  47  48
ATOM     48  O   UNL     1      48.963 -31.006  54.884  1.00  0.00    -0.394 OA
ATOM     49  H   UNL     1      49.194 -30.093  54.568  1.00  0.00     0.210 HD
ENDBRANCH  47  48
ENDBRANCH   4  47
TORSDOF 14
ENDMDL
