MODEL 1
REMARK VINA RESULT:    -3.816      0.000      0.000
REMARK INTER + INTRA:          -5.381
REMARK INTER:                  -4.708
REMARK INTRA:                  -0.673
REMARK UNBOUND:                -0.673
REMARK SMILES C=CC(=C)CCC=C(C)C
REMARK SMILES IDX 5 1 6 2 7 3 9 4 8 5 10 6 3 7 4 8 2 9 1 10
REMARK H PARENT
REMARK Flexibility Score: inf
ROOT
ATOM      1  C   UNL     1      15.471  15.317  36.357  1.00  0.00     0.039 C 
ENDROOT
BRANCH   1   2
ATOM      2  C   UNL     1      14.771  16.675  36.510  1.00  0.00     0.032 C 
BRANCH   2   3
ATOM      3  C   UNL     1      14.025  17.078  35.262  1.00  0.00    -0.028 C 
ATOM      4  C   UNL     1      12.119  17.832  33.908  1.00  0.00     0.039 C 
ATOM      5  C   UNL     1      12.745  17.510  35.239  1.00  0.00    -0.080 C 
ATOM      6  C   UNL     1      11.937  17.683  36.503  1.00  0.00     0.039 C 
ENDBRANCH   2   3
ENDBRANCH   1   2
BRANCH   1   7
ATOM      7  C   UNL     1      14.577  14.164  36.775  1.00  0.00    -0.055 C 
ATOM      8  C   UNL     1      14.925  12.921  36.425  1.00  0.00     0.012 C 
BRANCH   7   9
ATOM      9  C   UNL     1      13.310  14.358  37.529  1.00  0.00    -0.005 C 
ATOM     10  C   UNL     1      12.123  13.878  37.151  1.00  0.00     0.009 C 
ENDBRANCH   7   9
ENDBRANCH   1   7
TORSDOF 4
ENDMDL
MODEL 2
REMARK VINA RESULT:    -3.812      1.839      3.894
REMARK INTER + INTRA:          -5.377
REMARK INTER:                  -4.942
REMARK INTRA:                  -0.435
REMARK UNBOUND:                -0.673
REMARK SMILES C=CC(=C)CCC=C(C)C
REMARK SMILES IDX 5 1 6 2 7 3 9 4 8 5 10 6 3 7 4 8 2 9 1 10
REMARK H PARENT
REMARK Flexibility Score: inf
ROOT
ATOM      1  C   UNL     1      13.148  15.941  37.751  1.00  0.00     0.039 C 
ENDROOT
BRANCH   1   2
ATOM      2  C   UNL     1      13.882  15.767  36.414  1.00  0.00     0.032 C 
BRANCH   2   3
ATOM      3  C   UNL     1      15.374  15.624  36.594  1.00  0.00    -0.028 C 
ATOM      4  C   UNL     1      17.528  14.461  36.806  1.00  0.00     0.039 C 
ATOM      5  C   UNL     1      16.042  14.450  36.561  1.00  0.00    -0.080 C 
ATOM      6  C   UNL     1      15.343  13.140  36.283  1.00  0.00     0.039 C 
ENDBRANCH   2   3
ENDBRANCH   1   2
BRANCH   1   7
ATOM      7  C   UNL     1      12.300  14.731  38.097  1.00  0.00    -0.055 C 
ATOM      8  C   UNL     1      11.712  14.681  39.297  1.00  0.00     0.012 C 
BRANCH   7   9
ATOM      9  C   UNL     1      12.123  13.579  37.174  1.00  0.00    -0.005 C 
ATOM     10  C   UNL     1      10.961  12.964  36.945  1.00  0.00     0.009 C 
ENDBRANCH   7   9
ENDBRANCH   1   7
TORSDOF 4
ENDMDL
MODEL 3
REMARK VINA RESULT:    -3.735      1.496      3.657
REMARK INTER + INTRA:          -5.282
REMARK INTER:                  -4.544
REMARK INTRA:                  -0.738
REMARK UNBOUND:                -0.673
REMARK SMILES C=CC(=C)CCC=C(C)C
REMARK SMILES IDX 5 1 6 2 7 3 9 4 8 5 10 6 3 7 4 8 2 9 1 10
REMARK H PARENT
REMARK Flexibility Score: inf
ROOT
ATOM      1  C   UNL     1      14.411  16.988  36.461  1.00  0.00     0.039 C 
ENDROOT
BRANCH   1   2
ATOM      2  C   UNL     1      13.033  16.312  36.427  1.00  0.00     0.032 C 
BRANCH   2   3
ATOM      3  C   UNL     1      12.550  15.928  37.805  1.00  0.00    -0.028 C 
ATOM      4  C   UNL     1      11.550  14.502  39.538  1.00  0.00     0.039 C 
ATOM      5  C   UNL     1      12.035  14.722  38.129  1.00  0.00    -0.080 C 
ATOM      6  C   UNL     1      11.941  13.597  37.125  1.00  0.00     0.039 C 
ENDBRANCH   2   3
ENDBRANCH   1   2
BRANCH   1   7
ATOM      7  C   UNL     1      15.531  15.988  36.679  1.00  0.00    -0.055 C 
ATOM      8  C   UNL     1      16.485  16.276  37.571  1.00  0.00     0.012 C 
BRANCH   7   9
ATOM      9  C   UNL     1      15.637  14.716  35.917  1.00  0.00    -0.005 C 
ATOM     10  C   UNL     1      15.564  13.499  36.459  1.00  0.00     0.009 C 
ENDBRANCH   7   9
ENDBRANCH   1   7
TORSDOF 4
ENDMDL
MODEL 4
REMARK VINA RESULT:    -3.695     10.867     14.113
REMARK INTER + INTRA:          -5.232
REMARK INTER:                  -4.858
REMARK INTRA:                  -0.373
REMARK UNBOUND:                -0.673
REMARK SMILES C=CC(=C)CCC=C(C)C
REMARK SMILES IDX 5 1 6 2 7 3 9 4 8 5 10 6 3 7 4 8 2 9 1 10
REMARK H PARENT
REMARK Flexibility Score: inf
ROOT
ATOM      1  C   UNL     1       7.220  19.232  24.336  1.00  0.00     0.039 C 
ENDROOT
BRANCH   1   2
ATOM      2  C   UNL     1       8.554  19.979  24.478  1.00  0.00     0.032 C 
BRANCH   2   3
ATOM      3  C   UNL     1       9.278  19.621  25.753  1.00  0.00    -0.028 C 
ATOM      4  C   UNL     1      11.146  18.871  27.161  1.00  0.00     0.039 C 
ATOM      5  C   UNL     1      10.574  19.245  25.819  1.00  0.00    -0.080 C 
ATOM      6  C   UNL     1      11.456  19.198  24.594  1.00  0.00     0.039 C 
ENDBRANCH   2   3
ENDBRANCH   1   2
BRANCH   1   7
ATOM      7  C   UNL     1       7.072  18.584  22.972  1.00  0.00    -0.055 C 
ATOM      8  C   UNL     1       8.174  18.303  22.270  1.00  0.00     0.012 C 
BRANCH   7   9
ATOM      9  C   UNL     1       5.749  18.281  22.363  1.00  0.00    -0.005 C 
ATOM     10  C   UNL     1       5.016  19.156  21.671  1.00  0.00     0.009 C 
ENDBRANCH   7   9
ENDBRANCH   1   7
TORSDOF 4
ENDMDL
MODEL 5
REMARK VINA RESULT:    -3.655     10.437     13.448
REMARK INTER + INTRA:          -5.183
REMARK INTER:                  -4.697
REMARK INTRA:                  -0.486
REMARK UNBOUND:                -0.673
REMARK SMILES C=CC(=C)CCC=C(C)C
REMARK SMILES IDX 5 1 6 2 7 3 9 4 8 5 10 6 3 7 4 8 2 9 1 10
REMARK H PARENT
REMARK Flexibility Score: inf
ROOT
ATOM      1  C   UNL     1       9.144  20.284  25.145  1.00  0.00     0.039 C 
ENDROOT
BRANCH   1   2
ATOM      2  C   UNL     1       7.960  19.310  25.211  1.00  0.00     0.032 C 
BRANCH   2   3
ATOM      3  C   UNL     1       6.877  19.657  24.218  1.00  0.00    -0.028 C 
ATOM      4  C   UNL     1       5.651  19.591  22.090  1.00  0.00     0.039 C 
ATOM      5  C   UNL     1       6.758  19.107  22.990  1.00  0.00    -0.080 C 
ATOM      6  C   UNL     1       7.695  18.027  22.503  1.00  0.00     0.039 C 
ENDBRANCH   2   3
ENDBRANCH   1   2
BRANCH   1   7
ATOM      7  C   UNL     1      10.475  19.560  25.068  1.00  0.00    -0.055 C 
ATOM      8  C   UNL     1      10.916  19.151  23.874  1.00  0.00     0.012 C 
BRANCH   7   9
ATOM      9  C   UNL     1      11.295  19.249  26.270  1.00  0.00    -0.005 C 
ATOM     10  C   UNL     1      10.863  18.554  27.323  1.00  0.00     0.009 C 
ENDBRANCH   7   9
ENDBRANCH   1   7
TORSDOF 4
ENDMDL
MODEL 6
REMARK VINA RESULT:    -3.621      9.314     12.211
REMARK INTER + INTRA:          -5.140
REMARK INTER:                  -4.682
REMARK INTRA:                  -0.458
REMARK UNBOUND:                -0.673
REMARK SMILES C=CC(=C)CCC=C(C)C
REMARK SMILES IDX 5 1 6 2 7 3 9 4 8 5 10 6 3 7 4 8 2 9 1 10
REMARK H PARENT
REMARK Flexibility Score: inf
ROOT
ATOM      1  C   UNL     1      11.271  19.206  25.445  1.00  0.00     0.039 C 
ENDROOT
BRANCH   1   2
ATOM      2  C   UNL     1      10.234  20.059  24.701  1.00  0.00     0.032 C 
BRANCH   2   3
ATOM      3  C   UNL     1       9.621  19.325  23.533  1.00  0.00    -0.028 C 
ATOM      4  C   UNL     1       7.851  18.250  22.212  1.00  0.00     0.039 C 
ATOM      5  C   UNL     1       8.307  19.031  23.416  1.00  0.00    -0.080 C 
ATOM      6  C   UNL     1       7.295  19.467  24.449  1.00  0.00     0.039 C 
ENDBRANCH   2   3
ENDBRANCH   1   2
BRANCH   1   7
ATOM      7  C   UNL     1      10.943  19.065  26.920  1.00  0.00    -0.055 C 
ATOM      8  C   UNL     1       9.667  18.888  27.279  1.00  0.00     0.012 C 
BRANCH   7   9
ATOM      9  C   UNL     1      11.974  19.152  27.988  1.00  0.00    -0.005 C 
ATOM     10  C   UNL     1      13.193  19.668  27.823  1.00  0.00     0.009 C 
ENDBRANCH   7   9
ENDBRANCH   1   7
TORSDOF 4
ENDMDL
MODEL 7
REMARK VINA RESULT:    -3.587     13.278     16.137
REMARK INTER + INTRA:          -5.098
REMARK INTER:                  -4.564
REMARK INTRA:                  -0.534
REMARK UNBOUND:                -0.673
REMARK SMILES C=CC(=C)CCC=C(C)C
REMARK SMILES IDX 5 1 6 2 7 3 9 4 8 5 10 6 3 7 4 8 2 9 1 10
REMARK H PARENT
REMARK Flexibility Score: inf
ROOT
ATOM      1  C   UNL     1       5.705  18.165  22.475  1.00  0.00     0.039 C 
ENDROOT
BRANCH   1   2
ATOM      2  C   UNL     1       4.903  19.230  21.714  1.00  0.00     0.032 C 
BRANCH   2   3
ATOM      3  C   UNL     1       3.497  19.377  22.245  1.00  0.00    -0.028 C 
ATOM      4  C   UNL     1       1.676  20.314  23.600  1.00  0.00     0.039 C 
ATOM      5  C   UNL     1       3.104  20.324  23.124  1.00  0.00    -0.080 C 
ATOM      6  C   UNL     1       4.051  21.386  23.631  1.00  0.00     0.039 C 
ENDBRANCH   2   3
ENDBRANCH   1   2
BRANCH   1   7
ATOM      7  C   UNL     1       7.092  18.654  22.847  1.00  0.00    -0.055 C 
ATOM      8  C   UNL     1       8.148  18.140  22.208  1.00  0.00     0.012 C 
BRANCH   7   9
ATOM      9  C   UNL     1       7.334  19.656  23.920  1.00  0.00    -0.005 C 
ATOM     10  C   UNL     1       7.462  19.362  25.215  1.00  0.00     0.009 C 
ENDBRANCH   7   9
ENDBRANCH   1   7
TORSDOF 4
ENDMDL
MODEL 8
REMARK VINA RESULT:    -3.577     12.556     14.211
REMARK INTER + INTRA:          -5.087
REMARK INTER:                  -4.200
REMARK INTRA:                  -0.887
REMARK UNBOUND:                -0.673
REMARK SMILES C=CC(=C)CCC=C(C)C
REMARK SMILES IDX 5 1 6 2 7 3 9 4 8 5 10 6 3 7 4 8 2 9 1 10
REMARK H PARENT
REMARK Flexibility Score: inf
ROOT
ATOM      1  C   UNL     1       7.643  19.252  25.315  1.00  0.00     0.039 C 
ENDROOT
BRANCH   1   2
ATOM      2  C   UNL     1       8.894  20.130  25.466  1.00  0.00     0.032 C 
BRANCH   2   3
ATOM      3  C   UNL     1      10.131  19.463  24.915  1.00  0.00    -0.028 C 
ATOM      4  C   UNL     1      11.937  19.014  23.311  1.00  0.00     0.039 C 
ATOM      5  C   UNL     1      10.735  19.805  23.756  1.00  0.00    -0.080 C 
ATOM      6  C   UNL     1      10.243  20.953  22.906  1.00  0.00     0.039 C 
ENDBRANCH   2   3
ENDBRANCH   1   2
BRANCH   1   7
ATOM      7  C   UNL     1       6.972  19.443  23.967  1.00  0.00    -0.055 C 
ATOM      8  C   UNL     1       6.327  20.589  23.727  1.00  0.00     0.012 C 
BRANCH   7   9
ATOM      9  C   UNL     1       6.967  18.394  22.913  1.00  0.00    -0.005 C 
ATOM     10  C   UNL     1       8.036  18.028  22.204  1.00  0.00     0.009 C 
ENDBRANCH   7   9
ENDBRANCH   1   7
TORSDOF 4
ENDMDL
