MODEL 1
REMARK VINA RESULT:    -7.829      0.000      0.000
REMARK INTER + INTRA:         -10.995
REMARK INTER:                 -10.346
REMARK INTRA:                  -0.650
REMARK UNBOUND:                -0.650
REMARK SMILES CC(C)=CCC[C@H](C(=O)[O-])[C@H]1CC[C@]2(C)C3=C(CC[C@]12C)[C@]1(C)CC[C@@H](O)C(C)(C)[C@@H]1CC3
REMARK SMILES IDX 6 1 7 2 8 3 9 4 10 5 11 6 12 7 20 8 13 9 14 10 19 11 21 12
REMARK SMILES IDX 15 13 16 14 18 15 17 16 33 17 22 18 32 19 31 20 24 21 23 22
REMARK SMILES IDX 28 23 25 24 26 25 29 26 30 27 27 28 5 30 4 31 2 32 1 33 3 34
REMARK H PARENT 27 29
REMARK Flexibility Score: inf
ROOT
ATOM      1  C   UNL     1       9.487   2.741  53.680  1.00  0.00     0.014 C 
ENDROOT
BRANCH   1   2
ATOM      2  C   UNL     1      10.410   3.883  53.169  1.00  0.00     0.039 C 
BRANCH   2   3
ATOM      3  C   UNL     1      11.159   4.469  54.345  1.00  0.00     0.045 C 
ATOM      4  O   UNL     1      10.831   4.163  55.521  1.00  0.00    -0.550 OA
ATOM      5  O   UNL     1      12.235   5.323  54.140  1.00  0.00    -0.550 OA
ENDBRANCH   2   3
BRANCH   2   6
ATOM      6  C   UNL     1       9.587   4.993  52.423  1.00  0.00     0.004 C 
ATOM      7  C   UNL     1       9.223   6.178  53.317  1.00  0.00     0.006 C 
ATOM      8  C   UNL     1      10.181   5.634  51.094  1.00  0.00    -0.020 C 
ATOM      9  C   UNL     1       8.908   7.307  52.365  1.00  0.00     0.012 C 
ATOM     10  C   UNL     1       9.954   7.205  51.244  1.00  0.00    -0.006 C 
ATOM     11  C   UNL     1       9.347   5.099  49.901  1.00  0.00     0.012 C 
ATOM     12  C   UNL     1      11.681   5.278  50.841  1.00  0.00     0.012 C 
ATOM     13  C   UNL     1      11.234   7.961  51.714  1.00  0.00     0.017 C 
ATOM     14  C   UNL     1       9.441   7.933  49.975  1.00  0.00    -0.064 C 
ATOM     15  C   UNL     1       9.621   5.857  48.611  1.00  0.00     0.032 C 
ATOM     16  C   UNL     1       9.292   7.331  48.759  1.00  0.00    -0.064 C 
ATOM     17  C   UNL     1       9.075   9.399  50.080  1.00  0.00     0.032 C 
ATOM     18  C   UNL     1       9.063   8.220  47.494  1.00  0.00    -0.008 C 
ATOM     19  C   UNL     1       7.788   9.629  49.306  1.00  0.00     0.009 C 
ATOM     20  C   UNL     1       7.992   9.380  47.777  1.00  0.00     0.007 C 
ATOM     21  C   UNL     1      10.488   8.744  47.077  1.00  0.00     0.014 C 
ATOM     22  C   UNL     1       8.493   7.345  46.337  1.00  0.00     0.016 C 
ATOM     23  C   UNL     1       8.095  10.695  46.848  1.00  0.00    -0.006 C 
ATOM     24  C   UNL     1      10.591  10.232  46.756  1.00  0.00     0.033 C 
ATOM     25  C   UNL     1       9.387  10.719  45.961  1.00  0.00     0.120 C 
ATOM     26  C   UNL     1       8.078  12.025  47.661  1.00  0.00     0.014 C 
ATOM     27  C   UNL     1       6.857  10.764  45.913  1.00  0.00     0.014 C 
BRANCH  25  28
ATOM     28  O   UNL     1       9.236   9.958  44.788  1.00  0.00    -0.393 OA
ATOM     29  H   UNL     1      10.119   9.552  44.582  1.00  0.00     0.210 HD
ENDBRANCH  25  28
ENDBRANCH   2   6
ENDBRANCH   1   2
BRANCH   1  30
ATOM     30  C   UNL     1       8.214   3.243  54.389  1.00  0.00     0.028 C 
BRANCH  30  31
ATOM     31  C   UNL     1       6.999   2.413  54.052  1.00  0.00    -0.028 C 
ATOM     32  C   UNL     1       5.918   2.870  53.385  1.00  0.00    -0.080 C 
ATOM     33  C   UNL     1       5.859   4.271  52.820  1.00  0.00     0.039 C 
ATOM     34  C   UNL     1       4.754   1.937  53.177  1.00  0.00     0.039 C 
ENDBRANCH  30  31
ENDBRANCH   1  30
TORSDOF 6
ENDMDL
MODEL 2
REMARK VINA RESULT:    -7.603      2.031      8.367
REMARK INTER + INTRA:         -10.697
REMARK INTER:                  -9.777
REMARK INTRA:                  -0.919
REMARK UNBOUND:                -0.650
REMARK SMILES CC(C)=CCC[C@H](C(=O)[O-])[C@H]1CC[C@]2(C)C3=C(CC[C@]12C)[C@]1(C)CC[C@@H](O)C(C)(C)[C@@H]1CC3
REMARK SMILES IDX 6 1 7 2 8 3 9 4 10 5 11 6 12 7 20 8 13 9 14 10 19 11 21 12
REMARK SMILES IDX 15 13 16 14 18 15 17 16 33 17 22 18 32 19 31 20 24 21 23 22
REMARK SMILES IDX 28 23 25 24 26 25 29 26 30 27 27 28 5 30 4 31 2 32 1 33 3 34
REMARK H PARENT 27 29
REMARK Flexibility Score: inf
ROOT
ATOM      1  C   UNL     1       5.956  12.057  45.883  1.00  0.00     0.014 C 
ENDROOT
BRANCH   1   2
ATOM      2  C   UNL     1       7.444  11.712  46.175  1.00  0.00     0.039 C 
BRANCH   2   3
ATOM      3  C   UNL     1       8.213  11.727  44.873  1.00  0.00     0.045 C 
ATOM      4  O   UNL     1       7.603  11.840  43.778  1.00  0.00    -0.550 OA
ATOM      5  O   UNL     1       9.599  11.649  44.874  1.00  0.00    -0.550 OA
ENDBRANCH   2   3
BRANCH   2   6
ATOM      6  C   UNL     1       7.578  10.319  46.888  1.00  0.00     0.004 C 
ATOM      7  C   UNL     1       8.116   9.222  45.970  1.00  0.00     0.006 C 
ATOM      8  C   UNL     1       8.439  10.213  48.221  1.00  0.00    -0.020 C 
ATOM      9  C   UNL     1       8.638   8.152  46.899  1.00  0.00     0.012 C 
ATOM     10  C   UNL     1       9.333   8.905  48.045  1.00  0.00    -0.006 C 
ATOM     11  C   UNL     1       7.454  10.016  49.402  1.00  0.00     0.012 C 
ATOM     12  C   UNL     1       9.304  11.481  48.513  1.00  0.00     0.012 C 
ATOM     13  C   UNL     1      10.791   9.221  47.594  1.00  0.00     0.017 C 
ATOM     14  C   UNL     1       9.435   7.989  49.292  1.00  0.00    -0.064 C 
ATOM     15  C   UNL     1       8.157   9.608  50.687  1.00  0.00     0.032 C 
ATOM     16  C   UNL     1       8.909   8.302  50.512  1.00  0.00    -0.064 C 
ATOM     17  C   UNL     1      10.155   6.662  49.159  1.00  0.00     0.032 C 
ATOM     18  C   UNL     1       9.329   7.460  51.760  1.00  0.00    -0.008 C 
ATOM     19  C   UNL     1       9.354   5.605  49.900  1.00  0.00     0.009 C 
ATOM     20  C   UNL     1       9.324   5.889  51.437  1.00  0.00     0.007 C 
ATOM     21  C   UNL     1      10.732   8.023  52.202  1.00  0.00     0.014 C 
ATOM     22  C   UNL     1       8.309   7.692  52.915  1.00  0.00     0.016 C 
ATOM     23  C   UNL     1      10.280   4.964  52.350  1.00  0.00    -0.006 C 
ATOM     24  C   UNL     1      11.809   6.987  52.506  1.00  0.00     0.033 C 
ATOM     25  C   UNL     1      11.243   5.795  53.266  1.00  0.00     0.120 C 
ATOM     26  C   UNL     1      11.171   3.992  51.519  1.00  0.00     0.014 C 
ATOM     27  C   UNL     1       9.406   4.055  53.256  1.00  0.00     0.014 C 
BRANCH  25  28
ATOM     28  O   UNL     1      10.609   6.226  54.446  1.00  0.00    -0.393 OA
ATOM     29  H   UNL     1      10.792   7.197  54.543  1.00  0.00     0.210 HD
ENDBRANCH  25  28
ENDBRANCH   2   6
ENDBRANCH   1   2
BRANCH   1  30
ATOM     30  C   UNL     1       5.008  11.753  47.060  1.00  0.00     0.028 C 
BRANCH  30  31
ATOM     31  C   UNL     1       3.888  10.817  46.673  1.00  0.00    -0.028 C 
ATOM     32  C   UNL     1       2.719  10.703  47.340  1.00  0.00    -0.080 C 
ATOM     33  C   UNL     1       2.379  11.589  48.517  1.00  0.00     0.039 C 
ATOM     34  C   UNL     1       1.720   9.679  46.870  1.00  0.00     0.039 C 
ENDBRANCH  30  31
ENDBRANCH   1  30
TORSDOF 6
ENDMDL
MODEL 3
REMARK VINA RESULT:    -7.542      1.407      1.705
REMARK INTER + INTRA:         -10.617
REMARK INTER:                  -9.172
REMARK INTRA:                  -1.445
REMARK UNBOUND:                -0.650
REMARK SMILES CC(C)=CCC[C@H](C(=O)[O-])[C@H]1CC[C@]2(C)C3=C(CC[C@]12C)[C@]1(C)CC[C@@H](O)C(C)(C)[C@@H]1CC3
REMARK SMILES IDX 6 1 7 2 8 3 9 4 10 5 11 6 12 7 20 8 13 9 14 10 19 11 21 12
REMARK SMILES IDX 15 13 16 14 18 15 17 16 33 17 22 18 32 19 31 20 24 21 23 22
REMARK SMILES IDX 28 23 25 24 26 25 29 26 30 27 27 28 5 30 4 31 2 32 1 33 3 34
REMARK H PARENT 27 29
REMARK Flexibility Score: inf
ROOT
ATOM      1  C   UNL     1      10.922   2.757  54.961  1.00  0.00     0.014 C 
ENDROOT
BRANCH   1   2
ATOM      2  C   UNL     1      11.835   3.582  54.010  1.00  0.00     0.039 C 
BRANCH   2   3
ATOM      3  C   UNL     1      12.982   4.158  54.810  1.00  0.00     0.045 C 
ATOM      4  O   UNL     1      12.915   4.208  56.066  1.00  0.00    -0.550 OA
ATOM      5  O   UNL     1      14.131   4.606  54.173  1.00  0.00    -0.550 OA
ENDBRANCH   2   3
BRANCH   2   6
ATOM      6  C   UNL     1      11.029   4.721  53.289  1.00  0.00     0.004 C 
ATOM      7  C   UNL     1      11.306   6.110  53.862  1.00  0.00     0.006 C 
ATOM      8  C   UNL     1      11.160   4.882  51.712  1.00  0.00    -0.020 C 
ATOM      9  C   UNL     1      10.875   7.075  52.782  1.00  0.00     0.012 C 
ATOM     10  C   UNL     1      11.340   6.445  51.459  1.00  0.00    -0.006 C 
ATOM     11  C   UNL     1       9.828   4.402  51.079  1.00  0.00     0.012 C 
ATOM     12  C   UNL     1      12.325   4.047  51.089  1.00  0.00     0.012 C 
ATOM     13  C   UNL     1      12.827   6.856  51.231  1.00  0.00     0.017 C 
ATOM     14  C   UNL     1      10.524   7.034  50.280  1.00  0.00    -0.064 C 
ATOM     15  C   UNL     1       9.712   4.777  49.610  1.00  0.00     0.032 C 
ATOM     16  C   UNL     1       9.780   6.280  49.418  1.00  0.00    -0.064 C 
ATOM     17  C   UNL     1      10.540   8.533  50.065  1.00  0.00     0.032 C 
ATOM     18  C   UNL     1       9.251   6.933  48.100  1.00  0.00    -0.008 C 
ATOM     19  C   UNL     1       9.128   8.986  49.734  1.00  0.00     0.009 C 
ATOM     20  C   UNL     1       8.647   8.394  48.369  1.00  0.00     0.007 C 
ATOM     21  C   UNL     1      10.465   6.911  47.097  1.00  0.00     0.014 C 
ATOM     22  C   UNL     1       8.099   6.064  47.512  1.00  0.00     0.016 C 
ATOM     23  C   UNL     1       8.638   9.410  47.116  1.00  0.00    -0.006 C 
ATOM     24  C   UNL     1      10.734   8.206  46.337  1.00  0.00     0.033 C 
ATOM     25  C   UNL     1       9.441   8.870  45.884  1.00  0.00     0.120 C 
ATOM     26  C   UNL     1       9.221  10.814  47.459  1.00  0.00     0.014 C 
ATOM     27  C   UNL     1       7.172   9.667  46.671  1.00  0.00     0.014 C 
BRANCH  25  28
ATOM     28  O   UNL     1       8.680   7.977  45.107  1.00  0.00    -0.393 OA
ATOM     29  H   UNL     1       8.649   8.340  44.183  1.00  0.00     0.210 HD
ENDBRANCH  25  28
ENDBRANCH   2   6
ENDBRANCH   1   2
BRANCH   1  30
ATOM     30  C   UNL     1       9.543   3.399  55.205  1.00  0.00     0.028 C 
BRANCH  30  31
ATOM     31  C   UNL     1       8.411   2.563  54.656  1.00  0.00    -0.028 C 
ATOM     32  C   UNL     1       7.355   3.055  53.975  1.00  0.00    -0.080 C 
ATOM     33  C   UNL     1       7.247   4.518  53.612  1.00  0.00     0.039 C 
ATOM     34  C   UNL     1       6.271   2.102  53.542  1.00  0.00     0.039 C 
ENDBRANCH  30  31
ENDBRANCH   1  30
TORSDOF 6
ENDMDL
MODEL 4
REMARK VINA RESULT:    -7.513      1.414      1.813
REMARK INTER + INTRA:         -10.578
REMARK INTER:                  -9.140
REMARK INTRA:                  -1.438
REMARK UNBOUND:                -0.650
REMARK SMILES CC(C)=CCC[C@H](C(=O)[O-])[C@H]1CC[C@]2(C)C3=C(CC[C@]12C)[C@]1(C)CC[C@@H](O)C(C)(C)[C@@H]1CC3
REMARK SMILES IDX 6 1 7 2 8 3 9 4 10 5 11 6 12 7 20 8 13 9 14 10 19 11 21 12
REMARK SMILES IDX 15 13 16 14 18 15 17 16 33 17 22 18 32 19 31 20 24 21 23 22
REMARK SMILES IDX 28 23 25 24 26 25 29 26 30 27 27 28 5 30 4 31 2 32 1 33 3 34
REMARK H PARENT 27 29
REMARK Flexibility Score: inf
ROOT
ATOM      1  C   UNL     1      10.067   2.566  53.827  1.00  0.00     0.014 C 
ENDROOT
BRANCH   1   2
ATOM      2  C   UNL     1      11.192   3.194  52.957  1.00  0.00     0.039 C 
BRANCH   2   3
ATOM      3  C   UNL     1      12.460   3.269  53.778  1.00  0.00     0.045 C 
ATOM      4  O   UNL     1      12.405   3.231  55.034  1.00  0.00    -0.550 OA
ATOM      5  O   UNL     1      13.698   3.348  53.155  1.00  0.00    -0.550 OA
ENDBRANCH   2   3
BRANCH   2   6
ATOM      6  C   UNL     1      10.782   4.616  52.432  1.00  0.00     0.004 C 
ATOM      7  C   UNL     1      11.457   5.757  53.192  1.00  0.00     0.006 C 
ATOM      8  C   UNL     1      10.983   4.959  50.891  1.00  0.00    -0.020 C 
ATOM      9  C   UNL     1      11.358   6.954  52.275  1.00  0.00     0.012 C 
ATOM     10  C   UNL     1      11.633   6.414  50.863  1.00  0.00    -0.006 C 
ATOM     11  C   UNL     1       9.580   5.002  50.233  1.00  0.00     0.012 C 
ATOM     12  C   UNL     1      11.851   3.912  50.123  1.00  0.00     0.012 C 
ATOM     13  C   UNL     1      13.178   6.385  50.655  1.00  0.00     0.017 C 
ATOM     14  C   UNL     1      11.054   7.387  49.804  1.00  0.00    -0.064 C 
ATOM     15  C   UNL     1       9.609   5.605  48.837  1.00  0.00     0.032 C 
ATOM     16  C   UNL     1      10.133   7.028  48.863  1.00  0.00    -0.064 C 
ATOM     17  C   UNL     1      11.528   8.826  49.807  1.00  0.00     0.032 C 
ATOM     18  C   UNL     1       9.850   7.996  47.668  1.00  0.00    -0.008 C 
ATOM     19  C   UNL     1      10.326   9.728  49.584  1.00  0.00     0.009 C 
ATOM     20  C   UNL     1       9.713   9.516  48.163  1.00  0.00     0.007 C 
ATOM     21  C   UNL     1      11.018   7.755  46.639  1.00  0.00     0.014 C 
ATOM     22  C   UNL     1       8.500   7.611  46.993  1.00  0.00     0.016 C 
ATOM     23  C   UNL     1      10.034  10.658  47.070  1.00  0.00    -0.006 C 
ATOM     24  C   UNL     1      11.680   9.005  46.068  1.00  0.00     0.033 C 
ATOM     25  C   UNL     1      10.658  10.087  45.751  1.00  0.00     0.120 C 
ATOM     26  C   UNL     1      11.009  11.755  47.596  1.00  0.00     0.014 C 
ATOM     27  C   UNL     1       8.723  11.408  46.708  1.00  0.00     0.014 C 
BRANCH  25  28
ATOM     28  O   UNL     1       9.676   9.589  44.875  1.00  0.00    -0.393 OA
ATOM     29  H   UNL     1       9.434  10.324  44.252  1.00  0.00     0.210 HD
ENDBRANCH  25  28
ENDBRANCH   2   6
ENDBRANCH   1   2
BRANCH   1  30
ATOM     30  C   UNL     1       9.087   3.601  54.413  1.00  0.00     0.028 C 
BRANCH  30  31
ATOM     31  C   UNL     1       7.721   3.530  53.775  1.00  0.00    -0.028 C 
ATOM     32  C   UNL     1       7.037   4.595  53.306  1.00  0.00    -0.080 C 
ATOM     33  C   UNL     1       7.628   5.986  53.297  1.00  0.00     0.039 C 
ATOM     34  C   UNL     1       5.654   4.375  52.750  1.00  0.00     0.039 C 
ENDBRANCH  30  31
ENDBRANCH   1  30
TORSDOF 6
ENDMDL
MODEL 5
REMARK VINA RESULT:    -7.501      1.799      3.265
REMARK INTER + INTRA:         -10.563
REMARK INTER:                  -9.374
REMARK INTRA:                  -1.189
REMARK UNBOUND:                -0.650
REMARK SMILES CC(C)=CCC[C@H](C(=O)[O-])[C@H]1CC[C@]2(C)C3=C(CC[C@]12C)[C@]1(C)CC[C@@H](O)C(C)(C)[C@@H]1CC3
REMARK SMILES IDX 6 1 7 2 8 3 9 4 10 5 11 6 12 7 20 8 13 9 14 10 19 11 21 12
REMARK SMILES IDX 15 13 16 14 18 15 17 16 33 17 22 18 32 19 31 20 24 21 23 22
REMARK SMILES IDX 28 23 25 24 26 25 29 26 30 27 27 28 5 30 4 31 2 32 1 33 3 34
REMARK H PARENT 27 29
REMARK Flexibility Score: inf
ROOT
ATOM      1  C   UNL     1      11.831   4.992  55.058  1.00  0.00     0.014 C 
ENDROOT
BRANCH   1   2
ATOM      2  C   UNL     1      12.445   4.391  53.762  1.00  0.00     0.039 C 
BRANCH   2   3
ATOM      3  C   UNL     1      13.834   3.880  54.069  1.00  0.00     0.045 C 
ATOM      4  O   UNL     1      14.571   4.500  54.880  1.00  0.00    -0.550 OA
ATOM      5  O   UNL     1      14.299   2.709  53.488  1.00  0.00    -0.550 OA
ENDBRANCH   2   3
BRANCH   2   6
ATOM      6  C   UNL     1      12.482   5.450  52.603  1.00  0.00     0.004 C 
ATOM      7  C   UNL     1      13.722   5.330  51.717  1.00  0.00     0.006 C 
ATOM      8  C   UNL     1      11.253   5.539  51.597  1.00  0.00    -0.020 C 
ATOM      9  C   UNL     1      13.358   6.037  50.433  1.00  0.00     0.012 C 
ATOM     10  C   UNL     1      11.900   5.642  50.144  1.00  0.00    -0.006 C 
ATOM     11  C   UNL     1      10.479   6.845  51.916  1.00  0.00     0.012 C 
ATOM     12  C   UNL     1      10.257   4.340  51.713  1.00  0.00     0.012 C 
ATOM     13  C   UNL     1      11.916   4.279  49.388  1.00  0.00     0.017 C 
ATOM     14  C   UNL     1      11.252   6.679  49.192  1.00  0.00    -0.064 C 
ATOM     15  C   UNL     1       9.461   7.196  50.843  1.00  0.00     0.032 C 
ATOM     16  C   UNL     1      10.128   7.393  49.494  1.00  0.00    -0.064 C 
ATOM     17  C   UNL     1      11.898   6.929  47.844  1.00  0.00     0.032 C 
ATOM     18  C   UNL     1       9.395   8.175  48.357  1.00  0.00    -0.008 C 
ATOM     19  C   UNL     1      11.891   8.424  47.578  1.00  0.00     0.009 C 
ATOM     20  C   UNL     1      10.433   8.966  47.425  1.00  0.00     0.007 C 
ATOM     21  C   UNL     1       8.529   7.104  47.593  1.00  0.00     0.014 C 
ATOM     22  C   UNL     1       8.441   9.236  48.983  1.00  0.00     0.016 C 
ATOM     23  C   UNL     1       9.946   9.290  45.921  1.00  0.00    -0.006 C 
ATOM     24  C   UNL     1       8.604   7.139  46.070  1.00  0.00     0.033 C 
ATOM     25  C   UNL     1       8.610   8.567  45.541  1.00  0.00     0.120 C 
ATOM     26  C   UNL     1      10.998   8.901  44.838  1.00  0.00     0.014 C 
ATOM     27  C   UNL     1       9.737  10.821  45.765  1.00  0.00     0.014 C 
BRANCH  25  28
ATOM     28  O   UNL     1       7.480   9.264  46.007  1.00  0.00    -0.393 OA
ATOM     29  H   UNL     1       7.102   9.764  45.238  1.00  0.00     0.210 HD
ENDBRANCH  25  28
ENDBRANCH   2   6
ENDBRANCH   1   2
BRANCH   1  30
ATOM     30  C   UNL     1      10.377   4.554  55.315  1.00  0.00     0.028 C 
BRANCH  30  31
ATOM     31  C   UNL     1      10.192   3.061  55.192  1.00  0.00    -0.028 C 
ATOM     32  C   UNL     1       9.064   2.461  54.753  1.00  0.00    -0.080 C 
ATOM     33  C   UNL     1       7.881   3.253  54.247  1.00  0.00     0.039 C 
ATOM     34  C   UNL     1       9.007   0.956  54.743  1.00  0.00     0.039 C 
ENDBRANCH  30  31
ENDBRANCH   1  30
TORSDOF 6
ENDMDL
MODEL 6
REMARK VINA RESULT:    -7.142      2.154      3.309
REMARK INTER + INTRA:         -10.088
REMARK INTER:                  -8.635
REMARK INTRA:                  -1.453
REMARK UNBOUND:                -0.650
REMARK SMILES CC(C)=CCC[C@H](C(=O)[O-])[C@H]1CC[C@]2(C)C3=C(CC[C@]12C)[C@]1(C)CC[C@@H](O)C(C)(C)[C@@H]1CC3
REMARK SMILES IDX 6 1 7 2 8 3 9 4 10 5 11 6 12 7 20 8 13 9 14 10 19 11 21 12
REMARK SMILES IDX 15 13 16 14 18 15 17 16 33 17 22 18 32 19 31 20 24 21 23 22
REMARK SMILES IDX 28 23 25 24 26 25 29 26 30 27 27 28 5 30 4 31 2 32 1 33 3 34
REMARK H PARENT 27 29
REMARK Flexibility Score: inf
ROOT
ATOM      1  C   UNL     1      10.829   3.827  52.263  1.00  0.00     0.014 C 
ENDROOT
BRANCH   1   2
ATOM      2  C   UNL     1      10.705   5.249  52.880  1.00  0.00     0.039 C 
BRANCH   2   3
ATOM      3  C   UNL     1      10.309   5.120  54.333  1.00  0.00     0.045 C 
ATOM      4  O   UNL     1       9.357   4.366  54.665  1.00  0.00    -0.550 OA
ATOM      5  O   UNL     1      11.009   5.804  55.318  1.00  0.00    -0.550 OA
ENDBRANCH   2   3
BRANCH   2   6
ATOM      6  C   UNL     1       9.665   6.125  52.092  1.00  0.00     0.004 C 
ATOM      7  C   UNL     1       8.924   7.124  52.981  1.00  0.00     0.006 C 
ATOM      8  C   UNL     1      10.157   6.964  50.834  1.00  0.00    -0.020 C 
ATOM      9  C   UNL     1       8.381   8.166  52.032  1.00  0.00     0.012 C 
ATOM     10  C   UNL     1       9.496   8.404  51.000  1.00  0.00    -0.006 C 
ATOM     11  C   UNL     1       9.594   6.276  49.563  1.00  0.00     0.012 C 
ATOM     12  C   UNL     1      11.711   7.042  50.699  1.00  0.00     0.012 C 
ATOM     13  C   UNL     1      10.479   9.459  51.594  1.00  0.00     0.017 C 
ATOM     14  C   UNL     1       8.897   9.022  49.711  1.00  0.00    -0.064 C 
ATOM     15  C   UNL     1       9.743   7.138  48.319  1.00  0.00     0.032 C 
ATOM     16  C   UNL     1       9.010   8.458  48.472  1.00  0.00    -0.064 C 
ATOM     17  C   UNL     1       8.134  10.326  49.818  1.00  0.00     0.032 C 
ATOM     18  C   UNL     1       8.639   9.307  47.214  1.00  0.00    -0.008 C 
ATOM     19  C   UNL     1       6.894  10.231  48.945  1.00  0.00     0.009 C 
ATOM     20  C   UNL     1       7.272  10.117  47.433  1.00  0.00     0.007 C 
ATOM     21  C   UNL     1       9.891  10.219  46.930  1.00  0.00     0.014 C 
ATOM     22  C   UNL     1       8.420   8.363  45.993  1.00  0.00     0.016 C 
ATOM     23  C   UNL     1       7.078  11.451  46.547  1.00  0.00    -0.006 C 
ATOM     24  C   UNL     1       9.604  11.690  46.653  1.00  0.00     0.033 C 
ATOM     25  C   UNL     1       8.375  11.867  45.772  1.00  0.00     0.120 C 
ATOM     26  C   UNL     1       6.634  12.687  47.387  1.00  0.00     0.014 C 
ATOM     27  C   UNL     1       5.941  11.222  45.514  1.00  0.00     0.014 C 
BRANCH  25  28
ATOM     28  O   UNL     1       8.527  11.147  44.573  1.00  0.00    -0.393 OA
ATOM     29  H   UNL     1       9.456  11.295  44.254  1.00  0.00     0.210 HD
ENDBRANCH  25  28
ENDBRANCH   2   6
ENDBRANCH   1   2
BRANCH   1  30
ATOM     30  C   UNL     1      12.117   3.617  51.444  1.00  0.00     0.028 C 
BRANCH  30  31
ATOM     31  C   UNL     1      11.857   3.587  49.957  1.00  0.00    -0.028 C 
ATOM     32  C   UNL     1      12.729   4.013  49.018  1.00  0.00    -0.080 C 
ATOM     33  C   UNL     1      14.118   4.491  49.372  1.00  0.00     0.039 C 
ATOM     34  C   UNL     1      12.303   3.977  47.573  1.00  0.00     0.039 C 
ENDBRANCH  30  31
ENDBRANCH   1  30
TORSDOF 6
ENDMDL
MODEL 7
REMARK VINA RESULT:    -7.064      1.927      3.248
REMARK INTER + INTRA:          -9.985
REMARK INTER:                  -8.946
REMARK INTRA:                  -1.039
REMARK UNBOUND:                -0.650
REMARK SMILES CC(C)=CCC[C@H](C(=O)[O-])[C@H]1CC[C@]2(C)C3=C(CC[C@]12C)[C@]1(C)CC[C@@H](O)C(C)(C)[C@@H]1CC3
REMARK SMILES IDX 6 1 7 2 8 3 9 4 10 5 11 6 12 7 20 8 13 9 14 10 19 11 21 12
REMARK SMILES IDX 15 13 16 14 18 15 17 16 33 17 22 18 32 19 31 20 24 21 23 22
REMARK SMILES IDX 28 23 25 24 26 25 29 26 30 27 27 28 5 30 4 31 2 32 1 33 3 34
REMARK H PARENT 27 29
REMARK Flexibility Score: inf
ROOT
ATOM      1  C   UNL     1      10.905   3.621  52.392  1.00  0.00     0.014 C 
ENDROOT
BRANCH   1   2
ATOM      2  C   UNL     1      10.574   4.944  53.139  1.00  0.00     0.039 C 
BRANCH   2   3
ATOM      3  C   UNL     1       9.953   4.608  54.476  1.00  0.00     0.045 C 
ATOM      4  O   UNL     1      10.419   5.106  55.534  1.00  0.00    -0.550 OA
ATOM      5  O   UNL     1       8.844   3.776  54.549  1.00  0.00    -0.550 OA
ENDBRANCH   2   3
BRANCH   2   6
ATOM      6  C   UNL     1       9.616   5.855  52.291  1.00  0.00     0.004 C 
ATOM      7  C   UNL     1       8.906   6.922  53.123  1.00  0.00     0.006 C 
ATOM      8  C   UNL     1      10.200   6.626  51.028  1.00  0.00    -0.020 C 
ATOM      9  C   UNL     1       8.459   7.966  52.127  1.00  0.00     0.012 C 
ATOM     10  C   UNL     1       9.621   8.107  51.131  1.00  0.00    -0.006 C 
ATOM     11  C   UNL     1       9.642   5.935  49.757  1.00  0.00     0.012 C 
ATOM     12  C   UNL     1      11.760   6.609  50.947  1.00  0.00     0.012 C 
ATOM     13  C   UNL     1      10.644   9.119  51.730  1.00  0.00     0.017 C 
ATOM     14  C   UNL     1       9.105   8.720  49.803  1.00  0.00    -0.064 C 
ATOM     15  C   UNL     1       9.885   6.749  48.496  1.00  0.00     0.032 C 
ATOM     16  C   UNL     1       9.228   8.114  48.586  1.00  0.00    -0.064 C 
ATOM     17  C   UNL     1       8.418  10.069  49.847  1.00  0.00     0.032 C 
ATOM     18  C   UNL     1       8.952   8.945  47.292  1.00  0.00    -0.008 C 
ATOM     19  C   UNL     1       7.206  10.021  48.933  1.00  0.00     0.009 C 
ATOM     20  C   UNL     1       7.629   9.840  47.439  1.00  0.00     0.007 C 
ATOM     21  C   UNL     1      10.265   9.773  47.029  1.00  0.00     0.014 C 
ATOM     22  C   UNL     1       8.719   7.980  46.091  1.00  0.00     0.016 C 
ATOM     23  C   UNL     1       7.545  11.156  46.510  1.00  0.00    -0.006 C 
ATOM     24  C   UNL     1      10.076  11.251  46.701  1.00  0.00     0.033 C 
ATOM     25  C   UNL     1       8.891  11.472  45.772  1.00  0.00     0.120 C 
ATOM     26  C   UNL     1       7.147  12.441  47.298  1.00  0.00     0.014 C 
ATOM     27  C   UNL     1       6.434  10.964  45.442  1.00  0.00     0.014 C 
BRANCH  25  28
ATOM     28  O   UNL     1       9.041  10.710  44.599  1.00  0.00    -0.393 OA
ATOM     29  H   UNL     1       9.897  10.982  44.176  1.00  0.00     0.210 HD
ENDBRANCH  25  28
ENDBRANCH   2   6
ENDBRANCH   1   2
BRANCH   1  30
ATOM     30  C   UNL     1      11.962   2.755  53.105  1.00  0.00     0.028 C 
BRANCH  30  31
ATOM     31  C   UNL     1      13.292   3.457  53.235  1.00  0.00    -0.028 C 
ATOM     32  C   UNL     1      13.913   3.714  54.406  1.00  0.00    -0.080 C 
ATOM     33  C   UNL     1      13.360   3.232  55.728  1.00  0.00     0.039 C 
ATOM     34  C   UNL     1      15.211   4.479  54.380  1.00  0.00     0.039 C 
ENDBRANCH  30  31
ENDBRANCH   1  30
TORSDOF 6
ENDMDL
MODEL 8
REMARK VINA RESULT:    -7.034      3.370      8.330
REMARK INTER + INTRA:          -9.946
REMARK INTER:                  -8.986
REMARK INTRA:                  -0.959
REMARK UNBOUND:                -0.650
REMARK SMILES CC(C)=CCC[C@H](C(=O)[O-])[C@H]1CC[C@]2(C)C3=C(CC[C@]12C)[C@]1(C)CC[C@@H](O)C(C)(C)[C@@H]1CC3
REMARK SMILES IDX 6 1 7 2 8 3 9 4 10 5 11 6 12 7 20 8 13 9 14 10 19 11 21 12
REMARK SMILES IDX 15 13 16 14 18 15 17 16 33 17 22 18 32 19 31 20 24 21 23 22
REMARK SMILES IDX 28 23 25 24 26 25 29 26 30 27 27 28 5 30 4 31 2 32 1 33 3 34
REMARK H PARENT 27 29
REMARK Flexibility Score: inf
ROOT
ATOM      1  C   UNL     1       5.967  10.431  45.563  1.00  0.00     0.014 C 
ENDROOT
BRANCH   1   2
ATOM      2  C   UNL     1       7.220  11.233  46.016  1.00  0.00     0.039 C 
BRANCH   2   3
ATOM      3  C   UNL     1       7.434  12.387  45.062  1.00  0.00     0.045 C 
ATOM      4  O   UNL     1       7.575  13.556  45.504  1.00  0.00    -0.550 OA
ATOM      5  O   UNL     1       7.509  12.164  43.694  1.00  0.00    -0.550 OA
ENDBRANCH   2   3
BRANCH   2   6
ATOM      6  C   UNL     1       8.494  10.317  46.079  1.00  0.00     0.004 C 
ATOM      7  C   UNL     1       9.804  11.100  46.002  1.00  0.00     0.006 C 
ATOM      8  C   UNL     1       8.670   9.321  47.307  1.00  0.00    -0.020 C 
ATOM      9  C   UNL     1      10.853  10.170  46.565  1.00  0.00     0.012 C 
ATOM     10  C   UNL     1      10.188   9.480  47.767  1.00  0.00    -0.006 C 
ATOM     11  C   UNL     1       8.432   7.881  46.782  1.00  0.00     0.012 C 
ATOM     12  C   UNL     1       7.670   9.585  48.479  1.00  0.00     0.012 C 
ATOM     13  C   UNL     1      10.353  10.413  49.005  1.00  0.00     0.017 C 
ATOM     14  C   UNL     1      10.932   8.159  48.094  1.00  0.00    -0.064 C 
ATOM     15  C   UNL     1       8.857   6.818  47.782  1.00  0.00     0.032 C 
ATOM     16  C   UNL     1      10.333   6.933  48.115  1.00  0.00    -0.064 C 
ATOM     17  C   UNL     1      12.413   8.221  48.407  1.00  0.00     0.032 C 
ATOM     18  C   UNL     1      11.096   5.725  48.748  1.00  0.00    -0.008 C 
ATOM     19  C   UNL     1      13.100   7.063  47.704  1.00  0.00     0.009 C 
ATOM     20  C   UNL     1      12.630   5.689  48.280  1.00  0.00     0.007 C 
ATOM     21  C   UNL     1      10.899   5.864  50.304  1.00  0.00     0.014 C 
ATOM     22  C   UNL     1      10.444   4.390  48.278  1.00  0.00     0.016 C 
ATOM     23  C   UNL     1      13.664   4.937  49.265  1.00  0.00    -0.006 C 
ATOM     24  C   UNL     1      12.150   5.692  51.159  1.00  0.00     0.033 C 
ATOM     25  C   UNL     1      13.029   4.560  50.647  1.00  0.00     0.120 C 
ATOM     26  C   UNL     1      14.944   5.774  49.566  1.00  0.00     0.014 C 
ATOM     27  C   UNL     1      14.170   3.636  48.585  1.00  0.00     0.014 C 
BRANCH  25  28
ATOM     28  O   UNL     1      12.293   3.362  50.580  1.00  0.00    -0.393 OA
ATOM     29  H   UNL     1      12.724   2.787  49.896  1.00  0.00     0.210 HD
ENDBRANCH  25  28
ENDBRANCH   2   6
ENDBRANCH   1   2
BRANCH   1  30
ATOM     30  C   UNL     1       4.698  10.756  46.374  1.00  0.00     0.028 C 
BRANCH  30  31
ATOM     31  C   UNL     1       4.991  11.588  47.599  1.00  0.00    -0.028 C 
ATOM     32  C   UNL     1       4.147  11.741  48.642  1.00  0.00    -0.080 C 
ATOM     33  C   UNL     1       2.831  11.003  48.723  1.00  0.00     0.039 C 
ATOM     34  C   UNL     1       4.555  12.654  49.769  1.00  0.00     0.039 C 
ENDBRANCH  30  31
ENDBRANCH   1  30
TORSDOF 6
ENDMDL
MODEL 9
REMARK VINA RESULT:    -7.033      1.980      4.365
REMARK INTER + INTRA:          -9.944
REMARK INTER:                  -8.318
REMARK INTRA:                  -1.626
REMARK UNBOUND:                -0.650
REMARK SMILES CC(C)=CCC[C@H](C(=O)[O-])[C@H]1CC[C@]2(C)C3=C(CC[C@]12C)[C@]1(C)CC[C@@H](O)C(C)(C)[C@@H]1CC3
REMARK SMILES IDX 6 1 7 2 8 3 9 4 10 5 11 6 12 7 20 8 13 9 14 10 19 11 21 12
REMARK SMILES IDX 15 13 16 14 18 15 17 16 33 17 22 18 32 19 31 20 24 21 23 22
REMARK SMILES IDX 28 23 25 24 26 25 29 26 30 27 27 28 5 30 4 31 2 32 1 33 3 34
REMARK H PARENT 27 29
REMARK Flexibility Score: inf
ROOT
ATOM      1  C   UNL     1      11.124   5.310  55.700  1.00  0.00     0.014 C 
ENDROOT
BRANCH   1   2
ATOM      2  C   UNL     1      10.004   5.133  54.636  1.00  0.00     0.039 C 
BRANCH   2   3
ATOM      3  C   UNL     1       9.500   3.709  54.688  1.00  0.00     0.045 C 
ATOM      4  O   UNL     1      10.200   2.808  55.219  1.00  0.00    -0.550 OA
ATOM      5  O   UNL     1       8.248   3.386  54.181  1.00  0.00    -0.550 OA
ENDBRANCH   2   3
BRANCH   2   6
ATOM      6  C   UNL     1      10.523   5.490  53.197  1.00  0.00     0.004 C 
ATOM      7  C   UNL     1      10.798   4.260  52.333  1.00  0.00     0.006 C 
ATOM      8  C   UNL     1       9.657   6.462  52.282  1.00  0.00    -0.020 C 
ATOM      9  C   UNL     1      10.789   4.767  50.910  1.00  0.00     0.012 C 
ATOM     10  C   UNL     1       9.635   5.779  50.842  1.00  0.00    -0.006 C 
ATOM     11  C   UNL     1      10.401   7.820  52.203  1.00  0.00     0.012 C 
ATOM     12  C   UNL     1       8.218   6.724  52.830  1.00  0.00     0.012 C 
ATOM     13  C   UNL     1       8.321   4.986  50.565  1.00  0.00     0.017 C 
ATOM     14  C   UNL     1       9.844   6.737  49.641  1.00  0.00    -0.064 C 
ATOM     15  C   UNL     1       9.835   8.734  51.129  1.00  0.00     0.032 C 
ATOM     16  C   UNL     1       9.928   8.095  49.756  1.00  0.00    -0.064 C 
ATOM     17  C   UNL     1       9.970   6.143  48.253  1.00  0.00     0.032 C 
ATOM     18  C   UNL     1       9.834   8.974  48.467  1.00  0.00    -0.008 C 
ATOM     19  C   UNL     1      11.085   6.868  47.519  1.00  0.00     0.009 C 
ATOM     20  C   UNL     1      10.723   8.369  47.277  1.00  0.00     0.007 C 
ATOM     21  C   UNL     1       8.298   9.082  48.135  1.00  0.00     0.014 C 
ATOM     22  C   UNL     1      10.383  10.401  48.767  1.00  0.00     0.016 C 
ATOM     23  C   UNL     1      10.277   8.761  45.777  1.00  0.00    -0.006 C 
ATOM     24  C   UNL     1       7.905   8.846  46.681  1.00  0.00     0.033 C 
ATOM     25  C   UNL     1       8.893   9.493  45.720  1.00  0.00     0.120 C 
ATOM     26  C   UNL     1      10.180   7.531  44.824  1.00  0.00     0.014 C 
ATOM     27  C   UNL     1      11.350   9.690  45.146  1.00  0.00     0.014 C 
BRANCH  25  28
ATOM     28  O   UNL     1       9.011  10.868  45.995  1.00  0.00    -0.393 OA
ATOM     29  H   UNL     1       9.624  11.255  45.317  1.00  0.00     0.210 HD
ENDBRANCH  25  28
ENDBRANCH   2   6
ENDBRANCH   1   2
BRANCH   1  30
ATOM     30  C   UNL     1      12.329   6.130  55.201  1.00  0.00     0.028 C 
BRANCH  30  31
ATOM     31  C   UNL     1      13.529   5.267  54.895  1.00  0.00    -0.028 C 
ATOM     32  C   UNL     1      14.246   5.327  53.752  1.00  0.00    -0.080 C 
ATOM     33  C   UNL     1      13.958   6.352  52.679  1.00  0.00     0.039 C 
ATOM     34  C   UNL     1      15.383   4.357  53.564  1.00  0.00     0.039 C 
ENDBRANCH  30  31
ENDBRANCH   1  30
TORSDOF 6
ENDMDL
