MODEL 1
REMARK VINA RESULT:    -5.028      0.000      0.000
REMARK INTER + INTRA:          -6.795
REMARK INTER:                  -6.497
REMARK INTRA:                  -0.298
REMARK UNBOUND:                -0.298
REMARK SMILES CCO[C@H]1O[C@H](CO)[C@@H](O)[C@H](O)[C@@H]1O
REMARK SMILES IDX 4 1 13 2 11 3 9 4 6 5 5 6 3 7 2 8 1 9 14 10 12 12 7 14 8 15
REMARK SMILES IDX 10 17
REMARK H PARENT 14 11 12 13 8 16 10 18
REMARK Flexibility Score: inf
ROOT
ATOM      1  C   UNL     1      35.864  11.112  44.324  1.00  0.00     0.281 C 
ATOM      2  C   UNL     1      37.262  11.414  43.745  1.00  0.00     0.202 C 
ATOM      3  C   UNL     1      37.995  12.435  44.627  1.00  0.00     0.179 C 
ATOM      4  C   UNL     1      37.106  13.666  44.869  1.00  0.00     0.177 C 
ATOM      5  C   UNL     1      35.719  13.210  45.385  1.00  0.00     0.178 C 
ATOM      6  O   UNL     1      35.112  12.310  44.469  1.00  0.00    -0.341 OA
ENDROOT
BRANCH   1   7
ATOM      7  O   UNL     1      35.994  10.427  45.564  1.00  0.00    -0.350 OA
BRANCH   7   8
ATOM      8  C   UNL     1      36.803   9.270  45.451  1.00  0.00     0.160 C 
ATOM      9  C   UNL     1      36.023   8.093  44.873  1.00  0.00     0.035 C 
ENDBRANCH   7   8
ENDBRANCH   1   7
BRANCH   2  10
ATOM     10  O   UNL     1      37.139  11.919  42.439  1.00  0.00    -0.385 OA
ATOM     11  H   UNL     1      37.353  11.172  41.820  1.00  0.00     0.211 HD
ENDBRANCH   2  10
BRANCH   3  12
ATOM     12  O   UNL     1      39.193  12.816  44.001  1.00  0.00    -0.387 OA
ATOM     13  H   UNL     1      39.139  12.505  43.059  1.00  0.00     0.211 HD
ENDBRANCH   3  12
BRANCH   5  14
ATOM     14  C   UNL     1      34.783  14.411  45.570  1.00  0.00     0.191 C 
BRANCH  14  15
ATOM     15  O   UNL     1      34.863  14.870  46.890  1.00  0.00    -0.394 OA
ATOM     16  H   UNL     1      35.798  14.710  47.182  1.00  0.00     0.210 HD
ENDBRANCH  14  15
ENDBRANCH   5  14
BRANCH   4  17
ATOM     17  O   UNL     1      37.726  14.495  45.821  1.00  0.00    -0.387 OA
ATOM     18  H   UNL     1      37.550  15.434  45.551  1.00  0.00     0.211 HD
ENDBRANCH   4  17
TORSDOF 7
ENDMDL
MODEL 2
REMARK VINA RESULT:    -4.821     14.445     16.178
REMARK INTER + INTRA:          -6.528
REMARK INTER:                  -6.155
REMARK INTRA:                  -0.372
REMARK UNBOUND:                -0.298
REMARK SMILES CCO[C@H]1O[C@H](CO)[C@@H](O)[C@H](O)[C@@H]1O
REMARK SMILES IDX 4 1 13 2 11 3 9 4 6 5 5 6 3 7 2 8 1 9 14 10 12 12 7 14 8 15
REMARK SMILES IDX 10 17
REMARK H PARENT 14 11 12 13 8 16 10 18
REMARK Flexibility Score: inf
ROOT
ATOM      1  C   UNL     1      24.242   6.063  39.042  1.00  0.00     0.281 C 
ATOM      2  C   UNL     1      24.372   5.829  40.562  1.00  0.00     0.202 C 
ATOM      3  C   UNL     1      23.418   4.713  41.012  1.00  0.00     0.179 C 
ATOM      4  C   UNL     1      21.992   4.995  40.511  1.00  0.00     0.177 C 
ATOM      5  C   UNL     1      22.024   5.274  38.989  1.00  0.00     0.178 C 
ATOM      6  O   UNL     1      22.895   6.355  38.693  1.00  0.00    -0.341 OA
ENDROOT
BRANCH   1   7
ATOM      7  O   UNL     1      24.727   4.926  38.337  1.00  0.00    -0.350 OA
BRANCH   7   8
ATOM      8  C   UNL     1      26.126   4.764  38.485  1.00  0.00     0.160 C 
ATOM      9  C   UNL     1      26.861   4.996  37.168  1.00  0.00     0.035 C 
ENDBRANCH   7   8
ENDBRANCH   1   7
BRANCH   2  10
ATOM     10  O   UNL     1      24.072   7.015  41.254  1.00  0.00    -0.385 OA
ATOM     11  H   UNL     1      23.978   7.731  40.572  1.00  0.00     0.211 HD
ENDBRANCH   2  10
BRANCH   3  12
ATOM     12  O   UNL     1      23.434   4.625  42.414  1.00  0.00    -0.387 OA
ATOM     13  H   UNL     1      22.914   5.399  42.758  1.00  0.00     0.211 HD
ENDBRANCH   3  12
BRANCH   5  14
ATOM     14  C   UNL     1      20.624   5.628  38.470  1.00  0.00     0.191 C 
BRANCH  14  15
ATOM     15  O   UNL     1      19.917   6.322  39.460  1.00  0.00    -0.394 OA
ATOM     16  H   UNL     1      20.503   6.330  40.262  1.00  0.00     0.210 HD
ENDBRANCH  14  15
ENDBRANCH   5  14
BRANCH   4  17
ATOM     17  O   UNL     1      21.186   3.875  40.781  1.00  0.00    -0.387 OA
ATOM     18  H   UNL     1      20.349   3.982  40.258  1.00  0.00     0.211 HD
ENDBRANCH   4  17
TORSDOF 7
ENDMDL
MODEL 3
REMARK VINA RESULT:    -4.747      3.704      5.480
REMARK INTER + INTRA:          -6.433
REMARK INTER:                  -6.238
REMARK INTRA:                  -0.194
REMARK UNBOUND:                -0.298
REMARK SMILES CCO[C@H]1O[C@H](CO)[C@@H](O)[C@H](O)[C@@H]1O
REMARK SMILES IDX 4 1 13 2 11 3 9 4 6 5 5 6 3 7 2 8 1 9 14 10 12 12 7 14 8 15
REMARK SMILES IDX 10 17
REMARK H PARENT 14 11 12 13 8 16 10 18
REMARK Flexibility Score: inf
ROOT
ATOM      1  C   UNL     1      35.627   6.103  44.078  1.00  0.00     0.281 C 
ATOM      2  C   UNL     1      37.021   5.774  43.504  1.00  0.00     0.202 C 
ATOM      3  C   UNL     1      38.117   6.412  44.370  1.00  0.00     0.179 C 
ATOM      4  C   UNL     1      37.830   7.908  44.577  1.00  0.00     0.177 C 
ATOM      5  C   UNL     1      36.382   8.091  45.091  1.00  0.00     0.178 C 
ATOM      6  O   UNL     1      35.451   7.509  44.190  1.00  0.00    -0.341 OA
ENDROOT
BRANCH   1   7
ATOM      7  O   UNL     1      35.458   5.456  45.334  1.00  0.00    -0.350 OA
BRANCH   7   8
ATOM      8  C   UNL     1      35.413   4.046  45.205  1.00  0.00     0.160 C 
ATOM      9  C   UNL     1      34.165   3.591  44.455  1.00  0.00     0.035 C 
ENDBRANCH   7   8
ENDBRANCH   1   7
BRANCH   2  10
ATOM     10  O   UNL     1      37.120   6.253  42.186  1.00  0.00    -0.385 OA
ATOM     11  H   UNL     1      37.867   5.759  41.755  1.00  0.00     0.211 HD
ENDBRANCH   2  10
BRANCH   3  12
ATOM     12  O   UNL     1      39.364   6.237  43.746  1.00  0.00    -0.387 OA
ATOM     13  H   UNL     1      39.313   6.694  42.865  1.00  0.00     0.211 HD
ENDBRANCH   3  12
BRANCH   5  14
ATOM     14  C   UNL     1      36.040   9.579  45.241  1.00  0.00     0.191 C 
BRANCH  14  15
ATOM     15  O   UNL     1      35.330   9.780  46.431  1.00  0.00    -0.394 OA
ATOM     16  H   UNL     1      34.571   9.140  46.411  1.00  0.00     0.210 HD
ENDBRANCH  14  15
ENDBRANCH   5  14
BRANCH   4  17
ATOM     17  O   UNL     1      38.744   8.420  45.516  1.00  0.00    -0.387 OA
ATOM     18  H   UNL     1      39.431   8.928  45.009  1.00  0.00     0.211 HD
ENDBRANCH   4  17
TORSDOF 7
ENDMDL
MODEL 4
REMARK VINA RESULT:    -4.718      1.854      4.922
REMARK INTER + INTRA:          -6.395
REMARK INTER:                  -6.223
REMARK INTRA:                  -0.172
REMARK UNBOUND:                -0.298
REMARK SMILES CCO[C@H]1O[C@H](CO)[C@@H](O)[C@H](O)[C@@H]1O
REMARK SMILES IDX 4 1 13 2 11 3 9 4 6 5 5 6 3 7 2 8 1 9 14 10 12 12 7 14 8 15
REMARK SMILES IDX 10 17
REMARK H PARENT 14 11 12 13 8 16 10 18
REMARK Flexibility Score: inf
ROOT
ATOM      1  C   UNL     1      36.913  12.134  44.260  1.00  0.00     0.281 C 
ATOM      2  C   UNL     1      35.817  11.522  45.158  1.00  0.00     0.202 C 
ATOM      3  C   UNL     1      36.299  10.192  45.754  1.00  0.00     0.179 C 
ATOM      4  C   UNL     1      36.828   9.270  44.643  1.00  0.00     0.177 C 
ATOM      5  C   UNL     1      37.866  10.034  43.787  1.00  0.00     0.178 C 
ATOM      6  O   UNL     1      37.299  11.217  43.245  1.00  0.00    -0.341 OA
ENDROOT
BRANCH   1   7
ATOM      7  O   UNL     1      38.025  12.527  45.057  1.00  0.00    -0.350 OA
BRANCH   7   8
ATOM      8  C   UNL     1      38.362  13.889  44.867  1.00  0.00     0.160 C 
ATOM      9  C   UNL     1      37.452  14.811  45.674  1.00  0.00     0.035 C 
ENDBRANCH   7   8
ENDBRANCH   1   7
BRANCH   2  10
ATOM     10  O   UNL     1      34.649  11.308  44.407  1.00  0.00    -0.385 OA
ATOM     11  H   UNL     1      34.905  10.749  43.627  1.00  0.00     0.211 HD
ENDBRANCH   2  10
BRANCH   3  12
ATOM     12  O   UNL     1      35.237   9.574  46.435  1.00  0.00    -0.387 OA
ATOM     13  H   UNL     1      35.579   8.707  46.780  1.00  0.00     0.211 HD
ENDBRANCH   3  12
BRANCH   5  14
ATOM     14  C   UNL     1      38.362   9.163  42.625  1.00  0.00     0.191 C 
BRANCH  14  15
ATOM     15  O   UNL     1      38.401   9.925  41.450  1.00  0.00    -0.394 OA
ATOM     16  H   UNL     1      38.961  10.719  41.655  1.00  0.00     0.210 HD
ENDBRANCH  14  15
ENDBRANCH   5  14
BRANCH   4  17
ATOM     17  O   UNL     1      37.425   8.142  45.235  1.00  0.00    -0.387 OA
ATOM     18  H   UNL     1      38.390   8.346  45.347  1.00  0.00     0.211 HD
ENDBRANCH   4  17
TORSDOF 7
ENDMDL
MODEL 5
REMARK VINA RESULT:    -4.707      3.346      5.745
REMARK INTER + INTRA:          -6.381
REMARK INTER:                  -6.003
REMARK INTRA:                  -0.379
REMARK UNBOUND:                -0.298
REMARK SMILES CCO[C@H]1O[C@H](CO)[C@@H](O)[C@H](O)[C@@H]1O
REMARK SMILES IDX 4 1 13 2 11 3 9 4 6 5 5 6 3 7 2 8 1 9 14 10 12 12 7 14 8 15
REMARK SMILES IDX 10 17
REMARK H PARENT 14 11 12 13 8 16 10 18
REMARK Flexibility Score: inf
ROOT
ATOM      1  C   UNL     1      37.761   8.395  44.206  1.00  0.00     0.281 C 
ATOM      2  C   UNL     1      36.974   9.596  44.772  1.00  0.00     0.202 C 
ATOM      3  C   UNL     1      36.217   9.184  46.043  1.00  0.00     0.179 C 
ATOM      4  C   UNL     1      35.384   7.919  45.782  1.00  0.00     0.177 C 
ATOM      5  C   UNL     1      36.285   6.826  45.157  1.00  0.00     0.178 C 
ATOM      6  O   UNL     1      36.893   7.296  43.963  1.00  0.00    -0.341 OA
ENDROOT
BRANCH   1   7
ATOM      7  O   UNL     1      38.809   8.042  45.101  1.00  0.00    -0.350 OA
BRANCH   7   8
ATOM      8  C   UNL     1      39.813   7.268  44.467  1.00  0.00     0.160 C 
ATOM      9  C   UNL     1      40.020   5.931  45.173  1.00  0.00     0.035 C 
ENDBRANCH   7   8
ENDBRANCH   1   7
BRANCH   2  10
ATOM     10  O   UNL     1      36.063  10.066  43.810  1.00  0.00    -0.385 OA
ATOM     11  H   UNL     1      35.244  10.342  44.298  1.00  0.00     0.211 HD
ENDBRANCH   2  10
BRANCH   3  12
ATOM     12  O   UNL     1      35.384  10.240  46.450  1.00  0.00    -0.387 OA
ATOM     13  H   UNL     1      34.728   9.858  47.092  1.00  0.00     0.211 HD
ENDBRANCH   3  12
BRANCH   5  14
ATOM     14  C   UNL     1      35.468   5.573  44.819  1.00  0.00     0.191 C 
BRANCH  14  15
ATOM     15  O   UNL     1      35.410   4.733  45.938  1.00  0.00    -0.394 OA
ATOM     16  H   UNL     1      34.831   5.194  46.599  1.00  0.00     0.210 HD
ENDBRANCH  14  15
ENDBRANCH   5  14
BRANCH   4  17
ATOM     17  O   UNL     1      34.850   7.466  47.001  1.00  0.00    -0.387 OA
ATOM     18  H   UNL     1      33.879   7.316  46.859  1.00  0.00     0.211 HD
ENDBRANCH   4  17
TORSDOF 7
ENDMDL
MODEL 6
REMARK VINA RESULT:    -4.707      3.086      5.949
REMARK INTER + INTRA:          -6.380
REMARK INTER:                  -6.009
REMARK INTRA:                  -0.371
REMARK UNBOUND:                -0.298
REMARK SMILES CCO[C@H]1O[C@H](CO)[C@@H](O)[C@H](O)[C@@H]1O
REMARK SMILES IDX 4 1 13 2 11 3 9 4 6 5 5 6 3 7 2 8 1 9 14 10 12 12 7 14 8 15
REMARK SMILES IDX 10 17
REMARK H PARENT 14 11 12 13 8 16 10 18
REMARK Flexibility Score: inf
ROOT
ATOM      1  C   UNL     1      36.758   9.126  45.183  1.00  0.00     0.281 C 
ATOM      2  C   UNL     1      38.201   8.802  44.743  1.00  0.00     0.202 C 
ATOM      3  C   UNL     1      38.194   7.738  43.636  1.00  0.00     0.179 C 
ATOM      4  C   UNL     1      37.352   6.526  44.066  1.00  0.00     0.177 C 
ATOM      5  C   UNL     1      35.959   7.006  44.541  1.00  0.00     0.178 C 
ATOM      6  O   UNL     1      36.084   7.946  45.598  1.00  0.00    -0.341 OA
ENDROOT
BRANCH   1   7
ATOM      7  O   UNL     1      36.066   9.775  44.122  1.00  0.00    -0.350 OA
BRANCH   7   8
ATOM      8  C   UNL     1      36.399  11.149  44.030  1.00  0.00     0.160 C 
ATOM      9  C   UNL     1      35.247  12.037  44.492  1.00  0.00     0.035 C 
ENDBRANCH   7   8
ENDBRANCH   1   7
BRANCH   2  10
ATOM     10  O   UNL     1      38.942   8.335  45.843  1.00  0.00    -0.385 OA
ATOM     11  H   UNL     1      38.476   7.526  46.182  1.00  0.00     0.211 HD
ENDBRANCH   2  10
BRANCH   3  12
ATOM     12  O   UNL     1      39.514   7.342  43.363  1.00  0.00    -0.387 OA
ATOM     13  H   UNL     1      39.504   6.895  42.475  1.00  0.00     0.211 HD
ENDBRANCH   3  12
BRANCH   5  14
ATOM     14  C   UNL     1      35.118   5.826  45.043  1.00  0.00     0.191 C 
BRANCH  14  15
ATOM     15  O   UNL     1      35.952   4.876  45.646  1.00  0.00    -0.394 OA
ATOM     16  H   UNL     1      35.783   4.020  45.171  1.00  0.00     0.210 HD
ENDBRANCH  14  15
ENDBRANCH   5  14
BRANCH   4  17
ATOM     17  O   UNL     1      37.215   5.655  42.969  1.00  0.00    -0.387 OA
ATOM     18  H   UNL     1      36.711   6.144  42.268  1.00  0.00     0.211 HD
ENDBRANCH   4  17
TORSDOF 7
ENDMDL
MODEL 7
REMARK VINA RESULT:    -4.618      4.587      7.837
REMARK INTER + INTRA:          -6.266
REMARK INTER:                  -5.861
REMARK INTRA:                  -0.405
REMARK UNBOUND:                -0.298
REMARK SMILES CCO[C@H]1O[C@H](CO)[C@@H](O)[C@H](O)[C@@H]1O
REMARK SMILES IDX 4 1 13 2 11 3 9 4 6 5 5 6 3 7 2 8 1 9 14 10 12 12 7 14 8 15
REMARK SMILES IDX 10 17
REMARK H PARENT 14 11 12 13 8 16 10 18
REMARK Flexibility Score: inf
ROOT
ATOM      1  C   UNL     1      37.056   6.978  43.746  1.00  0.00     0.281 C 
ATOM      2  C   UNL     1      35.752   6.161  43.859  1.00  0.00     0.202 C 
ATOM      3  C   UNL     1      35.873   5.120  44.982  1.00  0.00     0.179 C 
ATOM      4  C   UNL     1      37.154   4.289  44.804  1.00  0.00     0.177 C 
ATOM      5  C   UNL     1      38.366   5.237  44.639  1.00  0.00     0.178 C 
ATOM      6  O   UNL     1      38.170   6.119  43.543  1.00  0.00    -0.341 OA
ENDROOT
BRANCH   1   7
ATOM      7  O   UNL     1      37.224   7.781  44.909  1.00  0.00    -0.350 OA
BRANCH   7   8
ATOM      8  C   UNL     1      36.408   8.939  44.880  1.00  0.00     0.160 C 
ATOM      9  C   UNL     1      35.695   9.157  46.211  1.00  0.00     0.035 C 
ENDBRANCH   7   8
ENDBRANCH   1   7
BRANCH   2  10
ATOM     10  O   UNL     1      35.487   5.514  42.640  1.00  0.00    -0.385 OA
ATOM     11  H   UNL     1      36.043   4.691  42.623  1.00  0.00     0.211 HD
ENDBRANCH   2  10
BRANCH   3  12
ATOM     12  O   UNL     1      34.744   4.283  44.964  1.00  0.00    -0.387 OA
ATOM     13  H   UNL     1      34.171   4.554  45.729  1.00  0.00     0.211 HD
ENDBRANCH   3  12
BRANCH   5  14
ATOM     14  C   UNL     1      39.653   4.440  44.388  1.00  0.00     0.191 C 
BRANCH  14  15
ATOM     15  O   UNL     1      40.124   3.915  45.598  1.00  0.00    -0.394 OA
ATOM     16  H   UNL     1      39.554   4.309  46.310  1.00  0.00     0.210 HD
ENDBRANCH  14  15
ENDBRANCH   5  14
BRANCH   4  17
ATOM     17  O   UNL     1      37.329   3.474  45.937  1.00  0.00    -0.387 OA
ATOM     18  H   UNL     1      38.100   3.839  46.445  1.00  0.00     0.211 HD
ENDBRANCH   4  17
TORSDOF 7
ENDMDL
MODEL 8
REMARK VINA RESULT:    -4.560      2.326      4.144
REMARK INTER + INTRA:          -6.191
REMARK INTER:                  -5.811
REMARK INTRA:                  -0.379
REMARK UNBOUND:                -0.298
REMARK SMILES CCO[C@H]1O[C@H](CO)[C@@H](O)[C@H](O)[C@@H]1O
REMARK SMILES IDX 4 1 13 2 11 3 9 4 6 5 5 6 3 7 2 8 1 9 14 10 12 12 7 14 8 15
REMARK SMILES IDX 10 17
REMARK H PARENT 14 11 12 13 8 16 10 18
REMARK Flexibility Score: inf
ROOT
ATOM      1  C   UNL     1      37.896   8.287  44.511  1.00  0.00     0.281 C 
ATOM      2  C   UNL     1      36.985   8.731  45.674  1.00  0.00     0.202 C 
ATOM      3  C   UNL     1      36.005   9.813  45.199  1.00  0.00     0.179 C 
ATOM      4  C   UNL     1      36.764  10.947  44.491  1.00  0.00     0.177 C 
ATOM      5  C   UNL     1      37.683  10.351  43.398  1.00  0.00     0.178 C 
ATOM      6  O   UNL     1      38.580   9.402  43.956  1.00  0.00    -0.341 OA
ENDROOT
BRANCH   1   7
ATOM      7  O   UNL     1      37.125   7.608  43.527  1.00  0.00    -0.350 OA
BRANCH   7   8
ATOM      8  C   UNL     1      36.717   6.323  43.962  1.00  0.00     0.160 C 
ATOM      9  C   UNL     1      35.266   6.037  43.588  1.00  0.00     0.035 C 
ENDBRANCH   7   8
ENDBRANCH   1   7
BRANCH   2  10
ATOM     10  O   UNL     1      37.768   9.231  46.729  1.00  0.00    -0.385 OA
ATOM     11  H   UNL     1      37.691   8.583  47.478  1.00  0.00     0.211 HD
ENDBRANCH   2  10
BRANCH   3  12
ATOM     12  O   UNL     1      35.296  10.316  46.303  1.00  0.00    -0.387 OA
ATOM     13  H   UNL     1      34.433   9.826  46.341  1.00  0.00     0.211 HD
ENDBRANCH   3  12
BRANCH   5  14
ATOM     14  C   UNL     1      38.508  11.451  42.719  1.00  0.00     0.191 C 
BRANCH  14  15
ATOM     15  O   UNL     1      38.941  12.375  43.679  1.00  0.00    -0.394 OA
ATOM     16  H   UNL     1      38.636  12.024  44.556  1.00  0.00     0.210 HD
ENDBRANCH  14  15
ENDBRANCH   5  14
BRANCH   4  17
ATOM     17  O   UNL     1      35.831  11.826  43.913  1.00  0.00    -0.387 OA
ATOM     18  H   UNL     1      35.301  12.221  44.653  1.00  0.00     0.211 HD
ENDBRANCH   4  17
TORSDOF 7
ENDMDL
MODEL 9
REMARK VINA RESULT:    -3.610      5.798      7.873
REMARK INTER + INTRA:          -4.962
REMARK INTER:                  -4.618
REMARK INTRA:                  -0.344
REMARK UNBOUND:                -0.298
REMARK SMILES CCO[C@H]1O[C@H](CO)[C@@H](O)[C@H](O)[C@@H]1O
REMARK SMILES IDX 4 1 13 2 11 3 9 4 6 5 5 6 3 7 2 8 1 9 14 10 12 12 7 14 8 15
REMARK SMILES IDX 10 17
REMARK H PARENT 14 11 12 13 8 16 10 18
REMARK Flexibility Score: inf
ROOT
ATOM      1  C   UNL     1      38.349   4.904  43.740  1.00  0.00     0.281 C 
ATOM      2  C   UNL     1      37.500   6.139  43.374  1.00  0.00     0.202 C 
ATOM      3  C   UNL     1      36.552   6.495  44.529  1.00  0.00     0.179 C 
ATOM      4  C   UNL     1      35.754   5.255  44.965  1.00  0.00     0.177 C 
ATOM      5  C   UNL     1      36.726   4.082  45.235  1.00  0.00     0.178 C 
ATOM      6  O   UNL     1      37.515   3.807  44.087  1.00  0.00    -0.341 OA
ENDROOT
BRANCH   1   7
ATOM      7  O   UNL     1      39.244   5.232  44.797  1.00  0.00    -0.350 OA
BRANCH   7   8
ATOM      8  C   UNL     1      40.052   6.352  44.484  1.00  0.00     0.160 C 
ATOM      9  C   UNL     1      40.125   7.335  45.649  1.00  0.00     0.035 C 
ENDBRANCH   7   8
ENDBRANCH   1   7
BRANCH   2  10
ATOM     10  O   UNL     1      36.753   5.877  42.213  1.00  0.00    -0.385 OA
ATOM     11  H   UNL     1      35.906   6.391  42.292  1.00  0.00     0.211 HD
ENDBRANCH   2  10
BRANCH   3  12
ATOM     12  O   UNL     1      35.679   7.516  44.118  1.00  0.00    -0.387 OA
ATOM     13  H   UNL     1      35.600   8.152  44.877  1.00  0.00     0.211 HD
ENDBRANCH   3  12
BRANCH   5  14
ATOM     14  C   UNL     1      35.955   2.808  45.604  1.00  0.00     0.191 C 
BRANCH  14  15
ATOM     15  O   UNL     1      34.627   2.920  45.174  1.00  0.00    -0.394 OA
ATOM     16  H   UNL     1      34.064   2.633  45.939  1.00  0.00     0.210 HD
ENDBRANCH  14  15
ENDBRANCH   5  14
BRANCH   4  17
ATOM     17  O   UNL     1      35.034   5.565  46.133  1.00  0.00    -0.387 OA
ATOM     18  H   UNL     1      35.696   5.829  46.824  1.00  0.00     0.211 HD
ENDBRANCH   4  17
TORSDOF 7
ENDMDL
