MODEL 1
REMARK VINA RESULT:    -2.472      0.000      0.000
REMARK INTER + INTRA:          -4.039
REMARK INTER:                  -3.628
REMARK INTRA:                  -0.411
REMARK UNBOUND:                -0.411
REMARK SMILES C=C1C=C[C@@H](C(C)C)CCC(C)=CCC1
REMARK SMILES IDX 3 1 4 2 5 3 9 4 10 5 11 6 12 7 13 8 6 10 7 11 8 12 2 13 1 14
REMARK SMILES IDX 15 15 14 16
REMARK H PARENT
REMARK Flexibility Score: 70.00
ROOT
ATOM      1  C   UNL     1      50.874  33.674  30.268  1.00  0.00    -0.001 C 
ATOM      2  C   UNL     1      50.772  34.042  28.977  1.00  0.00    -0.023 C 
ENDROOT
BRANCH   2   3
ATOM      3  C   UNL     1      50.127  33.229  27.867  1.00  0.00     0.014 C 
BRANCH   3   4
ATOM      4  C   UNL     1      51.092  32.131  27.333  1.00  0.00     0.012 C 
BRANCH   4   5
ATOM      5  C   UNL     1      50.638  30.674  27.581  1.00  0.00     0.031 C 
BRANCH   5   6
ATOM      6  C   UNL     1      49.134  30.436  27.643  1.00  0.00    -0.077 C 
ATOM      7  C   UNL     1      48.398  30.345  26.329  1.00  0.00     0.039 C 
ATOM      8  C   UNL     1      48.440  30.267  28.796  1.00  0.00    -0.028 CG0
ATOM      9  G   UNL     1      49.005  30.390  30.188  1.00  0.00     0.000 G0
ENDBRANCH   5   6
ENDBRANCH   4   5
ENDBRANCH   3   4
BRANCH   3  10
ATOM     10  C   UNL     1      49.544  34.110  26.714  1.00  0.00    -0.010 C 
ATOM     11  C   UNL     1      49.682  33.406  25.354  1.00  0.00     0.008 C 
ATOM     12  C   UNL     1      48.086  34.567  26.922  1.00  0.00     0.008 C 
ENDBRANCH   3  10
ENDBRANCH   2   3
BRANCH   1  13
ATOM     13  C   UNL     1      50.415  32.394  30.870  1.00  0.00    -0.055 C 
ATOM     14  C   UNL     1      51.231  31.772  31.728  1.00  0.00     0.012 C 
BRANCH  13  15
ATOM     15  C   UNL     1      49.013  31.862  30.676  1.00  0.00     0.039 C 
BRANCH  15  16
ATOM     16  C   UNL     1      48.986  30.386  30.205  1.00  0.00     0.032 CG0
ATOM     17  G   UNL     1      48.428  30.260  28.811  1.00  0.00     0.000 G0
ENDBRANCH  15  16
ENDBRANCH  13  15
ENDBRANCH   1  13
TORSDOF 1
ENDMDL
MODEL 2
REMARK VINA RESULT:    -2.427      4.414      6.437
REMARK INTER + INTRA:          -3.973
REMARK INTER:                  -3.659
REMARK INTRA:                  -0.314
REMARK UNBOUND:                -0.411
REMARK SMILES C=C1C=C[C@@H](C(C)C)CCC(C)=CCC1
REMARK SMILES IDX 3 1 4 2 5 3 9 4 10 5 11 6 12 7 13 8 6 10 7 11 8 12 2 13 1 14
REMARK SMILES IDX 15 15 14 16
REMARK H PARENT
REMARK Flexibility Score: 70.00
ROOT
ATOM      1  C   UNL     1      53.030  27.840  28.267  1.00  0.00    -0.001 C 
ATOM      2  C   UNL     1      54.294  28.053  27.855  1.00  0.00    -0.023 C 
ENDROOT
BRANCH   2   3
ATOM      3  C   UNL     1      54.707  28.753  26.571  1.00  0.00     0.014 C 
BRANCH   3   4
ATOM      4  C   UNL     1      54.177  28.000  25.317  1.00  0.00     0.012 C 
BRANCH   4   5
ATOM      5  C   UNL     1      53.315  28.846  24.352  1.00  0.00     0.031 C 
BRANCH   5   6
ATOM      6  C   UNL     1      53.169  30.324  24.695  1.00  0.00    -0.077 C 
ATOM      7  C   UNL     1      54.250  31.253  24.200  1.00  0.00     0.039 C 
ATOM      8  C   UNL     1      52.120  30.844  25.378  1.00  0.00    -0.028 CG0
ATOM      9  G   UNL     1      50.994  30.054  25.995  1.00  0.00     0.000 G0
ENDBRANCH   5   6
ENDBRANCH   4   5
ENDBRANCH   3   4
BRANCH   3  10
ATOM     10  C   UNL     1      56.244  29.030  26.484  1.00  0.00    -0.010 C 
ATOM     11  C   UNL     1      56.709  29.943  27.630  1.00  0.00     0.008 C 
ATOM     12  C   UNL     1      57.127  27.767  26.427  1.00  0.00     0.008 C 
ENDBRANCH   3  10
ENDBRANCH   2   3
BRANCH   1  13
ATOM     13  C   UNL     1      51.783  28.209  27.544  1.00  0.00    -0.055 C 
ATOM     14  C   UNL     1      51.003  27.222  27.090  1.00  0.00     0.012 C 
BRANCH  13  15
ATOM     15  C   UNL     1      51.289  29.635  27.452  1.00  0.00     0.039 C 
BRANCH  15  16
ATOM     16  C   UNL     1      50.969  30.070  26.000  1.00  0.00     0.032 CG0
ATOM     17  G   UNL     1      52.110  30.844  25.390  1.00  0.00     0.000 G0
ENDBRANCH  15  16
ENDBRANCH  13  15
ENDBRANCH   1  13
TORSDOF 1
ENDMDL
MODEL 3
REMARK VINA RESULT:    -2.377      1.681      3.802
REMARK INTER + INTRA:          -3.900
REMARK INTER:                  -3.385
REMARK INTRA:                  -0.515
REMARK UNBOUND:                -0.411
REMARK SMILES C=C1C=C[C@@H](C(C)C)CCC(C)=CCC1
REMARK SMILES IDX 3 1 4 2 5 3 9 4 10 5 11 6 12 7 13 8 6 10 7 11 8 12 2 13 1 14
REMARK SMILES IDX 15 15 14 16
REMARK H PARENT
REMARK Flexibility Score: 70.00
ROOT
ATOM      1  C   UNL     1      52.366  32.495  26.507  1.00  0.00    -0.001 C 
ATOM      2  C   UNL     1      51.751  33.183  27.488  1.00  0.00    -0.023 C 
ENDROOT
BRANCH   2   3
ATOM      3  C   UNL     1      50.593  32.683  28.335  1.00  0.00     0.014 C 
BRANCH   3   4
ATOM      4  C   UNL     1      49.277  32.601  27.508  1.00  0.00     0.012 C 
BRANCH   4   5
ATOM      5  C   UNL     1      48.593  31.215  27.489  1.00  0.00     0.031 C 
BRANCH   5   6
ATOM      6  C   UNL     1      49.096  30.199  28.508  1.00  0.00    -0.077 C 
ATOM      7  C   UNL     1      48.470  30.236  29.880  1.00  0.00     0.039 C 
ATOM      8  C   UNL     1      50.033  29.256  28.240  1.00  0.00    -0.028 CG0
ATOM      9  G   UNL     1      50.800  29.121  26.949  1.00  0.00     0.000 G0
ENDBRANCH   5   6
ENDBRANCH   4   5
ENDBRANCH   3   4
BRANCH   3  10
ATOM     10  C   UNL     1      50.403  33.490  29.661  1.00  0.00    -0.010 C 
ATOM     11  C   UNL     1      48.941  33.931  29.838  1.00  0.00     0.008 C 
ATOM     12  C   UNL     1      50.892  32.769  30.934  1.00  0.00     0.008 C 
ENDBRANCH   3  10
ENDBRANCH   2   3
BRANCH   1  13
ATOM     13  C   UNL     1      52.025  31.129  26.026  1.00  0.00    -0.055 C 
ATOM     14  C   UNL     1      51.781  30.964  24.722  1.00  0.00     0.012 C 
BRANCH  13  15
ATOM     15  C   UNL     1      52.104  29.910  26.918  1.00  0.00     0.039 C 
BRANCH  15  16
ATOM     16  C   UNL     1      50.791  29.089  26.935  1.00  0.00     0.032 CG0
ATOM     17  G   UNL     1      50.049  29.258  28.236  1.00  0.00     0.000 G0
ENDBRANCH  15  16
ENDBRANCH  13  15
ENDBRANCH   1  13
TORSDOF 1
ENDMDL
MODEL 4
REMARK VINA RESULT:    -2.339      2.045      4.047
REMARK INTER + INTRA:          -3.844
REMARK INTER:                  -3.544
REMARK INTRA:                  -0.300
REMARK UNBOUND:                -0.411
REMARK SMILES C=C1C=C[C@@H](C(C)C)CCC(C)=CCC1
REMARK SMILES IDX 3 1 4 2 5 3 9 4 10 5 11 6 12 7 13 8 6 10 7 11 8 12 2 13 1 14
REMARK SMILES IDX 15 15 14 16
REMARK H PARENT
REMARK Flexibility Score: 70.00
ROOT
ATOM      1  C   UNL     1      48.792  31.736  30.631  1.00  0.00    -0.001 C 
ATOM      2  C   UNL     1      48.907  30.597  29.921  1.00  0.00    -0.023 C 
ENDROOT
BRANCH   2   3
ATOM      3  C   UNL     1      49.444  30.481  28.505  1.00  0.00     0.014 C 
BRANCH   3   4
ATOM      4  C   UNL     1      48.578  31.293  27.500  1.00  0.00     0.012 C 
BRANCH   4   5
ATOM      5  C   UNL     1      49.351  32.318  26.638  1.00  0.00     0.031 C 
BRANCH   5   6
ATOM      6  C   UNL     1      50.862  32.361  26.832  1.00  0.00    -0.077 C 
ATOM      7  C   UNL     1      51.687  31.403  26.008  1.00  0.00     0.039 C 
ATOM      8  C   UNL     1      51.496  33.224  27.664  1.00  0.00    -0.028 CG0
ATOM      9  G   UNL     1      50.824  34.197  28.599  1.00  0.00     0.000 G0
ENDBRANCH   5   6
ENDBRANCH   4   5
ENDBRANCH   3   4
BRANCH   3  10
ATOM     10  C   UNL     1      49.649  29.001  28.041  1.00  0.00    -0.010 C 
ATOM     11  C   UNL     1      51.124  28.584  28.154  1.00  0.00     0.008 C 
ATOM     12  C   UNL     1      48.755  27.968  28.756  1.00  0.00     0.008 C 
ENDBRANCH   3  10
ENDBRANCH   2   3
BRANCH   1  13
ATOM     13  C   UNL     1      49.129  33.111  30.172  1.00  0.00    -0.055 C 
ATOM     14  C   UNL     1      48.135  33.997  30.055  1.00  0.00     0.012 C 
BRANCH  13  15
ATOM     15  C   UNL     1      50.555  33.581  29.995  1.00  0.00     0.039 C 
BRANCH  15  16
ATOM     16  C   UNL     1      50.817  34.204  28.601  1.00  0.00     0.032 CG0
ATOM     17  G   UNL     1      51.497  33.227  27.677  1.00  0.00     0.000 G0
ENDBRANCH  15  16
ENDBRANCH  13  15
ENDBRANCH   1  13
TORSDOF 1
ENDMDL
MODEL 5
REMARK VINA RESULT:    -2.329      1.391      2.105
REMARK INTER + INTRA:          -3.830
REMARK INTER:                  -3.366
REMARK INTRA:                  -0.463
REMARK UNBOUND:                -0.411
REMARK SMILES C=C1C=C[C@@H](C(C)C)CCC(C)=CCC1
REMARK SMILES IDX 3 1 4 2 5 3 9 4 10 5 11 6 12 7 13 8 6 10 7 11 8 12 2 13 1 14
REMARK SMILES IDX 15 15 14 16
REMARK H PARENT
REMARK Flexibility Score: 70.00
ROOT
ATOM      1  C   UNL     1      50.803  33.936  28.215  1.00  0.00    -0.001 C 
ATOM      2  C   UNL     1      50.802  33.204  27.084  1.00  0.00    -0.023 C 
ENDROOT
BRANCH   2   3
ATOM      3  C   UNL     1      50.177  31.830  26.913  1.00  0.00     0.014 C 
BRANCH   3   4
ATOM      4  C   UNL     1      51.126  30.707  27.422  1.00  0.00     0.012 C 
BRANCH   4   5
ATOM      5  C   UNL     1      50.634  29.944  28.674  1.00  0.00     0.031 C 
BRANCH   5   6
ATOM      6  C   UNL     1      49.127  29.766  28.809  1.00  0.00    -0.077 C 
ATOM      7  C   UNL     1      48.486  28.682  27.978  1.00  0.00     0.039 C 
ATOM      8  C   UNL     1      48.350  30.494  29.649  1.00  0.00    -0.028 CG0
ATOM      9  G   UNL     1      48.815  31.650  30.496  1.00  0.00     0.000 G0
ENDBRANCH   5   6
ENDBRANCH   4   5
ENDBRANCH   3   4
BRANCH   3  10
ATOM     10  C   UNL     1      49.672  31.558  25.458  1.00  0.00    -0.010 C 
ATOM     11  C   UNL     1      49.946  32.761  24.541  1.00  0.00     0.008 C 
ATOM     12  C   UNL     1      50.221  30.270  24.812  1.00  0.00     0.008 C 
ENDBRANCH   3  10
ENDBRANCH   2   3
BRANCH   1  13
ATOM     13  C   UNL     1      50.229  33.545  29.530  1.00  0.00    -0.055 C 
ATOM     14  C   UNL     1      50.922  33.845  30.634  1.00  0.00     0.012 C 
BRANCH  13  15
ATOM     15  C   UNL     1      48.834  32.977  29.672  1.00  0.00     0.039 C 
BRANCH  15  16
ATOM     16  C   UNL     1      48.797  31.668  30.499  1.00  0.00     0.032 CG0
ATOM     17  G   UNL     1      48.341  30.499  29.664  1.00  0.00     0.000 G0
ENDBRANCH  15  16
ENDBRANCH  13  15
ENDBRANCH   1  13
TORSDOF 1
ENDMDL
MODEL 6
REMARK VINA RESULT:    -2.253      2.230      3.686
REMARK INTER + INTRA:          -3.718
REMARK INTER:                  -3.187
REMARK INTRA:                  -0.531
REMARK UNBOUND:                -0.411
REMARK SMILES C=C1C=C[C@@H](C(C)C)CCC(C)=CCC1
REMARK SMILES IDX 3 1 4 2 5 3 9 4 10 5 11 6 12 7 13 8 6 10 7 11 8 12 2 13 1 14
REMARK SMILES IDX 15 15 14 16
REMARK H PARENT
REMARK Flexibility Score: 70.00
ROOT
ATOM      1  C   UNL     1      50.130  30.430  29.781  1.00  0.00    -0.001 C 
ATOM      2  C   UNL     1      50.357  31.693  29.372  1.00  0.00    -0.023 C 
ENDROOT
BRANCH   2   3
ATOM      3  C   UNL     1      50.141  32.226  27.965  1.00  0.00     0.014 C 
BRANCH   3   4
ATOM      4  C   UNL     1      51.484  32.656  27.308  1.00  0.00     0.012 C 
BRANCH   4   5
ATOM      5  C   UNL     1      51.929  31.803  26.096  1.00  0.00     0.031 C 
BRANCH   5   6
ATOM      6  C   UNL     1      52.852  30.629  26.398  1.00  0.00    -0.077 C 
ATOM      7  C   UNL     1      54.337  30.891  26.341  1.00  0.00     0.039 C 
ATOM      8  C   UNL     1      52.417  29.392  26.745  1.00  0.00    -0.028 CG0
ATOM      9  G   UNL     1      50.978  28.947  26.787  1.00  0.00     0.000 G0
ENDBRANCH   5   6
ENDBRANCH   4   5
ENDBRANCH   3   4
BRANCH   3  10
ATOM     10  C   UNL     1      49.063  33.357  27.892  1.00  0.00    -0.010 C 
ATOM     11  C   UNL     1      48.803  33.966  29.279  1.00  0.00     0.008 C 
ATOM     12  C   UNL     1      49.367  34.477  26.876  1.00  0.00     0.008 C 
ENDBRANCH   3  10
ENDBRANCH   2   3
BRANCH   1  13
ATOM     13  C   UNL     1      49.659  29.293  28.945  1.00  0.00    -0.055 C 
ATOM     14  C   UNL     1      48.345  29.167  28.735  1.00  0.00     0.012 C 
BRANCH  13  15
ATOM     15  C   UNL     1      50.611  28.384  28.199  1.00  0.00     0.039 C 
BRANCH  15  16
ATOM     16  C   UNL     1      50.988  28.925  26.797  1.00  0.00     0.032 CG0
ATOM     17  G   UNL     1      52.426  29.375  26.746  1.00  0.00     0.000 G0
ENDBRANCH  15  16
ENDBRANCH  13  15
ENDBRANCH   1  13
TORSDOF 1
ENDMDL
MODEL 7
REMARK VINA RESULT:    -2.249      1.274      2.001
REMARK INTER + INTRA:          -3.712
REMARK INTER:                  -3.181
REMARK INTRA:                  -0.531
REMARK UNBOUND:                -0.411
REMARK SMILES C=C1C=C[C@@H](C(C)C)CCC(C)=CCC1
REMARK SMILES IDX 3 1 4 2 5 3 9 4 10 5 11 6 12 7 13 8 6 10 7 11 8 12 2 13 1 14
REMARK SMILES IDX 15 15 14 16
REMARK H PARENT
REMARK Flexibility Score: 70.00
ROOT
ATOM      1  C   UNL     1      50.396  34.001  28.790  1.00  0.00    -0.001 C 
ATOM      2  C   UNL     1      50.127  33.857  27.478  1.00  0.00    -0.023 C 
ENDROOT
BRANCH   2   3
ATOM      3  C   UNL     1      48.954  33.093  26.888  1.00  0.00     0.014 C 
BRANCH   3   4
ATOM      4  C   UNL     1      49.405  31.722  26.304  1.00  0.00     0.012 C 
BRANCH   4   5
ATOM      5  C   UNL     1      48.902  30.479  27.073  1.00  0.00     0.031 C 
BRANCH   5   6
ATOM      6  C   UNL     1      49.929  29.757  27.937  1.00  0.00    -0.077 C 
ATOM      7  C   UNL     1      50.825  28.757  27.248  1.00  0.00     0.039 C 
ATOM      8  C   UNL     1      50.102  29.987  29.263  1.00  0.00    -0.028 CG0
ATOM      9  G   UNL     1      49.255  30.900  30.113  1.00  0.00     0.000 G0
ENDBRANCH   5   6
ENDBRANCH   4   5
ENDBRANCH   3   4
BRANCH   3  10
ATOM     10  C   UNL     1      48.129  33.928  25.854  1.00  0.00    -0.010 C 
ATOM     11  C   UNL     1      48.097  35.415  26.242  1.00  0.00     0.008 C 
ATOM     12  C   UNL     1      48.584  33.777  24.389  1.00  0.00     0.008 C 
ENDBRANCH   3  10
ENDBRANCH   2   3
BRANCH   1  13
ATOM     13  C   UNL     1      49.631  33.418  29.926  1.00  0.00    -0.055 C 
ATOM     14  C   UNL     1      48.461  33.977  30.250  1.00  0.00     0.012 C 
BRANCH  13  15
ATOM     15  C   UNL     1      50.045  32.134  30.610  1.00  0.00     0.039 C 
BRANCH  15  16
ATOM     16  C   UNL     1      49.253  30.901  30.109  1.00  0.00     0.032 CG0
ATOM     17  G   UNL     1      50.116  29.992  29.271  1.00  0.00     0.000 G0
ENDBRANCH  15  16
ENDBRANCH  13  15
ENDBRANCH   1  13
TORSDOF 1
ENDMDL
MODEL 8
REMARK VINA RESULT:    -2.160      3.933      5.909
REMARK INTER + INTRA:          -3.581
REMARK INTER:                  -3.106
REMARK INTRA:                  -0.475
REMARK UNBOUND:                -0.411
REMARK SMILES C=C1C=C[C@@H](C(C)C)CCC(C)=CCC1
REMARK SMILES IDX 3 1 4 2 5 3 9 4 10 5 11 6 12 7 13 8 6 10 7 11 8 12 2 13 1 14
REMARK SMILES IDX 15 15 14 16
REMARK H PARENT
REMARK Flexibility Score: 70.00
ROOT
ATOM      1  C   UNL     1      53.877  31.766  26.111  1.00  0.00    -0.001 C 
ATOM      2  C   UNL     1      54.693  30.722  26.355  1.00  0.00    -0.023 C 
ENDROOT
BRANCH   2   3
ATOM      3  C   UNL     1      54.482  29.296  25.876  1.00  0.00     0.014 C 
BRANCH   3   4
ATOM      4  C   UNL     1      53.559  28.502  26.845  1.00  0.00     0.012 C 
BRANCH   4   5
ATOM      5  C   UNL     1      52.227  28.007  26.234  1.00  0.00     0.031 C 
BRANCH   5   6
ATOM      6  C   UNL     1      50.958  28.362  26.999  1.00  0.00    -0.077 C 
ATOM      7  C   UNL     1      50.561  27.446  28.131  1.00  0.00     0.039 C 
ATOM      8  C   UNL     1      50.200  29.457  26.746  1.00  0.00    -0.028 CG0
ATOM      9  G   UNL     1      50.418  30.434  25.619  1.00  0.00     0.000 G0
ENDBRANCH   5   6
ENDBRANCH   4   5
ENDBRANCH   3   4
BRANCH   3  10
ATOM     10  C   UNL     1      55.818  28.537  25.585  1.00  0.00    -0.010 C 
ATOM     11  C   UNL     1      56.568  29.170  24.402  1.00  0.00     0.008 C 
ATOM     12  C   UNL     1      56.764  28.402  26.795  1.00  0.00     0.008 C 
ENDBRANCH   3  10
ENDBRANCH   2   3
BRANCH   1  13
ATOM     13  C   UNL     1      52.593  31.738  25.361  1.00  0.00    -0.055 C 
ATOM     14  C   UNL     1      52.644  31.637  24.029  1.00  0.00     0.012 C 
BRANCH  13  15
ATOM     15  C   UNL     1      51.250  31.654  26.051  1.00  0.00     0.039 C 
BRANCH  15  16
ATOM     16  C   UNL     1      50.417  30.426  25.604  1.00  0.00     0.032 CG0
ATOM     17  G   UNL     1      50.186  29.469  26.745  1.00  0.00     0.000 G0
ENDBRANCH  15  16
ENDBRANCH  13  15
ENDBRANCH   1  13
TORSDOF 1
ENDMDL
MODEL 9
REMARK VINA RESULT:    -2.155      1.756      4.503
REMARK INTER + INTRA:          -3.575
REMARK INTER:                  -3.040
REMARK INTRA:                  -0.534
REMARK UNBOUND:                -0.411
REMARK SMILES C=C1C=C[C@@H](C(C)C)CCC(C)=CCC1
REMARK SMILES IDX 3 1 4 2 5 3 9 4 10 5 11 6 12 7 13 8 6 10 7 11 8 12 2 13 1 14
REMARK SMILES IDX 15 15 14 16
REMARK H PARENT
REMARK Flexibility Score: 70.00
ROOT
ATOM      1  C   UNL     1      51.512  32.167  26.364  1.00  0.00    -0.001 C 
ATOM      2  C   UNL     1      51.568  30.896  26.808  1.00  0.00    -0.023 C 
ENDROOT
BRANCH   2   3
ATOM      3  C   UNL     1      50.412  30.107  27.400  1.00  0.00     0.014 C 
BRANCH   3   4
ATOM      4  C   UNL     1      50.538  29.986  28.946  1.00  0.00     0.012 C 
BRANCH   4   5
ATOM      5  C   UNL     1      49.566  30.872  29.760  1.00  0.00     0.031 C 
BRANCH   5   6
ATOM      6  C   UNL     1      50.155  32.138  30.370  1.00  0.00    -0.077 C 
ATOM      7  C   UNL     1      50.959  31.979  31.638  1.00  0.00     0.039 C 
ATOM      8  C   UNL     1      50.028  33.373  29.825  1.00  0.00    -0.028 CG0
ATOM      9  G   UNL     1      49.211  33.715  28.606  1.00  0.00     0.000 G0
ENDBRANCH   5   6
ENDBRANCH   4   5
ENDBRANCH   3   4
BRANCH   3  10
ATOM     10  C   UNL     1      50.200  28.716  26.717  1.00  0.00    -0.010 C 
ATOM     11  C   UNL     1      48.984  28.739  25.777  1.00  0.00     0.008 C 
ATOM     12  C   UNL     1      51.431  28.167  25.970  1.00  0.00     0.008 C 
ENDBRANCH   3  10
ENDBRANCH   2   3
BRANCH   1  13
ATOM     13  C   UNL     1      50.329  33.069  26.391  1.00  0.00    -0.055 C 
ATOM     14  C   UNL     1      49.326  32.817  25.544  1.00  0.00     0.012 C 
BRANCH  13  15
ATOM     15  C   UNL     1      50.151  34.145  27.438  1.00  0.00     0.039 C 
BRANCH  15  16
ATOM     16  C   UNL     1      49.225  33.708  28.601  1.00  0.00     0.032 CG0
ATOM     17  G   UNL     1      50.013  33.378  29.843  1.00  0.00     0.000 G0
ENDBRANCH  15  16
ENDBRANCH  13  15
ENDBRANCH   1  13
TORSDOF 1
ENDMDL
