MODEL 1
REMARK VINA RESULT:    -5.029      0.000      0.000
REMARK INTER + INTRA:          -6.854
REMARK INTER:                  -7.675
REMARK INTRA:                   0.822
REMARK UNBOUND:                 0.822
REMARK SMILES CC1=CCC[C@H](C)C(=O)C[C@@H](C(C)C)C(=O)C1
REMARK SMILES IDX 8 1 9 2 6 3 7 4 5 5 4 6 3 7 2 8 1 9 10 11 11 12 15 13 16 14
REMARK SMILES IDX 17 15 12 17 13 18 14 19
REMARK H PARENT
REMARK Flexibility Score: 70.00
ROOT
ATOM      1  C   UNL     1      -3.665 -11.465  28.711  1.00  0.00     0.136 C 
ATOM      2  O   UNL     1      -4.467 -10.603  29.041  1.00  0.00    -0.299 OA
ENDROOT
BRANCH   1   3
ATOM      3  C   UNL     1      -3.984 -12.387  27.552  1.00  0.00     0.053 C 
ATOM      4  C   UNL     1      -2.744 -12.533  26.664  1.00  0.00     0.016 C 
BRANCH   3   5
ATOM      5  C   UNL     1      -4.461 -13.776  28.037  1.00  0.00     0.015 C 
BRANCH   5   6
ATOM      6  C   UNL     1      -5.786 -13.724  28.816  1.00  0.00     0.028 C 
BRANCH   6   7
ATOM      7  C   UNL     1      -5.750 -14.634  30.020  1.00  0.00    -0.028 C 
ATOM      8  C   UNL     1      -5.108 -14.380  31.183  1.00  0.00    -0.070 CG0
ATOM      9  C   UNL     1      -5.185 -15.415  32.276  1.00  0.00     0.039 C 
ATOM     10  G   UNL     1      -4.347 -13.094  31.448  1.00  0.00     0.000 G0
ENDBRANCH   6   7
ENDBRANCH   5   6
ENDBRANCH   3   5
ENDBRANCH   1   3
BRANCH   1  11
ATOM     11  C   UNL     1      -2.379 -11.601  29.484  1.00  0.00     0.087 C 
BRANCH  11  12
ATOM     12  C   UNL     1      -2.144 -13.057  29.962  1.00  0.00     0.066 C 
BRANCH  12  13
ATOM     13  C   UNL     1      -2.845 -13.314  31.286  1.00  0.00     0.140 C 
ATOM     14  O   UNL     1      -2.209 -13.750  32.236  1.00  0.00    -0.299 OA
BRANCH  13  15
ATOM     15  C   UNL     1      -4.327 -13.095  31.445  1.00  0.00     0.106 CG0
ATOM     16  G   UNL     1      -5.096 -14.374  31.170  1.00  0.00     0.000 G0
ENDBRANCH  13  15
ENDBRANCH  12  13
BRANCH  12  17
ATOM     17  C   UNL     1      -0.635 -13.445  30.063  1.00  0.00    -0.006 C 
ATOM     18  C   UNL     1      -0.002 -13.629  28.673  1.00  0.00     0.008 C 
ATOM     19  C   UNL     1       0.205 -12.463  30.899  1.00  0.00     0.008 C 
ENDBRANCH  12  17
ENDBRANCH  11  12
ENDBRANCH   1  11
TORSDOF 1
ENDMDL
MODEL 2
REMARK VINA RESULT:    -4.934      1.724      3.472
REMARK INTER + INTRA:          -6.708
REMARK INTER:                  -7.095
REMARK INTRA:                   0.387
REMARK UNBOUND:                 0.822
REMARK SMILES CC1=CCC[C@H](C)C(=O)C[C@@H](C(C)C)C(=O)C1
REMARK SMILES IDX 8 1 9 2 6 3 7 4 5 5 4 6 3 7 2 8 1 9 10 11 11 12 15 13 16 14
REMARK SMILES IDX 17 15 12 17 13 18 14 19
REMARK H PARENT
REMARK Flexibility Score: 70.00
ROOT
ATOM      1  C   UNL     1      -5.610 -14.005  28.397  1.00  0.00     0.136 C 
ATOM      2  O   UNL     1      -5.193 -14.758  27.528  1.00  0.00    -0.299 OA
ENDROOT
BRANCH   1   3
ATOM      3  C   UNL     1      -6.553 -14.530  29.460  1.00  0.00     0.053 C 
ATOM      4  C   UNL     1      -7.584 -15.457  28.811  1.00  0.00     0.016 C 
BRANCH   3   5
ATOM      5  C   UNL     1      -5.794 -15.276  30.583  1.00  0.00     0.015 C 
BRANCH   5   6
ATOM      6  C   UNL     1      -5.345 -14.354  31.728  1.00  0.00     0.028 C 
BRANCH   6   7
ATOM      7  C   UNL     1      -3.840 -14.245  31.787  1.00  0.00    -0.028 C 
ATOM      8  C   UNL     1      -3.127 -13.100  31.683  1.00  0.00    -0.070 CG0
ATOM      9  C   UNL     1      -1.624 -13.192  31.763  1.00  0.00     0.039 C 
ATOM     10  G   UNL     1      -3.767 -11.734  31.526  1.00  0.00     0.000 G0
ENDBRANCH   6   7
ENDBRANCH   5   6
ENDBRANCH   3   5
ENDBRANCH   1   3
BRANCH   1  11
ATOM     11  C   UNL     1      -5.187 -12.559  28.376  1.00  0.00     0.087 C 
BRANCH  11  12
ATOM     12  C   UNL     1      -3.761 -12.365  28.952  1.00  0.00     0.066 C 
BRANCH  12  13
ATOM     13  C   UNL     1      -3.759 -11.327  30.061  1.00  0.00     0.140 C 
ATOM     14  O   UNL     1      -3.711 -10.137  29.780  1.00  0.00    -0.299 OA
BRANCH  13  15
ATOM     15  C   UNL     1      -3.759 -11.730  31.514  1.00  0.00     0.106 CG0
ATOM     16  G   UNL     1      -3.132 -13.099  31.695  1.00  0.00     0.000 G0
ENDBRANCH  13  15
ENDBRANCH  12  13
BRANCH  12  17
ATOM     17  C   UNL     1      -2.694 -12.006  27.870  1.00  0.00    -0.006 C 
ATOM     18  C   UNL     1      -1.332 -12.650  28.178  1.00  0.00     0.008 C 
ATOM     19  C   UNL     1      -3.126 -12.348  26.433  1.00  0.00     0.008 C 
ENDBRANCH  12  17
ENDBRANCH  11  12
ENDBRANCH   1  11
TORSDOF 1
ENDMDL
MODEL 3
REMARK VINA RESULT:    -4.919      1.806      3.690
REMARK INTER + INTRA:          -6.686
REMARK INTER:                  -7.250
REMARK INTRA:                   0.564
REMARK UNBOUND:                 0.822
REMARK SMILES CC1=CCC[C@H](C)C(=O)C[C@@H](C(C)C)C(=O)C1
REMARK SMILES IDX 8 1 9 2 6 3 7 4 5 5 4 6 3 7 2 8 1 9 10 11 11 12 15 13 16 14
REMARK SMILES IDX 17 15 12 17 13 18 14 19
REMARK H PARENT
REMARK Flexibility Score: 70.00
ROOT
ATOM      1  C   UNL     1      -1.798 -12.737  30.366  1.00  0.00     0.136 C 
ATOM      2  O   UNL     1      -0.672 -12.259  30.367  1.00  0.00    -0.299 OA
ENDROOT
BRANCH   1   3
ATOM      3  C   UNL     1      -2.592 -12.799  31.654  1.00  0.00     0.053 C 
ATOM      4  C   UNL     1      -3.474 -11.552  31.768  1.00  0.00     0.016 C 
BRANCH   3   5
ATOM      5  C   UNL     1      -3.461 -14.078  31.732  1.00  0.00     0.015 C 
BRANCH   5   6
ATOM      6  C   UNL     1      -4.964 -13.801  31.576  1.00  0.00     0.028 C 
BRANCH   6   7
ATOM      7  C   UNL     1      -5.672 -14.967  30.928  1.00  0.00    -0.028 C 
ATOM      8  C   UNL     1      -6.196 -14.978  29.681  1.00  0.00    -0.070 CG0
ATOM      9  C   UNL     1      -6.871 -16.241  29.208  1.00  0.00     0.039 C 
ATOM     10  G   UNL     1      -6.106 -13.799  28.731  1.00  0.00     0.000 G0
ENDBRANCH   6   7
ENDBRANCH   5   6
ENDBRANCH   3   5
ENDBRANCH   1   3
BRANCH   1  11
ATOM     11  C   UNL     1      -2.363 -13.272  29.075  1.00  0.00     0.087 C 
BRANCH  11  12
ATOM     12  C   UNL     1      -3.723 -12.617  28.724  1.00  0.00     0.066 C 
BRANCH  12  13
ATOM     13  C   UNL     1      -4.694 -13.645  28.167  1.00  0.00     0.140 C 
ATOM     14  O   UNL     1      -4.358 -14.352  27.227  1.00  0.00    -0.299 OA
BRANCH  13  15
ATOM     15  C   UNL     1      -6.092 -13.780  28.714  1.00  0.00     0.106 CG0
ATOM     16  G   UNL     1      -6.193 -14.963  29.657  1.00  0.00     0.000 G0
ENDBRANCH  13  15
ENDBRANCH  12  13
BRANCH  12  17
ATOM     17  C   UNL     1      -3.598 -11.404  27.748  1.00  0.00    -0.006 C 
ATOM     18  C   UNL     1      -3.132 -10.133  28.478  1.00  0.00     0.008 C 
ATOM     19  C   UNL     1      -2.694 -11.675  26.532  1.00  0.00     0.008 C 
ENDBRANCH  12  17
ENDBRANCH  11  12
ENDBRANCH   1  11
TORSDOF 1
ENDMDL
MODEL 4
REMARK VINA RESULT:    -4.846      2.090      4.615
REMARK INTER + INTRA:          -6.574
REMARK INTER:                  -7.289
REMARK INTRA:                   0.715
REMARK UNBOUND:                 0.822
REMARK SMILES CC1=CCC[C@H](C)C(=O)C[C@@H](C(C)C)C(=O)C1
REMARK SMILES IDX 8 1 9 2 6 3 7 4 5 5 4 6 3 7 2 8 1 9 10 11 11 12 15 13 16 14
REMARK SMILES IDX 17 15 12 17 13 18 14 19
REMARK H PARENT
REMARK Flexibility Score: 70.00
ROOT
ATOM      1  C   UNL     1      -3.373 -10.361  29.591  1.00  0.00     0.136 C 
ATOM      2  O   UNL     1      -2.618  -9.875  28.761  1.00  0.00    -0.299 OA
ENDROOT
BRANCH   1   3
ATOM      3  C   UNL     1      -3.138 -10.103  31.066  1.00  0.00     0.053 C 
ATOM      4  C   UNL     1      -4.167 -10.884  31.888  1.00  0.00     0.016 C 
BRANCH   3   5
ATOM      5  C   UNL     1      -1.703 -10.490  31.495  1.00  0.00     0.015 C 
BRANCH   5   6
ATOM      6  C   UNL     1      -1.459 -12.008  31.497  1.00  0.00     0.028 C 
BRANCH   6   7
ATOM      7  C   UNL     1      -0.451 -12.402  30.444  1.00  0.00    -0.028 C 
ATOM      8  C   UNL     1      -0.647 -13.320  29.470  1.00  0.00    -0.070 CG0
ATOM      9  C   UNL     1       0.484 -13.582  28.507  1.00  0.00     0.039 C 
ATOM     10  G   UNL     1      -1.953 -14.068  29.282  1.00  0.00     0.000 G0
ENDBRANCH   6   7
ENDBRANCH   5   6
ENDBRANCH   3   5
ENDBRANCH   1   3
BRANCH   1  11
ATOM     11  C   UNL     1      -4.514 -11.227  29.124  1.00  0.00     0.087 C 
BRANCH  11  12
ATOM     12  C   UNL     1      -4.234 -12.732  29.369  1.00  0.00     0.066 C 
BRANCH  12  13
ATOM     13  C   UNL     1      -2.998 -13.186  28.611  1.00  0.00     0.140 C 
ATOM     14  O   UNL     1      -2.855 -12.873  27.437  1.00  0.00    -0.299 OA
BRANCH  13  15
ATOM     15  C   UNL     1      -1.960 -14.066  29.258  1.00  0.00     0.106 CG0
ATOM     16  G   UNL     1      -0.665 -13.306  29.476  1.00  0.00     0.000 G0
ENDBRANCH  13  15
ENDBRANCH  12  13
BRANCH  12  17
ATOM     17  C   UNL     1      -5.447 -13.655  29.031  1.00  0.00    -0.006 C 
ATOM     18  C   UNL     1      -5.255 -14.378  27.687  1.00  0.00     0.008 C 
ATOM     19  C   UNL     1      -5.780 -14.675  30.135  1.00  0.00     0.008 C 
ENDBRANCH  12  17
ENDBRANCH  11  12
ENDBRANCH   1  11
TORSDOF 1
ENDMDL
MODEL 5
REMARK VINA RESULT:    -4.843      1.916      3.846
REMARK INTER + INTRA:          -6.569
REMARK INTER:                  -6.730
REMARK INTRA:                   0.161
REMARK UNBOUND:                 0.822
REMARK SMILES CC1=CCC[C@H](C)C(=O)C[C@@H](C(C)C)C(=O)C1
REMARK SMILES IDX 8 1 9 2 6 3 7 4 5 5 4 6 3 7 2 8 1 9 10 11 11 12 15 13 16 14
REMARK SMILES IDX 17 15 12 17 13 18 14 19
REMARK H PARENT
REMARK Flexibility Score: 70.00
ROOT
ATOM      1  C   UNL     1      -3.945 -13.510  31.904  1.00  0.00     0.136 C 
ATOM      2  O   UNL     1      -4.289 -12.495  32.492  1.00  0.00    -0.299 OA
ENDROOT
BRANCH   1   3
ATOM      3  C   UNL     1      -4.795 -14.761  31.999  1.00  0.00     0.053 C 
ATOM      4  C   UNL     1      -5.670 -14.686  33.254  1.00  0.00     0.016 C 
BRANCH   3   5
ATOM      5  C   UNL     1      -5.676 -14.952  30.742  1.00  0.00     0.015 C 
BRANCH   5   6
ATOM      6  C   UNL     1      -5.641 -13.749  29.787  1.00  0.00     0.028 C 
BRANCH   6   7
ATOM      7  C   UNL     1      -5.142 -14.150  28.419  1.00  0.00    -0.028 C 
ATOM      8  C   UNL     1      -4.291 -13.433  27.648  1.00  0.00    -0.070 CG0
ATOM      9  C   UNL     1      -3.907 -13.998  26.304  1.00  0.00     0.039 C 
ATOM     10  G   UNL     1      -3.684 -12.114  28.086  1.00  0.00     0.000 G0
ENDBRANCH   6   7
ENDBRANCH   5   6
ENDBRANCH   3   5
ENDBRANCH   1   3
BRANCH   1  11
ATOM     11  C   UNL     1      -2.664 -13.497  31.111  1.00  0.00     0.087 C 
BRANCH  11  12
ATOM     12  C   UNL     1      -2.445 -12.142  30.390  1.00  0.00     0.066 C 
BRANCH  12  13
ATOM     13  C   UNL     1      -2.427 -12.326  28.882  1.00  0.00     0.140 C 
ATOM     14  O   UNL     1      -1.381 -12.615  28.317  1.00  0.00    -0.299 OA
BRANCH  13  15
ATOM     15  C   UNL     1      -3.664 -12.106  28.049  1.00  0.00     0.106 CG0
ATOM     16  G   UNL     1      -4.292 -13.429  27.653  1.00  0.00     0.000 G0
ENDBRANCH  13  15
ENDBRANCH  12  13
BRANCH  12  17
ATOM     17  C   UNL     1      -1.162 -11.386  30.860  1.00  0.00    -0.006 C 
ATOM     18  C   UNL     1      -1.509 -10.065  31.568  1.00  0.00     0.008 C 
ATOM     19  C   UNL     1      -0.231 -12.231  31.747  1.00  0.00     0.008 C 
ENDBRANCH  12  17
ENDBRANCH  11  12
ENDBRANCH   1  11
TORSDOF 1
ENDMDL
MODEL 6
REMARK VINA RESULT:    -4.839      1.911      3.859
REMARK INTER + INTRA:          -6.564
REMARK INTER:                  -7.551
REMARK INTRA:                   0.987
REMARK UNBOUND:                 0.822
REMARK SMILES CC1=CCC[C@H](C)C(=O)C[C@@H](C(C)C)C(=O)C1
REMARK SMILES IDX 8 1 9 2 6 3 7 4 5 5 4 6 3 7 2 8 1 9 10 11 11 12 15 13 16 14
REMARK SMILES IDX 17 15 12 17 13 18 14 19
REMARK H PARENT
REMARK Flexibility Score: 70.00
ROOT
ATOM      1  C   UNL     1      -4.451 -13.403  28.007  1.00  0.00     0.136 C 
ATOM      2  O   UNL     1      -5.317 -14.265  27.967  1.00  0.00    -0.299 OA
ENDROOT
BRANCH   1   3
ATOM      3  C   UNL     1      -3.138 -13.619  27.281  1.00  0.00     0.053 C 
ATOM      4  C   UNL     1      -2.749 -12.334  26.544  1.00  0.00     0.016 C 
BRANCH   3   5
ATOM      5  C   UNL     1      -2.010 -14.043  28.251  1.00  0.00     0.015 C 
BRANCH   5   6
ATOM      6  C   UNL     1      -0.890 -12.997  28.375  1.00  0.00     0.028 C 
BRANCH   6   7
ATOM      7  C   UNL     1      -0.522 -12.756  29.819  1.00  0.00    -0.028 C 
ATOM      8  C   UNL     1      -1.146 -11.900  30.660  1.00  0.00    -0.070 CG0
ATOM      9  C   UNL     1      -0.631 -11.794  32.073  1.00  0.00     0.039 C 
ATOM     10  G   UNL     1      -2.354 -11.074  30.260  1.00  0.00     0.000 G0
ENDBRANCH   6   7
ENDBRANCH   5   6
ENDBRANCH   3   5
ENDBRANCH   1   3
BRANCH   1  11
ATOM     11  C   UNL     1      -4.706 -12.147  28.799  1.00  0.00     0.087 C 
BRANCH  11  12
ATOM     12  C   UNL     1      -4.626 -12.401  30.326  1.00  0.00     0.066 C 
BRANCH  12  13
ATOM     13  C   UNL     1      -3.605 -11.483  30.977  1.00  0.00     0.140 C 
ATOM     14  O   UNL     1      -3.816 -11.033  32.095  1.00  0.00    -0.299 OA
BRANCH  13  15
ATOM     15  C   UNL     1      -2.352 -11.064  30.252  1.00  0.00     0.106 CG0
ATOM     16  G   UNL     1      -1.170 -11.915  30.676  1.00  0.00     0.000 G0
ENDBRANCH  13  15
ENDBRANCH  12  13
BRANCH  12  17
ATOM     17  C   UNL     1      -4.331 -13.889  30.696  1.00  0.00    -0.006 C 
ATOM     18  C   UNL     1      -3.392 -13.997  31.910  1.00  0.00     0.008 C 
ATOM     19  C   UNL     1      -5.596 -14.734  30.931  1.00  0.00     0.008 C 
ENDBRANCH  12  17
ENDBRANCH  11  12
ENDBRANCH   1  11
TORSDOF 1
ENDMDL
MODEL 7
REMARK VINA RESULT:    -4.800      1.790      4.539
REMARK INTER + INTRA:          -6.504
REMARK INTER:                  -7.024
REMARK INTRA:                   0.520
REMARK UNBOUND:                 0.822
REMARK SMILES CC1=CCC[C@H](C)C(=O)C[C@@H](C(C)C)C(=O)C1
REMARK SMILES IDX 8 1 9 2 6 3 7 4 5 5 4 6 3 7 2 8 1 9 10 11 11 12 15 13 16 14
REMARK SMILES IDX 17 15 12 17 13 18 14 19
REMARK H PARENT
REMARK Flexibility Score: 70.00
ROOT
ATOM      1  C   UNL     1      -1.894 -11.480  30.935  1.00  0.00     0.136 C 
ATOM      2  O   UNL     1      -1.874 -10.395  30.373  1.00  0.00    -0.299 OA
ENDROOT
BRANCH   1   3
ATOM      3  C   UNL     1      -0.624 -12.301  31.036  1.00  0.00     0.053 C 
ATOM      4  C   UNL     1      -0.906 -13.577  31.833  1.00  0.00     0.016 C 
BRANCH   3   5
ATOM      5  C   UNL     1      -0.058 -12.655  29.640  1.00  0.00     0.015 C 
BRANCH   5   6
ATOM      6  C   UNL     1      -1.011 -13.518  28.799  1.00  0.00     0.028 C 
BRANCH   6   7
ATOM      7  C   UNL     1      -1.566 -12.741  27.629  1.00  0.00    -0.028 C 
ATOM      8  C   UNL     1      -2.868 -12.680  27.268  1.00  0.00    -0.070 CG0
ATOM      9  C   UNL     1      -3.231 -11.850  26.063  1.00  0.00     0.039 C 
ATOM     10  G   UNL     1      -3.977 -13.376  28.036  1.00  0.00     0.000 G0
ENDBRANCH   6   7
ENDBRANCH   5   6
ENDBRANCH   3   5
ENDBRANCH   1   3
BRANCH   1  11
ATOM     11  C   UNL     1      -3.195 -11.987  31.501  1.00  0.00     0.087 C 
BRANCH  11  12
ATOM     12  C   UNL     1      -3.776 -13.152  30.659  1.00  0.00     0.066 C 
BRANCH  12  13
ATOM     13  C   UNL     1      -4.288 -12.651  29.319  1.00  0.00     0.140 C 
ATOM     14  O   UNL     1      -5.002 -11.659  29.272  1.00  0.00    -0.299 OA
BRANCH  13  15
ATOM     15  C   UNL     1      -3.981 -13.384  28.038  1.00  0.00     0.106 CG0
ATOM     16  G   UNL     1      -2.878 -12.685  27.266  1.00  0.00     0.000 G0
ENDBRANCH  13  15
ENDBRANCH  12  13
BRANCH  12  17
ATOM     17  C   UNL     1      -4.889 -13.961  31.397  1.00  0.00    -0.006 C 
ATOM     18  C   UNL     1      -5.762 -14.756  30.412  1.00  0.00     0.008 C 
ATOM     19  C   UNL     1      -4.354 -14.893  32.499  1.00  0.00     0.008 C 
ENDBRANCH  12  17
ENDBRANCH  11  12
ENDBRANCH   1  11
TORSDOF 1
ENDMDL
MODEL 8
REMARK VINA RESULT:    -4.797      2.129      3.931
REMARK INTER + INTRA:          -6.499
REMARK INTER:                  -7.787
REMARK INTRA:                   1.287
REMARK UNBOUND:                 0.822
REMARK SMILES CC1=CCC[C@H](C)C(=O)C[C@@H](C(C)C)C(=O)C1
REMARK SMILES IDX 8 1 9 2 6 3 7 4 5 5 4 6 3 7 2 8 1 9 10 11 11 12 15 13 16 14
REMARK SMILES IDX 17 15 12 17 13 18 14 19
REMARK H PARENT
REMARK Flexibility Score: 70.00
ROOT
ATOM      1  C   UNL     1      -4.874 -14.064  30.765  1.00  0.00     0.136 C 
ATOM      2  O   UNL     1      -5.800 -14.736  31.196  1.00  0.00    -0.299 OA
ENDROOT
BRANCH   1   3
ATOM      3  C   UNL     1      -4.726 -13.854  29.272  1.00  0.00     0.053 C 
ATOM      4  C   UNL     1      -5.901 -14.516  28.547  1.00  0.00     0.016 C 
BRANCH   3   5
ATOM      5  C   UNL     1      -4.649 -12.352  28.908  1.00  0.00     0.015 C 
BRANCH   5   6
ATOM      6  C   UNL     1      -3.596 -12.040  27.833  1.00  0.00     0.028 C 
BRANCH   6   7
ATOM      7  C   UNL     1      -2.558 -13.133  27.749  1.00  0.00    -0.028 C 
ATOM      8  C   UNL     1      -1.428 -13.207  28.489  1.00  0.00    -0.070 CG0
ATOM      9  C   UNL     1      -0.507 -14.378  28.260  1.00  0.00     0.039 C 
ATOM     10  G   UNL     1      -1.064 -12.190  29.554  1.00  0.00     0.000 G0
ENDBRANCH   6   7
ENDBRANCH   5   6
ENDBRANCH   3   5
ENDBRANCH   1   3
BRANCH   1  11
ATOM     11  C   UNL     1      -3.885 -13.473  31.737  1.00  0.00     0.087 C 
BRANCH  11  12
ATOM     12  C   UNL     1      -3.156 -12.242  31.141  1.00  0.00     0.066 C 
BRANCH  12  13
ATOM     13  C   UNL     1      -1.693 -12.554  30.872  1.00  0.00     0.140 C 
ATOM     14  O   UNL     1      -1.007 -13.059  31.750  1.00  0.00    -0.299 OA
BRANCH  13  15
ATOM     15  C   UNL     1      -1.046 -12.206  29.556  1.00  0.00     0.106 CG0
ATOM     16  G   UNL     1      -1.426 -13.208  28.483  1.00  0.00     0.000 G0
ENDBRANCH  13  15
ENDBRANCH  12  13
BRANCH  12  17
ATOM     17  C   UNL     1      -3.283 -10.957  32.019  1.00  0.00    -0.006 C 
ATOM     18  C   UNL     1      -2.139  -9.966  31.746  1.00  0.00     0.008 C 
ATOM     19  C   UNL     1      -4.640 -10.243  31.884  1.00  0.00     0.008 C 
ENDBRANCH  12  17
ENDBRANCH  11  12
ENDBRANCH   1  11
TORSDOF 1
ENDMDL
MODEL 9
REMARK VINA RESULT:    -4.487      1.897      3.970
REMARK INTER + INTRA:          -6.026
REMARK INTER:                  -6.222
REMARK INTRA:                   0.196
REMARK UNBOUND:                 0.822
REMARK SMILES CC1=CCC[C@H](C)C(=O)C[C@@H](C(C)C)C(=O)C1
REMARK SMILES IDX 8 1 9 2 6 3 7 4 5 5 4 6 3 7 2 8 1 9 10 11 11 12 15 13 16 14
REMARK SMILES IDX 17 15 12 17 13 18 14 19
REMARK H PARENT
REMARK Flexibility Score: 70.00
ROOT
ATOM      1  C   UNL     1      -0.773 -13.091  29.226  1.00  0.00     0.136 C 
ATOM      2  O   UNL     1       0.334 -13.239  28.729  1.00  0.00    -0.299 OA
ENDROOT
BRANCH   1   3
ATOM      3  C   UNL     1      -0.915 -12.367  30.550  1.00  0.00     0.053 C 
ATOM      4  C   UNL     1       0.381 -12.521  31.353  1.00  0.00     0.016 C 
BRANCH   3   5
ATOM      5  C   UNL     1      -1.249 -10.870  30.353  1.00  0.00     0.015 C 
BRANCH   5   6
ATOM      6  C   UNL     1      -2.357 -10.366  31.291  1.00  0.00     0.028 C 
BRANCH   6   7
ATOM      7  C   UNL     1      -3.006 -11.508  32.037  1.00  0.00    -0.028 C 
ATOM      8  C   UNL     1      -4.077 -12.218  31.615  1.00  0.00    -0.070 CG0
ATOM      9  C   UNL     1      -4.585 -13.326  32.503  1.00  0.00     0.039 C 
ATOM     10  G   UNL     1      -4.764 -11.977  30.285  1.00  0.00     0.000 G0
ENDBRANCH   6   7
ENDBRANCH   5   6
ENDBRANCH   3   5
ENDBRANCH   1   3
BRANCH   1  11
ATOM     11  C   UNL     1      -1.976 -13.652  28.513  1.00  0.00     0.087 C 
BRANCH  11  12
ATOM     12  C   UNL     1      -3.098 -12.594  28.351  1.00  0.00     0.066 C 
BRANCH  12  13
ATOM     13  C   UNL     1      -4.291 -12.929  29.230  1.00  0.00     0.140 C 
ATOM     14  O   UNL     1      -4.899 -13.977  29.057  1.00  0.00    -0.299 OA
BRANCH  13  15
ATOM     15  C   UNL     1      -4.783 -11.971  30.284  1.00  0.00     0.106 CG0
ATOM     16  G   UNL     1      -4.090 -12.221  31.610  1.00  0.00     0.000 G0
ENDBRANCH  13  15
ENDBRANCH  12  13
BRANCH  12  17
ATOM     17  C   UNL     1      -3.553 -12.389  26.872  1.00  0.00    -0.006 C 
ATOM     18  C   UNL     1      -2.766 -11.261  26.186  1.00  0.00     0.008 C 
ATOM     19  C   UNL     1      -3.492 -13.669  26.019  1.00  0.00     0.008 C 
ENDBRANCH  12  17
ENDBRANCH  11  12
ENDBRANCH   1  11
TORSDOF 1
ENDMDL
