MODEL 1
REMARK VINA RESULT:    -5.448      0.000      0.000
REMARK INTER + INTRA:          -9.574
REMARK INTER:                  -7.359
REMARK INTRA:                  -2.215
REMARK UNBOUND:                -2.215
REMARK SMILES CC[C@H](CC[C@H](C)[C@H]1CC[C@@H]2[C@H]3CC(=O)C4=CC(=O)CC[C@@]4(C)[C@H]3CC[C@@]21C)C(C)C
REMARK SMILES IDX 4 1 3 2 2 3 1 4 29 5 30 6 31 7 5 8 6 9 7 10 8 11 9 12 27 13
REMARK SMILES IDX 10 14 11 15 26 16 28 17 12 18 25 19 24 20 13 21 22 22 14 23
REMARK SMILES IDX 16 24 21 25 23 26 15 27 17 28 20 29 18 30 19 31
REMARK H PARENT
REMARK Flexibility Score: inf
ROOT
ATOM      1  C   UNL     1     153.636 160.504 200.130  1.00  0.00     0.004 C 
ENDROOT
BRANCH   1   2
ATOM      2  C   UNL     1     152.228 161.055 200.516  1.00  0.00    -0.009 C 
BRANCH   2   3
ATOM      3  C   UNL     1     151.086 160.379 199.699  1.00  0.00     0.000 C 
ATOM      4  C   UNL     1     151.568 159.335 198.683  1.00  0.00     0.004 C 
ENDBRANCH   2   3
BRANCH   2   5
ATOM      5  C   UNL     1     152.024 161.100 202.072  1.00  0.00    -0.014 C 
ATOM      6  C   UNL     1     152.058 162.523 202.644  1.00  0.00     0.007 C 
ATOM      7  C   UNL     1     150.777 160.358 202.579  1.00  0.00     0.007 C 
ENDBRANCH   2   5
ENDBRANCH   1   2
BRANCH   1   8
ATOM      8  C   UNL     1     154.680 160.484 201.276  1.00  0.00     0.004 C 
BRANCH   8   9
ATOM      9  C   UNL     1     155.052 159.048 201.743  1.00  0.00    -0.011 C 
ATOM     10  C   UNL     1     156.561 158.793 201.535  1.00  0.00     0.008 C 
BRANCH   9  11
ATOM     11  C   UNL     1     154.107 157.983 201.060  1.00  0.00    -0.002 C 
ATOM     12  C   UNL     1     154.858 157.062 200.084  1.00  0.00     0.005 C 
ATOM     13  C   UNL     1     153.290 157.008 201.979  1.00  0.00    -0.026 C 
ATOM     14  C   UNL     1     155.000 155.702 200.763  1.00  0.00     0.005 C 
ATOM     15  C   UNL     1     154.204 155.752 202.081  1.00  0.00    -0.001 C 
ATOM     16  C   UNL     1     151.949 156.661 201.258  1.00  0.00     0.007 C 
ATOM     17  C   UNL     1     152.954 157.637 203.357  1.00  0.00     0.012 C 
ATOM     18  C   UNL     1     153.512 154.387 202.402  1.00  0.00     0.004 C 
ATOM     19  C   UNL     1     151.270 155.386 201.772  1.00  0.00     0.005 C 
ATOM     20  C   UNL     1     152.195 154.166 201.592  1.00  0.00     0.003 C 
ATOM     21  C   UNL     1     153.341 154.186 203.931  1.00  0.00     0.085 C 
ATOM     22  C   UNL     1     151.504 152.789 201.928  1.00  0.00    -0.000 C 
ATOM     23  C   UNL     1     152.459 153.029 204.296  1.00  0.00     0.159 C 
ATOM     24  C   UNL     1     151.309 152.690 203.441  1.00  0.00     0.005 C 
ATOM     25  C   UNL     1     150.174 152.585 201.101  1.00  0.00     0.020 C 
ATOM     26  C   UNL     1     152.450 151.624 201.517  1.00  0.00     0.017 C 
ATOM     27  O   UNL     1     152.642 152.428 205.390  1.00  0.00    -0.295 OA
ATOM     28  C   UNL     1     150.153 152.307 204.002  1.00  0.00     0.055 C 
ATOM     29  C   UNL     1     148.881 152.870 201.873  1.00  0.00     0.081 C 
ATOM     30  C   UNL     1     148.933 152.202 203.203  1.00  0.00     0.156 C 
ATOM     31  O   UNL     1     147.911 151.630 203.671  1.00  0.00    -0.295 OA
ENDBRANCH   9  11
ENDBRANCH   8   9
ENDBRANCH   1   8
TORSDOF 6
ENDMDL
MODEL 2
REMARK VINA RESULT:    -5.117      3.219      7.620
REMARK INTER + INTRA:          -9.127
REMARK INTER:                  -6.897
REMARK INTRA:                  -2.230
REMARK UNBOUND:                -2.215
REMARK SMILES CC[C@H](CC[C@H](C)[C@H]1CC[C@@H]2[C@H]3CC(=O)C4=CC(=O)CC[C@@]4(C)[C@H]3CC[C@@]21C)C(C)C
REMARK SMILES IDX 4 1 3 2 2 3 1 4 29 5 30 6 31 7 5 8 6 9 7 10 8 11 9 12 27 13
REMARK SMILES IDX 10 14 11 15 26 16 28 17 12 18 25 19 24 20 13 21 22 22 14 23
REMARK SMILES IDX 16 24 21 25 23 26 15 27 17 28 20 29 18 30 19 31
REMARK H PARENT
REMARK Flexibility Score: inf
ROOT
ATOM      1  C   UNL     1     152.491 152.393 202.917  1.00  0.00     0.004 C 
ENDROOT
BRANCH   1   2
ATOM      2  C   UNL     1     152.066 152.002 201.467  1.00  0.00    -0.009 C 
BRANCH   2   3
ATOM      3  C   UNL     1     150.990 152.969 200.888  1.00  0.00     0.000 C 
ATOM      4  C   UNL     1     149.879 153.345 201.877  1.00  0.00     0.004 C 
ENDBRANCH   2   3
BRANCH   2   5
ATOM      5  C   UNL     1     153.307 151.727 200.548  1.00  0.00    -0.014 C 
ATOM      6  C   UNL     1     153.477 150.245 200.190  1.00  0.00     0.007 C 
ATOM      7  C   UNL     1     153.368 152.587 199.275  1.00  0.00     0.007 C 
ENDBRANCH   2   5
ENDBRANCH   1   2
BRANCH   1   8
ATOM      8  C   UNL     1     154.012 152.606 203.130  1.00  0.00     0.004 C 
BRANCH   8   9
ATOM      9  C   UNL     1     154.382 154.074 203.490  1.00  0.00    -0.011 C 
ATOM     10  C   UNL     1     154.880 154.155 204.950  1.00  0.00     0.008 C 
BRANCH   9  11
ATOM     11  C   UNL     1     153.183 155.044 203.151  1.00  0.00    -0.002 C 
ATOM     12  C   UNL     1     152.709 155.851 204.372  1.00  0.00     0.005 C 
ATOM     13  C   UNL     1     153.383 156.113 202.020  1.00  0.00    -0.026 C 
ATOM     14  C   UNL     1     153.210 157.281 204.190  1.00  0.00     0.005 C 
ATOM     15  C   UNL     1     153.852 157.380 202.794  1.00  0.00    -0.001 C 
ATOM     16  C   UNL     1     152.003 156.363 201.332  1.00  0.00     0.007 C 
ATOM     17  C   UNL     1     154.390 155.646 200.936  1.00  0.00     0.012 C 
ATOM     18  C   UNL     1     153.590 158.767 202.122  1.00  0.00     0.004 C 
ATOM     19  C   UNL     1     151.916 157.684 200.558  1.00  0.00     0.005 C 
ATOM     20  C   UNL     1     152.164 158.882 201.496  1.00  0.00     0.003 C 
ATOM     21  C   UNL     1     154.731 159.144 201.140  1.00  0.00     0.085 C 
ATOM     22  C   UNL     1     151.914 160.283 200.818  1.00  0.00    -0.000 C 
ATOM     23  C   UNL     1     154.420 160.328 200.274  1.00  0.00     0.159 C 
ATOM     24  C   UNL     1     153.038 160.557 199.819  1.00  0.00     0.005 C 
ATOM     25  C   UNL     1     150.469 160.380 200.189  1.00  0.00     0.020 C 
ATOM     26  C   UNL     1     151.989 161.399 201.899  1.00  0.00     0.017 C 
ATOM     27  O   UNL     1     155.361 161.053 199.851  1.00  0.00    -0.295 OA
ATOM     28  C   UNL     1     152.813 160.992 198.571  1.00  0.00     0.055 C 
ATOM     29  C   UNL     1     150.407 160.176 198.672  1.00  0.00     0.081 C 
ATOM     30  C   UNL     1     151.462 160.995 198.012  1.00  0.00     0.156 C 
ATOM     31  O   UNL     1     151.216 161.609 196.938  1.00  0.00    -0.295 OA
ENDBRANCH   9  11
ENDBRANCH   8   9
ENDBRANCH   1   8
TORSDOF 6
ENDMDL
MODEL 3
REMARK VINA RESULT:    -5.112      5.733     10.018
REMARK INTER + INTRA:          -9.120
REMARK INTER:                  -7.319
REMARK INTRA:                  -1.801
REMARK UNBOUND:                -2.215
REMARK SMILES CC[C@H](CC[C@H](C)[C@H]1CC[C@@H]2[C@H]3CC(=O)C4=CC(=O)CC[C@@]4(C)[C@H]3CC[C@@]21C)C(C)C
REMARK SMILES IDX 4 1 3 2 2 3 1 4 29 5 30 6 31 7 5 8 6 9 7 10 8 11 9 12 27 13
REMARK SMILES IDX 10 14 11 15 26 16 28 17 12 18 25 19 24 20 13 21 22 22 14 23
REMARK SMILES IDX 16 24 21 25 23 26 15 27 17 28 20 29 18 30 19 31
REMARK H PARENT
REMARK Flexibility Score: inf
ROOT
ATOM      1  C   UNL     1     151.897 158.003 199.983  1.00  0.00     0.004 C 
ENDROOT
BRANCH   1   2
ATOM      2  C   UNL     1     152.054 158.628 201.404  1.00  0.00    -0.009 C 
BRANCH   2   3
ATOM      3  C   UNL     1     153.449 158.326 202.030  1.00  0.00     0.000 C 
ATOM      4  C   UNL     1     153.406 157.402 203.254  1.00  0.00     0.004 C 
ENDBRANCH   2   3
BRANCH   2   5
ATOM      5  C   UNL     1     151.598 160.129 201.437  1.00  0.00    -0.014 C 
ATOM      6  C   UNL     1     150.418 160.381 202.382  1.00  0.00     0.007 C 
ATOM      7  C   UNL     1     152.724 161.137 201.720  1.00  0.00     0.007 C 
ENDBRANCH   2   5
ENDBRANCH   1   2
BRANCH   1   8
ATOM      8  C   UNL     1     153.055 157.076 199.532  1.00  0.00     0.004 C 
BRANCH   8   9
ATOM      9  C   UNL     1     153.901 157.671 198.370  1.00  0.00    -0.011 C 
ATOM     10  C   UNL     1     154.133 156.603 197.279  1.00  0.00     0.008 C 
BRANCH   9  11
ATOM     11  C   UNL     1     155.220 158.332 198.931  1.00  0.00    -0.002 C 
ATOM     12  C   UNL     1     156.495 157.623 198.442  1.00  0.00     0.005 C 
ATOM     13  C   UNL     1     155.476 159.853 198.642  1.00  0.00    -0.026 C 
ATOM     14  C   UNL     1     157.136 158.521 197.388  1.00  0.00     0.005 C 
ATOM     15  C   UNL     1     156.340 159.839 197.348  1.00  0.00    -0.001 C 
ATOM     16  C   UNL     1     156.281 160.452 199.839  1.00  0.00     0.007 C 
ATOM     17  C   UNL     1     154.157 160.656 198.492  1.00  0.00     0.012 C 
ATOM     18  C   UNL     1     157.262 161.075 197.087  1.00  0.00     0.004 C 
ATOM     19  C   UNL     1     157.013 161.760 199.514  1.00  0.00     0.005 C 
ATOM     20  C   UNL     1     158.021 161.549 198.367  1.00  0.00     0.003 C 
ATOM     21  C   UNL     1     156.491 162.211 196.364  1.00  0.00     0.085 C 
ATOM     22  C   UNL     1     158.942 162.799 198.093  1.00  0.00    -0.000 C 
ATOM     23  C   UNL     1     157.235 163.513 196.317  1.00  0.00     0.159 C 
ATOM     24  C   UNL     1     158.103 163.899 197.442  1.00  0.00     0.005 C 
ATOM     25  C   UNL     1     159.699 163.265 199.398  1.00  0.00     0.020 C 
ATOM     26  C   UNL     1     160.048 162.409 197.070  1.00  0.00     0.017 C 
ATOM     27  O   UNL     1     157.022 164.316 195.368  1.00  0.00    -0.295 OA
ATOM     28  C   UNL     1     158.135 165.176 197.850  1.00  0.00     0.055 C 
ATOM     29  C   UNL     1     159.086 164.480 200.103  1.00  0.00     0.081 C 
ATOM     30  C   UNL     1     158.790 165.544 199.105  1.00  0.00     0.156 C 
ATOM     31  O   UNL     1     159.020 166.755 199.374  1.00  0.00    -0.295 OA
ENDBRANCH   9  11
ENDBRANCH   8   9
ENDBRANCH   1   8
TORSDOF 6
ENDMDL
MODEL 4
REMARK VINA RESULT:    -5.075      3.913      7.389
REMARK INTER + INTRA:          -9.071
REMARK INTER:                  -7.062
REMARK INTRA:                  -2.009
REMARK UNBOUND:                -2.215
REMARK SMILES CC[C@H](CC[C@H](C)[C@H]1CC[C@@H]2[C@H]3CC(=O)C4=CC(=O)CC[C@@]4(C)[C@H]3CC[C@@]21C)C(C)C
REMARK SMILES IDX 4 1 3 2 2 3 1 4 29 5 30 6 31 7 5 8 6 9 7 10 8 11 9 12 27 13
REMARK SMILES IDX 10 14 11 15 26 16 28 17 12 18 25 19 24 20 13 21 22 22 14 23
REMARK SMILES IDX 16 24 21 25 23 26 15 27 17 28 20 29 18 30 19 31
REMARK H PARENT
REMARK Flexibility Score: inf
ROOT
ATOM      1  C   UNL     1     149.654 159.368 193.126  1.00  0.00     0.004 C 
ENDROOT
BRANCH   1   2
ATOM      2  C   UNL     1     149.837 157.830 192.940  1.00  0.00    -0.009 C 
BRANCH   2   3
ATOM      3  C   UNL     1     151.284 157.458 192.495  1.00  0.00     0.000 C 
ATOM      4  C   UNL     1     152.297 158.605 192.615  1.00  0.00     0.004 C 
ENDBRANCH   2   3
BRANCH   2   5
ATOM      5  C   UNL     1     149.265 157.021 194.157  1.00  0.00    -0.014 C 
ATOM      6  C   UNL     1     148.131 156.066 193.767  1.00  0.00     0.007 C 
ATOM      7  C   UNL     1     150.321 156.274 194.986  1.00  0.00     0.007 C 
ENDBRANCH   2   5
ENDBRANCH   1   2
BRANCH   1   8
ATOM      8  C   UNL     1     148.852 159.796 194.382  1.00  0.00     0.004 C 
BRANCH   8   9
ATOM      9  C   UNL     1     149.676 160.671 195.369  1.00  0.00    -0.011 C 
ATOM     10  C   UNL     1     150.210 161.928 194.649  1.00  0.00     0.008 C 
BRANCH   9  11
ATOM     11  C   UNL     1     150.786 159.802 196.081  1.00  0.00    -0.002 C 
ATOM     12  C   UNL     1     152.206 160.340 195.842  1.00  0.00     0.005 C 
ATOM     13  C   UNL     1     150.693 159.597 197.634  1.00  0.00    -0.026 C 
ATOM     14  C   UNL     1     152.661 161.006 197.138  1.00  0.00     0.005 C 
ATOM     15  C   UNL     1     151.585 160.737 198.206  1.00  0.00    -0.001 C 
ATOM     16  C   UNL     1     151.294 158.197 197.982  1.00  0.00     0.007 C 
ATOM     17  C   UNL     1     149.231 159.641 198.151  1.00  0.00     0.012 C 
ATOM     18  C   UNL     1     152.205 160.519 199.625  1.00  0.00     0.004 C 
ATOM     19  C   UNL     1     151.715 158.039 199.448  1.00  0.00     0.005 C 
ATOM     20  C   UNL     1     152.786 159.083 199.822  1.00  0.00     0.003 C 
ATOM     21  C   UNL     1     151.219 160.949 200.744  1.00  0.00     0.085 C 
ATOM     22  C   UNL     1     153.403 158.874 201.258  1.00  0.00    -0.000 C 
ATOM     23  C   UNL     1     151.643 160.528 202.120  1.00  0.00     0.159 C 
ATOM     24  C   UNL     1     152.357 159.253 202.306  1.00  0.00     0.005 C 
ATOM     25  C   UNL     1     153.984 157.416 201.438  1.00  0.00     0.020 C 
ATOM     26  C   UNL     1     154.605 159.843 201.448  1.00  0.00     0.017 C 
ATOM     27  O   UNL     1     151.285 161.212 203.117  1.00  0.00    -0.295 OA
ATOM     28  C   UNL     1     152.078 158.483 203.368  1.00  0.00     0.055 C 
ATOM     29  C   UNL     1     153.081 156.451 202.214  1.00  0.00     0.081 C 
ATOM     30  C   UNL     1     152.584 157.114 203.452  1.00  0.00     0.156 C 
ATOM     31  O   UNL     1     152.518 156.475 204.537  1.00  0.00    -0.295 OA
ENDBRANCH   9  11
ENDBRANCH   8   9
ENDBRANCH   1   8
TORSDOF 6
ENDMDL
MODEL 5
REMARK VINA RESULT:    -4.857      4.187      6.517
REMARK INTER + INTRA:          -8.776
REMARK INTER:                  -7.437
REMARK INTRA:                  -1.339
REMARK UNBOUND:                -2.215
REMARK SMILES CC[C@H](CC[C@H](C)[C@H]1CC[C@@H]2[C@H]3CC(=O)C4=CC(=O)CC[C@@]4(C)[C@H]3CC[C@@]21C)C(C)C
REMARK SMILES IDX 4 1 3 2 2 3 1 4 29 5 30 6 31 7 5 8 6 9 7 10 8 11 9 12 27 13
REMARK SMILES IDX 10 14 11 15 26 16 28 17 12 18 25 19 24 20 13 21 22 22 14 23
REMARK SMILES IDX 16 24 21 25 23 26 15 27 17 28 20 29 18 30 19 31
REMARK H PARENT
REMARK Flexibility Score: inf
ROOT
ATOM      1  C   UNL     1     159.150 162.533 199.124  1.00  0.00     0.004 C 
ENDROOT
BRANCH   1   2
ATOM      2  C   UNL     1     158.750 163.791 198.293  1.00  0.00    -0.009 C 
BRANCH   2   3
ATOM      3  C   UNL     1     157.561 163.506 197.326  1.00  0.00     0.000 C 
ATOM      4  C   UNL     1     157.954 163.436 195.845  1.00  0.00     0.004 C 
ENDBRANCH   2   3
BRANCH   2   5
ATOM      5  C   UNL     1     158.609 165.068 199.195  1.00  0.00    -0.014 C 
ATOM      6  C   UNL     1     159.814 165.292 200.117  1.00  0.00     0.007 C 
ATOM      7  C   UNL     1     158.283 166.361 198.432  1.00  0.00     0.007 C 
ENDBRANCH   2   5
ENDBRANCH   1   2
BRANCH   1   8
ATOM      8  C   UNL     1     159.805 161.382 198.317  1.00  0.00     0.004 C 
BRANCH   8   9
ATOM      9  C   UNL     1     159.128 160.002 198.555  1.00  0.00    -0.011 C 
ATOM     10  C   UNL     1     159.903 158.893 197.811  1.00  0.00     0.008 C 
BRANCH   9  11
ATOM     11  C   UNL     1     157.590 160.075 198.206  1.00  0.00    -0.002 C 
ATOM     12  C   UNL     1     157.151 158.972 197.228  1.00  0.00     0.005 C 
ATOM     13  C   UNL     1     156.552 160.001 199.381  1.00  0.00    -0.026 C 
ATOM     14  C   UNL     1     156.367 157.939 198.033  1.00  0.00     0.005 C 
ATOM     15  C   UNL     1     156.200 158.488 199.462  1.00  0.00    -0.001 C 
ATOM     16  C   UNL     1     155.298 160.842 198.981  1.00  0.00     0.007 C 
ATOM     17  C   UNL     1     157.119 160.573 200.707  1.00  0.00     0.012 C 
ATOM     18  C   UNL     1     154.814 158.107 200.080  1.00  0.00     0.004 C 
ATOM     19  C   UNL     1     154.030 160.497 199.773  1.00  0.00     0.005 C 
ATOM     20  C   UNL     1     153.651 159.016 199.573  1.00  0.00     0.003 C 
ATOM     21  C   UNL     1     154.895 158.004 201.627  1.00  0.00     0.085 C 
ATOM     22  C   UNL     1     152.261 158.626 200.208  1.00  0.00    -0.000 C 
ATOM     23  C   UNL     1     153.557 157.900 202.298  1.00  0.00     0.159 C 
ATOM     24  C   UNL     1     152.398 158.609 201.730  1.00  0.00     0.005 C 
ATOM     25  C   UNL     1     151.097 159.557 199.685  1.00  0.00     0.020 C 
ATOM     26  C   UNL     1     151.884 157.180 199.772  1.00  0.00     0.017 C 
ATOM     27  O   UNL     1     153.462 157.300 203.402  1.00  0.00    -0.295 OA
ATOM     28  C   UNL     1     151.516 159.201 202.547  1.00  0.00     0.055 C 
ATOM     29  C   UNL     1     150.677 160.672 200.649  1.00  0.00     0.081 C 
ATOM     30  C   UNL     1     150.501 160.112 202.017  1.00  0.00     0.156 C 
ATOM     31  O   UNL     1     149.538 160.485 202.742  1.00  0.00    -0.295 OA
ENDBRANCH   9  11
ENDBRANCH   8   9
ENDBRANCH   1   8
TORSDOF 6
ENDMDL
MODEL 6
REMARK VINA RESULT:    -4.724      5.630      9.564
REMARK INTER + INTRA:          -8.597
REMARK INTER:                  -6.893
REMARK INTRA:                  -1.704
REMARK UNBOUND:                -2.215
REMARK SMILES CC[C@H](CC[C@H](C)[C@H]1CC[C@@H]2[C@H]3CC(=O)C4=CC(=O)CC[C@@]4(C)[C@H]3CC[C@@]21C)C(C)C
REMARK SMILES IDX 4 1 3 2 2 3 1 4 29 5 30 6 31 7 5 8 6 9 7 10 8 11 9 12 27 13
REMARK SMILES IDX 10 14 11 15 26 16 28 17 12 18 25 19 24 20 13 21 22 22 14 23
REMARK SMILES IDX 16 24 21 25 23 26 15 27 17 28 20 29 18 30 19 31
REMARK H PARENT
REMARK Flexibility Score: inf
ROOT
ATOM      1  C   UNL     1     152.572 158.627 201.183  1.00  0.00     0.004 C 
ENDROOT
BRANCH   1   2
ATOM      2  C   UNL     1     153.181 160.046 201.408  1.00  0.00    -0.009 C 
BRANCH   2   3
ATOM      3  C   UNL     1     154.465 160.278 200.556  1.00  0.00     0.000 C 
ATOM      4  C   UNL     1     155.778 160.056 201.319  1.00  0.00     0.004 C 
ENDBRANCH   2   3
BRANCH   2   5
ATOM      5  C   UNL     1     152.089 161.171 201.324  1.00  0.00    -0.014 C 
ATOM      6  C   UNL     1     150.661 160.620 201.239  1.00  0.00     0.007 C 
ATOM      7  C   UNL     1     152.179 162.236 202.428  1.00  0.00     0.007 C 
ENDBRANCH   2   5
ENDBRANCH   1   2
BRANCH   1   8
ATOM      8  C   UNL     1     153.158 157.834 199.986  1.00  0.00     0.004 C 
BRANCH   8   9
ATOM      9  C   UNL     1     152.186 157.744 198.774  1.00  0.00    -0.011 C 
ATOM     10  C   UNL     1     152.399 156.414 198.019  1.00  0.00     0.008 C 
BRANCH   9  11
ATOM     11  C   UNL     1     152.305 159.036 197.875  1.00  0.00    -0.002 C 
ATOM     12  C   UNL     1     153.298 158.861 196.713  1.00  0.00     0.005 C 
ATOM     13  C   UNL     1     151.005 159.604 197.205  1.00  0.00    -0.026 C 
ATOM     14  C   UNL     1     152.477 158.705 195.436  1.00  0.00     0.005 C 
ATOM     15  C   UNL     1     150.998 158.938 195.798  1.00  0.00    -0.001 C 
ATOM     16  C   UNL     1     151.152 161.155 197.084  1.00  0.00     0.007 C 
ATOM     17  C   UNL     1     149.731 159.300 198.036  1.00  0.00     0.012 C 
ATOM     18  C   UNL     1     150.223 159.678 194.659  1.00  0.00     0.004 C 
ATOM     19  C   UNL     1     150.219 161.796 196.050  1.00  0.00     0.005 C 
ATOM     20  C   UNL     1     150.483 161.218 194.646  1.00  0.00     0.003 C 
ATOM     21  C   UNL     1     148.717 159.302 194.665  1.00  0.00     0.085 C 
ATOM     22  C   UNL     1     149.692 161.953 193.497  1.00  0.00    -0.000 C 
ATOM     23  C   UNL     1     147.874 160.165 193.774  1.00  0.00     0.159 C 
ATOM     24  C   UNL     1     148.211 161.589 193.605  1.00  0.00     0.005 C 
ATOM     25  C   UNL     1     149.966 163.508 193.500  1.00  0.00     0.020 C 
ATOM     26  C   UNL     1     150.186 161.432 192.117  1.00  0.00     0.017 C 
ATOM     27  O   UNL     1     146.819 159.693 193.269  1.00  0.00    -0.295 OA
ATOM     28  C   UNL     1     147.231 162.502 193.546  1.00  0.00     0.055 C 
ATOM     29  C   UNL     1     148.864 164.358 194.142  1.00  0.00     0.081 C 
ATOM     30  C   UNL     1     147.534 163.930 193.624  1.00  0.00     0.156 C 
ATOM     31  O   UNL     1     146.652 164.787 193.342  1.00  0.00    -0.295 OA
ENDBRANCH   9  11
ENDBRANCH   8   9
ENDBRANCH   1   8
TORSDOF 6
ENDMDL
MODEL 7
REMARK VINA RESULT:    -4.707      4.900      8.636
REMARK INTER + INTRA:          -8.573
REMARK INTER:                  -6.437
REMARK INTRA:                  -2.136
REMARK UNBOUND:                -2.215
REMARK SMILES CC[C@H](CC[C@H](C)[C@H]1CC[C@@H]2[C@H]3CC(=O)C4=CC(=O)CC[C@@]4(C)[C@H]3CC[C@@]21C)C(C)C
REMARK SMILES IDX 4 1 3 2 2 3 1 4 29 5 30 6 31 7 5 8 6 9 7 10 8 11 9 12 27 13
REMARK SMILES IDX 10 14 11 15 26 16 28 17 12 18 25 19 24 20 13 21 22 22 14 23
REMARK SMILES IDX 16 24 21 25 23 26 15 27 17 28 20 29 18 30 19 31
REMARK H PARENT
REMARK Flexibility Score: inf
ROOT
ATOM      1  C   UNL     1     154.411 158.580 201.031  1.00  0.00     0.004 C 
ENDROOT
BRANCH   1   2
ATOM      2  C   UNL     1     153.832 157.417 201.895  1.00  0.00    -0.009 C 
BRANCH   2   3
ATOM      3  C   UNL     1     152.867 157.932 203.006  1.00  0.00     0.000 C 
ATOM      4  C   UNL     1     153.000 157.199 204.348  1.00  0.00     0.004 C 
ENDBRANCH   2   3
BRANCH   2   5
ATOM      5  C   UNL     1     153.290 156.242 201.007  1.00  0.00    -0.014 C 
ATOM      6  C   UNL     1     151.760 156.224 200.898  1.00  0.00     0.007 C 
ATOM      7  C   UNL     1     153.919 156.152 199.608  1.00  0.00     0.007 C 
ENDBRANCH   2   5
ENDBRANCH   1   2
BRANCH   1   8
ATOM      8  C   UNL     1     154.191 160.006 201.600  1.00  0.00     0.004 C 
BRANCH   8   9
ATOM      9  C   UNL     1     153.088 160.803 200.847  1.00  0.00    -0.011 C 
ATOM     10  C   UNL     1     152.286 161.672 201.841  1.00  0.00     0.008 C 
BRANCH   9  11
ATOM     11  C   UNL     1     152.208 159.832 199.967  1.00  0.00    -0.002 C 
ATOM     12  C   UNL     1     150.737 159.793 200.415  1.00  0.00     0.005 C 
ATOM     13  C   UNL     1     152.146 160.075 198.418  1.00  0.00    -0.026 C 
ATOM     14  C   UNL     1     149.930 160.581 199.387  1.00  0.00     0.005 C 
ATOM     15  C   UNL     1     150.882 160.965 198.239  1.00  0.00    -0.001 C 
ATOM     16  C   UNL     1     151.956 158.695 197.711  1.00  0.00     0.007 C 
ATOM     17  C   UNL     1     153.441 160.729 197.870  1.00  0.00     0.012 C 
ATOM     18  C   UNL     1     150.170 160.928 196.847  1.00  0.00     0.004 C 
ATOM     19  C   UNL     1     151.408 158.790 196.282  1.00  0.00     0.005 C 
ATOM     20  C   UNL     1     150.030 159.482 196.273  1.00  0.00     0.003 C 
ATOM     21  C   UNL     1     150.818 161.930 195.855  1.00  0.00     0.085 C 
ATOM     22  C   UNL     1     149.317 159.458 194.867  1.00  0.00    -0.000 C 
ATOM     23  C   UNL     1     150.359 161.762 194.437  1.00  0.00     0.159 C 
ATOM     24  C   UNL     1     150.046 160.417 193.925  1.00  0.00     0.005 C 
ATOM     25  C   UNL     1     149.186 157.989 194.303  1.00  0.00     0.020 C 
ATOM     26  C   UNL     1     147.863 159.992 195.019  1.00  0.00     0.017 C 
ATOM     27  O   UNL     1     150.353 162.758 193.663  1.00  0.00    -0.295 OA
ATOM     28  C   UNL     1     150.398 160.082 192.675  1.00  0.00     0.055 C 
ATOM     29  C   UNL     1     150.224 157.609 193.241  1.00  0.00     0.081 C 
ATOM     30  C   UNL     1     150.324 158.692 192.225  1.00  0.00     0.156 C 
ATOM     31  O   UNL     1     150.432 158.412 191.000  1.00  0.00    -0.295 OA
ENDBRANCH   9  11
ENDBRANCH   8   9
ENDBRANCH   1   8
TORSDOF 6
ENDMDL
MODEL 8
REMARK VINA RESULT:    -4.630      5.104      8.650
REMARK INTER + INTRA:          -8.470
REMARK INTER:                  -6.801
REMARK INTRA:                  -1.669
REMARK UNBOUND:                -2.215
REMARK SMILES CC[C@H](CC[C@H](C)[C@H]1CC[C@@H]2[C@H]3CC(=O)C4=CC(=O)CC[C@@]4(C)[C@H]3CC[C@@]21C)C(C)C
REMARK SMILES IDX 4 1 3 2 2 3 1 4 29 5 30 6 31 7 5 8 6 9 7 10 8 11 9 12 27 13
REMARK SMILES IDX 10 14 11 15 26 16 28 17 12 18 25 19 24 20 13 21 22 22 14 23
REMARK SMILES IDX 16 24 21 25 23 26 15 27 17 28 20 29 18 30 19 31
REMARK H PARENT
REMARK Flexibility Score: inf
ROOT
ATOM      1  C   UNL     1     154.178 160.421 201.275  1.00  0.00     0.004 C 
ENDROOT
BRANCH   1   2
ATOM      2  C   UNL     1     152.743 159.822 201.406  1.00  0.00    -0.009 C 
BRANCH   2   3
ATOM      3  C   UNL     1     152.706 158.580 202.347  1.00  0.00     0.000 C 
ATOM      4  C   UNL     1     152.645 157.234 201.613  1.00  0.00     0.004 C 
ENDBRANCH   2   3
BRANCH   2   5
ATOM      5  C   UNL     1     151.670 160.931 201.692  1.00  0.00    -0.014 C 
ATOM      6  C   UNL     1     150.426 160.397 202.412  1.00  0.00     0.007 C 
ATOM      7  C   UNL     1     152.208 162.173 202.422  1.00  0.00     0.007 C 
ENDBRANCH   2   5
ENDBRANCH   1   2
BRANCH   1   8
ATOM      8  C   UNL     1     154.687 160.618 199.824  1.00  0.00     0.004 C 
BRANCH   8   9
ATOM      9  C   UNL     1     153.909 159.768 198.779  1.00  0.00    -0.011 C 
ATOM     10  C   UNL     1     154.857 158.751 198.107  1.00  0.00     0.008 C 
BRANCH   9  11
ATOM     11  C   UNL     1     153.133 160.706 197.774  1.00  0.00    -0.002 C 
ATOM     12  C   UNL     1     153.958 161.044 196.520  1.00  0.00     0.005 C 
ATOM     13  C   UNL     1     151.746 160.224 197.219  1.00  0.00    -0.026 C 
ATOM     14  C   UNL     1     153.379 160.232 195.365  1.00  0.00     0.005 C 
ATOM     15  C   UNL     1     152.113 159.522 195.879  1.00  0.00    -0.001 C 
ATOM     16  C   UNL     1     150.857 161.482 196.960  1.00  0.00     0.007 C 
ATOM     17  C   UNL     1     151.001 159.298 198.215  1.00  0.00     0.012 C 
ATOM     18  C   UNL     1     150.999 159.440 194.785  1.00  0.00     0.004 C 
ATOM     19  C   UNL     1     149.689 161.240 195.997  1.00  0.00     0.005 C 
ATOM     20  C   UNL     1     150.207 160.776 194.620  1.00  0.00     0.003 C 
ATOM     21  C   UNL     1     150.089 158.201 194.998  1.00  0.00     0.085 C 
ATOM     22  C   UNL     1     149.083 160.678 193.519  1.00  0.00    -0.000 C 
ATOM     23  C   UNL     1     148.853 158.203 194.148  1.00  0.00     0.159 C 
ATOM     24  C   UNL     1     148.189 159.478 193.828  1.00  0.00     0.005 C 
ATOM     25  C   UNL     1     148.292 162.037 193.368  1.00  0.00     0.020 C 
ATOM     26  C   UNL     1     149.740 160.408 192.135  1.00  0.00     0.017 C 
ATOM     27  O   UNL     1     148.330 157.107 193.808  1.00  0.00    -0.295 OA
ATOM     28  C   UNL     1     146.849 159.545 193.814  1.00  0.00     0.055 C 
ATOM     29  C   UNL     1     146.929 162.074 194.066  1.00  0.00     0.081 C 
ATOM     30  C   UNL     1     146.166 160.836 193.744  1.00  0.00     0.156 C 
ATOM     31  O   UNL     1     144.929 160.891 193.502  1.00  0.00    -0.295 OA
ENDBRANCH   9  11
ENDBRANCH   8   9
ENDBRANCH   1   8
TORSDOF 6
ENDMDL
MODEL 9
REMARK VINA RESULT:    -4.627      4.454      7.583
REMARK INTER + INTRA:          -8.465
REMARK INTER:                  -7.479
REMARK INTRA:                  -0.986
REMARK UNBOUND:                -2.215
REMARK SMILES CC[C@H](CC[C@H](C)[C@H]1CC[C@@H]2[C@H]3CC(=O)C4=CC(=O)CC[C@@]4(C)[C@H]3CC[C@@]21C)C(C)C
REMARK SMILES IDX 4 1 3 2 2 3 1 4 29 5 30 6 31 7 5 8 6 9 7 10 8 11 9 12 27 13
REMARK SMILES IDX 10 14 11 15 26 16 28 17 12 18 25 19 24 20 13 21 22 22 14 23
REMARK SMILES IDX 16 24 21 25 23 26 15 27 17 28 20 29 18 30 19 31
REMARK H PARENT
REMARK Flexibility Score: inf
ROOT
ATOM      1  C   UNL     1     147.939 159.170 194.550  1.00  0.00     0.004 C 
ENDROOT
BRANCH   1   2
ATOM      2  C   UNL     1     146.662 159.197 193.653  1.00  0.00    -0.009 C 
BRANCH   2   3
ATOM      3  C   UNL     1     146.673 158.067 192.579  1.00  0.00     0.000 C 
ATOM      4  C   UNL     1     147.729 156.980 192.816  1.00  0.00     0.004 C 
ENDBRANCH   2   3
BRANCH   2   5
ATOM      5  C   UNL     1     145.351 159.321 194.506  1.00  0.00    -0.014 C 
ATOM      6  C   UNL     1     144.649 160.674 194.340  1.00  0.00     0.007 C 
ATOM      7  C   UNL     1     144.343 158.177 194.306  1.00  0.00     0.007 C 
ENDBRANCH   2   5
ENDBRANCH   1   2
BRANCH   1   8
ATOM      8  C   UNL     1     149.025 160.217 194.193  1.00  0.00     0.004 C 
BRANCH   8   9
ATOM      9  C   UNL     1     149.636 160.919 195.440  1.00  0.00    -0.011 C 
ATOM     10  C   UNL     1     150.130 162.333 195.067  1.00  0.00     0.008 C 
BRANCH   9  11
ATOM     11  C   UNL     1     150.728 159.998 196.111  1.00  0.00    -0.002 C 
ATOM     12  C   UNL     1     152.161 160.498 195.861  1.00  0.00     0.005 C 
ATOM     13  C   UNL     1     150.655 159.757 197.660  1.00  0.00    -0.026 C 
ATOM     14  C   UNL     1     152.658 161.116 197.165  1.00  0.00     0.005 C 
ATOM     15  C   UNL     1     151.591 160.854 198.244  1.00  0.00    -0.001 C 
ATOM     16  C   UNL     1     151.217 158.331 197.962  1.00  0.00     0.007 C 
ATOM     17  C   UNL     1     149.204 159.833 198.202  1.00  0.00     0.012 C 
ATOM     18  C   UNL     1     152.228 160.581 199.646  1.00  0.00     0.004 C 
ATOM     19  C   UNL     1     151.657 158.122 199.416  1.00  0.00     0.005 C 
ATOM     20  C   UNL     1     152.766 159.123 199.798  1.00  0.00     0.003 C 
ATOM     21  C   UNL     1     151.274 161.013 200.793  1.00  0.00     0.085 C 
ATOM     22  C   UNL     1     153.400 158.858 201.217  1.00  0.00    -0.000 C 
ATOM     23  C   UNL     1     151.707 160.544 202.150  1.00  0.00     0.159 C 
ATOM     24  C   UNL     1     152.384 159.243 202.292  1.00  0.00     0.005 C 
ATOM     25  C   UNL     1     153.937 157.379 201.351  1.00  0.00     0.020 C 
ATOM     26  C   UNL     1     154.635 159.784 201.410  1.00  0.00     0.017 C 
ATOM     27  O   UNL     1     151.388 161.213 203.170  1.00  0.00    -0.295 OA
ATOM     28  C   UNL     1     152.098 158.456 203.339  1.00  0.00     0.055 C 
ATOM     29  C   UNL     1     153.018 156.423 202.119  1.00  0.00     0.081 C 
ATOM     30  C   UNL     1     152.562 157.070 203.381  1.00  0.00     0.156 C 
ATOM     31  O   UNL     1     152.494 156.405 204.451  1.00  0.00    -0.295 OA
ENDBRANCH   9  11
ENDBRANCH   8   9
ENDBRANCH   1   8
TORSDOF 6
ENDMDL
