MODEL 1
REMARK VINA RESULT:    -3.389      0.000      0.000
REMARK INTER + INTRA:          -7.407
REMARK INTER:                  -5.272
REMARK INTRA:                  -2.136
REMARK UNBOUND:                -2.136
REMARK SMILES COc1cc(CNC(=O)CCCCC=CC(C)C)ccc1O
REMARK SMILES IDX 11 1 12 2 13 3 14 4 15 5 16 6 17 7 18 8 10 9 8 10 9 11 7 12
REMARK SMILES IDX 6 14 5 15 4 16 19 17 3 18 20 19 21 20 2 21 1 22 22 23
REMARK H PARENT 7 13 22 24
REMARK Flexibility Score: inf
ROOT
ATOM      1  C   UNL     1     126.082 121.939 119.655  1.00  0.00     0.010 C 
ENDROOT
BRANCH   1   2
ATOM      2  C   UNL     1     125.540 122.874 120.756  1.00  0.00     0.005 C 
BRANCH   2   3
ATOM      3  C   UNL     1     125.274 122.152 122.089  1.00  0.00     0.027 C 
BRANCH   3   4
ATOM      4  C   UNL     1     123.818 122.159 122.478  1.00  0.00    -0.031 C 
ATOM      5  C   UNL     1     122.935 121.186 122.182  1.00  0.00    -0.028 C 
BRANCH   5   6
ATOM      6  C   UNL     1     123.271 119.892 121.474  1.00  0.00     0.005 C 
ATOM      7  C   UNL     1     123.013 120.042 119.972  1.00  0.00     0.012 C 
ATOM      8  C   UNL     1     122.432 118.752 122.057  1.00  0.00     0.012 C 
ENDBRANCH   5   6
ENDBRANCH   3   4
ENDBRANCH   2   3
ENDBRANCH   1   2
BRANCH   1   9
ATOM      9  C   UNL     1     126.933 120.798 120.229  1.00  0.00     0.100 C 
BRANCH   9  10
ATOM     10  C   UNL     1     126.678 119.526 119.479  1.00  0.00     0.220 C 
ATOM     11  O   UNL     1     126.541 119.560 118.226  1.00  0.00    -0.275 OA
ATOM     12  N   UNL     1     126.548 118.288 120.190  1.00  0.00    -0.352 N 
ATOM     13  H   UNL     1     126.610 118.293 121.234  1.00  0.00     0.163 HD
BRANCH  12  14
ATOM     14  C   UNL     1     126.330 117.012 119.513  1.00  0.00     0.151 C 
BRANCH  14  15
ATOM     15  C   UNL     1     125.015 116.413 119.936  1.00  0.00    -0.025 A 
ATOM     16  C   UNL     1     123.882 116.563 119.121  1.00  0.00     0.056 A 
ATOM     17  C   UNL     1     124.904 115.717 121.148  1.00  0.00     0.009 A 
ATOM     18  C   UNL     1     122.642 116.018 119.510  1.00  0.00     0.160 A 
ATOM     19  C   UNL     1     123.679 115.172 121.537  1.00  0.00     0.050 A 
ATOM     20  C   UNL     1     122.548 115.320 120.722  1.00  0.00     0.157 A 
BRANCH  18  21
ATOM     21  O   UNL     1     121.487 116.151 118.723  1.00  0.00    -0.493 OA
ATOM     22  C   UNL     1     120.664 117.312 118.692  1.00  0.00     0.278 C 
ENDBRANCH  18  21
BRANCH  20  23
ATOM     23  O   UNL     1     121.326 114.776 121.113  1.00  0.00    -0.504 OA
ATOM     24  H   UNL     1     120.873 115.053 121.975  1.00  0.00     0.293 HD
ENDBRANCH  20  23
ENDBRANCH  14  15
ENDBRANCH  12  14
ENDBRANCH   9  10
ENDBRANCH   1   9
TORSDOF 10
ENDMDL
MODEL 2
REMARK VINA RESULT:    -3.329      6.726     10.014
REMARK INTER + INTRA:          -7.313
REMARK INTER:                  -5.180
REMARK INTRA:                  -2.133
REMARK UNBOUND:                -2.136
REMARK SMILES COc1cc(CNC(=O)CCCCC=CC(C)C)ccc1O
REMARK SMILES IDX 11 1 12 2 13 3 14 4 15 5 16 6 17 7 18 8 10 9 8 10 9 11 7 12
REMARK SMILES IDX 6 14 5 15 4 16 19 17 3 18 20 19 21 20 2 21 1 22 22 23
REMARK H PARENT 7 13 22 24
REMARK Flexibility Score: inf
ROOT
ATOM      1  C   UNL     1     117.351 120.997 120.030  1.00  0.00     0.010 C 
ENDROOT
BRANCH   1   2
ATOM      2  C   UNL     1     118.346 120.337 121.006  1.00  0.00     0.005 C 
BRANCH   2   3
ATOM      3  C   UNL     1     118.557 121.147 122.298  1.00  0.00     0.027 C 
BRANCH   3   4
ATOM      4  C   UNL     1     120.004 121.223 122.710  1.00  0.00    -0.031 C 
ATOM      5  C   UNL     1     120.833 122.247 122.435  1.00  0.00    -0.028 C 
BRANCH   5   6
ATOM      6  C   UNL     1     120.433 123.524 121.727  1.00  0.00     0.005 C 
ATOM      7  C   UNL     1     120.755 123.411 120.235  1.00  0.00     0.012 C 
ATOM      8  C   UNL     1     121.170 124.712 122.351  1.00  0.00     0.012 C 
ENDBRANCH   5   6
ENDBRANCH   3   4
ENDBRANCH   2   3
ENDBRANCH   1   2
BRANCH   1   9
ATOM      9  C   UNL     1     116.754 122.293 120.596  1.00  0.00     0.100 C 
BRANCH   9  10
ATOM     10  C   UNL     1     117.093 123.455 119.712  1.00  0.00     0.220 C 
ATOM     11  O   UNL     1     117.600 123.247 118.577  1.00  0.00    -0.275 OA
ATOM     12  N   UNL     1     116.879 124.795 120.178  1.00  0.00    -0.352 N 
ATOM     13  H   UNL     1     116.509 124.944 121.144  1.00  0.00     0.163 HD
BRANCH  12  14
ATOM     14  C   UNL     1     117.161 125.967 119.352  1.00  0.00     0.151 C 
BRANCH  14  15
ATOM     15  C   UNL     1     118.394 126.672 119.849  1.00  0.00    -0.025 A 
ATOM     16  C   UNL     1     119.574 126.638 119.090  1.00  0.00     0.056 A 
ATOM     17  C   UNL     1     118.383 127.354 121.074  1.00  0.00     0.009 A 
ATOM     18  C   UNL     1     120.740 127.284 119.548  1.00  0.00     0.160 A 
ATOM     19  C   UNL     1     119.533 127.999 121.531  1.00  0.00     0.050 A 
ATOM     20  C   UNL     1     120.711 127.966 120.772  1.00  0.00     0.157 A 
BRANCH  18  21
ATOM     21  O   UNL     1     121.940 127.268 118.819  1.00  0.00    -0.493 OA
ATOM     22  C   UNL     1     122.845 126.170 118.784  1.00  0.00     0.278 C 
ENDBRANCH  18  21
BRANCH  20  23
ATOM     23  O   UNL     1     121.859 128.610 121.231  1.00  0.00    -0.504 OA
ATOM     24  H   UNL     1     122.216 128.457 122.167  1.00  0.00     0.293 HD
ENDBRANCH  20  23
ENDBRANCH  14  15
ENDBRANCH  12  14
ENDBRANCH   9  10
ENDBRANCH   1   9
TORSDOF 10
ENDMDL
MODEL 3
REMARK VINA RESULT:    -3.312      5.737      8.676
REMARK INTER + INTRA:          -7.287
REMARK INTER:                  -6.190
REMARK INTRA:                  -1.096
REMARK UNBOUND:                -2.136
REMARK SMILES COc1cc(CNC(=O)CCCCC=CC(C)C)ccc1O
REMARK SMILES IDX 11 1 12 2 13 3 14 4 15 5 16 6 17 7 18 8 10 9 8 10 9 11 7 12
REMARK SMILES IDX 6 14 5 15 4 16 19 17 3 18 20 19 21 20 2 21 1 22 22 23
REMARK H PARENT 7 13 22 24
REMARK Flexibility Score: inf
ROOT
ATOM      1  C   UNL     1     121.465 126.072 120.658  1.00  0.00     0.010 C 
ENDROOT
BRANCH   1   2
ATOM      2  C   UNL     1     121.638 127.573 120.965  1.00  0.00     0.005 C 
BRANCH   2   3
ATOM      3  C   UNL     1     120.438 128.426 120.517  1.00  0.00     0.027 C 
BRANCH   3   4
ATOM      4  C   UNL     1     119.393 128.575 121.593  1.00  0.00    -0.031 C 
ATOM      5  C   UNL     1     118.104 128.205 121.473  1.00  0.00    -0.028 C 
BRANCH   5   6
ATOM      6  C   UNL     1     117.505 127.513 120.267  1.00  0.00     0.005 C 
ATOM      7  C   UNL     1     116.078 128.017 120.039  1.00  0.00     0.012 C 
ATOM      8  C   UNL     1     117.517 125.999 120.483  1.00  0.00     0.012 C 
ENDBRANCH   5   6
ENDBRANCH   3   4
ENDBRANCH   2   3
ENDBRANCH   1   2
BRANCH   1   9
ATOM      9  C   UNL     1     121.124 125.257 121.913  1.00  0.00     0.100 C 
BRANCH   9  10
ATOM     10  C   UNL     1     121.949 124.007 121.967  1.00  0.00     0.220 C 
ATOM     11  O   UNL     1     121.622 123.079 122.754  1.00  0.00    -0.275 OA
ATOM     12  N   UNL     1     123.127 123.891 121.156  1.00  0.00    -0.352 N 
ATOM     13  H   UNL     1     123.409 124.696 120.552  1.00  0.00     0.163 HD
BRANCH  12  14
ATOM     14  C   UNL     1     123.954 122.687 121.142  1.00  0.00     0.151 C 
BRANCH  14  15
ATOM     15  C   UNL     1     125.409 123.051 121.275  1.00  0.00    -0.025 A 
ATOM     16  C   UNL     1     125.948 124.085 120.494  1.00  0.00     0.056 A 
ATOM     17  C   UNL     1     126.240 122.356 122.165  1.00  0.00     0.009 A 
ATOM     18  C   UNL     1     127.310 124.428 120.600  1.00  0.00     0.160 A 
ATOM     19  C   UNL     1     127.590 122.694 122.278  1.00  0.00     0.050 A 
ATOM     20  C   UNL     1     128.127 123.727 121.498  1.00  0.00     0.157 A 
BRANCH  18  21
ATOM     21  O   UNL     1     127.886 125.452 119.831  1.00  0.00    -0.493 OA
ATOM     22  C   UNL     1     127.762 126.841 120.120  1.00  0.00     0.278 C 
ENDBRANCH  18  21
BRANCH  20  23
ATOM     23  O   UNL     1     129.475 124.062 121.611  1.00  0.00    -0.504 OA
ATOM     24  H   UNL     1     129.820 124.627 122.377  1.00  0.00     0.293 HD
ENDBRANCH  20  23
ENDBRANCH  14  15
ENDBRANCH  12  14
ENDBRANCH   9  10
ENDBRANCH   1   9
TORSDOF 10
ENDMDL
MODEL 4
REMARK VINA RESULT:    -3.282      7.331      8.913
REMARK INTER + INTRA:          -7.240
REMARK INTER:                  -6.089
REMARK INTRA:                  -1.152
REMARK UNBOUND:                -2.136
REMARK SMILES COc1cc(CNC(=O)CCCCC=CC(C)C)ccc1O
REMARK SMILES IDX 11 1 12 2 13 3 14 4 15 5 16 6 17 7 18 8 10 9 8 10 9 11 7 12
REMARK SMILES IDX 6 14 5 15 4 16 19 17 3 18 20 19 21 20 2 21 1 22 22 23
REMARK H PARENT 7 13 22 24
REMARK Flexibility Score: inf
ROOT
ATOM      1  C   UNL     1     120.386 126.361 121.098  1.00  0.00     0.010 C 
ENDROOT
BRANCH   1   2
ATOM      2  C   UNL     1     120.224 127.708 121.833  1.00  0.00     0.005 C 
BRANCH   2   3
ATOM      3  C   UNL     1     119.121 128.598 121.232  1.00  0.00     0.027 C 
BRANCH   3   4
ATOM      4  C   UNL     1     117.762 128.321 121.821  1.00  0.00    -0.031 C 
ATOM      5  C   UNL     1     116.659 128.022 121.109  1.00  0.00    -0.028 C 
BRANCH   5   6
ATOM      6  C   UNL     1     116.614 127.844 119.606  1.00  0.00     0.005 C 
ATOM      7  C   UNL     1     115.236 128.251 119.079  1.00  0.00     0.012 C 
ATOM      8  C   UNL     1     116.922 126.388 119.250  1.00  0.00     0.012 C 
ENDBRANCH   5   6
ENDBRANCH   3   4
ENDBRANCH   2   3
ENDBRANCH   1   2
BRANCH   1   9
ATOM      9  C   UNL     1     121.601 125.569 121.599  1.00  0.00     0.100 C 
BRANCH   9  10
ATOM     10  C   UNL     1     121.257 124.117 121.743  1.00  0.00     0.220 C 
ATOM     11  O   UNL     1     122.160 123.291 122.042  1.00  0.00    -0.275 OA
ATOM     12  N   UNL     1     119.916 123.671 121.498  1.00  0.00    -0.352 N 
ATOM     13  H   UNL     1     119.197 124.367 121.197  1.00  0.00     0.163 HD
BRANCH  12  14
ATOM     14  C   UNL     1     119.512 122.276 121.652  1.00  0.00     0.151 C 
BRANCH  14  15
ATOM     15  C   UNL     1     118.061 122.108 121.288  1.00  0.00    -0.025 A 
ATOM     16  C   UNL     1     117.312 121.067 121.858  1.00  0.00     0.056 A 
ATOM     17  C   UNL     1     117.450 122.976 120.372  1.00  0.00     0.009 A 
ATOM     18  C   UNL     1     115.956 120.892 121.517  1.00  0.00     0.160 A 
ATOM     19  C   UNL     1     116.106 122.809 120.034  1.00  0.00     0.050 A 
ATOM     20  C   UNL     1     115.357 121.770 120.604  1.00  0.00     0.157 A 
BRANCH  18  21
ATOM     21  O   UNL     1     115.175 119.859 122.062  1.00  0.00    -0.493 OA
ATOM     22  C   UNL     1     115.073 118.551 121.511  1.00  0.00     0.278 C 
ENDBRANCH  18  21
BRANCH  20  23
ATOM     23  O   UNL     1     114.016 121.604 120.264  1.00  0.00    -0.504 OA
ATOM     24  H   UNL     1     113.346 121.217 120.917  1.00  0.00     0.293 HD
ENDBRANCH  20  23
ENDBRANCH  14  15
ENDBRANCH  12  14
ENDBRANCH   9  10
ENDBRANCH   1   9
TORSDOF 10
ENDMDL
MODEL 5
REMARK VINA RESULT:    -3.279      6.711      9.375
REMARK INTER + INTRA:          -7.236
REMARK INTER:                  -5.421
REMARK INTRA:                  -1.815
REMARK UNBOUND:                -2.136
REMARK SMILES COc1cc(CNC(=O)CCCCC=CC(C)C)ccc1O
REMARK SMILES IDX 11 1 12 2 13 3 14 4 15 5 16 6 17 7 18 8 10 9 8 10 9 11 7 12
REMARK SMILES IDX 6 14 5 15 4 16 19 17 3 18 20 19 21 20 2 21 1 22 22 23
REMARK H PARENT 7 13 22 24
REMARK Flexibility Score: inf
ROOT
ATOM      1  C   UNL     1     128.545 128.147 119.237  1.00  0.00     0.010 C 
ENDROOT
BRANCH   1   2
ATOM      2  C   UNL     1     129.408 126.879 119.400  1.00  0.00     0.005 C 
BRANCH   2   3
ATOM      3  C   UNL     1     129.085 126.084 120.677  1.00  0.00     0.027 C 
BRANCH   3   4
ATOM      4  C   UNL     1     127.700 126.363 121.205  1.00  0.00    -0.031 C 
ATOM      5  C   UNL     1     126.616 125.600 120.969  1.00  0.00    -0.028 C 
BRANCH   5   6
ATOM      6  C   UNL     1     126.619 124.299 120.196  1.00  0.00     0.005 C 
ATOM      7  C   UNL     1     126.302 124.572 118.723  1.00  0.00     0.012 C 
ATOM      8  C   UNL     1     125.594 123.337 120.801  1.00  0.00     0.012 C 
ENDBRANCH   5   6
ENDBRANCH   3   4
ENDBRANCH   2   3
ENDBRANCH   1   2
BRANCH   1   9
ATOM      9  C   UNL     1     127.598 128.055 118.034  1.00  0.00     0.100 C 
BRANCH   9  10
ATOM     10  C   UNL     1     126.308 128.758 118.328  1.00  0.00     0.220 C 
ATOM     11  O   UNL     1     126.285 130.017 118.386  1.00  0.00    -0.275 OA
ATOM     12  N   UNL     1     125.119 127.998 118.583  1.00  0.00    -0.352 N 
ATOM     13  H   UNL     1     125.174 126.955 118.583  1.00  0.00     0.163 HD
BRANCH  12  14
ATOM     14  C   UNL     1     123.826 128.626 118.845  1.00  0.00     0.151 C 
BRANCH  14  15
ATOM     15  C   UNL     1     122.990 127.750 119.739  1.00  0.00    -0.025 A 
ATOM     16  C   UNL     1     121.940 128.308 120.484  1.00  0.00     0.056 A 
ATOM     17  C   UNL     1     123.259 126.378 119.847  1.00  0.00     0.009 A 
ATOM     18  C   UNL     1     121.157 127.501 121.334  1.00  0.00     0.160 A 
ATOM     19  C   UNL     1     122.484 125.573 120.684  1.00  0.00     0.050 A 
ATOM     20  C   UNL     1     121.434 126.130 121.427  1.00  0.00     0.157 A 
BRANCH  18  21
ATOM     21  O   UNL     1     120.102 128.024 122.098  1.00  0.00    -0.493 OA
ATOM     22  C   UNL     1     118.840 128.413 121.568  1.00  0.00     0.278 C 
ENDBRANCH  18  21
BRANCH  20  23
ATOM     23  O   UNL     1     120.663 125.325 122.264  1.00  0.00    -0.504 OA
ATOM     24  H   UNL     1     120.253 124.459 121.937  1.00  0.00     0.293 HD
ENDBRANCH  20  23
ENDBRANCH  14  15
ENDBRANCH  12  14
ENDBRANCH   9  10
ENDBRANCH   1   9
TORSDOF 10
ENDMDL
MODEL 6
REMARK VINA RESULT:    -3.267      4.544      7.326
REMARK INTER + INTRA:          -7.217
REMARK INTER:                  -6.026
REMARK INTRA:                  -1.191
REMARK UNBOUND:                -2.136
REMARK SMILES COc1cc(CNC(=O)CCCCC=CC(C)C)ccc1O
REMARK SMILES IDX 11 1 12 2 13 3 14 4 15 5 16 6 17 7 18 8 10 9 8 10 9 11 7 12
REMARK SMILES IDX 6 14 5 15 4 16 19 17 3 18 20 19 21 20 2 21 1 22 22 23
REMARK H PARENT 7 13 22 24
REMARK Flexibility Score: inf
ROOT
ATOM      1  C   UNL     1     121.556 117.041 120.959  1.00  0.00     0.010 C 
ENDROOT
BRANCH   1   2
ATOM      2  C   UNL     1     122.375 118.139 120.250  1.00  0.00     0.005 C 
BRANCH   2   3
ATOM      3  C   UNL     1     123.838 118.205 120.722  1.00  0.00     0.027 C 
BRANCH   3   4
ATOM      4  C   UNL     1     124.784 117.480 119.800  1.00  0.00    -0.031 C 
ATOM      5  C   UNL     1     125.369 116.297 120.068  1.00  0.00    -0.028 C 
BRANCH   5   6
ATOM      6  C   UNL     1     125.120 115.465 121.308  1.00  0.00     0.005 C 
ATOM      7  C   UNL     1     126.457 115.033 121.917  1.00  0.00     0.012 C 
ATOM      8  C   UNL     1     124.270 114.245 120.948  1.00  0.00     0.012 C 
ENDBRANCH   5   6
ENDBRANCH   3   4
ENDBRANCH   2   3
ENDBRANCH   1   2
BRANCH   1   9
ATOM      9  C   UNL     1     121.073 115.957 119.986  1.00  0.00     0.100 C 
BRANCH   9  10
ATOM     10  C   UNL     1     119.804 116.385 119.313  1.00  0.00     0.220 C 
ATOM     11  O   UNL     1     119.778 116.515 118.059  1.00  0.00    -0.275 OA
ATOM     12  N   UNL     1     118.642 116.686 120.098  1.00  0.00    -0.352 N 
ATOM     13  H   UNL     1     118.704 116.624 121.140  1.00  0.00     0.163 HD
BRANCH  12  14
ATOM     14  C   UNL     1     117.369 117.078 119.499  1.00  0.00     0.151 C 
BRANCH  14  15
ATOM     15  C   UNL     1     116.728 118.177 120.304  1.00  0.00    -0.025 A 
ATOM     16  C   UNL     1     117.438 119.359 120.566  1.00  0.00     0.056 A 
ATOM     17  C   UNL     1     115.430 118.027 120.810  1.00  0.00     0.009 A 
ATOM     18  C   UNL     1     116.855 120.390 121.328  1.00  0.00     0.160 A 
ATOM     19  C   UNL     1     114.846 119.047 121.563  1.00  0.00     0.050 A 
ATOM     20  C   UNL     1     115.554 120.228 121.823  1.00  0.00     0.157 A 
BRANCH  18  21
ATOM     21  O   UNL     1     117.536 121.585 121.615  1.00  0.00    -0.493 OA
ATOM     22  C   UNL     1     118.312 122.315 120.671  1.00  0.00     0.278 C 
ENDBRANCH  18  21
BRANCH  20  23
ATOM     23  O   UNL     1     114.970 121.245 122.576  1.00  0.00    -0.504 OA
ATOM     24  H   UNL     1     113.978 121.250 122.782  1.00  0.00     0.293 HD
ENDBRANCH  20  23
ENDBRANCH  14  15
ENDBRANCH  12  14
ENDBRANCH   9  10
ENDBRANCH   1   9
TORSDOF 10
ENDMDL
MODEL 7
REMARK VINA RESULT:    -3.231      8.564     10.432
REMARK INTER + INTRA:          -7.161
REMARK INTER:                  -5.621
REMARK INTRA:                  -1.540
REMARK UNBOUND:                -2.136
REMARK SMILES COc1cc(CNC(=O)CCCCC=CC(C)C)ccc1O
REMARK SMILES IDX 11 1 12 2 13 3 14 4 15 5 16 6 17 7 18 8 10 9 8 10 9 11 7 12
REMARK SMILES IDX 6 14 5 15 4 16 19 17 3 18 20 19 21 20 2 21 1 22 22 23
REMARK H PARENT 7 13 22 24
REMARK Flexibility Score: inf
ROOT
ATOM      1  C   UNL     1     115.899 127.449 118.752  1.00  0.00     0.010 C 
ENDROOT
BRANCH   1   2
ATOM      2  C   UNL     1     115.993 128.384 119.975  1.00  0.00     0.005 C 
BRANCH   2   3
ATOM      3  C   UNL     1     116.753 127.761 121.159  1.00  0.00     0.027 C 
BRANCH   3   4
ATOM      4  C   UNL     1     118.211 128.142 121.184  1.00  0.00    -0.031 C 
ATOM      5  C   UNL     1     119.232 127.308 120.915  1.00  0.00    -0.028 C 
BRANCH   5   6
ATOM      6  C   UNL     1     119.086 125.867 120.473  1.00  0.00     0.005 C 
ATOM      7  C   UNL     1     120.154 125.007 121.153  1.00  0.00     0.012 C 
ATOM      8  C   UNL     1     119.208 125.781 118.950  1.00  0.00     0.012 C 
ENDBRANCH   5   6
ENDBRANCH   3   4
ENDBRANCH   2   3
ENDBRANCH   1   2
BRANCH   1   9
ATOM      9  C   UNL     1     114.472 127.366 118.193  1.00  0.00     0.100 C 
BRANCH   9  10
ATOM     10  C   UNL     1     113.969 125.955 118.249  1.00  0.00     0.220 C 
ATOM     11  O   UNL     1     112.837 125.679 117.767  1.00  0.00    -0.275 OA
ATOM     12  N   UNL     1     114.754 124.939 118.886  1.00  0.00    -0.352 N 
ATOM     13  H   UNL     1     115.665 125.202 119.326  1.00  0.00     0.163 HD
BRANCH  12  14
ATOM     14  C   UNL     1     114.332 123.542 118.945  1.00  0.00     0.151 C 
BRANCH  14  15
ATOM     15  C   UNL     1     115.296 122.739 119.776  1.00  0.00    -0.025 A 
ATOM     16  C   UNL     1     114.841 121.622 120.495  1.00  0.00     0.056 A 
ATOM     17  C   UNL     1     116.648 123.102 119.853  1.00  0.00     0.009 A 
ATOM     18  C   UNL     1     115.731 120.869 121.287  1.00  0.00     0.160 A 
ATOM     19  C   UNL     1     117.535 122.358 120.632  1.00  0.00     0.050 A 
ATOM     20  C   UNL     1     117.080 121.242 121.349  1.00  0.00     0.157 A 
BRANCH  18  21
ATOM     21  O   UNL     1     115.312 119.749 122.023  1.00  0.00    -0.493 OA
ATOM     22  C   UNL     1     114.808 118.549 121.447  1.00  0.00     0.278 C 
ENDBRANCH  18  21
BRANCH  20  23
ATOM     23  O   UNL     1     117.967 120.500 122.127  1.00  0.00    -0.504 OA
ATOM     24  H   UNL     1     118.042 119.494 122.035  1.00  0.00     0.293 HD
ENDBRANCH  20  23
ENDBRANCH  14  15
ENDBRANCH  12  14
ENDBRANCH   9  10
ENDBRANCH   1   9
TORSDOF 10
ENDMDL
MODEL 8
REMARK VINA RESULT:    -3.204      4.287      7.028
REMARK INTER + INTRA:          -7.118
REMARK INTER:                  -6.021
REMARK INTRA:                  -1.098
REMARK UNBOUND:                -2.136
REMARK SMILES COc1cc(CNC(=O)CCCCC=CC(C)C)ccc1O
REMARK SMILES IDX 11 1 12 2 13 3 14 4 15 5 16 6 17 7 18 8 10 9 8 10 9 11 7 12
REMARK SMILES IDX 6 14 5 15 4 16 19 17 3 18 20 19 21 20 2 21 1 22 22 23
REMARK H PARENT 7 13 22 24
REMARK Flexibility Score: inf
ROOT
ATOM      1  C   UNL     1     121.677 115.894 121.233  1.00  0.00     0.010 C 
ENDROOT
BRANCH   1   2
ATOM      2  C   UNL     1     122.933 115.538 122.054  1.00  0.00     0.005 C 
BRANCH   2   3
ATOM      3  C   UNL     1     123.945 114.681 121.274  1.00  0.00     0.027 C 
BRANCH   3   4
ATOM      4  C   UNL     1     125.375 114.991 121.637  1.00  0.00    -0.031 C 
ATOM      5  C   UNL     1     126.149 115.902 121.018  1.00  0.00    -0.028 C 
BRANCH   5   6
ATOM      6  C   UNL     1     125.693 116.817 119.902  1.00  0.00     0.005 C 
ATOM      7  C   UNL     1     126.772 116.888 118.818  1.00  0.00     0.012 C 
ATOM      8  C   UNL     1     125.399 118.209 120.465  1.00  0.00     0.012 C 
ENDBRANCH   5   6
ENDBRANCH   3   4
ENDBRANCH   2   3
ENDBRANCH   1   2
BRANCH   1   9
ATOM      9  C   UNL     1     121.892 117.129 120.347  1.00  0.00     0.100 C 
BRANCH   9  10
ATOM     10  C   UNL     1     121.226 118.328 120.950  1.00  0.00     0.220 C 
ATOM     11  O   UNL     1     121.627 118.770 122.060  1.00  0.00    -0.275 OA
ATOM     12  N   UNL     1     120.112 118.938 120.284  1.00  0.00    -0.352 N 
ATOM     13  H   UNL     1     119.762 118.521 119.392  1.00  0.00     0.163 HD
BRANCH  12  14
ATOM     14  C   UNL     1     119.441 120.127 120.805  1.00  0.00     0.151 C 
BRANCH  14  15
ATOM     15  C   UNL     1     117.982 119.841 121.044  1.00  0.00    -0.025 A 
ATOM     16  C   UNL     1     117.425 118.630 120.607  1.00  0.00     0.056 A 
ATOM     17  C   UNL     1     117.166 120.782 121.688  1.00  0.00     0.009 A 
ATOM     18  C   UNL     1     116.058 118.354 120.813  1.00  0.00     0.160 A 
ATOM     19  C   UNL     1     115.813 120.514 121.898  1.00  0.00     0.050 A 
ATOM     20  C   UNL     1     115.256 119.303 121.463  1.00  0.00     0.157 A 
BRANCH  18  21
ATOM     21  O   UNL     1     115.464 117.156 120.386  1.00  0.00    -0.493 OA
ATOM     22  C   UNL     1     115.681 116.559 119.111  1.00  0.00     0.278 C 
ENDBRANCH  18  21
BRANCH  20  23
ATOM     23  O   UNL     1     113.904 119.037 121.672  1.00  0.00    -0.504 OA
ATOM     24  H   UNL     1     113.222 119.781 121.747  1.00  0.00     0.293 HD
ENDBRANCH  20  23
ENDBRANCH  14  15
ENDBRANCH  12  14
ENDBRANCH   9  10
ENDBRANCH   1   9
TORSDOF 10
ENDMDL
MODEL 9
REMARK VINA RESULT:    -3.190      3.216      6.442
REMARK INTER + INTRA:          -7.097
REMARK INTER:                  -5.610
REMARK INTRA:                  -1.487
REMARK UNBOUND:                -2.136
REMARK SMILES COc1cc(CNC(=O)CCCCC=CC(C)C)ccc1O
REMARK SMILES IDX 11 1 12 2 13 3 14 4 15 5 16 6 17 7 18 8 10 9 8 10 9 11 7 12
REMARK SMILES IDX 6 14 5 15 4 16 19 17 3 18 20 19 21 20 2 21 1 22 22 23
REMARK H PARENT 7 13 22 24
REMARK Flexibility Score: inf
ROOT
ATOM      1  C   UNL     1     127.096 115.747 118.923  1.00  0.00     0.010 C 
ENDROOT
BRANCH   1   2
ATOM      2  C   UNL     1     127.289 114.991 120.253  1.00  0.00     0.005 C 
BRANCH   2   3
ATOM      3  C   UNL     1     126.440 115.560 121.403  1.00  0.00     0.027 C 
BRANCH   3   4
ATOM      4  C   UNL     1     125.001 115.115 121.344  1.00  0.00    -0.031 C 
ATOM      5  C   UNL     1     123.972 115.880 120.932  1.00  0.00    -0.028 C 
BRANCH   5   6
ATOM      6  C   UNL     1     124.097 117.290 120.394  1.00  0.00     0.005 C 
ATOM      7  C   UNL     1     123.216 118.236 121.214  1.00  0.00     0.012 C 
ATOM      8  C   UNL     1     123.692 117.315 118.918  1.00  0.00     0.012 C 
ENDBRANCH   5   6
ENDBRANCH   3   4
ENDBRANCH   2   3
ENDBRANCH   1   2
BRANCH   1   9
ATOM      9  C   UNL     1     128.393 115.824 118.105  1.00  0.00     0.100 C 
BRANCH   9  10
ATOM     10  C   UNL     1     128.854 117.245 117.986  1.00  0.00     0.220 C 
ATOM     11  O   UNL     1     129.679 117.558 117.086  1.00  0.00    -0.275 OA
ATOM     12  N   UNL     1     128.389 118.230 118.920  1.00  0.00    -0.352 N 
ATOM     13  H   UNL     1     127.748 117.935 119.691  1.00  0.00     0.163 HD
BRANCH  12  14
ATOM     14  C   UNL     1     128.778 119.635 118.837  1.00  0.00     0.151 C 
BRANCH  14  15
ATOM     15  C   UNL     1     127.881 120.478 119.704  1.00  0.00    -0.025 A 
ATOM     16  C   UNL     1     128.422 121.533 120.456  1.00  0.00     0.056 A 
ATOM     17  C   UNL     1     126.507 120.211 119.782  1.00  0.00     0.009 A 
ATOM     18  C   UNL     1     127.597 122.322 121.281  1.00  0.00     0.160 A 
ATOM     19  C   UNL     1     125.683 120.992 120.594  1.00  0.00     0.050 A 
ATOM     20  C   UNL     1     126.224 122.046 121.344  1.00  0.00     0.157 A 
BRANCH  18  21
ATOM     21  O   UNL     1     128.102 123.382 122.051  1.00  0.00    -0.493 OA
ATOM     22  C   UNL     1     128.575 124.612 121.513  1.00  0.00     0.278 C 
ENDBRANCH  18  21
BRANCH  20  23
ATOM     23  O   UNL     1     125.400 122.824 122.156  1.00  0.00    -0.504 OA
ATOM     24  H   UNL     1     125.620 123.789 122.366  1.00  0.00     0.293 HD
ENDBRANCH  20  23
ENDBRANCH  14  15
ENDBRANCH  12  14
ENDBRANCH   9  10
ENDBRANCH   1   9
TORSDOF 10
ENDMDL
