MODEL 1
REMARK VINA RESULT:    -3.998      0.000      0.000
REMARK INTER + INTRA:          -5.244
REMARK INTER:                  -4.933
REMARK INTRA:                  -0.311
REMARK UNBOUND:                -0.311
REMARK SMILES C=CC[C@@H](C)C(=O)CC
REMARK SMILES IDX 4 1 5 2 6 3 7 4 8 5 9 6 3 7 2 8 1 9
REMARK H PARENT
REMARK Flexibility Score: inf
ROOT
ATOM      1  C   UNL     1     211.373 151.517 182.561  1.00  0.00     0.057 C 
ATOM      2  C   UNL     1     210.502 150.934 181.441  1.00  0.00     0.016 C 
ENDROOT
BRANCH   1   3
ATOM      3  C   UNL     1     212.846 151.296 182.272  1.00  0.00     0.135 C 
ATOM      4  O   UNL     1     213.420 152.012 181.463  1.00  0.00    -0.299 OA
BRANCH   3   5
ATOM      5  C   UNL     1     213.618 150.197 182.952  1.00  0.00     0.072 C 
ATOM      6  C   UNL     1     213.739 150.468 184.448  1.00  0.00     0.012 C 
ENDBRANCH   3   5
ENDBRANCH   1   3
BRANCH   1   7
ATOM      7  C   UNL     1     211.064 153.004 182.845  1.00  0.00     0.038 C 
BRANCH   7   8
ATOM      8  C   UNL     1     211.508 153.469 184.209  1.00  0.00    -0.034 C 
ATOM      9  C   UNL     1     210.938 154.510 184.821  1.00  0.00     0.004 C 
ENDBRANCH   7   8
ENDBRANCH   1   7
TORSDOF 4
ENDMDL
MODEL 2
REMARK VINA RESULT:    -3.988      1.730      3.090
REMARK INTER + INTRA:          -5.232
REMARK INTER:                  -5.021
REMARK INTRA:                  -0.211
REMARK UNBOUND:                -0.311
REMARK SMILES C=CC[C@@H](C)C(=O)CC
REMARK SMILES IDX 4 1 5 2 6 3 7 4 8 5 9 6 3 7 2 8 1 9
REMARK H PARENT
REMARK Flexibility Score: inf
ROOT
ATOM      1  C   UNL     1     212.501 152.827 183.754  1.00  0.00     0.057 C 
ATOM      2  C   UNL     1     211.445 153.684 184.463  1.00  0.00     0.016 C 
ENDROOT
BRANCH   1   3
ATOM      3  C   UNL     1     213.550 152.339 184.735  1.00  0.00     0.135 C 
ATOM      4  O   UNL     1     214.238 153.148 185.342  1.00  0.00    -0.299 OA
BRANCH   3   5
ATOM      5  C   UNL     1     213.778 150.868 184.965  1.00  0.00     0.072 C 
ATOM      6  C   UNL     1     215.125 150.435 184.396  1.00  0.00     0.012 C 
ENDBRANCH   3   5
ENDBRANCH   1   3
BRANCH   1   7
ATOM      7  C   UNL     1     211.881 151.659 182.955  1.00  0.00     0.038 C 
BRANCH   7   8
ATOM      8  C   UNL     1     210.687 152.055 182.122  1.00  0.00    -0.034 C 
ATOM      9  C   UNL     1     209.924 151.150 181.504  1.00  0.00     0.004 C 
ENDBRANCH   7   8
ENDBRANCH   1   7
TORSDOF 4
ENDMDL
MODEL 3
REMARK VINA RESULT:    -3.955      1.730      2.249
REMARK INTER + INTRA:          -5.191
REMARK INTER:                  -4.992
REMARK INTRA:                  -0.199
REMARK UNBOUND:                -0.311
REMARK SMILES C=CC[C@@H](C)C(=O)CC
REMARK SMILES IDX 4 1 5 2 6 3 7 4 8 5 9 6 3 7 2 8 1 9
REMARK H PARENT
REMARK Flexibility Score: inf
ROOT
ATOM      1  C   UNL     1     211.519 150.782 181.724  1.00  0.00     0.057 C 
ATOM      2  C   UNL     1     210.031 150.993 181.416  1.00  0.00     0.016 C 
ENDROOT
BRANCH   1   3
ATOM      3  C   UNL     1     212.367 151.021 180.490  1.00  0.00     0.135 C 
ATOM      4  O   UNL     1     212.538 152.161 180.081  1.00  0.00    -0.299 OA
BRANCH   3   5
ATOM      5  C   UNL     1     212.994 149.875 179.741  1.00  0.00     0.072 C 
ATOM      6  C   UNL     1     214.509 149.875 179.924  1.00  0.00     0.012 C 
ENDBRANCH   3   5
ENDBRANCH   1   3
BRANCH   1   7
ATOM      7  C   UNL     1     212.005 151.628 182.923  1.00  0.00     0.038 C 
BRANCH   7   8
ATOM      8  C   UNL     1     211.059 152.738 183.309  1.00  0.00    -0.034 C 
ATOM      9  C   UNL     1     211.382 153.656 184.224  1.00  0.00     0.004 C 
ENDBRANCH   7   8
ENDBRANCH   1   7
TORSDOF 4
ENDMDL
MODEL 4
REMARK VINA RESULT:    -3.915      1.733      3.096
REMARK INTER + INTRA:          -5.141
REMARK INTER:                  -4.963
REMARK INTRA:                  -0.178
REMARK UNBOUND:                -0.311
REMARK SMILES C=CC[C@@H](C)C(=O)CC
REMARK SMILES IDX 4 1 5 2 6 3 7 4 8 5 9 6 3 7 2 8 1 9
REMARK H PARENT
REMARK Flexibility Score: inf
ROOT
ATOM      1  C   UNL     1     212.139 152.220 183.039  1.00  0.00     0.057 C 
ATOM      2  C   UNL     1     211.222 153.207 183.773  1.00  0.00     0.016 C 
ENDROOT
BRANCH   1   3
ATOM      3  C   UNL     1     213.051 151.501 184.015  1.00  0.00     0.135 C 
ATOM      4  O   UNL     1     213.351 150.331 183.818  1.00  0.00    -0.299 OA
BRANCH   3   5
ATOM      5  C   UNL     1     213.585 152.195 185.239  1.00  0.00     0.072 C 
ATOM      6  C   UNL     1     214.708 153.158 184.867  1.00  0.00     0.012 C 
ENDBRANCH   3   5
ENDBRANCH   1   3
BRANCH   1   7
ATOM      7  C   UNL     1     211.357 151.226 182.152  1.00  0.00     0.038 C 
BRANCH   7   8
ATOM      8  C   UNL     1     209.970 151.695 181.788  1.00  0.00    -0.034 C 
ATOM      9  C   UNL     1     209.082 150.887 181.203  1.00  0.00     0.004 C 
ENDBRANCH   7   8
ENDBRANCH   1   7
TORSDOF 4
ENDMDL
MODEL 5
REMARK VINA RESULT:    -3.892      1.231      3.407
REMARK INTER + INTRA:          -5.113
REMARK INTER:                  -4.679
REMARK INTRA:                  -0.433
REMARK UNBOUND:                -0.311
REMARK SMILES C=CC[C@@H](C)C(=O)CC
REMARK SMILES IDX 4 1 5 2 6 3 7 4 8 5 9 6 3 7 2 8 1 9
REMARK H PARENT
REMARK Flexibility Score: inf
ROOT
ATOM      1  C   UNL     1     213.242 151.301 182.379  1.00  0.00     0.057 C 
ATOM      2  C   UNL     1     214.466 151.606 181.506  1.00  0.00     0.016 C 
ENDROOT
BRANCH   1   3
ATOM      3  C   UNL     1     211.959 151.442 181.582  1.00  0.00     0.135 C 
ATOM      4  O   UNL     1     211.920 151.063 180.420  1.00  0.00    -0.299 OA
BRANCH   3   5
ATOM      5  C   UNL     1     210.728 152.060 182.190  1.00  0.00     0.072 C 
ATOM      6  C   UNL     1     211.092 152.904 183.407  1.00  0.00     0.012 C 
ENDBRANCH   3   5
ENDBRANCH   1   3
BRANCH   1   7
ATOM      7  C   UNL     1     213.333 149.924 183.073  1.00  0.00     0.038 C 
BRANCH   7   8
ATOM      8  C   UNL     1     213.901 149.981 184.469  1.00  0.00    -0.034 C 
ATOM      9  C   UNL     1     213.794 151.072 185.232  1.00  0.00     0.004 C 
ENDBRANCH   7   8
ENDBRANCH   1   7
TORSDOF 4
ENDMDL
MODEL 6
REMARK VINA RESULT:    -3.851      1.300      3.313
REMARK INTER + INTRA:          -5.062
REMARK INTER:                  -4.637
REMARK INTRA:                  -0.425
REMARK UNBOUND:                -0.311
REMARK SMILES C=CC[C@@H](C)C(=O)CC
REMARK SMILES IDX 4 1 5 2 6 3 7 4 8 5 9 6 3 7 2 8 1 9
REMARK H PARENT
REMARK Flexibility Score: inf
ROOT
ATOM      1  C   UNL     1     211.930 153.165 184.076  1.00  0.00     0.057 C 
ATOM      2  C   UNL     1     211.048 154.260 184.689  1.00  0.00     0.016 C 
ENDROOT
BRANCH   1   3
ATOM      3  C   UNL     1     211.627 152.987 182.600  1.00  0.00     0.135 C 
ATOM      4  O   UNL     1     212.141 153.734 181.780  1.00  0.00    -0.299 OA
BRANCH   3   5
ATOM      5  C   UNL     1     210.685 151.914 182.122  1.00  0.00     0.072 C 
ATOM      6  C   UNL     1     211.456 150.661 181.717  1.00  0.00     0.012 C 
ENDBRANCH   3   5
ENDBRANCH   1   3
BRANCH   1   7
ATOM      7  C   UNL     1     213.436 153.404 184.324  1.00  0.00     0.038 C 
BRANCH   7   8
ATOM      8  C   UNL     1     214.248 152.136 184.417  1.00  0.00    -0.034 C 
ATOM      9  C   UNL     1     213.752 151.016 184.949  1.00  0.00     0.004 C 
ENDBRANCH   7   8
ENDBRANCH   1   7
TORSDOF 4
ENDMDL
MODEL 7
REMARK VINA RESULT:    -3.834      1.835      3.041
REMARK INTER + INTRA:          -5.042
REMARK INTER:                  -4.655
REMARK INTRA:                  -0.386
REMARK UNBOUND:                -0.311
REMARK SMILES C=CC[C@@H](C)C(=O)CC
REMARK SMILES IDX 4 1 5 2 6 3 7 4 8 5 9 6 3 7 2 8 1 9
REMARK H PARENT
REMARK Flexibility Score: inf
ROOT
ATOM      1  C   UNL     1     213.075 153.071 184.386  1.00  0.00     0.057 C 
ATOM      2  C   UNL     1     213.408 151.951 185.380  1.00  0.00     0.016 C 
ENDROOT
BRANCH   1   3
ATOM      3  C   UNL     1     214.128 153.161 183.298  1.00  0.00     0.135 C 
ATOM      4  O   UNL     1     214.079 154.068 182.478  1.00  0.00    -0.299 OA
BRANCH   3   5
ATOM      5  C   UNL     1     215.230 152.141 183.194  1.00  0.00     0.072 C 
ATOM      6  C   UNL     1     215.110 151.347 181.897  1.00  0.00     0.012 C 
ENDBRANCH   3   5
ENDBRANCH   1   3
BRANCH   1   7
ATOM      7  C   UNL     1     211.653 152.939 183.794  1.00  0.00     0.038 C 
BRANCH   7   8
ATOM      8  C   UNL     1     211.496 151.782 182.839  1.00  0.00    -0.034 C 
ATOM      9  C   UNL     1     210.491 151.722 181.961  1.00  0.00     0.004 C 
ENDBRANCH   7   8
ENDBRANCH   1   7
TORSDOF 4
ENDMDL
MODEL 8
REMARK VINA RESULT:    -3.833      1.549      2.333
REMARK INTER + INTRA:          -5.040
REMARK INTER:                  -4.664
REMARK INTRA:                  -0.377
REMARK UNBOUND:                -0.311
REMARK SMILES C=CC[C@@H](C)C(=O)CC
REMARK SMILES IDX 4 1 5 2 6 3 7 4 8 5 9 6 3 7 2 8 1 9
REMARK H PARENT
REMARK Flexibility Score: inf
ROOT
ATOM      1  C   UNL     1     211.864 151.110 182.253  1.00  0.00     0.057 C 
ATOM      2  C   UNL     1     210.466 151.233 181.635  1.00  0.00     0.016 C 
ENDROOT
BRANCH   1   3
ATOM      3  C   UNL     1     212.941 151.356 181.213  1.00  0.00     0.135 C 
ATOM      4  O   UNL     1     214.063 150.900 181.380  1.00  0.00    -0.299 OA
BRANCH   3   5
ATOM      5  C   UNL     1     212.659 152.170 179.978  1.00  0.00     0.072 C 
ATOM      6  C   UNL     1     212.938 153.648 180.231  1.00  0.00     0.012 C 
ENDBRANCH   3   5
ENDBRANCH   1   3
BRANCH   1   7
ATOM      7  C   UNL     1     212.051 152.017 183.491  1.00  0.00     0.038 C 
BRANCH   7   8
ATOM      8  C   UNL     1     211.089 153.178 183.546  1.00  0.00    -0.034 C 
ATOM      9  C   UNL     1     211.135 154.088 184.522  1.00  0.00     0.004 C 
ENDBRANCH   7   8
ENDBRANCH   1   7
TORSDOF 4
ENDMDL
MODEL 9
REMARK VINA RESULT:    -3.783      1.812      2.950
REMARK INTER + INTRA:          -4.978
REMARK INTER:                  -4.619
REMARK INTRA:                  -0.359
REMARK UNBOUND:                -0.311
REMARK SMILES C=CC[C@@H](C)C(=O)CC
REMARK SMILES IDX 4 1 5 2 6 3 7 4 8 5 9 6 3 7 2 8 1 9
REMARK H PARENT
REMARK Flexibility Score: inf
ROOT
ATOM      1  C   UNL     1     213.512 151.114 183.499  1.00  0.00     0.057 C 
ATOM      2  C   UNL     1     213.742 149.897 184.405  1.00  0.00     0.016 C 
ENDROOT
BRANCH   1   3
ATOM      3  C   UNL     1     214.757 151.432 182.693  1.00  0.00     0.135 C 
ATOM      4  O   UNL     1     215.848 151.460 183.245  1.00  0.00    -0.299 OA
BRANCH   3   5
ATOM      5  C   UNL     1     214.675 151.734 181.220  1.00  0.00     0.072 C 
ATOM      6  C   UNL     1     215.371 150.648 180.407  1.00  0.00     0.012 C 
ENDBRANCH   3   5
ENDBRANCH   1   3
BRANCH   1   7
ATOM      7  C   UNL     1     212.271 150.956 182.593  1.00  0.00     0.038 C 
BRANCH   7   8
ATOM      8  C   UNL     1     211.246 152.049 182.765  1.00  0.00    -0.034 C 
ATOM      9  C   UNL     1     211.377 153.001 183.694  1.00  0.00     0.004 C 
ENDBRANCH   7   8
ENDBRANCH   1   7
TORSDOF 4
ENDMDL
