MODEL 1
REMARK VINA RESULT:    -5.185      0.000      0.000
REMARK INTER + INTRA:          -7.607
REMARK INTER:                  -7.004
REMARK INTRA:                  -0.603
REMARK UNBOUND:                -0.603
REMARK SMILES CC(=O)CCC=C(C)CCC=C(C)C
REMARK SMILES IDX 7 1 6 2 8 3 9 4 10 5 11 6 13 7 12 8 14 9 5 10 4 11 2 12 3 13
REMARK SMILES IDX 1 14
REMARK H PARENT
REMARK Flexibility Score: inf
ROOT
ATOM      1  C   UNL     1       1.786   4.609  62.902  1.00  0.00    -0.077 C 
ATOM      2  C   UNL     1       2.855   3.803  63.102  1.00  0.00    -0.028 C 
ATOM      3  C   UNL     1       1.553   5.311  61.585  1.00  0.00     0.039 C 
ENDROOT
BRANCH   1   4
ATOM      4  C   UNL     1       0.761   4.776  64.004  1.00  0.00     0.034 C 
BRANCH   4   5
ATOM      5  C   UNL     1      -0.498   5.504  63.508  1.00  0.00     0.032 C 
BRANCH   5   6
ATOM      6  C   UNL     1      -1.657   4.560  63.288  1.00  0.00    -0.028 C 
ATOM      7  C   UNL     1      -3.989   3.797  63.466  1.00  0.00     0.039 C 
ATOM      8  C   UNL     1      -2.905   4.809  63.740  1.00  0.00    -0.080 C 
ATOM      9  C   UNL     1      -3.232   6.068  64.506  1.00  0.00     0.039 C 
ENDBRANCH   5   6
ENDBRANCH   4   5
ENDBRANCH   1   4
BRANCH   2  10
ATOM     10  C   UNL     1       3.948   3.571  62.088  1.00  0.00     0.035 C 
BRANCH  10  11
ATOM     11  C   UNL     1       5.328   3.683  62.743  1.00  0.00     0.079 C 
BRANCH  11  12
ATOM     12  C   UNL     1       5.880   5.074  62.586  1.00  0.00     0.130 C 
ATOM     13  O   UNL     1       6.604   5.541  63.451  1.00  0.00    -0.300 OA
ATOM     14  C   UNL     1       5.533   5.896  61.382  1.00  0.00     0.087 C 
ENDBRANCH  11  12
ENDBRANCH  10  11
ENDBRANCH   2  10
TORSDOF 6
ENDMDL
MODEL 2
REMARK VINA RESULT:    -4.932      1.361      2.246
REMARK INTER + INTRA:          -7.266
REMARK INTER:                  -6.609
REMARK INTRA:                  -0.657
REMARK UNBOUND:                -0.603
REMARK SMILES CC(=O)CCC=C(C)CCC=C(C)C
REMARK SMILES IDX 7 1 6 2 8 3 9 4 10 5 11 6 13 7 12 8 14 9 5 10 4 11 2 12 3 13
REMARK SMILES IDX 1 14
REMARK H PARENT
REMARK Flexibility Score: inf
ROOT
ATOM      1  C   UNL     1       0.232   5.221  63.479  1.00  0.00    -0.077 C 
ATOM      2  C   UNL     1       0.644   5.337  62.195  1.00  0.00    -0.028 C 
ATOM      3  C   UNL     1       1.006   4.414  64.494  1.00  0.00     0.039 C 
ENDROOT
BRANCH   1   4
ATOM      4  C   UNL     1      -1.009   5.960  63.933  1.00  0.00     0.034 C 
BRANCH   4   5
ATOM      5  C   UNL     1      -1.923   5.070  64.788  1.00  0.00     0.032 C 
BRANCH   5   6
ATOM      6  C   UNL     1      -2.768   4.141  63.947  1.00  0.00    -0.028 C 
ATOM      7  C   UNL     1      -4.833   3.352  62.870  1.00  0.00     0.039 C 
ATOM      8  C   UNL     1      -4.084   4.343  63.724  1.00  0.00    -0.080 C 
ATOM      9  C   UNL     1      -4.812   5.531  64.306  1.00  0.00     0.039 C 
ENDBRANCH   5   6
ENDBRANCH   4   5
ENDBRANCH   1   4
BRANCH   2  10
ATOM     10  C   UNL     1       1.853   4.638  61.622  1.00  0.00     0.035 C 
BRANCH  10  11
ATOM     11  C   UNL     1       3.056   5.586  61.577  1.00  0.00     0.079 C 
BRANCH  11  12
ATOM     12  C   UNL     1       4.345   4.814  61.649  1.00  0.00     0.130 C 
ATOM     13  O   UNL     1       5.371   5.304  61.204  1.00  0.00    -0.300 OA
ATOM     14  C   UNL     1       4.374   3.440  62.248  1.00  0.00     0.087 C 
ENDBRANCH  11  12
ENDBRANCH  10  11
ENDBRANCH   2  10
TORSDOF 6
ENDMDL
MODEL 3
REMARK VINA RESULT:    -4.932      1.412      2.488
REMARK INTER + INTRA:          -7.265
REMARK INTER:                  -6.840
REMARK INTRA:                  -0.425
REMARK UNBOUND:                -0.603
REMARK SMILES CC(=O)CCC=C(C)CCC=C(C)C
REMARK SMILES IDX 7 1 6 2 8 3 9 4 10 5 11 6 13 7 12 8 14 9 5 10 4 11 2 12 3 13
REMARK SMILES IDX 1 14
REMARK H PARENT
REMARK Flexibility Score: inf
ROOT
ATOM      1  C   UNL     1       3.483   4.600  61.859  1.00  0.00    -0.077 C 
ATOM      2  C   UNL     1       4.392   5.582  61.658  1.00  0.00    -0.028 C 
ATOM      3  C   UNL     1       3.886   3.231  62.356  1.00  0.00     0.039 C 
ENDROOT
BRANCH   1   4
ATOM      4  C   UNL     1       2.013   4.886  61.633  1.00  0.00     0.034 C 
BRANCH   4   5
ATOM      5  C   UNL     1       1.273   5.150  62.953  1.00  0.00     0.032 C 
BRANCH   5   6
ATOM      6  C   UNL     1      -0.227   5.044  62.801  1.00  0.00    -0.028 C 
ATOM      7  C   UNL     1      -2.520   4.534  63.528  1.00  0.00     0.039 C 
ATOM      8  C   UNL     1      -1.036   4.602  63.787  1.00  0.00    -0.080 C 
ATOM      9  C   UNL     1      -0.491   4.179  65.129  1.00  0.00     0.039 C 
ENDBRANCH   5   6
ENDBRANCH   4   5
ENDBRANCH   1   4
BRANCH   2  10
ATOM     10  C   UNL     1       5.882   5.413  61.834  1.00  0.00     0.035 C 
BRANCH  10  11
ATOM     11  C   UNL     1       6.333   5.962  63.191  1.00  0.00     0.079 C 
BRANCH  11  12
ATOM     12  C   UNL     1       7.822   5.823  63.354  1.00  0.00     0.130 C 
ATOM     13  O   UNL     1       8.351   6.155  64.403  1.00  0.00    -0.300 OA
ATOM     14  C   UNL     1       8.662   5.297  62.229  1.00  0.00     0.087 C 
ENDBRANCH  11  12
ENDBRANCH  10  11
ENDBRANCH   2  10
TORSDOF 6
ENDMDL
MODEL 4
REMARK VINA RESULT:    -4.922      2.964      7.116
REMARK INTER + INTRA:          -7.252
REMARK INTER:                  -6.561
REMARK INTRA:                  -0.691
REMARK UNBOUND:                -0.603
REMARK SMILES CC(=O)CCC=C(C)CCC=C(C)C
REMARK SMILES IDX 7 1 6 2 8 3 9 4 10 5 11 6 13 7 12 8 14 9 5 10 4 11 2 12 3 13
REMARK SMILES IDX 1 14
REMARK H PARENT
REMARK Flexibility Score: inf
ROOT
ATOM      1  C   UNL     1      -0.383   4.777  64.039  1.00  0.00    -0.077 C 
ATOM      2  C   UNL     1      -1.555   4.723  63.364  1.00  0.00    -0.028 C 
ATOM      3  C   UNL     1      -0.189   4.066  65.358  1.00  0.00     0.039 C 
ENDROOT
BRANCH   1   4
ATOM      4  C   UNL     1       0.790   5.525  63.440  1.00  0.00     0.034 C 
BRANCH   4   5
ATOM      5  C   UNL     1       1.111   5.040  62.018  1.00  0.00     0.032 C 
BRANCH   5   6
ATOM      6  C   UNL     1       2.501   5.434  61.577  1.00  0.00    -0.028 C 
ATOM      7  C   UNL     1       4.932   5.160  61.323  1.00  0.00     0.039 C 
ATOM      8  C   UNL     1       3.590   4.670  61.806  1.00  0.00    -0.080 C 
ATOM      9  C   UNL     1       3.491   3.347  62.527  1.00  0.00     0.039 C 
ENDBRANCH   5   6
ENDBRANCH   4   5
ENDBRANCH   1   4
BRANCH   2  10
ATOM     10  C   UNL     1      -2.794   4.024  63.865  1.00  0.00     0.035 C 
BRANCH  10  11
ATOM     11  C   UNL     1      -3.955   5.013  64.009  1.00  0.00     0.079 C 
BRANCH  11  12
ATOM     12  C   UNL     1      -3.704   5.966  65.146  1.00  0.00     0.130 C 
ATOM     13  O   UNL     1      -3.412   5.532  66.249  1.00  0.00    -0.300 OA
ATOM     14  C   UNL     1      -3.830   7.445  64.937  1.00  0.00     0.087 C 
ENDBRANCH  11  12
ENDBRANCH  10  11
ENDBRANCH   2  10
TORSDOF 6
ENDMDL
MODEL 5
REMARK VINA RESULT:    -4.809      3.309      6.676
REMARK INTER + INTRA:          -7.099
REMARK INTER:                  -6.232
REMARK INTRA:                  -0.867
REMARK UNBOUND:                -0.603
REMARK SMILES CC(=O)CCC=C(C)CCC=C(C)C
REMARK SMILES IDX 7 1 6 2 8 3 9 4 10 5 11 6 13 7 12 8 14 9 5 10 4 11 2 12 3 13
REMARK SMILES IDX 1 14
REMARK H PARENT
REMARK Flexibility Score: inf
ROOT
ATOM      1  C   UNL     1      -0.059   4.944  63.604  1.00  0.00    -0.077 C 
ATOM      2  C   UNL     1       0.660   4.515  64.667  1.00  0.00    -0.028 C 
ATOM      3  C   UNL     1      -1.518   4.589  63.433  1.00  0.00     0.039 C 
ENDROOT
BRANCH   1   4
ATOM      4  C   UNL     1       0.592   5.847  62.578  1.00  0.00     0.034 C 
BRANCH   4   5
ATOM      5  C   UNL     1       1.388   5.048  61.536  1.00  0.00     0.032 C 
BRANCH   5   6
ATOM      6  C   UNL     1       2.831   5.490  61.454  1.00  0.00    -0.028 C 
ATOM      7  C   UNL     1       5.263   5.261  61.741  1.00  0.00     0.039 C 
ATOM      8  C   UNL     1       3.861   4.721  61.867  1.00  0.00    -0.080 C 
ATOM      9  C   UNL     1       3.638   3.345  62.446  1.00  0.00     0.039 C 
ENDBRANCH   5   6
ENDBRANCH   4   5
ENDBRANCH   1   4
BRANCH   2  10
ATOM     10  C   UNL     1       0.126   3.602  65.744  1.00  0.00     0.035 C 
BRANCH  10  11
ATOM     11  C   UNL     1      -0.362   4.411  66.949  1.00  0.00     0.079 C 
BRANCH  11  12
ATOM     12  C   UNL     1      -1.723   3.945  67.388  1.00  0.00     0.130 C 
ATOM     13  O   UNL     1      -2.239   4.430  68.382  1.00  0.00    -0.300 OA
ATOM     14  C   UNL     1      -2.441   2.875  66.622  1.00  0.00     0.087 C 
ENDBRANCH  11  12
ENDBRANCH  10  11
ENDBRANCH   2  10
TORSDOF 6
ENDMDL
MODEL 6
REMARK VINA RESULT:    -4.802      3.987      5.409
REMARK INTER + INTRA:          -7.090
REMARK INTER:                  -6.090
REMARK INTRA:                  -1.000
REMARK UNBOUND:                -0.603
REMARK SMILES CC(=O)CCC=C(C)CCC=C(C)C
REMARK SMILES IDX 7 1 6 2 8 3 9 4 10 5 11 6 13 7 12 8 14 9 5 10 4 11 2 12 3 13
REMARK SMILES IDX 1 14
REMARK H PARENT
REMARK Flexibility Score: inf
ROOT
ATOM      1  C   UNL     1       0.104   4.460  66.171  1.00  0.00    -0.077 C 
ATOM      2  C   UNL     1       0.260   5.592  66.897  1.00  0.00    -0.028 C 
ATOM      3  C   UNL     1      -0.645   3.264  66.711  1.00  0.00     0.039 C 
ENDROOT
BRANCH   1   4
ATOM      4  C   UNL     1       0.647   4.398  64.759  1.00  0.00     0.034 C 
BRANCH   4   5
ATOM      5  C   UNL     1      -0.225   5.193  63.776  1.00  0.00     0.032 C 
BRANCH   5   6
ATOM      6  C   UNL     1      -1.504   4.467  63.428  1.00  0.00    -0.028 C 
ATOM      7  C   UNL     1      -3.934   4.091  63.422  1.00  0.00     0.039 C 
ATOM      8  C   UNL     1      -2.723   4.892  63.824  1.00  0.00    -0.080 C 
ATOM      9  C   UNL     1      -2.893   6.143  64.653  1.00  0.00     0.039 C 
ENDBRANCH   5   6
ENDBRANCH   4   5
ENDBRANCH   1   4
BRANCH   2  10
ATOM     10  C   UNL     1      -0.222   5.767  68.316  1.00  0.00     0.035 C 
BRANCH  10  11
ATOM     11  C   UNL     1       0.922   5.542  69.309  1.00  0.00     0.079 C 
BRANCH  11  12
ATOM     12  C   UNL     1       1.752   6.787  69.456  1.00  0.00     0.130 C 
ATOM     13  O   UNL     1       1.227   7.829  69.817  1.00  0.00    -0.300 OA
ATOM     14  C   UNL     1       3.218   6.762  69.144  1.00  0.00     0.087 C 
ENDBRANCH  11  12
ENDBRANCH  10  11
ENDBRANCH   2  10
TORSDOF 6
ENDMDL
MODEL 7
REMARK VINA RESULT:    -4.738      1.577      3.014
REMARK INTER + INTRA:          -7.003
REMARK INTER:                  -6.201
REMARK INTRA:                  -0.802
REMARK UNBOUND:                -0.603
REMARK SMILES CC(=O)CCC=C(C)CCC=C(C)C
REMARK SMILES IDX 7 1 6 2 8 3 9 4 10 5 11 6 13 7 12 8 14 9 5 10 4 11 2 12 3 13
REMARK SMILES IDX 1 14
REMARK H PARENT
REMARK Flexibility Score: inf
ROOT
ATOM      1  C   UNL     1      -0.284   4.625  64.260  1.00  0.00    -0.077 C 
ATOM      2  C   UNL     1       0.027   5.196  63.073  1.00  0.00    -0.028 C 
ATOM      3  C   UNL     1       0.707   4.562  65.398  1.00  0.00     0.039 C 
ENDROOT
BRANCH   1   4
ATOM      4  C   UNL     1      -1.678   4.075  64.481  1.00  0.00     0.034 C 
BRANCH   4   5
ATOM      5  C   UNL     1      -2.701   4.711  63.528  1.00  0.00     0.032 C 
BRANCH   5   6
ATOM      6  C   UNL     1      -3.880   5.304  64.264  1.00  0.00    -0.028 C 
ATOM      7  C   UNL     1      -5.090   7.027  65.535  1.00  0.00     0.039 C 
ATOM      8  C   UNL     1      -3.857   6.533  64.821  1.00  0.00    -0.080 C 
ATOM      9  C   UNL     1      -2.633   7.414  64.745  1.00  0.00     0.039 C 
ENDBRANCH   5   6
ENDBRANCH   4   5
ENDBRANCH   1   4
BRANCH   2  10
ATOM     10  C   UNL     1       1.383   5.763  62.730  1.00  0.00     0.035 C 
BRANCH  10  11
ATOM     11  C   UNL     1       2.022   4.981  61.579  1.00  0.00     0.079 C 
BRANCH  11  12
ATOM     12  C   UNL     1       3.409   4.529  61.947  1.00  0.00     0.130 C 
ATOM     13  O   UNL     1       4.375   5.191  61.600  1.00  0.00    -0.300 OA
ATOM     14  C   UNL     1       3.614   3.263  62.721  1.00  0.00     0.087 C 
ENDBRANCH  11  12
ENDBRANCH  10  11
ENDBRANCH   2  10
TORSDOF 6
ENDMDL
MODEL 8
REMARK VINA RESULT:    -4.636      2.347      3.934
REMARK INTER + INTRA:          -6.865
REMARK INTER:                  -5.952
REMARK INTRA:                  -0.913
REMARK UNBOUND:                -0.603
REMARK SMILES CC(=O)CCC=C(C)CCC=C(C)C
REMARK SMILES IDX 7 1 6 2 8 3 9 4 10 5 11 6 13 7 12 8 14 9 5 10 4 11 2 12 3 13
REMARK SMILES IDX 1 14
REMARK H PARENT
REMARK Flexibility Score: inf
ROOT
ATOM      1  C   UNL     1      -1.786   5.364  63.828  1.00  0.00    -0.077 C 
ATOM      2  C   UNL     1      -0.794   4.685  63.207  1.00  0.00    -0.028 C 
ATOM      3  C   UNL     1      -1.539   6.691  64.506  1.00  0.00     0.039 C 
ENDROOT
BRANCH   1   4
ATOM      4  C   UNL     1      -3.196   4.812  63.806  1.00  0.00     0.034 C 
BRANCH   4   5
ATOM      5  C   UNL     1      -3.342   3.582  64.714  1.00  0.00     0.032 C 
BRANCH   5   6
ATOM      6  C   UNL     1      -3.336   3.947  66.181  1.00  0.00    -0.028 C 
ATOM      7  C   UNL     1      -2.398   4.085  68.450  1.00  0.00     0.039 C 
ATOM      8  C   UNL     1      -2.299   3.677  67.002  1.00  0.00    -0.080 C 
ATOM      9  C   UNL     1      -1.055   2.983  66.503  1.00  0.00     0.039 C 
ENDBRANCH   5   6
ENDBRANCH   4   5
ENDBRANCH   1   4
BRANCH   2  10
ATOM     10  C   UNL     1       0.649   5.125  63.174  1.00  0.00     0.035 C 
BRANCH  10  11
ATOM     11  C   UNL     1       1.201   5.069  61.746  1.00  0.00     0.079 C 
BRANCH  11  12
ATOM     12  C   UNL     1       2.705   5.023  61.758  1.00  0.00     0.130 C 
ATOM     13  O   UNL     1       3.345   5.993  61.382  1.00  0.00    -0.300 OA
ATOM     14  C   UNL     1       3.422   3.787  62.210  1.00  0.00     0.087 C 
ENDBRANCH  11  12
ENDBRANCH  10  11
ENDBRANCH   2  10
TORSDOF 6
ENDMDL
