MODEL 1
REMARK VINA RESULT:    -7.227      0.000      0.000
REMARK INTER + INTRA:         -10.816
REMARK INTER:                 -10.185
REMARK INTRA:                  -0.631
REMARK UNBOUND:                -0.631
REMARK SMILES C=C(CC[C@@H](C(=O)[O-])[C@H]1[C@H](O)C[C@@]2(C)C3=C(CC[C@]12C)[C@]1(C)CC[C@@H](O)C(C)(C)[C@@H]1CC3)C(C)C
REMARK SMILES IDX 4 1 5 2 6 3 7 4 8 5 9 6 10 7 19 8 12 9 13 10 18 11 20 12
REMARK SMILES IDX 14 13 15 14 17 15 16 16 32 17 21 18 31 19 30 20 23 21 22 22
REMARK SMILES IDX 27 23 24 24 25 25 28 26 29 27 11 28 26 30 3 32 2 33 1 34
REMARK SMILES IDX 33 35 34 36 35 37
REMARK H PARENT 11 29 26 31
REMARK Flexibility Score: inf
ROOT
ATOM      1  C   UNL     1     175.852 164.945 181.012  1.00  0.00     0.014 C 
ENDROOT
BRANCH   1   2
ATOM      2  C   UNL     1     175.721 166.480 181.215  1.00  0.00     0.042 C 
BRANCH   2   3
ATOM      3  C   UNL     1     174.715 166.778 182.295  1.00  0.00     0.045 C 
ATOM      4  O   UNL     1     173.496 166.874 182.005  1.00  0.00    -0.550 OA
ATOM      5  O   UNL     1     175.114 166.945 183.614  1.00  0.00    -0.550 OA
ENDBRANCH   2   3
BRANCH   2   6
ATOM      6  C   UNL     1     177.076 167.242 181.435  1.00  0.00     0.033 C 
ATOM      7  C   UNL     1     178.176 166.856 180.395  1.00  0.00     0.119 C 
ATOM      8  C   UNL     1     177.037 168.803 181.338  1.00  0.00    -0.017 C 
ATOM      9  C   UNL     1     178.953 168.146 180.054  1.00  0.00     0.043 C 
ATOM     10  C   UNL     1     178.538 169.160 181.131  1.00  0.00    -0.003 C 
ATOM     11  C   UNL     1     176.548 169.555 182.589  1.00  0.00     0.012 C 
ATOM     12  C   UNL     1     176.142 169.240 180.121  1.00  0.00     0.013 C 
ATOM     13  C   UNL     1     179.458 168.930 182.374  1.00  0.00     0.017 C 
ATOM     14  C   UNL     1     178.672 170.642 180.806  1.00  0.00    -0.064 C 
ATOM     15  C   UNL     1     176.817 171.081 182.480  1.00  0.00     0.032 C 
ATOM     16  C   UNL     1     177.909 171.552 181.487  1.00  0.00    -0.064 C 
ATOM     17  C   UNL     1     179.784 171.124 179.914  1.00  0.00     0.032 C 
ATOM     18  C   UNL     1     178.228 173.068 181.380  1.00  0.00    -0.008 C 
ATOM     19  C   UNL     1     179.273 172.275 179.073  1.00  0.00     0.009 C 
ATOM     20  C   UNL     1     178.811 173.479 179.945  1.00  0.00     0.007 C 
ATOM     21  C   UNL     1     176.961 173.914 181.745  1.00  0.00     0.014 C 
ATOM     22  C   UNL     1     179.298 173.350 182.468  1.00  0.00     0.016 C 
ATOM     23  C   UNL     1     177.913 174.480 179.118  1.00  0.00    -0.006 C 
ATOM     24  C   UNL     1     177.108 175.405 181.459  1.00  0.00     0.033 C 
ATOM     25  C   UNL     1     177.536 175.727 180.006  1.00  0.00     0.120 C 
ATOM     26  C   UNL     1     176.624 173.772 178.583  1.00  0.00     0.014 C 
ATOM     27  C   UNL     1     178.691 175.001 177.874  1.00  0.00     0.014 C 
BRANCH   7  28
ATOM     28  O   UNL     1     179.064 165.914 180.938  1.00  0.00    -0.393 OA
ATOM     29  H   UNL     1     179.762 165.741 180.258  1.00  0.00     0.210 HD
ENDBRANCH   7  28
BRANCH  25  30
ATOM     30  O   UNL     1     178.568 176.686 180.030  1.00  0.00    -0.393 OA
ATOM     31  H   UNL     1     178.153 177.582 180.152  1.00  0.00     0.210 HD
ENDBRANCH  25  30
ENDBRANCH   2   6
ENDBRANCH   1   2
BRANCH   1  32
ATOM     32  C   UNL     1     175.498 164.036 182.214  1.00  0.00     0.031 C 
BRANCH  32  33
ATOM     33  C   UNL     1     176.699 163.581 183.021  1.00  0.00    -0.075 C 
ATOM     34  C   UNL     1     177.379 164.477 183.762  1.00  0.00     0.008 C 
BRANCH  33  35
ATOM     35  C   UNL     1     177.188 162.144 182.896  1.00  0.00     0.008 C 
ATOM     36  C   UNL     1     176.021 161.148 182.913  1.00  0.00     0.012 C 
ATOM     37  C   UNL     1     178.214 161.807 183.988  1.00  0.00     0.012 C 
ENDBRANCH  33  35
ENDBRANCH  32  33
ENDBRANCH   1  32
TORSDOF 8
ENDMDL
MODEL 2
REMARK VINA RESULT:    -6.980      2.288      9.183
REMARK INTER + INTRA:         -10.468
REMARK INTER:                  -9.254
REMARK INTRA:                  -1.214
REMARK UNBOUND:                -0.631
REMARK SMILES C=C(CC[C@@H](C(=O)[O-])[C@H]1[C@H](O)C[C@@]2(C)C3=C(CC[C@]12C)[C@]1(C)CC[C@@H](O)C(C)(C)[C@@H]1CC3)C(C)C
REMARK SMILES IDX 4 1 5 2 6 3 7 4 8 5 9 6 10 7 19 8 12 9 13 10 18 11 20 12
REMARK SMILES IDX 14 13 15 14 17 15 16 16 32 17 21 18 31 19 30 20 23 21 22 22
REMARK SMILES IDX 27 23 24 24 25 25 28 26 29 27 11 28 26 30 3 32 2 33 1 34
REMARK SMILES IDX 33 35 34 36 35 37
REMARK H PARENT 11 29 26 31
REMARK Flexibility Score: inf
ROOT
ATOM      1  C   UNL     1     177.221 175.153 176.757  1.00  0.00     0.014 C 
ENDROOT
BRANCH   1   2
ATOM      2  C   UNL     1     178.586 174.871 177.444  1.00  0.00     0.042 C 
BRANCH   2   3
ATOM      3  C   UNL     1     179.574 175.954 177.101  1.00  0.00     0.045 C 
ATOM      4  O   UNL     1     179.913 176.792 177.975  1.00  0.00    -0.550 OA
ATOM      5  O   UNL     1     180.124 176.040 175.830  1.00  0.00    -0.550 OA
ENDBRANCH   2   3
BRANCH   2   6
ATOM      6  C   UNL     1     178.513 174.597 178.988  1.00  0.00     0.033 C 
ATOM      7  C   UNL     1     177.157 175.035 179.628  1.00  0.00     0.119 C 
ATOM      8  C   UNL     1     178.655 173.111 179.454  1.00  0.00    -0.017 C 
ATOM      9  C   UNL     1     176.794 173.978 180.694  1.00  0.00     0.043 C 
ATOM     10  C   UNL     1     178.078 173.159 180.899  1.00  0.00    -0.003 C 
ATOM     11  C   UNL     1     180.087 172.555 179.543  1.00  0.00     0.012 C 
ATOM     12  C   UNL     1     177.822 172.173 178.505  1.00  0.00     0.013 C 
ATOM     13  C   UNL     1     178.958 173.918 181.945  1.00  0.00     0.017 C 
ATOM     14  C   UNL     1     177.943 171.743 181.444  1.00  0.00    -0.064 C 
ATOM     15  C   UNL     1     180.125 171.185 180.275  1.00  0.00     0.032 C 
ATOM     16  C   UNL     1     178.937 170.833 181.206  1.00  0.00    -0.064 C 
ATOM     17  C   UNL     1     176.847 171.409 182.420  1.00  0.00     0.032 C 
ATOM     18  C   UNL     1     178.960 169.488 181.981  1.00  0.00    -0.008 C 
ATOM     19  C   UNL     1     176.361 170.001 182.147  1.00  0.00     0.009 C 
ATOM     20  C   UNL     1     177.491 168.945 182.326  1.00  0.00     0.007 C 
ATOM     21  C   UNL     1     179.790 168.422 181.189  1.00  0.00     0.014 C 
ATOM     22  C   UNL     1     179.723 169.777 183.302  1.00  0.00     0.016 C 
ATOM     23  C   UNL     1     177.110 167.570 181.653  1.00  0.00    -0.006 C 
ATOM     24  C   UNL     1     179.690 167.010 181.758  1.00  0.00     0.033 C 
ATOM     25  C   UNL     1     178.236 166.503 181.928  1.00  0.00     0.120 C 
ATOM     26  C   UNL     1     176.872 167.741 180.115  1.00  0.00     0.014 C 
ATOM     27  C   UNL     1     175.782 167.025 182.256  1.00  0.00     0.014 C 
BRANCH   7  28
ATOM     28  O   UNL     1     177.282 176.289 180.248  1.00  0.00    -0.393 OA
ATOM     29  H   UNL     1     178.183 176.329 180.655  1.00  0.00     0.210 HD
ENDBRANCH   7  28
BRANCH  25  30
ATOM     30  O   UNL     1     178.099 165.909 183.199  1.00  0.00    -0.393 OA
ATOM     31  H   UNL     1     177.447 165.161 183.120  1.00  0.00     0.210 HD
ENDBRANCH  25  30
ENDBRANCH   2   6
ENDBRANCH   1   2
BRANCH   1  32
ATOM     32  C   UNL     1     177.213 175.271 175.214  1.00  0.00     0.031 C 
BRANCH  32  33
ATOM     33  C   UNL     1     177.238 173.939 174.490  1.00  0.00    -0.075 C 
ATOM     34  C   UNL     1     176.277 173.029 174.739  1.00  0.00     0.008 C 
BRANCH  33  35
ATOM     35  C   UNL     1     178.411 173.600 173.578  1.00  0.00     0.008 C 
ATOM     36  C   UNL     1     179.564 172.956 174.359  1.00  0.00     0.012 C 
ATOM     37  C   UNL     1     178.894 174.839 172.808  1.00  0.00     0.012 C 
ENDBRANCH  33  35
ENDBRANCH  32  33
ENDBRANCH   1  32
TORSDOF 8
ENDMDL
MODEL 3
REMARK VINA RESULT:    -6.848      7.948     12.604
REMARK INTER + INTRA:         -10.282
REMARK INTER:                  -9.262
REMARK INTRA:                  -1.021
REMARK UNBOUND:                -0.631
REMARK SMILES C=C(CC[C@@H](C(=O)[O-])[C@H]1[C@H](O)C[C@@]2(C)C3=C(CC[C@]12C)[C@]1(C)CC[C@@H](O)C(C)(C)[C@@H]1CC3)C(C)C
REMARK SMILES IDX 4 1 5 2 6 3 7 4 8 5 9 6 10 7 19 8 12 9 13 10 18 11 20 12
REMARK SMILES IDX 14 13 15 14 17 15 16 16 32 17 21 18 31 19 30 20 23 21 22 22
REMARK SMILES IDX 27 23 24 24 25 25 28 26 29 27 11 28 26 30 3 32 2 33 1 34
REMARK SMILES IDX 33 35 34 36 35 37
REMARK H PARENT 11 29 26 31
REMARK Flexibility Score: inf
ROOT
ATOM      1  C   UNL     1     165.338 162.868 182.264  1.00  0.00     0.014 C 
ENDROOT
BRANCH   1   2
ATOM      2  C   UNL     1     166.472 161.823 182.450  1.00  0.00     0.042 C 
BRANCH   2   3
ATOM      3  C   UNL     1     165.889 160.478 182.792  1.00  0.00     0.045 C 
ATOM      4  O   UNL     1     165.169 159.877 181.956  1.00  0.00    -0.550 OA
ATOM      5  O   UNL     1     166.139 159.885 184.022  1.00  0.00    -0.550 OA
ENDBRANCH   2   3
BRANCH   2   6
ATOM      6  C   UNL     1     167.507 161.743 181.272  1.00  0.00     0.033 C 
ATOM      7  C   UNL     1     167.521 163.023 180.377  1.00  0.00     0.119 C 
ATOM      8  C   UNL     1     169.012 161.571 181.659  1.00  0.00    -0.017 C 
ATOM      9  C   UNL     1     168.992 163.288 179.985  1.00  0.00     0.043 C 
ATOM     10  C   UNL     1     169.742 161.999 180.352  1.00  0.00    -0.003 C 
ATOM     11  C   UNL     1     169.472 160.143 182.002  1.00  0.00     0.012 C 
ATOM     12  C   UNL     1     169.361 162.505 182.875  1.00  0.00     0.013 C 
ATOM     13  C   UNL     1     169.595 161.009 179.150  1.00  0.00     0.017 C 
ATOM     14  C   UNL     1     171.240 162.093 180.609  1.00  0.00    -0.064 C 
ATOM     15  C   UNL     1     171.020 160.046 182.092  1.00  0.00     0.032 C 
ATOM     16  C   UNL     1     171.854 161.138 181.375  1.00  0.00    -0.064 C 
ATOM     17  C   UNL     1     172.077 163.089 179.852  1.00  0.00     0.032 C 
ATOM     18  C   UNL     1     173.403 161.051 181.414  1.00  0.00    -0.008 C 
ATOM     19  C   UNL     1     173.162 163.614 180.769  1.00  0.00     0.009 C 
ATOM     20  C   UNL     1     174.108 162.483 181.267  1.00  0.00     0.007 C 
ATOM     21  C   UNL     1     173.870 160.316 182.715  1.00  0.00     0.014 C 
ATOM     22  C   UNL     1     173.805 160.156 180.211  1.00  0.00     0.016 C 
ATOM     23  C   UNL     1     174.953 162.945 182.517  1.00  0.00    -0.006 C 
ATOM     24  C   UNL     1     175.376 160.373 182.953  1.00  0.00     0.033 C 
ATOM     25  C   UNL     1     175.960 161.808 182.939  1.00  0.00     0.120 C 
ATOM     26  C   UNL     1     174.024 163.335 183.714  1.00  0.00     0.014 C 
ATOM     27  C   UNL     1     175.789 164.212 182.164  1.00  0.00     0.014 C 
BRANCH   7  28
ATOM     28  O   UNL     1     166.763 162.823 179.211  1.00  0.00    -0.393 OA
ATOM     29  H   UNL     1     166.680 163.701 178.760  1.00  0.00     0.210 HD
ENDBRANCH   7  28
BRANCH  25  30
ATOM     30  O   UNL     1     177.130 161.823 182.153  1.00  0.00    -0.393 OA
ATOM     31  H   UNL     1     177.812 162.371 182.627  1.00  0.00     0.210 HD
ENDBRANCH  25  30
ENDBRANCH   2   6
ENDBRANCH   1   2
BRANCH   1  32
ATOM     32  C   UNL     1     164.261 162.954 183.373  1.00  0.00     0.031 C 
BRANCH  32  33
ATOM     33  C   UNL     1     162.836 162.903 182.859  1.00  0.00    -0.075 C 
ATOM     34  C   UNL     1     162.227 164.040 182.473  1.00  0.00     0.008 C 
BRANCH  33  35
ATOM     35  C   UNL     1     162.072 161.584 182.891  1.00  0.00     0.008 C 
ATOM     36  C   UNL     1     161.888 161.006 181.482  1.00  0.00     0.012 C 
ATOM     37  C   UNL     1     160.719 161.742 183.601  1.00  0.00     0.012 C 
ENDBRANCH  33  35
ENDBRANCH  32  33
ENDBRANCH   1  32
TORSDOF 8
ENDMDL
MODEL 4
REMARK VINA RESULT:    -6.757      7.823     11.502
REMARK INTER + INTRA:         -10.153
REMARK INTER:                  -8.880
REMARK INTRA:                  -1.273
REMARK UNBOUND:                -0.631
REMARK SMILES C=C(CC[C@@H](C(=O)[O-])[C@H]1[C@H](O)C[C@@]2(C)C3=C(CC[C@]12C)[C@]1(C)CC[C@@H](O)C(C)(C)[C@@H]1CC3)C(C)C
REMARK SMILES IDX 4 1 5 2 6 3 7 4 8 5 9 6 10 7 19 8 12 9 13 10 18 11 20 12
REMARK SMILES IDX 14 13 15 14 17 15 16 16 32 17 21 18 31 19 30 20 23 21 22 22
REMARK SMILES IDX 27 23 24 24 25 25 28 26 29 27 11 28 26 30 3 32 2 33 1 34
REMARK SMILES IDX 33 35 34 36 35 37
REMARK H PARENT 11 29 26 31
REMARK Flexibility Score: inf
ROOT
ATOM      1  C   UNL     1     174.083 174.698 181.016  1.00  0.00     0.014 C 
ENDROOT
BRANCH   1   2
ATOM      2  C   UNL     1     174.132 175.991 181.875  1.00  0.00     0.042 C 
BRANCH   2   3
ATOM      3  C   UNL     1     175.560 176.396 182.124  1.00  0.00     0.045 C 
ATOM      4  O   UNL     1     176.019 176.389 183.294  1.00  0.00    -0.550 OA
ATOM      5  O   UNL     1     176.386 176.776 181.075  1.00  0.00    -0.550 OA
ENDBRANCH   2   3
BRANCH   2   6
ATOM      6  C   UNL     1     173.257 177.180 181.343  1.00  0.00     0.033 C 
ATOM      7  C   UNL     1     173.229 177.276 179.785  1.00  0.00     0.119 C 
ATOM      8  C   UNL     1     171.740 177.171 181.720  1.00  0.00    -0.017 C 
ATOM      9  C   UNL     1     171.797 177.692 179.380  1.00  0.00     0.043 C 
ATOM     10  C   UNL     1     171.133 178.161 180.682  1.00  0.00    -0.003 C 
ATOM     11  C   UNL     1     171.379 177.690 183.123  1.00  0.00     0.012 C 
ATOM     12  C   UNL     1     171.162 175.717 181.570  1.00  0.00     0.013 C 
ATOM     13  C   UNL     1     171.516 179.663 180.890  1.00  0.00     0.017 C 
ATOM     14  C   UNL     1     169.613 178.122 180.764  1.00  0.00    -0.064 C 
ATOM     15  C   UNL     1     169.847 177.898 183.281  1.00  0.00     0.032 C 
ATOM     16  C   UNL     1     169.006 178.064 181.990  1.00  0.00    -0.064 C 
ATOM     17  C   UNL     1     168.782 178.372 179.534  1.00  0.00     0.032 C 
ATOM     18  C   UNL     1     167.478 178.310 182.112  1.00  0.00    -0.008 C 
ATOM     19  C   UNL     1     167.551 177.492 179.588  1.00  0.00     0.009 C 
ATOM     20  C   UNL     1     166.663 177.800 180.829  1.00  0.00     0.007 C 
ATOM     21  C   UNL     1     166.930 177.664 183.429  1.00  0.00     0.014 C 
ATOM     22  C   UNL     1     167.309 179.847 182.249  1.00  0.00     0.016 C 
ATOM     23  C   UNL     1     165.635 176.636 181.107  1.00  0.00    -0.006 C 
ATOM     24  C   UNL     1     165.409 177.662 183.532  1.00  0.00     0.033 C 
ATOM     25  C   UNL     1     164.697 177.021 182.315  1.00  0.00     0.120 C 
ATOM     26  C   UNL     1     166.374 175.285 181.388  1.00  0.00     0.014 C 
ATOM     27  C   UNL     1     164.732 176.404 179.860  1.00  0.00     0.014 C 
BRANCH   7  28
ATOM     28  O   UNL     1     174.136 178.246 179.329  1.00  0.00    -0.393 OA
ATOM     29  H   UNL     1     175.044 177.940 179.575  1.00  0.00     0.210 HD
ENDBRANCH   7  28
BRANCH  25  30
ATOM     30  O   UNL     1     163.633 177.852 181.910  1.00  0.00    -0.393 OA
ATOM     31  H   UNL     1     163.168 177.408 181.151  1.00  0.00     0.210 HD
ENDBRANCH  25  30
ENDBRANCH   2   6
ENDBRANCH   1   2
BRANCH   1  32
ATOM     32  C   UNL     1     174.947 173.501 181.482  1.00  0.00     0.031 C 
BRANCH  32  33
ATOM     33  C   UNL     1     174.509 172.897 182.801  1.00  0.00    -0.075 C 
ATOM     34  C   UNL     1     173.205 172.640 183.015  1.00  0.00     0.008 C 
BRANCH  33  35
ATOM     35  C   UNL     1     175.533 172.693 183.912  1.00  0.00     0.008 C 
ATOM     36  C   UNL     1     175.232 173.583 185.125  1.00  0.00     0.012 C 
ATOM     37  C   UNL     1     176.963 172.927 183.401  1.00  0.00     0.012 C 
ENDBRANCH  33  35
ENDBRANCH  32  33
ENDBRANCH   1  32
TORSDOF 8
ENDMDL
MODEL 5
REMARK VINA RESULT:    -6.653      2.032      2.976
REMARK INTER + INTRA:         -10.007
REMARK INTER:                  -8.759
REMARK INTRA:                  -1.248
REMARK UNBOUND:                -0.631
REMARK SMILES C=C(CC[C@@H](C(=O)[O-])[C@H]1[C@H](O)C[C@@]2(C)C3=C(CC[C@]12C)[C@]1(C)CC[C@@H](O)C(C)(C)[C@@H]1CC3)C(C)C
REMARK SMILES IDX 4 1 5 2 6 3 7 4 8 5 9 6 10 7 19 8 12 9 13 10 18 11 20 12
REMARK SMILES IDX 14 13 15 14 17 15 16 16 32 17 21 18 31 19 30 20 23 21 22 22
REMARK SMILES IDX 27 23 24 24 25 25 28 26 29 27 11 28 26 30 3 32 2 33 1 34
REMARK SMILES IDX 33 35 34 36 35 37
REMARK H PARENT 11 29 26 31
REMARK Flexibility Score: inf
ROOT
ATOM      1  C   UNL     1     175.799 166.686 181.053  1.00  0.00     0.014 C 
ENDROOT
BRANCH   1   2
ATOM      2  C   UNL     1     177.049 167.073 181.891  1.00  0.00     0.042 C 
BRANCH   2   3
ATOM      3  C   UNL     1     177.894 165.856 182.156  1.00  0.00     0.045 C 
ATOM      4  O   UNL     1     178.496 165.293 181.208  1.00  0.00    -0.550 OA
ATOM      5  O   UNL     1     178.024 165.345 183.440  1.00  0.00    -0.550 OA
ENDBRANCH   2   3
BRANCH   2   6
ATOM      6  C   UNL     1     177.888 168.271 181.323  1.00  0.00     0.033 C 
ATOM      7  C   UNL     1     177.886 168.342 179.763  1.00  0.00     0.119 C 
ATOM      8  C   UNL     1     177.443 169.712 181.738  1.00  0.00    -0.017 C 
ATOM      9  C   UNL     1     177.828 169.835 179.374  1.00  0.00     0.043 C 
ATOM     10  C   UNL     1     178.146 170.598 180.669  1.00  0.00    -0.003 C 
ATOM     11  C   UNL     1     177.903 170.199 183.123  1.00  0.00     0.012 C 
ATOM     12  C   UNL     1     175.876 169.824 181.674  1.00  0.00     0.013 C 
ATOM     13  C   UNL     1     179.702 170.686 180.793  1.00  0.00     0.017 C 
ATOM     14  C   UNL     1     177.655 172.035 180.791  1.00  0.00    -0.064 C 
ATOM     15  C   UNL     1     177.648 171.721 183.308  1.00  0.00     0.032 C 
ATOM     16  C   UNL     1     177.483 172.585 182.033  1.00  0.00    -0.064 C 
ATOM     17  C   UNL     1     177.575 172.913 179.571  1.00  0.00     0.032 C 
ATOM     18  C   UNL     1     177.263 174.114 182.181  1.00  0.00    -0.008 C 
ATOM     19  C   UNL     1     176.369 173.820 179.699  1.00  0.00     0.009 C 
ATOM     20  C   UNL     1     176.462 174.748 180.945  1.00  0.00     0.007 C 
ATOM     21  C   UNL     1     176.554 174.429 183.541  1.00  0.00     0.014 C 
ATOM     22  C   UNL     1     178.682 174.739 182.247  1.00  0.00     0.016 C 
ATOM     23  C   UNL     1     175.059 175.373 181.306  1.00  0.00    -0.006 C 
ATOM     24  C   UNL     1     176.099 175.877 183.683  1.00  0.00     0.033 C 
ATOM     25  C   UNL     1     175.208 176.373 182.516  1.00  0.00     0.120 C 
ATOM     26  C   UNL     1     174.011 174.258 181.634  1.00  0.00     0.014 C 
ATOM     27  C   UNL     1     174.498 176.176 180.095  1.00  0.00     0.014 C 
BRANCH   7  28
ATOM     28  O   UNL     1     179.059 167.775 179.237  1.00  0.00    -0.393 OA
ATOM     29  H   UNL     1     179.745 168.487 179.213  1.00  0.00     0.210 HD
ENDBRANCH   7  28
BRANCH  25  30
ATOM     30  O   UNL     1     175.656 177.642 182.098  1.00  0.00    -0.393 OA
ATOM     31  H   UNL     1     175.310 178.318 182.741  1.00  0.00     0.210 HD
ENDBRANCH  25  30
ENDBRANCH   2   6
ENDBRANCH   1   2
BRANCH   1  32
ATOM     32  C   UNL     1     174.919 165.528 181.583  1.00  0.00     0.031 C 
BRANCH  32  33
ATOM     33  C   UNL     1     174.133 165.868 182.833  1.00  0.00    -0.075 C 
ATOM     34  C   UNL     1     173.492 167.050 182.915  1.00  0.00     0.008 C 
BRANCH  33  35
ATOM     35  C   UNL     1     174.171 164.921 184.027  1.00  0.00     0.008 C 
ATOM     36  C   UNL     1     175.113 165.435 185.123  1.00  0.00     0.012 C 
ATOM     37  C   UNL     1     174.554 163.498 183.596  1.00  0.00     0.012 C 
ENDBRANCH  33  35
ENDBRANCH  32  33
ENDBRANCH   1  32
TORSDOF 8
ENDMDL
MODEL 6
REMARK VINA RESULT:    -6.619      1.500      2.027
REMARK INTER + INTRA:          -9.958
REMARK INTER:                  -8.845
REMARK INTRA:                  -1.114
REMARK UNBOUND:                -0.631
REMARK SMILES C=C(CC[C@@H](C(=O)[O-])[C@H]1[C@H](O)C[C@@]2(C)C3=C(CC[C@]12C)[C@]1(C)CC[C@@H](O)C(C)(C)[C@@H]1CC3)C(C)C
REMARK SMILES IDX 4 1 5 2 6 3 7 4 8 5 9 6 10 7 19 8 12 9 13 10 18 11 20 12
REMARK SMILES IDX 14 13 15 14 17 15 16 16 32 17 21 18 31 19 30 20 23 21 22 22
REMARK SMILES IDX 27 23 24 24 25 25 28 26 29 27 11 28 26 30 3 32 2 33 1 34
REMARK SMILES IDX 33 35 34 36 35 37
REMARK H PARENT 11 29 26 31
REMARK Flexibility Score: inf
ROOT
ATOM      1  C   UNL     1     175.207 165.008 181.405  1.00  0.00     0.014 C 
ENDROOT
BRANCH   1   2
ATOM      2  C   UNL     1     176.110 166.073 182.086  1.00  0.00     0.042 C 
BRANCH   2   3
ATOM      3  C   UNL     1     176.805 165.478 183.281  1.00  0.00     0.045 C 
ATOM      4  O   UNL     1     178.056 165.355 183.281  1.00  0.00    -0.550 OA
ATOM      5  O   UNL     1     176.084 165.064 184.392  1.00  0.00    -0.550 OA
ENDBRANCH   2   3
BRANCH   2   6
ATOM      6  C   UNL     1     177.104 166.817 181.126  1.00  0.00     0.033 C 
ATOM      7  C   UNL     1     176.725 166.679 179.617  1.00  0.00     0.119 C 
ATOM      8  C   UNL     1     177.247 168.363 181.310  1.00  0.00    -0.017 C 
ATOM      9  C   UNL     1     177.034 168.035 178.944  1.00  0.00     0.043 C 
ATOM     10  C   UNL     1     177.892 168.800 179.962  1.00  0.00    -0.003 C 
ATOM     11  C   UNL     1     178.175 168.836 182.444  1.00  0.00     0.012 C 
ATOM     12  C   UNL     1     175.830 169.007 181.534  1.00  0.00     0.013 C 
ATOM     13  C   UNL     1     179.376 168.354 179.756  1.00  0.00     0.017 C 
ATOM     14  C   UNL     1     177.917 170.321 179.875  1.00  0.00    -0.064 C 
ATOM     15  C   UNL     1     178.458 170.360 182.354  1.00  0.00     0.032 C 
ATOM     16  C   UNL     1     178.247 171.053 180.984  1.00  0.00    -0.064 C 
ATOM     17  C   UNL     1     177.804 171.005 178.539  1.00  0.00     0.032 C 
ATOM     18  C   UNL     1     178.557 172.568 180.849  1.00  0.00    -0.008 C 
ATOM     19  C   UNL     1     177.012 172.284 178.710  1.00  0.00     0.009 C 
ATOM     20  C   UNL     1     177.703 173.275 179.691  1.00  0.00     0.007 C 
ATOM     21  C   UNL     1     178.353 173.286 182.226  1.00  0.00     0.014 C 
ATOM     22  C   UNL     1     180.066 172.661 180.502  1.00  0.00     0.016 C 
ATOM     23  C   UNL     1     176.703 174.393 180.183  1.00  0.00    -0.006 C 
ATOM     24  C   UNL     1     178.419 174.807 182.149  1.00  0.00     0.033 C 
ATOM     25  C   UNL     1     177.458 175.426 181.104  1.00  0.00     0.120 C 
ATOM     26  C   UNL     1     175.483 173.767 180.937  1.00  0.00     0.014 C 
ATOM     27  C   UNL     1     176.127 175.175 178.965  1.00  0.00     0.014 C 
BRANCH   7  28
ATOM     28  O   UNL     1     177.489 165.675 179.001  1.00  0.00    -0.393 OA
ATOM     29  H   UNL     1     178.085 166.118 178.346  1.00  0.00     0.210 HD
ENDBRANCH   7  28
BRANCH  25  30
ATOM     30  O   UNL     1     178.153 176.392 180.349  1.00  0.00    -0.393 OA
ATOM     31  H   UNL     1     177.649 176.545 179.505  1.00  0.00     0.210 HD
ENDBRANCH  25  30
ENDBRANCH   2   6
ENDBRANCH   1   2
BRANCH   1  32
ATOM     32  C   UNL     1     175.820 163.608 181.159  1.00  0.00     0.031 C 
BRANCH  32  33
ATOM     33  C   UNL     1     175.173 162.497 181.963  1.00  0.00    -0.075 C 
ATOM     34  C   UNL     1     173.895 162.627 182.367  1.00  0.00     0.008 C 
BRANCH  33  35
ATOM     35  C   UNL     1     176.009 161.301 182.402  1.00  0.00     0.008 C 
ATOM     36  C   UNL     1     175.170 160.286 183.188  1.00  0.00     0.012 C 
ATOM     37  C   UNL     1     177.236 161.746 183.212  1.00  0.00     0.012 C 
ENDBRANCH  33  35
ENDBRANCH  32  33
ENDBRANCH   1  32
TORSDOF 8
ENDMDL
MODEL 7
REMARK VINA RESULT:    -6.615      2.085      3.679
REMARK INTER + INTRA:          -9.953
REMARK INTER:                  -8.105
REMARK INTRA:                  -1.848
REMARK UNBOUND:                -0.631
REMARK SMILES C=C(CC[C@@H](C(=O)[O-])[C@H]1[C@H](O)C[C@@]2(C)C3=C(CC[C@]12C)[C@]1(C)CC[C@@H](O)C(C)(C)[C@@H]1CC3)C(C)C
REMARK SMILES IDX 4 1 5 2 6 3 7 4 8 5 9 6 10 7 19 8 12 9 13 10 18 11 20 12
REMARK SMILES IDX 14 13 15 14 17 15 16 16 32 17 21 18 31 19 30 20 23 21 22 22
REMARK SMILES IDX 27 23 24 24 25 25 28 26 29 27 11 28 26 30 3 32 2 33 1 34
REMARK SMILES IDX 33 35 34 36 35 37
REMARK H PARENT 11 29 26 31
REMARK Flexibility Score: inf
ROOT
ATOM      1  C   UNL     1     175.021 164.282 180.774  1.00  0.00     0.014 C 
ENDROOT
BRANCH   1   2
ATOM      2  C   UNL     1     176.418 164.893 180.477  1.00  0.00     0.042 C 
BRANCH   2   3
ATOM      3  C   UNL     1     177.340 163.838 179.925  1.00  0.00     0.045 C 
ATOM      4  O   UNL     1     178.291 163.409 180.626  1.00  0.00    -0.550 OA
ATOM      5  O   UNL     1     177.153 163.325 178.649  1.00  0.00    -0.550 OA
ENDBRANCH   2   3
BRANCH   2   6
ATOM      6  C   UNL     1     176.406 166.193 179.599  1.00  0.00     0.033 C 
ATOM      7  C   UNL     1     174.970 166.630 179.165  1.00  0.00     0.119 C 
ATOM      8  C   UNL     1     176.985 167.494 180.245  1.00  0.00    -0.017 C 
ATOM      9  C   UNL     1     174.929 168.173 179.217  1.00  0.00     0.043 C 
ATOM     10  C   UNL     1     176.396 168.610 179.333  1.00  0.00    -0.003 C 
ATOM     11  C   UNL     1     178.517 167.642 180.231  1.00  0.00     0.012 C 
ATOM     12  C   UNL     1     176.494 167.613 181.734  1.00  0.00     0.013 C 
ATOM     13  C   UNL     1     176.986 168.670 177.886  1.00  0.00     0.017 C 
ATOM     14  C   UNL     1     176.690 169.975 179.940  1.00  0.00    -0.064 C 
ATOM     15  C   UNL     1     178.958 169.075 180.636  1.00  0.00     0.032 C 
ATOM     16  C   UNL     1     177.918 170.216 180.495  1.00  0.00    -0.064 C 
ATOM     17  C   UNL     1     175.731 171.117 179.734  1.00  0.00     0.032 C 
ATOM     18  C   UNL     1     178.337 171.666 180.857  1.00  0.00    -0.008 C 
ATOM     19  C   UNL     1     175.703 171.965 180.989  1.00  0.00     0.009 C 
ATOM     20  C   UNL     1     177.097 172.572 181.319  1.00  0.00     0.007 C 
ATOM     21  C   UNL     1     179.466 171.648 181.942  1.00  0.00     0.014 C 
ATOM     22  C   UNL     1     178.953 172.261 179.562  1.00  0.00     0.016 C 
ATOM     23  C   UNL     1     177.164 173.090 182.808  1.00  0.00    -0.006 C 
ATOM     24  C   UNL     1     179.791 173.021 182.521  1.00  0.00     0.033 C 
ATOM     25  C   UNL     1     178.558 173.776 183.079  1.00  0.00     0.120 C 
ATOM     26  C   UNL     1     176.913 171.926 183.823  1.00  0.00     0.014 C 
ATOM     27  C   UNL     1     176.055 174.155 183.059  1.00  0.00     0.014 C 
BRANCH   7  28
ATOM     28  O   UNL     1     174.696 166.207 177.854  1.00  0.00    -0.393 OA
ATOM     29  H   UNL     1     175.503 166.388 177.311  1.00  0.00     0.210 HD
ENDBRANCH   7  28
BRANCH  25  30
ATOM     30  O   UNL     1     178.586 175.109 182.623  1.00  0.00    -0.393 OA
ATOM     31  H   UNL     1     179.483 175.281 182.229  1.00  0.00     0.210 HD
ENDBRANCH  25  30
ENDBRANCH   2   6
ENDBRANCH   1   2
BRANCH   1  32
ATOM     32  C   UNL     1     174.590 164.180 182.258  1.00  0.00     0.031 C 
BRANCH  32  33
ATOM     33  C   UNL     1     175.626 163.540 183.161  1.00  0.00    -0.075 C 
ATOM     34  C   UNL     1     175.914 162.232 183.020  1.00  0.00     0.008 C 
BRANCH  33  35
ATOM     35  C   UNL     1     176.245 164.355 184.291  1.00  0.00     0.008 C 
ATOM     36  C   UNL     1     175.354 165.541 184.682  1.00  0.00     0.012 C 
ATOM     37  C   UNL     1     177.660 164.826 183.927  1.00  0.00     0.012 C 
ENDBRANCH  33  35
ENDBRANCH  32  33
ENDBRANCH   1  32
TORSDOF 8
ENDMDL
MODEL 8
REMARK VINA RESULT:    -6.591     12.312     15.315
REMARK INTER + INTRA:          -9.919
REMARK INTER:                  -8.055
REMARK INTRA:                  -1.864
REMARK UNBOUND:                -0.631
REMARK SMILES C=C(CC[C@@H](C(=O)[O-])[C@H]1[C@H](O)C[C@@]2(C)C3=C(CC[C@]12C)[C@]1(C)CC[C@@H](O)C(C)(C)[C@@H]1CC3)C(C)C
REMARK SMILES IDX 4 1 5 2 6 3 7 4 8 5 9 6 10 7 19 8 12 9 13 10 18 11 20 12
REMARK SMILES IDX 14 13 15 14 17 15 16 16 32 17 21 18 31 19 30 20 23 21 22 22
REMARK SMILES IDX 27 23 24 24 25 25 28 26 29 27 11 28 26 30 3 32 2 33 1 34
REMARK SMILES IDX 33 35 34 36 35 37
REMARK H PARENT 11 29 26 31
REMARK Flexibility Score: inf
ROOT
ATOM      1  C   UNL     1     165.089 160.419 182.304  1.00  0.00     0.014 C 
ENDROOT
BRANCH   1   2
ATOM      2  C   UNL     1     165.213 161.380 181.089  1.00  0.00     0.042 C 
BRANCH   2   3
ATOM      3  C   UNL     1     166.003 160.727 179.988  1.00  0.00     0.045 C 
ATOM      4  O   UNL     1     165.454 159.875 179.244  1.00  0.00    -0.550 OA
ATOM      5  O   UNL     1     167.335 161.053 179.775  1.00  0.00    -0.550 OA
ENDBRANCH   2   3
BRANCH   2   6
ATOM      6  C   UNL     1     163.859 161.985 180.575  1.00  0.00     0.033 C 
ATOM      7  C   UNL     1     162.609 161.425 181.326  1.00  0.00     0.119 C 
ATOM      8  C   UNL     1     163.678 163.533 180.702  1.00  0.00    -0.017 C 
ATOM      9  C   UNL     1     161.618 162.598 181.498  1.00  0.00     0.043 C 
ATOM     10  C   UNL     1     162.136 163.701 180.563  1.00  0.00    -0.003 C 
ATOM     11  C   UNL     1     164.340 164.393 179.611  1.00  0.00     0.012 C 
ATOM     12  C   UNL     1     164.210 164.019 182.100  1.00  0.00     0.013 C 
ATOM     13  C   UNL     1     161.561 163.417 179.137  1.00  0.00     0.017 C 
ATOM     14  C   UNL     1     161.747 165.140 180.871  1.00  0.00    -0.064 C 
ATOM     15  C   UNL     1     163.864 165.870 179.678  1.00  0.00     0.032 C 
ATOM     16  C   UNL     1     162.524 166.164 180.400  1.00  0.00    -0.064 C 
ATOM     17  C   UNL     1     160.409 165.447 181.490  1.00  0.00     0.032 C 
ATOM     18  C   UNL     1     162.001 167.624 180.453  1.00  0.00    -0.008 C 
ATOM     19  C   UNL     1     160.567 166.612 182.444  1.00  0.00     0.009 C 
ATOM     20  C   UNL     1     161.060 167.900 181.722  1.00  0.00     0.007 C 
ATOM     21  C   UNL     1     163.201 168.630 180.405  1.00  0.00     0.014 C 
ATOM     22  C   UNL     1     161.180 167.825 179.152  1.00  0.00     0.016 C 
ATOM     23  C   UNL     1     161.613 168.962 182.749  1.00  0.00    -0.006 C 
ATOM     24  C   UNL     1     162.807 170.079 180.672  1.00  0.00     0.033 C 
ATOM     25  C   UNL     1     162.022 170.284 181.992  1.00  0.00     0.120 C 
ATOM     26  C   UNL     1     162.825 168.390 183.556  1.00  0.00     0.014 C 
ATOM     27  C   UNL     1     160.514 169.332 183.788  1.00  0.00     0.014 C 
BRANCH   7  28
ATOM     28  O   UNL     1     161.993 160.409 180.577  1.00  0.00    -0.393 OA
ATOM     29  H   UNL     1     161.044 160.664 180.459  1.00  0.00     0.210 HD
ENDBRANCH   7  28
BRANCH  25  30
ATOM     30  O   UNL     1     160.910 171.114 181.745  1.00  0.00    -0.393 OA
ATOM     31  H   UNL     1     161.225 172.057 181.738  1.00  0.00     0.210 HD
ENDBRANCH  25  30
ENDBRANCH   2   6
ENDBRANCH   1   2
BRANCH   1  32
ATOM     32  C   UNL     1     165.768 160.853 183.626  1.00  0.00     0.031 C 
BRANCH  32  33
ATOM     33  C   UNL     1     167.230 161.225 183.479  1.00  0.00    -0.075 C 
ATOM     34  C   UNL     1     168.122 160.283 183.118  1.00  0.00     0.008 C 
BRANCH  33  35
ATOM     35  C   UNL     1     167.690 162.630 183.850  1.00  0.00     0.008 C 
ATOM     36  C   UNL     1     166.709 163.306 184.817  1.00  0.00     0.012 C 
ATOM     37  C   UNL     1     167.911 163.492 182.599  1.00  0.00     0.012 C 
ENDBRANCH  33  35
ENDBRANCH  32  33
ENDBRANCH   1  32
TORSDOF 8
ENDMDL
MODEL 9
REMARK VINA RESULT:    -6.575      5.434     11.138
REMARK INTER + INTRA:          -9.897
REMARK INTER:                  -8.257
REMARK INTRA:                  -1.640
REMARK UNBOUND:                -0.631
REMARK SMILES C=C(CC[C@@H](C(=O)[O-])[C@H]1[C@H](O)C[C@@]2(C)C3=C(CC[C@]12C)[C@]1(C)CC[C@@H](O)C(C)(C)[C@@H]1CC3)C(C)C
REMARK SMILES IDX 4 1 5 2 6 3 7 4 8 5 9 6 10 7 19 8 12 9 13 10 18 11 20 12
REMARK SMILES IDX 14 13 15 14 17 15 16 16 32 17 21 18 31 19 30 20 23 21 22 22
REMARK SMILES IDX 27 23 24 24 25 25 28 26 29 27 11 28 26 30 3 32 2 33 1 34
REMARK SMILES IDX 33 35 34 36 35 37
REMARK H PARENT 11 29 26 31
REMARK Flexibility Score: inf
ROOT
ATOM      1  C   UNL     1     176.539 162.958 183.000  1.00  0.00     0.014 C 
ENDROOT
BRANCH   1   2
ATOM      2  C   UNL     1     175.911 163.273 181.614  1.00  0.00     0.042 C 
BRANCH   2   3
ATOM      3  C   UNL     1     176.982 163.685 180.640  1.00  0.00     0.045 C 
ATOM      4  O   UNL     1     176.697 164.443 179.678  1.00  0.00    -0.550 OA
ATOM      5  O   UNL     1     178.290 163.244 180.789  1.00  0.00    -0.550 OA
ENDBRANCH   2   3
BRANCH   2   6
ATOM      6  C   UNL     1     174.976 162.153 181.034  1.00  0.00     0.033 C 
ATOM      7  C   UNL     1     175.088 160.798 181.801  1.00  0.00     0.119 C 
ATOM      8  C   UNL     1     173.438 162.435 181.046  1.00  0.00    -0.017 C 
ATOM      9  C   UNL     1     173.668 160.195 181.872  1.00  0.00     0.043 C 
ATOM     10  C   UNL     1     172.838 161.009 180.869  1.00  0.00    -0.003 C 
ATOM     11  C   UNL     1     172.893 163.314 179.907  1.00  0.00     0.012 C 
ATOM     12  C   UNL     1     173.028 163.093 182.414  1.00  0.00     0.013 C 
ATOM     13  C   UNL     1     173.044 160.369 179.457  1.00  0.00     0.017 C 
ATOM     14  C   UNL     1     171.328 161.061 181.066  1.00  0.00    -0.064 C 
ATOM     15  C   UNL     1     171.341 163.293 179.859  1.00  0.00     0.032 C 
ATOM     16  C   UNL     1     170.615 162.102 180.535  1.00  0.00    -0.064 C 
ATOM     17  C   UNL     1     170.599 159.875 181.638  1.00  0.00     0.032 C 
ATOM     18  C   UNL     1     169.066 162.030 180.474  1.00  0.00    -0.008 C 
ATOM     19  C   UNL     1     169.464 160.372 182.508  1.00  0.00     0.009 C 
ATOM     20  C   UNL     1     168.434 161.218 181.703  1.00  0.00     0.007 C 
ATOM     21  C   UNL     1     168.462 163.472 180.374  1.00  0.00     0.014 C 
ATOM     22  C   UNL     1     168.729 161.298 179.148  1.00  0.00     0.016 C 
ATOM     23  C   UNL     1     167.507 162.063 182.661  1.00  0.00    -0.006 C 
ATOM     24  C   UNL     1     166.945 163.521 180.529  1.00  0.00     0.033 C 
ATOM     25  C   UNL     1     166.423 162.838 181.817  1.00  0.00     0.120 C 
ATOM     26  C   UNL     1     168.348 163.058 183.528  1.00  0.00     0.014 C 
ATOM     27  C   UNL     1     166.756 161.125 183.651  1.00  0.00     0.014 C 
BRANCH   7  28
ATOM     28  O   UNL     1     175.932 159.907 181.118  1.00  0.00    -0.393 OA
ATOM     29  H   UNL     1     175.488 159.022 181.116  1.00  0.00     0.210 HD
ENDBRANCH   7  28
BRANCH  25  30
ATOM     30  O   UNL     1     165.324 162.017 181.493  1.00  0.00    -0.393 OA
ATOM     31  H   UNL     1     165.196 162.050 180.507  1.00  0.00     0.210 HD
ENDBRANCH  25  30
ENDBRANCH   2   6
ENDBRANCH   1   2
BRANCH   1  32
ATOM     32  C   UNL     1     177.016 164.159 183.853  1.00  0.00     0.031 C 
BRANCH  32  33
ATOM     33  C   UNL     1     175.985 165.259 184.007  1.00  0.00    -0.075 C 
ATOM     34  C   UNL     1     174.941 165.080 184.839  1.00  0.00     0.008 C 
BRANCH  33  35
ATOM     35  C   UNL     1     176.079 166.505 183.135  1.00  0.00     0.008 C 
ATOM     36  C   UNL     1     174.957 166.547 182.090  1.00  0.00     0.012 C 
ATOM     37  C   UNL     1     177.457 166.613 182.465  1.00  0.00     0.012 C 
ENDBRANCH  33  35
ENDBRANCH  32  33
ENDBRANCH   1  32
TORSDOF 8
ENDMDL
