MODEL 1
REMARK VINA RESULT:    -2.792      0.000      0.000
REMARK INTER + INTRA:          -7.600
REMARK INTER:                  -6.057
REMARK INTRA:                  -1.543
REMARK UNBOUND:                -1.543
REMARK SMILES CCCCCCCCCCCCCCCCCCCCCC(=O)[O-]
REMARK SMILES IDX 12 1 11 2 10 3 9 4 8 5 7 6 6 7 5 8 4 9 3 10 2 11 1 12 13 13
REMARK SMILES IDX 14 14 15 15 16 16 17 17 18 18 19 19 20 20 21 21 22 22 23 23
REMARK SMILES IDX 24 24
REMARK H PARENT
REMARK Flexibility Score: inf
ROOT
ATOM      1  C   UNL     1     -15.763  43.363  -6.364  1.00  0.00     0.000 C 
ENDROOT
BRANCH   1   2
ATOM      2  C   UNL     1     -15.262  44.665  -7.021  1.00  0.00     0.000 C 
BRANCH   2   3
ATOM      3  C   UNL     1     -15.284  44.667  -8.560  1.00  0.00     0.000 C 
BRANCH   3   4
ATOM      4  C   UNL     1     -14.652  45.929  -9.165  1.00  0.00    -0.000 C 
BRANCH   4   5
ATOM      5  C   UNL     1     -15.660  46.673 -10.054  1.00  0.00    -0.000 C 
BRANCH   5   6
ATOM      6  C   UNL     1     -14.981  47.619 -11.057  1.00  0.00    -0.000 C 
BRANCH   6   7
ATOM      7  C   UNL     1     -15.398  49.087 -10.862  1.00  0.00    -0.000 C 
BRANCH   7   8
ATOM      8  C   UNL     1     -14.272  49.933 -10.229  1.00  0.00    -0.000 C 
BRANCH   8   9
ATOM      9  C   UNL     1     -14.058  49.659  -8.728  1.00  0.00    -0.000 C 
BRANCH   9  10
ATOM     10  C   UNL     1     -14.829  50.595  -7.784  1.00  0.00    -0.000 C 
BRANCH  10  11
ATOM     11  C   UNL     1     -14.154  51.965  -7.625  1.00  0.00    -0.003 C 
ATOM     12  C   UNL     1     -15.186  53.088  -7.608  1.00  0.00     0.004 C 
ENDBRANCH  10  11
ENDBRANCH   9  10
ENDBRANCH   8   9
ENDBRANCH   7   8
ENDBRANCH   6   7
ENDBRANCH   5   6
ENDBRANCH   4   5
ENDBRANCH   3   4
ENDBRANCH   2   3
ENDBRANCH   1   2
BRANCH   1  13
ATOM     13  C   UNL     1     -16.387  43.532  -4.964  1.00  0.00     0.000 C 
BRANCH  13  14
ATOM     14  C   UNL     1     -17.277  42.363  -4.505  1.00  0.00     0.000 C 
BRANCH  14  15
ATOM     15  C   UNL     1     -18.559  42.830  -3.799  1.00  0.00     0.000 C 
BRANCH  15  16
ATOM     16  C   UNL     1     -19.067  44.146  -4.398  1.00  0.00     0.000 C 
BRANCH  16  17
ATOM     17  C   UNL     1     -19.537  43.948  -5.847  1.00  0.00     0.000 C 
BRANCH  17  18
ATOM     18  C   UNL     1     -19.067  45.069  -6.786  1.00  0.00     0.000 C 
BRANCH  18  19
ATOM     19  C   UNL     1     -18.794  44.568  -8.215  1.00  0.00     0.000 C 
BRANCH  19  20
ATOM     20  C   UNL     1     -20.077  44.123  -8.942  1.00  0.00     0.006 C 
BRANCH  20  21
ATOM     21  C   UNL     1     -19.843  43.584 -10.363  1.00  0.00     0.053 C 
BRANCH  21  22
ATOM     22  C   UNL     1     -18.496  42.945 -10.505  1.00  0.00     0.041 C 
ATOM     23  O   UNL     1     -17.502  43.632 -10.856  1.00  0.00    -0.550 OA
ATOM     24  O   UNL     1     -18.345  41.582 -10.278  1.00  0.00    -0.550 OA
ENDBRANCH  21  22
ENDBRANCH  20  21
ENDBRANCH  19  20
ENDBRANCH  18  19
ENDBRANCH  17  18
ENDBRANCH  16  17
ENDBRANCH  15  16
ENDBRANCH  14  15
ENDBRANCH  13  14
ENDBRANCH   1  13
TORSDOF 20
ENDMDL
MODEL 2
REMARK VINA RESULT:    -2.617      2.499      4.561
REMARK INTER + INTRA:          -7.220
REMARK INTER:                  -5.525
REMARK INTRA:                  -1.695
REMARK UNBOUND:                -1.543
REMARK SMILES CCCCCCCCCCCCCCCCCCCCCC(=O)[O-]
REMARK SMILES IDX 12 1 11 2 10 3 9 4 8 5 7 6 6 7 5 8 4 9 3 10 2 11 1 12 13 13
REMARK SMILES IDX 14 14 15 15 16 16 17 17 18 18 19 19 20 20 21 21 22 22 23 23
REMARK SMILES IDX 24 24
REMARK H PARENT
REMARK Flexibility Score: inf
ROOT
ATOM      1  C   UNL     1     -18.922  45.537 -10.963  1.00  0.00     0.000 C 
ENDROOT
BRANCH   1   2
ATOM      2  C   UNL     1     -17.488  46.105 -10.932  1.00  0.00     0.000 C 
BRANCH   2   3
ATOM      3  C   UNL     1     -16.385  45.069 -10.656  1.00  0.00     0.000 C 
BRANCH   3   4
ATOM      4  C   UNL     1     -14.996  45.539 -11.108  1.00  0.00    -0.000 C 
BRANCH   4   5
ATOM      5  C   UNL     1     -14.452  46.626 -10.168  1.00  0.00    -0.000 C 
BRANCH   5   6
ATOM      6  C   UNL     1     -14.779  46.352  -8.693  1.00  0.00    -0.000 C 
BRANCH   6   7
ATOM      7  C   UNL     1     -13.957  47.227  -7.731  1.00  0.00    -0.000 C 
BRANCH   7   8
ATOM      8  C   UNL     1     -14.697  48.528  -7.349  1.00  0.00    -0.000 C 
BRANCH   8   9
ATOM      9  C   UNL     1     -13.888  49.808  -7.634  1.00  0.00    -0.000 C 
BRANCH   9  10
ATOM     10  C   UNL     1     -14.480  50.716  -8.724  1.00  0.00    -0.000 C 
BRANCH  10  11
ATOM     11  C   UNL     1     -14.021  52.176  -8.593  1.00  0.00    -0.003 C 
ATOM     12  C   UNL     1     -14.854  52.922  -7.555  1.00  0.00     0.004 C 
ENDBRANCH  10  11
ENDBRANCH   9  10
ENDBRANCH   8   9
ENDBRANCH   7   8
ENDBRANCH   6   7
ENDBRANCH   5   6
ENDBRANCH   4   5
ENDBRANCH   3   4
ENDBRANCH   2   3
ENDBRANCH   1   2
BRANCH   1  13
ATOM     13  C   UNL     1     -19.142  44.263 -10.122  1.00  0.00     0.000 C 
BRANCH  13  14
ATOM     14  C   UNL     1     -20.006  44.457  -8.864  1.00  0.00     0.000 C 
BRANCH  14  15
ATOM     15  C   UNL     1     -19.182  44.460  -7.568  1.00  0.00     0.000 C 
BRANCH  15  16
ATOM     16  C   UNL     1     -17.781  43.886  -7.807  1.00  0.00     0.000 C 
BRANCH  16  17
ATOM     17  C   UNL     1     -16.861  44.157  -6.607  1.00  0.00     0.000 C 
BRANCH  17  18
ATOM     18  C   UNL     1     -16.219  42.879  -6.047  1.00  0.00     0.000 C 
BRANCH  18  19
ATOM     19  C   UNL     1     -16.756  42.508  -4.653  1.00  0.00     0.000 C 
BRANCH  19  20
ATOM     20  C   UNL     1     -17.438  43.695  -3.946  1.00  0.00     0.006 C 
BRANCH  20  21
ATOM     21  C   UNL     1     -18.969  43.579  -3.852  1.00  0.00     0.053 C 
BRANCH  21  22
ATOM     22  C   UNL     1     -19.398  42.248  -3.316  1.00  0.00     0.041 C 
ATOM     23  O   UNL     1     -19.620  41.290  -4.102  1.00  0.00    -0.550 OA
ATOM     24  O   UNL     1     -19.582  42.075  -1.950  1.00  0.00    -0.550 OA
ENDBRANCH  21  22
ENDBRANCH  20  21
ENDBRANCH  19  20
ENDBRANCH  18  19
ENDBRANCH  17  18
ENDBRANCH  16  17
ENDBRANCH  15  16
ENDBRANCH  14  15
ENDBRANCH  13  14
ENDBRANCH   1  13
TORSDOF 20
ENDMDL
MODEL 3
REMARK VINA RESULT:    -2.612      3.642      9.021
REMARK INTER + INTRA:          -7.209
REMARK INTER:                  -5.187
REMARK INTRA:                  -2.022
REMARK UNBOUND:                -1.543
REMARK SMILES CCCCCCCCCCCCCCCCCCCCCC(=O)[O-]
REMARK SMILES IDX 12 1 11 2 10 3 9 4 8 5 7 6 6 7 5 8 4 9 3 10 2 11 1 12 13 13
REMARK SMILES IDX 14 14 15 15 16 16 17 17 18 18 19 19 20 20 21 21 22 22 23 23
REMARK SMILES IDX 24 24
REMARK H PARENT
REMARK Flexibility Score: inf
ROOT
ATOM      1  C   UNL     1     -19.626  44.391  -8.120  1.00  0.00     0.000 C 
ENDROOT
BRANCH   1   2
ATOM      2  C   UNL     1     -19.246  44.921  -6.723  1.00  0.00     0.000 C 
BRANCH   2   3
ATOM      3  C   UNL     1     -18.318  44.001  -5.909  1.00  0.00     0.000 C 
BRANCH   3   4
ATOM      4  C   UNL     1     -18.888  43.647  -4.528  1.00  0.00    -0.000 C 
BRANCH   4   5
ATOM      5  C   UNL     1     -18.287  42.333  -4.008  1.00  0.00    -0.000 C 
BRANCH   5   6
ATOM      6  C   UNL     1     -17.553  41.542  -5.101  1.00  0.00    -0.000 C 
BRANCH   6   7
ATOM      7  C   UNL     1     -18.398  40.387  -5.666  1.00  0.00    -0.000 C 
BRANCH   7   8
ATOM      8  C   UNL     1     -17.652  39.036  -5.607  1.00  0.00    -0.000 C 
BRANCH   8   9
ATOM      9  C   UNL     1     -18.120  38.021  -6.668  1.00  0.00    -0.000 C 
BRANCH   9  10
ATOM     10  C   UNL     1     -17.851  36.549  -6.317  1.00  0.00    -0.000 C 
BRANCH  10  11
ATOM     11  C   UNL     1     -19.015  35.625  -6.701  1.00  0.00    -0.003 C 
ATOM     12  C   UNL     1     -20.032  36.356  -7.573  1.00  0.00     0.004 C 
ENDBRANCH  10  11
ENDBRANCH   9  10
ENDBRANCH   8   9
ENDBRANCH   7   8
ENDBRANCH   6   7
ENDBRANCH   5   6
ENDBRANCH   4   5
ENDBRANCH   3   4
ENDBRANCH   2   3
ENDBRANCH   1   2
BRANCH   1  13
ATOM     13  C   UNL     1     -18.702  43.289  -8.678  1.00  0.00     0.000 C 
BRANCH  13  14
ATOM     14  C   UNL     1     -18.411  43.389 -10.186  1.00  0.00     0.000 C 
BRANCH  14  15
ATOM     15  C   UNL     1     -18.335  44.839 -10.685  1.00  0.00     0.000 C 
BRANCH  15  16
ATOM     16  C   UNL     1     -16.891  45.232 -11.012  1.00  0.00     0.000 C 
BRANCH  16  17
ATOM     17  C   UNL     1     -15.930  44.059 -10.764  1.00  0.00     0.000 C 
BRANCH  17  18
ATOM     18  C   UNL     1     -14.675  44.471  -9.980  1.00  0.00     0.000 C 
BRANCH  18  19
ATOM     19  C   UNL     1     -14.929  44.575  -8.467  1.00  0.00     0.000 C 
BRANCH  19  20
ATOM     20  C   UNL     1     -14.447  45.914  -7.875  1.00  0.00     0.006 C 
BRANCH  20  21
ATOM     21  C   UNL     1     -15.418  47.086  -8.093  1.00  0.00     0.053 C 
BRANCH  21  22
ATOM     22  C   UNL     1     -14.872  48.373  -7.558  1.00  0.00     0.041 C 
ATOM     23  O   UNL     1     -14.579  48.478  -6.338  1.00  0.00    -0.550 OA
ATOM     24  O   UNL     1     -14.713  49.466  -8.400  1.00  0.00    -0.550 OA
ENDBRANCH  21  22
ENDBRANCH  20  21
ENDBRANCH  19  20
ENDBRANCH  18  19
ENDBRANCH  17  18
ENDBRANCH  16  17
ENDBRANCH  15  16
ENDBRANCH  14  15
ENDBRANCH  13  14
ENDBRANCH   1  13
TORSDOF 20
ENDMDL
MODEL 4
REMARK VINA RESULT:    -2.544      3.040      7.813
REMARK INTER + INTRA:          -7.061
REMARK INTER:                  -5.071
REMARK INTRA:                  -1.990
REMARK UNBOUND:                -1.543
REMARK SMILES CCCCCCCCCCCCCCCCCCCCCC(=O)[O-]
REMARK SMILES IDX 12 1 11 2 10 3 9 4 8 5 7 6 6 7 5 8 4 9 3 10 2 11 1 12 13 13
REMARK SMILES IDX 14 14 15 15 16 16 17 17 18 18 19 19 20 20 21 21 22 22 23 23
REMARK SMILES IDX 24 24
REMARK H PARENT
REMARK Flexibility Score: inf
ROOT
ATOM      1  C   UNL     1     -19.639  44.725 -11.067  1.00  0.00     0.000 C 
ENDROOT
BRANCH   1   2
ATOM      2  C   UNL     1     -19.844  43.200 -10.966  1.00  0.00     0.000 C 
BRANCH   2   3
ATOM      3  C   UNL     1     -18.608  42.406 -10.508  1.00  0.00     0.000 C 
BRANCH   3   4
ATOM      4  C   UNL     1     -18.517  42.270  -8.981  1.00  0.00    -0.000 C 
BRANCH   4   5
ATOM      5  C   UNL     1     -19.305  43.389  -8.284  1.00  0.00    -0.000 C 
BRANCH   5   6
ATOM      6  C   UNL     1     -18.482  44.111  -7.206  1.00  0.00    -0.000 C 
BRANCH   6   7
ATOM      7  C   UNL     1     -19.325  45.094  -6.375  1.00  0.00    -0.000 C 
BRANCH   7   8
ATOM      8  C   UNL     1     -19.645  44.543  -4.969  1.00  0.00    -0.000 C 
BRANCH   8   9
ATOM      9  C   UNL     1     -18.438  43.888  -4.269  1.00  0.00    -0.000 C 
BRANCH   9  10
ATOM     10  C   UNL     1     -18.625  42.404  -3.916  1.00  0.00    -0.000 C 
BRANCH  10  11
ATOM     11  C   UNL     1     -17.900  41.466  -4.893  1.00  0.00    -0.003 C 
ATOM     12  C   UNL     1     -16.483  41.956  -5.175  1.00  0.00     0.004 C 
ENDBRANCH  10  11
ENDBRANCH   9  10
ENDBRANCH   8   9
ENDBRANCH   7   8
ENDBRANCH   6   7
ENDBRANCH   5   6
ENDBRANCH   4   5
ENDBRANCH   3   4
ENDBRANCH   2   3
ENDBRANCH   1   2
BRANCH   1  13
ATOM     13  C   UNL     1     -18.168  45.187 -11.125  1.00  0.00     0.000 C 
BRANCH  13  14
ATOM     14  C   UNL     1     -17.958  46.703 -10.966  1.00  0.00     0.000 C 
BRANCH  14  15
ATOM     15  C   UNL     1     -16.493  47.077 -10.697  1.00  0.00     0.000 C 
BRANCH  15  16
ATOM     16  C   UNL     1     -15.608  45.828 -10.645  1.00  0.00     0.000 C 
BRANCH  16  17
ATOM     17  C   UNL     1     -15.530  45.265  -9.217  1.00  0.00     0.000 C 
BRANCH  17  18
ATOM     18  C   UNL     1     -15.516  46.364  -8.143  1.00  0.00     0.000 C 
BRANCH  18  19
ATOM     19  C   UNL     1     -14.100  46.890  -7.853  1.00  0.00     0.000 C 
BRANCH  19  20
ATOM     20  C   UNL     1     -13.876  48.318  -8.388  1.00  0.00     0.006 C 
BRANCH  20  21
ATOM     21  C   UNL     1     -14.827  49.370  -7.795  1.00  0.00     0.053 C 
BRANCH  21  22
ATOM     22  C   UNL     1     -14.397  50.765  -8.128  1.00  0.00     0.041 C 
ATOM     23  O   UNL     1     -14.183  51.599  -7.208  1.00  0.00    -0.550 OA
ATOM     24  O   UNL     1     -14.261  51.154  -9.455  1.00  0.00    -0.550 OA
ENDBRANCH  21  22
ENDBRANCH  20  21
ENDBRANCH  19  20
ENDBRANCH  18  19
ENDBRANCH  17  18
ENDBRANCH  16  17
ENDBRANCH  15  16
ENDBRANCH  14  15
ENDBRANCH  13  14
ENDBRANCH   1  13
TORSDOF 20
ENDMDL
MODEL 5
REMARK VINA RESULT:    -2.508      3.198      8.011
REMARK INTER + INTRA:          -6.984
REMARK INTER:                  -5.950
REMARK INTRA:                  -1.034
REMARK UNBOUND:                -1.543
REMARK SMILES CCCCCCCCCCCCCCCCCCCCCC(=O)[O-]
REMARK SMILES IDX 12 1 11 2 10 3 9 4 8 5 7 6 6 7 5 8 4 9 3 10 2 11 1 12 13 13
REMARK SMILES IDX 14 14 15 15 16 16 17 17 18 18 19 19 20 20 21 21 22 22 23 23
REMARK SMILES IDX 24 24
REMARK H PARENT
REMARK Flexibility Score: inf
ROOT
ATOM      1  C   UNL     1     -17.675  45.208 -10.803  1.00  0.00     0.000 C 
ENDROOT
BRANCH   1   2
ATOM      2  C   UNL     1     -19.116  44.751 -11.109  1.00  0.00     0.000 C 
BRANCH   2   3
ATOM      3  C   UNL     1     -19.926  44.289  -9.885  1.00  0.00     0.000 C 
BRANCH   3   4
ATOM      4  C   UNL     1     -19.162  43.291  -9.004  1.00  0.00    -0.000 C 
BRANCH   4   5
ATOM      5  C   UNL     1     -18.500  44.004  -7.816  1.00  0.00    -0.000 C 
BRANCH   5   6
ATOM      6  C   UNL     1     -19.350  45.160  -7.269  1.00  0.00    -0.000 C 
BRANCH   6   7
ATOM      7  C   UNL     1     -19.629  45.029  -5.761  1.00  0.00    -0.000 C 
BRANCH   7   8
ATOM      8  C   UNL     1     -18.769  43.928  -5.103  1.00  0.00    -0.000 C 
BRANCH   8   9
ATOM      9  C   UNL     1     -18.987  43.794  -3.584  1.00  0.00    -0.000 C 
BRANCH   9  10
ATOM     10  C   UNL     1     -18.993  42.350  -3.057  1.00  0.00    -0.000 C 
BRANCH  10  11
ATOM     11  C   UNL     1     -19.016  41.307  -4.185  1.00  0.00    -0.003 C 
ATOM     12  C   UNL     1     -17.712  41.324  -4.975  1.00  0.00     0.004 C 
ENDBRANCH  10  11
ENDBRANCH   9  10
ENDBRANCH   8   9
ENDBRANCH   7   8
ENDBRANCH   6   7
ENDBRANCH   5   6
ENDBRANCH   4   5
ENDBRANCH   3   4
ENDBRANCH   2   3
ENDBRANCH   1   2
BRANCH   1  13
ATOM     13  C   UNL     1     -16.578  44.167 -11.107  1.00  0.00     0.000 C 
BRANCH  13  14
ATOM     14  C   UNL     1     -15.242  44.402 -10.382  1.00  0.00     0.000 C 
BRANCH  14  15
ATOM     15  C   UNL     1     -15.233  45.693  -9.550  1.00  0.00     0.000 C 
BRANCH  15  16
ATOM     16  C   UNL     1     -15.020  45.386  -8.064  1.00  0.00     0.000 C 
BRANCH  16  17
ATOM     17  C   UNL     1     -14.214  46.501  -7.380  1.00  0.00     0.000 C 
BRANCH  17  18
ATOM     18  C   UNL     1     -15.056  47.752  -7.087  1.00  0.00     0.000 C 
BRANCH  18  19
ATOM     19  C   UNL     1     -14.327  49.056  -7.457  1.00  0.00     0.000 C 
BRANCH  19  20
ATOM     20  C   UNL     1     -14.646  49.529  -8.888  1.00  0.00     0.006 C 
BRANCH  20  21
ATOM     21  C   UNL     1     -14.376  51.023  -9.133  1.00  0.00     0.053 C 
BRANCH  21  22
ATOM     22  C   UNL     1     -14.765  51.864  -7.957  1.00  0.00     0.041 C 
ATOM     23  O   UNL     1     -13.889  52.507  -7.321  1.00  0.00    -0.550 OA
ATOM     24  O   UNL     1     -16.090  51.914  -7.544  1.00  0.00    -0.550 OA
ENDBRANCH  21  22
ENDBRANCH  20  21
ENDBRANCH  19  20
ENDBRANCH  18  19
ENDBRANCH  17  18
ENDBRANCH  16  17
ENDBRANCH  15  16
ENDBRANCH  14  15
ENDBRANCH  13  14
ENDBRANCH   1  13
TORSDOF 20
ENDMDL
MODEL 6
REMARK VINA RESULT:    -2.452      2.025      4.117
REMARK INTER + INTRA:          -6.862
REMARK INTER:                  -4.976
REMARK INTRA:                  -1.886
REMARK UNBOUND:                -1.543
REMARK SMILES CCCCCCCCCCCCCCCCCCCCCC(=O)[O-]
REMARK SMILES IDX 12 1 11 2 10 3 9 4 8 5 7 6 6 7 5 8 4 9 3 10 2 11 1 12 13 13
REMARK SMILES IDX 14 14 15 15 16 16 17 17 18 18 19 19 20 20 21 21 22 22 23 23
REMARK SMILES IDX 24 24
REMARK H PARENT
REMARK Flexibility Score: inf
ROOT
ATOM      1  C   UNL     1     -19.232  43.322 -10.721  1.00  0.00     0.000 C 
ENDROOT
BRANCH   1   2
ATOM      2  C   UNL     1     -17.870  43.923 -11.125  1.00  0.00     0.000 C 
BRANCH   2   3
ATOM      3  C   UNL     1     -16.669  43.421 -10.303  1.00  0.00     0.000 C 
BRANCH   3   4
ATOM      4  C   UNL     1     -15.627  44.517 -10.038  1.00  0.00    -0.000 C 
BRANCH   4   5
ATOM      5  C   UNL     1     -15.922  45.769 -10.878  1.00  0.00    -0.000 C 
BRANCH   5   6
ATOM      6  C   UNL     1     -15.989  47.049 -10.031  1.00  0.00    -0.000 C 
BRANCH   6   7
ATOM      7  C   UNL     1     -14.622  47.442  -9.443  1.00  0.00    -0.000 C 
BRANCH   7   8
ATOM      8  C   UNL     1     -14.597  47.332  -7.903  1.00  0.00    -0.000 C 
BRANCH   8   9
ATOM      9  C   UNL     1     -14.021  48.578  -7.201  1.00  0.00    -0.000 C 
BRANCH   9  10
ATOM     10  C   UNL     1     -13.887  49.819  -8.096  1.00  0.00    -0.000 C 
BRANCH  10  11
ATOM     11  C   UNL     1     -14.004  51.134  -7.310  1.00  0.00    -0.003 C 
ATOM     12  C   UNL     1     -15.270  51.893  -7.696  1.00  0.00     0.004 C 
ENDBRANCH  10  11
ENDBRANCH   9  10
ENDBRANCH   8   9
ENDBRANCH   7   8
ENDBRANCH   6   7
ENDBRANCH   5   6
ENDBRANCH   4   5
ENDBRANCH   3   4
ENDBRANCH   2   3
ENDBRANCH   1   2
BRANCH   1  13
ATOM     13  C   UNL     1     -20.309  44.349 -10.318  1.00  0.00     0.000 C 
BRANCH  13  14
ATOM     14  C   UNL     1     -20.580  44.445  -8.806  1.00  0.00     0.000 C 
BRANCH  14  15
ATOM     15  C   UNL     1     -19.470  43.806  -7.959  1.00  0.00     0.000 C 
BRANCH  15  16
ATOM     16  C   UNL     1     -18.939  44.794  -6.914  1.00  0.00     0.000 C 
BRANCH  16  17
ATOM     17  C   UNL     1     -19.876  44.867  -5.698  1.00  0.00     0.000 C 
BRANCH  17  18
ATOM     18  C   UNL     1     -19.154  44.589  -4.371  1.00  0.00     0.000 C 
BRANCH  18  19
ATOM     19  C   UNL     1     -19.404  43.164  -3.848  1.00  0.00     0.000 C 
BRANCH  19  20
ATOM     20  C   UNL     1     -18.101  42.362  -3.666  1.00  0.00     0.006 C 
BRANCH  20  21
ATOM     21  C   UNL     1     -17.323  42.116  -4.969  1.00  0.00     0.053 C 
BRANCH  21  22
ATOM     22  C   UNL     1     -16.198  43.089  -5.142  1.00  0.00     0.041 C 
ATOM     23  O   UNL     1     -15.742  43.713  -4.148  1.00  0.00    -0.550 OA
ATOM     24  O   UNL     1     -15.671  43.327  -6.406  1.00  0.00    -0.550 OA
ENDBRANCH  21  22
ENDBRANCH  20  21
ENDBRANCH  19  20
ENDBRANCH  18  19
ENDBRANCH  17  18
ENDBRANCH  16  17
ENDBRANCH  15  16
ENDBRANCH  14  15
ENDBRANCH  13  14
ENDBRANCH   1  13
TORSDOF 20
ENDMDL
