MODEL 1
REMARK VINA RESULT:    -3.819      0.000      0.000
REMARK INTER + INTRA:          -6.350
REMARK INTER:                  -5.828
REMARK INTRA:                  -0.522
REMARK UNBOUND:                -0.522
REMARK SMILES CCCCCCCCCCC(=O)[O-]
REMARK SMILES IDX 7 1 8 2 9 3 10 4 11 5 12 6 13 7 6 8 5 9 4 10 3 11 2 12 1 13
REMARK H PARENT
REMARK Flexibility Score: inf
ROOT
ATOM      1  C   UNL     1     -19.612  -2.380   9.258  1.00  0.00     0.000 C 
ENDROOT
BRANCH   1   2
ATOM      2  C   UNL     1     -19.368  -2.284  10.774  1.00  0.00     0.000 C 
BRANCH   2   3
ATOM      3  C   UNL     1     -20.341  -1.328  11.496  1.00  0.00     0.006 C 
BRANCH   3   4
ATOM      4  C   UNL     1     -20.589  -1.743  12.953  1.00  0.00     0.053 C 
BRANCH   4   5
ATOM      5  C   UNL     1     -21.189  -0.610  13.724  1.00  0.00     0.041 C 
ATOM      6  O   UNL     1     -21.619  -0.796  14.893  1.00  0.00    -0.550 OA
ATOM      7  O   UNL     1     -21.317   0.640  13.133  1.00  0.00    -0.550 OA
ENDBRANCH   4   5
ENDBRANCH   3   4
ENDBRANCH   2   3
ENDBRANCH   1   2
BRANCH   1   8
ATOM      8  C   UNL     1     -20.408  -1.187   8.705  1.00  0.00     0.000 C 
BRANCH   8   9
ATOM      9  C   UNL     1     -20.362  -1.107   7.171  1.00  0.00    -0.000 C 
BRANCH   9  10
ATOM     10  C   UNL     1     -20.589   0.323   6.647  1.00  0.00    -0.000 C 
BRANCH  10  11
ATOM     11  C   UNL     1     -20.030   1.394   7.595  1.00  0.00    -0.000 C 
BRANCH  11  12
ATOM     12  C   UNL     1     -21.130   2.284   8.193  1.00  0.00    -0.003 C 
ATOM     13  C   UNL     1     -21.390   1.927   9.655  1.00  0.00     0.004 C 
ENDBRANCH  11  12
ENDBRANCH  10  11
ENDBRANCH   9  10
ENDBRANCH   8   9
ENDBRANCH   1   8
TORSDOF 9
ENDMDL
MODEL 2
REMARK VINA RESULT:    -3.758      1.164      3.254
REMARK INTER + INTRA:          -6.258
REMARK INTER:                  -5.657
REMARK INTRA:                  -0.601
REMARK UNBOUND:                -0.522
REMARK SMILES CCCCCCCCCCC(=O)[O-]
REMARK SMILES IDX 7 1 8 2 9 3 10 4 11 5 12 6 13 7 6 8 5 9 4 10 3 11 2 12 1 13
REMARK H PARENT
REMARK Flexibility Score: inf
ROOT
ATOM      1  C   UNL     1     -21.561   2.382   9.389  1.00  0.00     0.000 C 
ENDROOT
BRANCH   1   2
ATOM      2  C   UNL     1     -21.180   1.247  10.356  1.00  0.00     0.000 C 
BRANCH   2   3
ATOM      3  C   UNL     1     -21.941   1.299  11.698  1.00  0.00     0.006 C 
BRANCH   3   4
ATOM      4  C   UNL     1     -21.010   1.094  12.901  1.00  0.00     0.053 C 
BRANCH   4   5
ATOM      5  C   UNL     1     -21.186  -0.278  13.471  1.00  0.00     0.041 C 
ATOM      6  O   UNL     1     -21.892  -0.452  14.499  1.00  0.00    -0.550 OA
ATOM      7  O   UNL     1     -20.530  -1.358  12.894  1.00  0.00    -0.550 OA
ENDBRANCH   4   5
ENDBRANCH   3   4
ENDBRANCH   2   3
ENDBRANCH   1   2
BRANCH   1   8
ATOM      8  C   UNL     1     -20.969   2.192   7.984  1.00  0.00     0.000 C 
BRANCH   8   9
ATOM      9  C   UNL     1     -20.076   0.945   7.883  1.00  0.00    -0.000 C 
BRANCH   9  10
ATOM     10  C   UNL     1     -20.650  -0.115   6.925  1.00  0.00    -0.000 C 
BRANCH  10  11
ATOM     11  C   UNL     1     -20.285  -1.547   7.344  1.00  0.00    -0.000 C 
BRANCH  11  12
ATOM     12  C   UNL     1     -19.959  -1.659   8.841  1.00  0.00    -0.003 C 
ATOM     13  C   UNL     1     -19.342  -3.017   9.168  1.00  0.00     0.004 C 
ENDBRANCH  11  12
ENDBRANCH  10  11
ENDBRANCH   9  10
ENDBRANCH   8   9
ENDBRANCH   1   8
TORSDOF 9
ENDMDL
MODEL 3
REMARK VINA RESULT:    -3.754      2.643      4.266
REMARK INTER + INTRA:          -6.252
REMARK INTER:                  -5.972
REMARK INTRA:                  -0.280
REMARK UNBOUND:                -0.522
REMARK SMILES CCCCCCCCCCC(=O)[O-]
REMARK SMILES IDX 7 1 8 2 9 3 10 4 11 5 12 6 13 7 6 8 5 9 4 10 3 11 2 12 1 13
REMARK H PARENT
REMARK Flexibility Score: inf
ROOT
ATOM      1  C   UNL     1     -19.707   0.932   7.267  1.00  0.00     0.000 C 
ENDROOT
BRANCH   1   2
ATOM      2  C   UNL     1     -20.294  -0.304   6.564  1.00  0.00     0.000 C 
BRANCH   2   3
ATOM      3  C   UNL     1     -20.276  -1.577   7.436  1.00  0.00     0.006 C 
BRANCH   3   4
ATOM      4  C   UNL     1     -20.347  -1.255   8.935  1.00  0.00     0.053 C 
BRANCH   4   5
ATOM      5  C   UNL     1     -19.595  -2.277   9.726  1.00  0.00     0.041 C 
ATOM      6  O   UNL     1     -19.272  -2.044  10.921  1.00  0.00    -0.550 OA
ATOM      7  O   UNL     1     -19.207  -3.470   9.128  1.00  0.00    -0.550 OA
ENDBRANCH   4   5
ENDBRANCH   3   4
ENDBRANCH   2   3
ENDBRANCH   1   2
BRANCH   1   8
ATOM      8  C   UNL     1     -20.774   1.979   7.624  1.00  0.00     0.000 C 
BRANCH   8   9
ATOM      9  C   UNL     1     -21.216   1.894   9.093  1.00  0.00    -0.000 C 
BRANCH   9  10
ATOM     10  C   UNL     1     -21.990   3.144   9.549  1.00  0.00    -0.000 C 
BRANCH  10  11
ATOM     11  C   UNL     1     -21.937   4.280   8.516  1.00  0.00    -0.000 C 
BRANCH  11  12
ATOM     12  C   UNL     1     -21.754   5.660   9.166  1.00  0.00    -0.003 C 
ATOM     13  C   UNL     1     -20.370   5.789   9.797  1.00  0.00     0.004 C 
ENDBRANCH  11  12
ENDBRANCH  10  11
ENDBRANCH   9  10
ENDBRANCH   8   9
ENDBRANCH   1   8
TORSDOF 9
ENDMDL
MODEL 4
REMARK VINA RESULT:    -3.753      2.634      5.195
REMARK INTER + INTRA:          -6.249
REMARK INTER:                  -5.762
REMARK INTRA:                  -0.487
REMARK UNBOUND:                -0.522
REMARK SMILES CCCCCCCCCCC(=O)[O-]
REMARK SMILES IDX 7 1 8 2 9 3 10 4 11 5 12 6 13 7 6 8 5 9 4 10 3 11 2 12 1 13
REMARK H PARENT
REMARK Flexibility Score: inf
ROOT
ATOM      1  C   UNL     1     -20.829  -0.802   6.936  1.00  0.00     0.000 C 
ENDROOT
BRANCH   1   2
ATOM      2  C   UNL     1     -19.979   0.470   6.770  1.00  0.00     0.000 C 
BRANCH   2   3
ATOM      3  C   UNL     1     -20.503   1.673   7.583  1.00  0.00     0.006 C 
BRANCH   3   4
ATOM      4  C   UNL     1     -20.812   1.299   9.039  1.00  0.00     0.053 C 
BRANCH   4   5
ATOM      5  C   UNL     1     -21.817   2.242   9.619  1.00  0.00     0.041 C 
ATOM      6  O   UNL     1     -22.565   1.871  10.561  1.00  0.00    -0.550 OA
ATOM      7  O   UNL     1     -21.961   3.517   9.085  1.00  0.00    -0.550 OA
ENDBRANCH   4   5
ENDBRANCH   3   4
ENDBRANCH   2   3
ENDBRANCH   1   2
BRANCH   1   8
ATOM      8  C   UNL     1     -20.024  -1.990   7.487  1.00  0.00     0.000 C 
BRANCH   8   9
ATOM      9  C   UNL     1     -19.998  -2.022   9.023  1.00  0.00    -0.000 C 
BRANCH   9  10
ATOM     10  C   UNL     1     -19.424  -3.339   9.576  1.00  0.00    -0.000 C 
BRANCH  10  11
ATOM     11  C   UNL     1     -18.915  -4.273   8.466  1.00  0.00    -0.000 C 
BRANCH  11  12
ATOM     12  C   UNL     1     -19.386  -5.723   8.655  1.00  0.00    -0.003 C 
ATOM     13  C   UNL     1     -20.800  -5.770   9.227  1.00  0.00     0.004 C 
ENDBRANCH  11  12
ENDBRANCH  10  11
ENDBRANCH   9  10
ENDBRANCH   8   9
ENDBRANCH   1   8
TORSDOF 9
ENDMDL
MODEL 5
REMARK VINA RESULT:    -3.690      2.677      5.588
REMARK INTER + INTRA:          -6.154
REMARK INTER:                  -5.571
REMARK INTRA:                  -0.583
REMARK UNBOUND:                -0.522
REMARK SMILES CCCCCCCCCCC(=O)[O-]
REMARK SMILES IDX 7 1 8 2 9 3 10 4 11 5 12 6 13 7 6 8 5 9 4 10 3 11 2 12 1 13
REMARK H PARENT
REMARK Flexibility Score: inf
ROOT
ATOM      1  C   UNL     1     -20.288  -1.615   7.492  1.00  0.00     0.000 C 
ENDROOT
BRANCH   1   2
ATOM      2  C   UNL     1     -20.621  -0.230   6.911  1.00  0.00     0.000 C 
BRANCH   2   3
ATOM      3  C   UNL     1     -19.958   0.936   7.676  1.00  0.00     0.006 C 
BRANCH   3   4
ATOM      4  C   UNL     1     -20.759   2.239   7.555  1.00  0.00     0.053 C 
BRANCH   4   5
ATOM      5  C   UNL     1     -21.435   2.560   8.850  1.00  0.00     0.041 C 
ATOM      6  O   UNL     1     -21.895   3.713   9.058  1.00  0.00    -0.550 OA
ATOM      7  O   UNL     1     -21.514   1.596   9.848  1.00  0.00    -0.550 OA
ENDBRANCH   4   5
ENDBRANCH   3   4
ENDBRANCH   2   3
ENDBRANCH   1   2
BRANCH   1   8
ATOM      8  C   UNL     1     -20.054  -1.584   9.011  1.00  0.00     0.000 C 
BRANCH   8   9
ATOM      9  C   UNL     1     -19.466  -2.900   9.544  1.00  0.00    -0.000 C 
BRANCH   9  10
ATOM     10  C   UNL     1     -19.108  -3.886   8.416  1.00  0.00    -0.000 C 
BRANCH  10  11
ATOM     11  C   UNL     1     -19.219  -5.353   8.857  1.00  0.00    -0.000 C 
BRANCH  11  12
ATOM     12  C   UNL     1     -20.503  -6.026   8.348  1.00  0.00    -0.003 C 
ATOM     13  C   UNL     1     -21.524  -6.180   9.473  1.00  0.00     0.004 C 
ENDBRANCH  11  12
ENDBRANCH  10  11
ENDBRANCH   9  10
ENDBRANCH   8   9
ENDBRANCH   1   8
TORSDOF 9
ENDMDL
MODEL 6
REMARK VINA RESULT:    -3.613      1.657      4.306
REMARK INTER + INTRA:          -6.036
REMARK INTER:                  -5.452
REMARK INTRA:                  -0.585
REMARK UNBOUND:                -0.522
REMARK SMILES CCCCCCCCCCC(=O)[O-]
REMARK SMILES IDX 7 1 8 2 9 3 10 4 11 5 12 6 13 7 6 8 5 9 4 10 3 11 2 12 1 13
REMARK H PARENT
REMARK Flexibility Score: inf
ROOT
ATOM      1  C   UNL     1     -20.124   0.852   7.978  1.00  0.00     0.000 C 
ENDROOT
BRANCH   1   2
ATOM      2  C   UNL     1     -21.137   1.999   8.136  1.00  0.00     0.000 C 
BRANCH   2   3
ATOM      3  C   UNL     1     -21.482   2.319   9.606  1.00  0.00     0.006 C 
BRANCH   3   4
ATOM      4  C   UNL     1     -21.499   1.062  10.486  1.00  0.00     0.053 C 
BRANCH   4   5
ATOM      5  C   UNL     1     -21.268   1.423  11.919  1.00  0.00     0.041 C 
ATOM      6  O   UNL     1     -20.840   2.567  12.224  1.00  0.00    -0.550 OA
ATOM      7  O   UNL     1     -21.481   0.479  12.916  1.00  0.00    -0.550 OA
ENDBRANCH   4   5
ENDBRANCH   3   4
ENDBRANCH   2   3
ENDBRANCH   1   2
BRANCH   1   8
ATOM      8  C   UNL     1     -20.647  -0.288   7.090  1.00  0.00     0.000 C 
BRANCH   8   9
ATOM      9  C   UNL     1     -20.176  -1.671   7.567  1.00  0.00    -0.000 C 
BRANCH   9  10
ATOM     10  C   UNL     1     -20.022  -1.746   9.096  1.00  0.00    -0.000 C 
BRANCH  10  11
ATOM     11  C   UNL     1     -19.362  -3.054   9.559  1.00  0.00    -0.000 C 
BRANCH  11  12
ATOM     12  C   UNL     1     -19.117  -4.033   8.401  1.00  0.00    -0.003 C 
ATOM     13  C   UNL     1     -19.613  -5.433   8.752  1.00  0.00     0.004 C 
ENDBRANCH  11  12
ENDBRANCH  10  11
ENDBRANCH   9  10
ENDBRANCH   8   9
ENDBRANCH   1   8
TORSDOF 9
ENDMDL
MODEL 7
REMARK VINA RESULT:    -3.613      2.210      4.429
REMARK INTER + INTRA:          -6.035
REMARK INTER:                  -5.589
REMARK INTRA:                  -0.447
REMARK UNBOUND:                -0.522
REMARK SMILES CCCCCCCCCCC(=O)[O-]
REMARK SMILES IDX 7 1 8 2 9 3 10 4 11 5 12 6 13 7 6 8 5 9 4 10 3 11 2 12 1 13
REMARK H PARENT
REMARK Flexibility Score: inf
ROOT
ATOM      1  C   UNL     1     -20.015   1.331   7.795  1.00  0.00     0.000 C 
ENDROOT
BRANCH   1   2
ATOM      2  C   UNL     1     -20.356   0.149   6.871  1.00  0.00     0.000 C 
BRANCH   2   3
ATOM      3  C   UNL     1     -20.406  -1.210   7.600  1.00  0.00     0.006 C 
BRANCH   3   4
ATOM      4  C   UNL     1     -20.442  -1.050   9.126  1.00  0.00     0.053 C 
BRANCH   4   5
ATOM      5  C   UNL     1     -19.662  -2.143   9.785  1.00  0.00     0.041 C 
ATOM      6  O   UNL     1     -19.303  -2.031  10.986  1.00  0.00    -0.550 OA
ATOM      7  O   UNL     1     -19.291  -3.266   9.056  1.00  0.00    -0.550 OA
ENDBRANCH   4   5
ENDBRANCH   3   4
ENDBRANCH   2   3
ENDBRANCH   1   2
BRANCH   1   8
ATOM      8  C   UNL     1     -21.110   2.408   7.814  1.00  0.00     0.000 C 
BRANCH   8   9
ATOM      9  C   UNL     1     -21.800   2.524   9.183  1.00  0.00    -0.000 C 
BRANCH   9  10
ATOM     10  C   UNL     1     -21.026   1.798  10.297  1.00  0.00    -0.000 C 
BRANCH  10  11
ATOM     11  C   UNL     1     -21.913   1.450  11.502  1.00  0.00    -0.000 C 
BRANCH  11  12
ATOM     12  C   UNL     1     -21.127   1.419  12.822  1.00  0.00    -0.003 C 
ATOM     13  C   UNL     1     -21.133   0.018  13.430  1.00  0.00     0.004 C 
ENDBRANCH  11  12
ENDBRANCH  10  11
ENDBRANCH   9  10
ENDBRANCH   8   9
ENDBRANCH   1   8
TORSDOF 9
ENDMDL
MODEL 8
REMARK VINA RESULT:    -3.585      1.619      4.440
REMARK INTER + INTRA:          -5.993
REMARK INTER:                  -5.542
REMARK INTRA:                  -0.451
REMARK UNBOUND:                -0.522
REMARK SMILES CCCCCCCCCCC(=O)[O-]
REMARK SMILES IDX 7 1 8 2 9 3 10 4 11 5 12 6 13 7 6 8 5 9 4 10 3 11 2 12 1 13
REMARK H PARENT
REMARK Flexibility Score: inf
ROOT
ATOM      1  C   UNL     1     -19.668  -0.611   6.828  1.00  0.00     0.000 C 
ENDROOT
BRANCH   1   2
ATOM      2  C   UNL     1     -20.663   0.518   6.508  1.00  0.00     0.000 C 
BRANCH   2   3
ATOM      3  C   UNL     1     -20.676   1.646   7.561  1.00  0.00     0.006 C 
BRANCH   3   4
ATOM      4  C   UNL     1     -20.792   1.103   8.992  1.00  0.00     0.053 C 
BRANCH   4   5
ATOM      5  C   UNL     1     -21.611   2.026   9.837  1.00  0.00     0.041 C 
ATOM      6  O   UNL     1     -21.963   1.682  10.996  1.00  0.00    -0.550 OA
ATOM      7  O   UNL     1     -22.025   3.250   9.326  1.00  0.00    -0.550 OA
ENDBRANCH   4   5
ENDBRANCH   3   4
ENDBRANCH   2   3
ENDBRANCH   1   2
BRANCH   1   8
ATOM      8  C   UNL     1     -20.336  -1.827   7.488  1.00  0.00     0.000 C 
BRANCH   8   9
ATOM      9  C   UNL     1     -19.532  -2.367   8.681  1.00  0.00    -0.000 C 
BRANCH   9  10
ATOM     10  C   UNL     1     -20.387  -2.507   9.953  1.00  0.00    -0.000 C 
BRANCH  10  11
ATOM     11  C   UNL     1     -19.862  -1.649  11.114  1.00  0.00    -0.000 C 
BRANCH  11  12
ATOM     12  C   UNL     1     -20.460  -2.061  12.468  1.00  0.00    -0.003 C 
ATOM     13  C   UNL     1     -20.869  -0.836  13.282  1.00  0.00     0.004 C 
ENDBRANCH  11  12
ENDBRANCH  10  11
ENDBRANCH   9  10
ENDBRANCH   8   9
ENDBRANCH   1   8
TORSDOF 9
ENDMDL
MODEL 9
REMARK VINA RESULT:    -3.575      1.222      2.020
REMARK INTER + INTRA:          -5.978
REMARK INTER:                  -5.364
REMARK INTRA:                  -0.613
REMARK UNBOUND:                -0.522
REMARK SMILES CCCCCCCCCCC(=O)[O-]
REMARK SMILES IDX 7 1 8 2 9 3 10 4 11 5 12 6 13 7 6 8 5 9 4 10 3 11 2 12 1 13
REMARK H PARENT
REMARK Flexibility Score: inf
ROOT
ATOM      1  C   UNL     1     -20.369  -1.837   7.600  1.00  0.00     0.000 C 
ENDROOT
BRANCH   1   2
ATOM      2  C   UNL     1     -19.540  -2.291   8.814  1.00  0.00     0.000 C 
BRANCH   2   3
ATOM      3  C   UNL     1     -20.361  -2.397  10.117  1.00  0.00     0.006 C 
BRANCH   3   4
ATOM      4  C   UNL     1     -19.745  -1.579  11.260  1.00  0.00     0.053 C 
BRANCH   4   5
ATOM      5  C   UNL     1     -20.577  -1.699  12.496  1.00  0.00     0.041 C 
ATOM      6  O   UNL     1     -20.725  -0.709  13.260  1.00  0.00    -0.550 OA
ATOM      7  O   UNL     1     -21.150  -2.919  12.831  1.00  0.00    -0.550 OA
ENDBRANCH   4   5
ENDBRANCH   3   4
ENDBRANCH   2   3
ENDBRANCH   1   2
BRANCH   1   8
ATOM      8  C   UNL     1     -19.748  -0.638   6.867  1.00  0.00     0.000 C 
BRANCH   8   9
ATOM      9  C   UNL     1     -20.748   0.510   6.661  1.00  0.00    -0.000 C 
BRANCH   9  10
ATOM     10  C   UNL     1     -20.570   1.639   7.693  1.00  0.00    -0.000 C 
BRANCH  10  11
ATOM     11  C   UNL     1     -20.945   1.201   9.117  1.00  0.00    -0.000 C 
BRANCH  11  12
ATOM     12  C   UNL     1     -21.831   2.231   9.835  1.00  0.00    -0.003 C 
ATOM     13  C   UNL     1     -21.911   3.533   9.043  1.00  0.00     0.004 C 
ENDBRANCH  11  12
ENDBRANCH  10  11
ENDBRANCH   9  10
ENDBRANCH   8   9
ENDBRANCH   1   8
TORSDOF 9
ENDMDL
