MODEL 1
REMARK VINA RESULT:    -5.899      0.000      0.000
REMARK INTER + INTRA:          -7.212
REMARK INTER:                  -6.933
REMARK INTRA:                  -0.279
REMARK UNBOUND:                -0.279
REMARK SMILES O=c1cc(-c2ccc(O)c(O)c2)oc2cc(O)cc(O)c12
REMARK SMILES IDX 4 1 3 2 2 3 1 4 21 5 19 6 18 7 16 8 15 9 14 10 13 11 5 12
REMARK SMILES IDX 6 13 7 14 8 15 12 16 10 17 9 18 11 20 20 22 17 24
REMARK H PARENT 9 19 11 21 20 23 17 25
REMARK Flexibility Score: inf
ROOT
ATOM      1  C   UNL     1      20.958  39.532   4.845  1.00  0.00     0.138 A 
ATOM      2  C   UNL     1      20.799  40.437   5.904  1.00  0.00     0.100 A 
ATOM      3  C   UNL     1      20.799  39.967   7.219  1.00  0.00     0.197 A 
ATOM      4  O   UNL     1      20.716  40.809   8.150  1.00  0.00    -0.289 OA
ATOM      5  C   UNL     1      20.929  38.581   7.470  1.00  0.00     0.107 A 
ATOM      6  C   UNL     1      20.902  37.984   8.766  1.00  0.00     0.134 A 
ATOM      7  C   UNL     1      21.158  36.613   8.900  1.00  0.00     0.093 A 
ATOM      8  C   UNL     1      21.378  35.808   7.783  1.00  0.00     0.123 A 
ATOM      9  C   UNL     1      21.353  36.372   6.507  1.00  0.00     0.094 A 
ATOM     10  C   UNL     1      21.136  37.742   6.343  1.00  0.00     0.146 A 
ATOM     11  O   UNL     1      21.133  38.242   5.111  1.00  0.00    -0.456 OA
ENDROOT
BRANCH   1  12
ATOM     12  C   UNL     1      20.964  39.978   3.429  1.00  0.00     0.021 A 
ATOM     13  C   UNL     1      21.922  40.911   3.002  1.00  0.00     0.016 A 
ATOM     14  C   UNL     1      21.951  41.340   1.674  1.00  0.00     0.051 A 
ATOM     15  C   UNL     1      21.035  40.843   0.742  1.00  0.00     0.157 A 
ATOM     16  C   UNL     1      20.051  39.466   2.488  1.00  0.00     0.062 A 
ATOM     17  C   UNL     1      20.076  39.888   1.153  1.00  0.00     0.158 A 
BRANCH  15  18
ATOM     18  O   UNL     1      21.116  41.318  -0.569  1.00  0.00    -0.504 OA
ATOM     19  H   UNL     1      21.393  42.257  -0.813  1.00  0.00     0.293 HD
ENDBRANCH  15  18
BRANCH  17  20
ATOM     20  O   UNL     1      19.140  39.335   0.277  1.00  0.00    -0.504 OA
ATOM     21  H   UNL     1      18.683  39.851  -0.461  1.00  0.00     0.293 HD
ENDBRANCH  17  20
ENDBRANCH   1  12
BRANCH   6  22
ATOM     22  O   UNL     1      20.608  38.681   9.941  1.00  0.00    -0.507 OA
ATOM     23  H   UNL     1      19.854  39.342  10.046  1.00  0.00     0.293 HD
ENDBRANCH   6  22
BRANCH   8  24
ATOM     24  O   UNL     1      21.613  34.446   7.953  1.00  0.00    -0.508 OA
ATOM     25  H   UNL     1      22.455  34.005   7.600  1.00  0.00     0.293 HD
ENDBRANCH   8  24
TORSDOF 5
ENDMDL
MODEL 2
REMARK VINA RESULT:    -5.806      1.812      6.852
REMARK INTER + INTRA:          -7.103
REMARK INTER:                  -6.829
REMARK INTRA:                  -0.274
REMARK UNBOUND:                -0.279
REMARK SMILES O=c1cc(-c2ccc(O)c(O)c2)oc2cc(O)cc(O)c12
REMARK SMILES IDX 4 1 3 2 2 3 1 4 21 5 19 6 18 7 16 8 15 9 14 10 13 11 5 12
REMARK SMILES IDX 6 13 7 14 8 15 12 16 10 17 9 18 11 20 20 22 17 24
REMARK H PARENT 9 19 11 21 20 23 17 25
REMARK Flexibility Score: inf
ROOT
ATOM      1  C   UNL     1      20.406  39.202   5.458  1.00  0.00     0.138 A 
ATOM      2  C   UNL     1      19.231  39.964   5.505  1.00  0.00     0.100 A 
ATOM      3  C   UNL     1      18.922  40.825   4.450  1.00  0.00     0.197 A 
ATOM      4  O   UNL     1      17.831  41.448   4.492  1.00  0.00    -0.289 OA
ATOM      5  C   UNL     1      19.813  40.945   3.358  1.00  0.00     0.107 A 
ATOM      6  C   UNL     1      19.623  41.820   2.247  1.00  0.00     0.134 A 
ATOM      7  C   UNL     1      20.514  41.768   1.167  1.00  0.00     0.093 A 
ATOM      8  C   UNL     1      21.620  40.918   1.184  1.00  0.00     0.123 A 
ATOM      9  C   UNL     1      21.845  40.097   2.290  1.00  0.00     0.094 A 
ATOM     10  C   UNL     1      20.956  40.101   3.367  1.00  0.00     0.146 A 
ATOM     11  O   UNL     1      21.198  39.293   4.395  1.00  0.00    -0.456 OA
ENDROOT
BRANCH   1  12
ATOM     12  C   UNL     1      20.783  38.273   6.552  1.00  0.00     0.021 A 
ATOM     13  C   UNL     1      21.055  38.786   7.831  1.00  0.00     0.016 A 
ATOM     14  C   UNL     1      21.405  37.932   8.878  1.00  0.00     0.051 A 
ATOM     15  C   UNL     1      21.482  36.551   8.678  1.00  0.00     0.157 A 
ATOM     16  C   UNL     1      20.847  36.881   6.354  1.00  0.00     0.062 A 
ATOM     17  C   UNL     1      21.193  36.018   7.400  1.00  0.00     0.158 A 
BRANCH  15  18
ATOM     18  O   UNL     1      21.843  35.753   9.766  1.00  0.00    -0.504 OA
ATOM     19  H   UNL     1      21.818  36.063  10.726  1.00  0.00     0.293 HD
ENDBRANCH  15  18
BRANCH  17  20
ATOM     20  O   UNL     1      21.234  34.648   7.129  1.00  0.00    -0.504 OA
ATOM     21  H   UNL     1      20.692  34.198   6.406  1.00  0.00     0.293 HD
ENDBRANCH  17  20
ENDBRANCH   1  12
BRANCH   6  22
ATOM     22  O   UNL     1      18.599  42.767   2.165  1.00  0.00    -0.507 OA
ATOM     23  H   UNL     1      18.410  43.345   1.361  1.00  0.00     0.293 HD
ENDBRANCH   6  22
BRANCH   8  24
ATOM     24  O   UNL     1      22.493  40.905   0.100  1.00  0.00    -0.508 OA
ATOM     25  H   UNL     1      23.290  41.530   0.053  1.00  0.00     0.293 HD
ENDBRANCH   8  24
TORSDOF 5
ENDMDL
MODEL 3
REMARK VINA RESULT:    -5.681      1.460      6.801
REMARK INTER + INTRA:          -6.956
REMARK INTER:                  -6.648
REMARK INTRA:                  -0.308
REMARK UNBOUND:                -0.279
REMARK SMILES O=c1cc(-c2ccc(O)c(O)c2)oc2cc(O)cc(O)c12
REMARK SMILES IDX 4 1 3 2 2 3 1 4 21 5 19 6 18 7 16 8 15 9 14 10 13 11 5 12
REMARK SMILES IDX 6 13 7 14 8 15 12 16 10 17 9 18 11 20 20 22 17 24
REMARK H PARENT 9 19 11 21 20 23 17 25
REMARK Flexibility Score: inf
ROOT
ATOM      1  C   UNL     1      21.074  39.175   5.515  1.00  0.00     0.138 A 
ATOM      2  C   UNL     1      21.562  40.479   5.678  1.00  0.00     0.100 A 
ATOM      3  C   UNL     1      21.510  41.375   4.609  1.00  0.00     0.197 A 
ATOM      4  O   UNL     1      21.897  42.555   4.805  1.00  0.00    -0.289 OA
ATOM      5  C   UNL     1      20.995  40.951   3.361  1.00  0.00     0.107 A 
ATOM      6  C   UNL     1      20.931  41.764   2.190  1.00  0.00     0.134 A 
ATOM      7  C   UNL     1      20.293  41.274   1.044  1.00  0.00     0.093 A 
ATOM      8  C   UNL     1      19.773  39.980   1.005  1.00  0.00     0.123 A 
ATOM      9  C   UNL     1      19.879  39.157   2.127  1.00  0.00     0.094 A 
ATOM     10  C   UNL     1      20.478  39.630   3.297  1.00  0.00     0.146 A 
ATOM     11  O   UNL     1      20.546  38.819   4.348  1.00  0.00    -0.456 OA
ENDROOT
BRANCH   1  12
ATOM     12  C   UNL     1      21.107  38.182   6.617  1.00  0.00     0.021 A 
ATOM     13  C   UNL     1      21.077  38.627   7.949  1.00  0.00     0.016 A 
ATOM     14  C   UNL     1      21.100  37.712   9.003  1.00  0.00     0.051 A 
ATOM     15  C   UNL     1      21.144  36.337   8.755  1.00  0.00     0.157 A 
ATOM     16  C   UNL     1      21.137  36.797   6.367  1.00  0.00     0.062 A 
ATOM     17  C   UNL     1      21.156  35.873   7.419  1.00  0.00     0.158 A 
BRANCH  15  18
ATOM     18  O   UNL     1      21.171  35.476   9.854  1.00  0.00    -0.504 OA
ATOM     19  H   UNL     1      21.884  34.778  10.008  1.00  0.00     0.293 HD
ENDBRANCH  15  18
BRANCH  17  20
ATOM     20  O   UNL     1      21.184  34.515   7.094  1.00  0.00    -0.504 OA
ATOM     21  H   UNL     1      21.129  34.158   6.151  1.00  0.00     0.293 HD
ENDBRANCH  17  20
ENDBRANCH   1  12
BRANCH   6  22
ATOM     22  O   UNL     1      21.493  43.040   2.094  1.00  0.00    -0.507 OA
ATOM     23  H   UNL     1      22.458  43.230   1.872  1.00  0.00     0.293 HD
ENDBRANCH   6  22
BRANCH   8  24
ATOM     24  O   UNL     1      19.161  39.521  -0.158  1.00  0.00    -0.508 OA
ATOM     25  H   UNL     1      19.293  39.988  -1.048  1.00  0.00     0.293 HD
ENDBRANCH   8  24
TORSDOF 5
ENDMDL
MODEL 4
REMARK VINA RESULT:    -5.324      4.021      6.383
REMARK INTER + INTRA:          -6.536
REMARK INTER:                  -6.227
REMARK INTRA:                  -0.310
REMARK UNBOUND:                -0.279
REMARK SMILES O=c1cc(-c2ccc(O)c(O)c2)oc2cc(O)cc(O)c12
REMARK SMILES IDX 4 1 3 2 2 3 1 4 21 5 19 6 18 7 16 8 15 9 14 10 13 11 5 12
REMARK SMILES IDX 6 13 7 14 8 15 12 16 10 17 9 18 11 20 20 22 17 24
REMARK H PARENT 9 19 11 21 20 23 17 25
REMARK Flexibility Score: inf
ROOT
ATOM      1  C   UNL     1      17.921  40.772   5.913  1.00  0.00     0.138 A 
ATOM      2  C   UNL     1      18.230  41.364   4.680  1.00  0.00     0.100 A 
ATOM      3  C   UNL     1      19.272  40.847   3.908  1.00  0.00     0.197 A 
ATOM      4  O   UNL     1      19.485  41.360   2.779  1.00  0.00    -0.289 OA
ATOM      5  C   UNL     1      20.027  39.752   4.389  1.00  0.00     0.107 A 
ATOM      6  C   UNL     1      21.137  39.168   3.708  1.00  0.00     0.134 A 
ATOM      7  C   UNL     1      21.735  38.012   4.227  1.00  0.00     0.093 A 
ATOM      8  C   UNL     1      21.304  37.456   5.431  1.00  0.00     0.123 A 
ATOM      9  C   UNL     1      20.255  38.050   6.132  1.00  0.00     0.094 A 
ATOM     10  C   UNL     1      19.615  39.183   5.624  1.00  0.00     0.146 A 
ATOM     11  O   UNL     1      18.610  39.711   6.316  1.00  0.00    -0.456 OA
ENDROOT
BRANCH   1  12
ATOM     12  C   UNL     1      16.824  41.282   6.774  1.00  0.00     0.021 A 
ATOM     13  C   UNL     1      16.425  42.623   6.661  1.00  0.00     0.016 A 
ATOM     14  C   UNL     1      15.392  43.124   7.455  1.00  0.00     0.051 A 
ATOM     15  C   UNL     1      14.730  42.300   8.370  1.00  0.00     0.157 A 
ATOM     16  C   UNL     1      16.148  40.448   7.684  1.00  0.00     0.062 A 
ATOM     17  C   UNL     1      15.109  40.942   8.481  1.00  0.00     0.158 A 
BRANCH  15  18
ATOM     18  O   UNL     1      13.709  42.865   9.138  1.00  0.00    -0.504 OA
ATOM     19  H   UNL     1      13.686  42.849  10.147  1.00  0.00     0.293 HD
ENDBRANCH  15  18
BRANCH  17  20
ATOM     20  O   UNL     1      14.483  40.055   9.360  1.00  0.00    -0.504 OA
ATOM     21  H   UNL     1      13.930  39.263   9.066  1.00  0.00     0.293 HD
ENDBRANCH  17  20
ENDBRANCH   1  12
BRANCH   6  22
ATOM     22  O   UNL     1      21.701  39.693   2.542  1.00  0.00    -0.507 OA
ATOM     23  H   UNL     1      21.432  40.565   2.113  1.00  0.00     0.293 HD
ENDBRANCH   6  22
BRANCH   8  24
ATOM     24  O   UNL     1      21.933  36.316   5.924  1.00  0.00    -0.508 OA
ATOM     25  H   UNL     1      21.789  35.406   5.502  1.00  0.00     0.293 HD
ENDBRANCH   8  24
TORSDOF 5
ENDMDL
MODEL 5
REMARK VINA RESULT:    -5.251      1.324      2.789
REMARK INTER + INTRA:          -6.451
REMARK INTER:                  -6.184
REMARK INTRA:                  -0.267
REMARK UNBOUND:                -0.279
REMARK SMILES O=c1cc(-c2ccc(O)c(O)c2)oc2cc(O)cc(O)c12
REMARK SMILES IDX 4 1 3 2 2 3 1 4 21 5 19 6 18 7 16 8 15 9 14 10 13 11 5 12
REMARK SMILES IDX 6 13 7 14 8 15 12 16 10 17 9 18 11 20 20 22 17 24
REMARK H PARENT 9 19 11 21 20 23 17 25
REMARK Flexibility Score: inf
ROOT
ATOM      1  C   UNL     1      20.743  39.275   4.810  1.00  0.00     0.138 A 
ATOM      2  C   UNL     1      21.234  38.011   5.165  1.00  0.00     0.100 A 
ATOM      3  C   UNL     1      21.139  37.580   6.489  1.00  0.00     0.197 A 
ATOM      4  O   UNL     1      21.531  36.417   6.764  1.00  0.00    -0.289 OA
ATOM      5  C   UNL     1      20.577  38.433   7.467  1.00  0.00     0.107 A 
ATOM      6  C   UNL     1      20.465  38.116   8.854  1.00  0.00     0.134 A 
ATOM      7  C   UNL     1      19.784  38.992   9.710  1.00  0.00     0.093 A 
ATOM      8  C   UNL     1      19.266  40.200   9.242  1.00  0.00     0.123 A 
ATOM      9  C   UNL     1      19.417  40.544   7.899  1.00  0.00     0.094 A 
ATOM     10  C   UNL     1      20.060  39.676   7.013  1.00  0.00     0.146 A 
ATOM     11  O   UNL     1      20.171  40.035   5.738  1.00  0.00    -0.456 OA
ENDROOT
BRANCH   1  12
ATOM     12  C   UNL     1      20.821  39.784   3.418  1.00  0.00     0.021 A 
ATOM     13  C   UNL     1      21.831  40.695   3.070  1.00  0.00     0.016 A 
ATOM     14  C   UNL     1      21.928  41.182   1.766  1.00  0.00     0.051 A 
ATOM     15  C   UNL     1      21.030  40.767   0.779  1.00  0.00     0.157 A 
ATOM     16  C   UNL     1      19.925  39.354   2.421  1.00  0.00     0.062 A 
ATOM     17  C   UNL     1      20.019  39.835   1.110  1.00  0.00     0.158 A 
BRANCH  15  18
ATOM     18  O   UNL     1      21.180  41.297  -0.504  1.00  0.00    -0.504 OA
ATOM     19  H   UNL     1      20.755  42.160  -0.812  1.00  0.00     0.293 HD
ENDBRANCH  15  18
BRANCH  17  20
ATOM     20  O   UNL     1      19.096  39.362   0.174  1.00  0.00    -0.504 OA
ATOM     21  H   UNL     1      19.296  38.641  -0.503  1.00  0.00     0.293 HD
ENDBRANCH  17  20
ENDBRANCH   1  12
BRANCH   6  22
ATOM     22  O   UNL     1      21.020  36.976   9.442  1.00  0.00    -0.507 OA
ATOM     23  H   UNL     1      20.781  36.028   9.199  1.00  0.00     0.293 HD
ENDBRANCH   6  22
BRANCH   8  24
ATOM     24  O   UNL     1      18.609  41.053  10.125  1.00  0.00    -0.508 OA
ATOM     25  H   UNL     1      19.097  41.497  10.895  1.00  0.00     0.293 HD
ENDBRANCH   8  24
TORSDOF 5
ENDMDL
MODEL 6
REMARK VINA RESULT:    -5.232      2.351      3.603
REMARK INTER + INTRA:          -6.429
REMARK INTER:                  -6.151
REMARK INTRA:                  -0.277
REMARK UNBOUND:                -0.279
REMARK SMILES O=c1cc(-c2ccc(O)c(O)c2)oc2cc(O)cc(O)c12
REMARK SMILES IDX 4 1 3 2 2 3 1 4 21 5 19 6 18 7 16 8 15 9 14 10 13 11 5 12
REMARK SMILES IDX 6 13 7 14 8 15 12 16 10 17 9 18 11 20 20 22 17 24
REMARK H PARENT 9 19 11 21 20 23 17 25
REMARK Flexibility Score: inf
ROOT
ATOM      1  C   UNL     1      20.789  40.837   1.724  1.00  0.00     0.138 A 
ATOM      2  C   UNL     1      19.802  41.542   2.428  1.00  0.00     0.100 A 
ATOM      3  C   UNL     1      19.384  41.081   3.677  1.00  0.00     0.197 A 
ATOM      4  O   UNL     1      18.543  41.768   4.312  1.00  0.00    -0.289 OA
ATOM      5  C   UNL     1      19.936  39.892   4.209  1.00  0.00     0.107 A 
ATOM      6  C   UNL     1      19.557  39.306   5.454  1.00  0.00     0.134 A 
ATOM      7  C   UNL     1      20.257  38.191   5.933  1.00  0.00     0.093 A 
ATOM      8  C   UNL     1      21.277  37.604   5.186  1.00  0.00     0.123 A 
ATOM      9  C   UNL     1      21.620  38.136   3.943  1.00  0.00     0.094 A 
ATOM     10  C   UNL     1      20.965  39.269   3.453  1.00  0.00     0.146 A 
ATOM     11  O   UNL     1      21.330  39.754   2.271  1.00  0.00    -0.456 OA
ENDROOT
BRANCH   1  12
ATOM     12  C   UNL     1      21.269  41.282   0.391  1.00  0.00     0.021 A 
ATOM     13  C   UNL     1      22.649  41.337   0.137  1.00  0.00     0.016 A 
ATOM     14  C   UNL     1      23.124  41.746  -1.110  1.00  0.00     0.051 A 
ATOM     15  C   UNL     1      22.238  42.098  -2.132  1.00  0.00     0.157 A 
ATOM     16  C   UNL     1      20.376  41.622  -0.642  1.00  0.00     0.062 A 
ATOM     17  C   UNL     1      20.845  42.029  -1.897  1.00  0.00     0.158 A 
BRANCH  15  18
ATOM     18  O   UNL     1      22.780  42.503  -3.354  1.00  0.00    -0.504 OA
ATOM     19  H   UNL     1      22.233  42.872  -4.119  1.00  0.00     0.293 HD
ENDBRANCH  15  18
BRANCH  17  20
ATOM     20  O   UNL     1      19.900  42.350  -2.874  1.00  0.00    -0.504 OA
ATOM     21  H   UNL     1      18.923  42.104  -2.817  1.00  0.00     0.293 HD
ENDBRANCH  17  20
ENDBRANCH   1  12
BRANCH   6  22
ATOM     22  O   UNL     1      18.496  39.762   6.241  1.00  0.00    -0.507 OA
ATOM     23  H   UNL     1      17.590  40.030   5.888  1.00  0.00     0.293 HD
ENDBRANCH   6  22
BRANCH   8  24
ATOM     24  O   UNL     1      21.940  36.486   5.686  1.00  0.00    -0.508 OA
ATOM     25  H   UNL     1      22.468  36.525   6.551  1.00  0.00     0.293 HD
ENDBRANCH   8  24
TORSDOF 5
ENDMDL
MODEL 7
REMARK VINA RESULT:    -5.090      3.650      6.560
REMARK INTER + INTRA:          -6.261
REMARK INTER:                  -5.978
REMARK INTRA:                  -0.284
REMARK UNBOUND:                -0.279
REMARK SMILES O=c1cc(-c2ccc(O)c(O)c2)oc2cc(O)cc(O)c12
REMARK SMILES IDX 4 1 3 2 2 3 1 4 21 5 19 6 18 7 16 8 15 9 14 10 13 11 5 12
REMARK SMILES IDX 6 13 7 14 8 15 12 16 10 17 9 18 11 20 20 22 17 24
REMARK H PARENT 9 19 11 21 20 23 17 25
REMARK Flexibility Score: inf
ROOT
ATOM      1  C   UNL     1      18.444  40.338   6.077  1.00  0.00     0.138 A 
ATOM      2  C   UNL     1      19.248  39.407   6.748  1.00  0.00     0.100 A 
ATOM      3  C   UNL     1      20.312  38.801   6.077  1.00  0.00     0.197 A 
ATOM      4  O   UNL     1      21.053  38.018   6.723  1.00  0.00    -0.289 OA
ATOM      5  C   UNL     1      20.551  39.109   4.717  1.00  0.00     0.107 A 
ATOM      6  C   UNL     1      21.579  38.523   3.919  1.00  0.00     0.134 A 
ATOM      7  C   UNL     1      21.794  38.992   2.617  1.00  0.00     0.093 A 
ATOM      8  C   UNL     1      20.980  39.978   2.062  1.00  0.00     0.123 A 
ATOM      9  C   UNL     1      19.937  40.519   2.814  1.00  0.00     0.094 A 
ATOM     10  C   UNL     1      19.719  40.099   4.128  1.00  0.00     0.146 A 
ATOM     11  O   UNL     1      18.723  40.649   4.816  1.00  0.00    -0.456 OA
ENDROOT
BRANCH   1  12
ATOM     12  C   UNL     1      17.300  41.009   6.742  1.00  0.00     0.021 A 
ATOM     13  C   UNL     1      17.024  42.355   6.451  1.00  0.00     0.016 A 
ATOM     14  C   UNL     1      15.950  43.006   7.060  1.00  0.00     0.051 A 
ATOM     15  C   UNL     1      15.123  42.331   7.962  1.00  0.00     0.157 A 
ATOM     16  C   UNL     1      16.459  40.325   7.639  1.00  0.00     0.062 A 
ATOM     17  C   UNL     1      15.377  40.970   8.251  1.00  0.00     0.158 A 
BRANCH  15  18
ATOM     18  O   UNL     1      14.069  43.042   8.539  1.00  0.00    -0.504 OA
ATOM     19  H   UNL     1      13.855  43.033   9.526  1.00  0.00     0.293 HD
ENDBRANCH  15  18
BRANCH  17  20
ATOM     20  O   UNL     1      14.585  40.226   9.129  1.00  0.00    -0.504 OA
ATOM     21  H   UNL     1      14.783  39.274   9.400  1.00  0.00     0.293 HD
ENDBRANCH  17  20
ENDBRANCH   1  12
BRANCH   6  22
ATOM     22  O   UNL     1      22.396  37.472   4.347  1.00  0.00    -0.507 OA
ATOM     23  H   UNL     1      22.066  36.556   4.610  1.00  0.00     0.293 HD
ENDBRANCH   6  22
BRANCH   8  24
ATOM     24  O   UNL     1      21.213  40.408   0.758  1.00  0.00    -0.508 OA
ATOM     25  H   UNL     1      20.896  41.314   0.433  1.00  0.00     0.293 HD
ENDBRANCH   8  24
TORSDOF 5
ENDMDL
MODEL 8
REMARK VINA RESULT:    -4.992      2.386      3.442
REMARK INTER + INTRA:          -6.146
REMARK INTER:                  -5.859
REMARK INTRA:                  -0.287
REMARK UNBOUND:                -0.279
REMARK SMILES O=c1cc(-c2ccc(O)c(O)c2)oc2cc(O)cc(O)c12
REMARK SMILES IDX 4 1 3 2 2 3 1 4 21 5 19 6 18 7 16 8 15 9 14 10 13 11 5 12
REMARK SMILES IDX 6 13 7 14 8 15 12 16 10 17 9 18 11 20 20 22 17 24
REMARK H PARENT 9 19 11 21 20 23 17 25
REMARK Flexibility Score: inf
ROOT
ATOM      1  C   UNL     1      20.082  40.193   4.975  1.00  0.00     0.138 A 
ATOM      2  C   UNL     1      20.916  39.592   5.928  1.00  0.00     0.100 A 
ATOM      3  C   UNL     1      20.456  39.415   7.234  1.00  0.00     0.197 A 
ATOM      4  O   UNL     1      21.204  38.817   8.050  1.00  0.00    -0.289 OA
ATOM      5  C   UNL     1      19.166  39.871   7.593  1.00  0.00     0.107 A 
ATOM      6  C   UNL     1      18.608  39.781   8.904  1.00  0.00     0.134 A 
ATOM      7  C   UNL     1      17.276  40.159   9.114  1.00  0.00     0.093 A 
ATOM      8  C   UNL     1      16.502  40.682   8.078  1.00  0.00     0.123 A 
ATOM      9  C   UNL     1      17.055  40.825   6.805  1.00  0.00     0.094 A 
ATOM     10  C   UNL     1      18.370  40.423   6.555  1.00  0.00     0.146 A 
ATOM     11  O   UNL     1      18.855  40.563   5.325  1.00  0.00    -0.456 OA
ENDROOT
BRANCH   1  12
ATOM     12  C   UNL     1      20.521  40.408   3.573  1.00  0.00     0.021 A 
ATOM     13  C   UNL     1      21.752  41.035   3.323  1.00  0.00     0.016 A 
ATOM     14  C   UNL     1      22.189  41.241   2.014  1.00  0.00     0.051 A 
ATOM     15  C   UNL     1      21.416  40.821   0.928  1.00  0.00     0.157 A 
ATOM     16  C   UNL     1      19.749  39.971   2.481  1.00  0.00     0.062 A 
ATOM     17  C   UNL     1      20.183  40.171   1.164  1.00  0.00     0.158 A 
BRANCH  15  18
ATOM     18  O   UNL     1      21.909  41.063  -0.357  1.00  0.00    -0.504 OA
ATOM     19  H   UNL     1      22.471  40.407  -0.879  1.00  0.00     0.293 HD
ENDBRANCH  15  18
BRANCH  17  20
ATOM     20  O   UNL     1      19.365  39.709   0.131  1.00  0.00    -0.504 OA
ATOM     21  H   UNL     1      18.696  38.960   0.231  1.00  0.00     0.293 HD
ENDBRANCH  17  20
ENDBRANCH   1  12
BRANCH   6  22
ATOM     22  O   UNL     1      19.320  39.352  10.028  1.00  0.00    -0.507 OA
ATOM     23  H   UNL     1      20.317  39.208  10.058  1.00  0.00     0.293 HD
ENDBRANCH   6  22
BRANCH   8  24
ATOM     24  O   UNL     1      15.187  41.063   8.328  1.00  0.00    -0.508 OA
ATOM     25  H   UNL     1      14.737  41.799   7.795  1.00  0.00     0.293 HD
ENDBRANCH   8  24
TORSDOF 5
ENDMDL
MODEL 9
REMARK VINA RESULT:    -4.882      1.572      2.061
REMARK INTER + INTRA:          -6.017
REMARK INTER:                  -5.724
REMARK INTRA:                  -0.293
REMARK UNBOUND:                -0.279
REMARK SMILES O=c1cc(-c2ccc(O)c(O)c2)oc2cc(O)cc(O)c12
REMARK SMILES IDX 4 1 3 2 2 3 1 4 21 5 19 6 18 7 16 8 15 9 14 10 13 11 5 12
REMARK SMILES IDX 6 13 7 14 8 15 12 16 10 17 9 18 11 20 20 22 17 24
REMARK H PARENT 9 19 11 21 20 23 17 25
REMARK Flexibility Score: inf
ROOT
ATOM      1  C   UNL     1      20.674  40.721   3.744  1.00  0.00     0.138 A 
ATOM      2  C   UNL     1      20.341  41.567   4.810  1.00  0.00     0.100 A 
ATOM      3  C   UNL     1      20.296  41.057   6.109  1.00  0.00     0.197 A 
ATOM      4  O   UNL     1      20.055  41.854   7.052  1.00  0.00    -0.289 OA
ATOM      5  C   UNL     1      20.556  39.685   6.335  1.00  0.00     0.107 A 
ATOM      6  C   UNL     1      20.499  39.046   7.609  1.00  0.00     0.134 A 
ATOM      7  C   UNL     1      20.892  37.706   7.728  1.00  0.00     0.093 A 
ATOM      8  C   UNL     1      21.279  36.966   6.611  1.00  0.00     0.123 A 
ATOM      9  C   UNL     1      21.286  37.567   5.351  1.00  0.00     0.094 A 
ATOM     10  C   UNL     1      20.934  38.911   5.205  1.00  0.00     0.146 A 
ATOM     11  O   UNL     1      20.968  39.449   3.990  1.00  0.00    -0.456 OA
ENDROOT
BRANCH   1  12
ATOM     12  C   UNL     1      20.735  41.211   2.344  1.00  0.00     0.021 A 
ATOM     13  C   UNL     1      19.719  42.051   1.862  1.00  0.00     0.016 A 
ATOM     14  C   UNL     1      19.758  42.529   0.551  1.00  0.00     0.051 A 
ATOM     15  C   UNL     1      20.811  42.190  -0.303  1.00  0.00     0.157 A 
ATOM     16  C   UNL     1      21.804  40.881   1.490  1.00  0.00     0.062 A 
ATOM     17  C   UNL     1      21.851  41.360   0.175  1.00  0.00     0.158 A 
BRANCH  15  18
ATOM     18  O   UNL     1      20.786  42.699  -1.604  1.00  0.00    -0.504 OA
ATOM     19  H   UNL     1      20.512  42.162  -2.414  1.00  0.00     0.293 HD
ENDBRANCH  15  18
BRANCH  17  20
ATOM     20  O   UNL     1      22.943  40.992  -0.614  1.00  0.00    -0.504 OA
ATOM     21  H   UNL     1      23.407  40.097  -0.556  1.00  0.00     0.293 HD
ENDBRANCH  17  20
ENDBRANCH   1  12
BRANCH   6  22
ATOM     22  O   UNL     1      20.047  39.669   8.776  1.00  0.00    -0.507 OA
ATOM     23  H   UNL     1      20.629  39.916   9.561  1.00  0.00     0.293 HD
ENDBRANCH   6  22
BRANCH   8  24
ATOM     24  O   UNL     1      21.646  35.632   6.765  1.00  0.00    -0.508 OA
ATOM     25  H   UNL     1      21.742  35.013   5.967  1.00  0.00     0.293 HD
ENDBRANCH   8  24
TORSDOF 5
ENDMDL
