MODEL 1
REMARK VINA RESULT:    -4.633      0.000      0.000
REMARK INTER + INTRA:          -4.633
REMARK INTER:                  -4.633
REMARK INTRA:                   0.000
REMARK UNBOUND:                 0.000
REMARK SMILES c1ccc2nc3ccccc3cc2c1
REMARK SMILES IDX 1 1 2 2 3 3 4 4 13 5 14 6 12 7 11 8 10 9 9 10 8 11 7 12 6 13
REMARK SMILES IDX 5 14
REMARK H PARENT
REMARK Flexibility Score: inf
ROOT
ATOM      1  C   UNL     1      38.235  11.958  22.207  1.00  0.00     0.001 A 
ATOM      2  C   UNL     1      38.384  10.993  21.205  1.00  0.00     0.002 A 
ATOM      3  C   UNL     1      37.310  10.169  20.857  1.00  0.00     0.029 A 
ATOM      4  C   UNL     1      36.080  10.308  21.512  1.00  0.00     0.071 A 
ATOM      5  C   UNL     1      35.926  11.281  22.525  1.00  0.00     0.001 A 
ATOM      6  C   UNL     1      37.011  12.104  22.868  1.00  0.00     0.010 A 
ATOM      7  C   UNL     1      34.689  11.406  23.171  1.00  0.00     0.020 A 
ATOM      8  C   UNL     1      33.626  10.569  22.805  1.00  0.00     0.001 A 
ATOM      9  C   UNL     1      32.376  10.668  23.432  1.00  0.00     0.010 A 
ATOM     10  C   UNL     1      31.331   9.820  23.048  1.00  0.00     0.001 A 
ATOM     11  C   UNL     1      31.530   8.871  22.040  1.00  0.00     0.002 A 
ATOM     12  C   UNL     1      32.774   8.766  21.410  1.00  0.00     0.029 A 
ATOM     13  C   UNL     1      33.825   9.609  21.786  1.00  0.00     0.071 A 
ATOM     14  N   UNL     1      35.034   9.506  21.174  1.00  0.00    -0.248 NA
ENDROOT
TORSDOF 0
ENDMDL
MODEL 2
REMARK VINA RESULT:    -4.630      0.103      4.832
REMARK INTER + INTRA:          -4.630
REMARK INTER:                  -4.630
REMARK INTRA:                   0.000
REMARK UNBOUND:                 0.000
REMARK SMILES c1ccc2nc3ccccc3cc2c1
REMARK SMILES IDX 1 1 2 2 3 3 4 4 13 5 14 6 12 7 11 8 10 9 9 10 8 11 7 12 6 13
REMARK SMILES IDX 5 14
REMARK H PARENT
REMARK Flexibility Score: inf
ROOT
ATOM      1  C   UNL     1      31.303   9.870  23.154  1.00  0.00     0.001 A 
ATOM      2  C   UNL     1      31.465   8.952  22.112  1.00  0.00     0.002 A 
ATOM      3  C   UNL     1      32.687   8.857  21.440  1.00  0.00     0.029 A 
ATOM      4  C   UNL     1      33.755   9.682  21.811  1.00  0.00     0.071 A 
ATOM      5  C   UNL     1      33.595  10.612  22.863  1.00  0.00     0.001 A 
ATOM      6  C   UNL     1      32.364  10.700  23.531  1.00  0.00     0.010 A 
ATOM      7  C   UNL     1      34.674  11.432  23.221  1.00  0.00     0.020 A 
ATOM      8  C   UNL     1      35.891  11.319  22.534  1.00  0.00     0.001 A 
ATOM      9  C   UNL     1      36.989  12.124  22.867  1.00  0.00     0.010 A 
ATOM     10  C   UNL     1      38.192  11.992  22.166  1.00  0.00     0.001 A 
ATOM     11  C   UNL     1      38.304  11.057  21.130  1.00  0.00     0.002 A 
ATOM     12  C   UNL     1      37.213  10.250  20.792  1.00  0.00     0.029 A 
ATOM     13  C   UNL     1      36.006  10.375  21.488  1.00  0.00     0.071 A 
ATOM     14  N   UNL     1      34.945   9.591  21.158  1.00  0.00    -0.248 NA
ENDROOT
TORSDOF 0
ENDMDL
MODEL 3
REMARK VINA RESULT:    -4.522      2.511      5.416
REMARK INTER + INTRA:          -4.522
REMARK INTER:                  -4.522
REMARK INTRA:                   0.000
REMARK UNBOUND:                 0.000
REMARK SMILES c1ccc2nc3ccccc3cc2c1
REMARK SMILES IDX 1 1 2 2 3 3 4 4 13 5 14 6 12 7 11 8 10 9 9 10 8 11 7 12 6 13
REMARK SMILES IDX 5 14
REMARK H PARENT
REMARK Flexibility Score: inf
ROOT
ATOM      1  C   UNL     1      31.459   4.830  19.544  1.00  0.00     0.001 A 
ATOM      2  C   UNL     1      32.723   5.072  18.995  1.00  0.00     0.002 A 
ATOM      3  C   UNL     1      33.447   6.208  19.369  1.00  0.00     0.029 A 
ATOM      4  C   UNL     1      32.908   7.107  20.297  1.00  0.00     0.071 A 
ATOM      5  C   UNL     1      31.632   6.866  20.854  1.00  0.00     0.001 A 
ATOM      6  C   UNL     1      30.912   5.723  20.472  1.00  0.00     0.010 A 
ATOM      7  C   UNL     1      31.107   7.777  21.780  1.00  0.00     0.020 A 
ATOM      8  C   UNL     1      31.851   8.909  22.141  1.00  0.00     0.001 A 
ATOM      9  C   UNL     1      31.355   9.840  23.065  1.00  0.00     0.010 A 
ATOM     10  C   UNL     1      32.118  10.961  23.407  1.00  0.00     0.001 A 
ATOM     11  C   UNL     1      33.377  11.159  22.830  1.00  0.00     0.002 A 
ATOM     12  C   UNL     1      33.879  10.235  21.908  1.00  0.00     0.029 A 
ATOM     13  C   UNL     1      33.124   9.110  21.559  1.00  0.00     0.071 A 
ATOM     14  N   UNL     1      33.612   8.213  20.661  1.00  0.00    -0.248 NA
ENDROOT
TORSDOF 0
ENDMDL
MODEL 4
REMARK VINA RESULT:    -4.518      2.539      4.793
REMARK INTER + INTRA:          -4.518
REMARK INTER:                  -4.518
REMARK INTRA:                   0.000
REMARK UNBOUND:                 0.000
REMARK SMILES c1ccc2nc3ccccc3cc2c1
REMARK SMILES IDX 1 1 2 2 3 3 4 4 13 5 14 6 12 7 11 8 10 9 9 10 8 11 7 12 6 13
REMARK SMILES IDX 5 14
REMARK H PARENT
REMARK Flexibility Score: inf
ROOT
ATOM      1  C   UNL     1      32.067  11.028  23.356  1.00  0.00     0.001 A 
ATOM      2  C   UNL     1      33.314  11.238  22.759  1.00  0.00     0.002 A 
ATOM      3  C   UNL     1      33.824  10.309  21.848  1.00  0.00     0.029 A 
ATOM      4  C   UNL     1      33.085   9.163  21.529  1.00  0.00     0.071 A 
ATOM      5  C   UNL     1      31.824   8.947  22.130  1.00  0.00     0.001 A 
ATOM      6  C   UNL     1      31.321   9.886  23.044  1.00  0.00     0.010 A 
ATOM      7  C   UNL     1      31.098   7.795  21.800  1.00  0.00     0.020 A 
ATOM      8  C   UNL     1      31.629   6.877  20.884  1.00  0.00     0.001 A 
ATOM      9  C   UNL     1      30.928   5.714  20.533  1.00  0.00     0.010 A 
ATOM     10  C   UNL     1      31.481   4.814  19.615  1.00  0.00     0.001 A 
ATOM     11  C   UNL     1      32.733   5.070  19.045  1.00  0.00     0.002 A 
ATOM     12  C   UNL     1      33.438   6.227  19.390  1.00  0.00     0.029 A 
ATOM     13  C   UNL     1      32.894   7.134  20.306  1.00  0.00     0.071 A 
ATOM     14  N   UNL     1      33.581   8.258  20.642  1.00  0.00    -0.248 NA
ENDROOT
TORSDOF 0
ENDMDL
MODEL 5
REMARK VINA RESULT:    -4.488      2.724      5.532
REMARK INTER + INTRA:          -4.488
REMARK INTER:                  -4.488
REMARK INTRA:                   0.000
REMARK UNBOUND:                 0.000
REMARK SMILES c1ccc2nc3ccccc3cc2c1
REMARK SMILES IDX 1 1 2 2 3 3 4 4 13 5 14 6 12 7 11 8 10 9 9 10 8 11 7 12 6 13
REMARK SMILES IDX 5 14
REMARK H PARENT
REMARK Flexibility Score: inf
ROOT
ATOM      1  C   UNL     1      32.629   5.057  19.076  1.00  0.00     0.001 A 
ATOM      2  C   UNL     1      31.377   4.866  19.668  1.00  0.00     0.002 A 
ATOM      3  C   UNL     1      30.877   5.803  20.577  1.00  0.00     0.029 A 
ATOM      4  C   UNL     1      31.631   6.938  20.897  1.00  0.00     0.071 A 
ATOM      5  C   UNL     1      32.897   7.135  20.301  1.00  0.00     0.001 A 
ATOM      6  C   UNL     1      33.390   6.188  19.390  1.00  0.00     0.010 A 
ATOM      7  C   UNL     1      33.639   8.276  20.633  1.00  0.00     0.020 A 
ATOM      8  C   UNL     1      33.118   9.203  21.547  1.00  0.00     0.001 A 
ATOM      9  C   UNL     1      33.836  10.355  21.900  1.00  0.00     0.010 A 
ATOM     10  C   UNL     1      33.293  11.264  22.815  1.00  0.00     0.001 A 
ATOM     11  C   UNL     1      32.035  11.027  23.381  1.00  0.00     0.002 A 
ATOM     12  C   UNL     1      31.313   9.881  23.033  1.00  0.00     0.029 A 
ATOM     13  C   UNL     1      31.847   8.966  22.119  1.00  0.00     0.071 A 
ATOM     14  N   UNL     1      31.146   7.851  21.782  1.00  0.00    -0.248 NA
ENDROOT
TORSDOF 0
ENDMDL
MODEL 6
REMARK VINA RESULT:    -4.476      2.734      4.909
REMARK INTER + INTRA:          -4.476
REMARK INTER:                  -4.476
REMARK INTRA:                   0.000
REMARK UNBOUND:                 0.000
REMARK SMILES c1ccc2nc3ccccc3cc2c1
REMARK SMILES IDX 1 1 2 2 3 3 4 4 13 5 14 6 12 7 11 8 10 9 9 10 8 11 7 12 6 13
REMARK SMILES IDX 5 14
REMARK H PARENT
REMARK Flexibility Score: inf
ROOT
ATOM      1  C   UNL     1      33.271  11.275  22.856  1.00  0.00     0.001 A 
ATOM      2  C   UNL     1      32.020  11.018  23.427  1.00  0.00     0.002 A 
ATOM      3  C   UNL     1      31.303   9.874  23.065  1.00  0.00     0.029 A 
ATOM      4  C   UNL     1      31.836   8.980  22.129  1.00  0.00     0.071 A 
ATOM      5  C   UNL     1      33.100   9.237  21.549  1.00  0.00     0.001 A 
ATOM      6  C   UNL     1      33.812  10.389  21.918  1.00  0.00     0.010 A 
ATOM      7  C   UNL     1      33.619   8.333  20.613  1.00  0.00     0.020 A 
ATOM      8  C   UNL     1      32.882   7.192  20.266  1.00  0.00     0.001 A 
ATOM      9  C   UNL     1      33.373   6.267  19.333  1.00  0.00     0.010 A 
ATOM     10  C   UNL     1      32.618   5.137  19.004  1.00  0.00     0.001 A 
ATOM     11  C   UNL     1      31.371   4.924  19.603  1.00  0.00     0.002 A 
ATOM     12  C   UNL     1      30.875   5.841  20.535  1.00  0.00     0.029 A 
ATOM     13  C   UNL     1      31.622   6.975  20.871  1.00  0.00     0.071 A 
ATOM     14  N   UNL     1      31.139   7.867  21.776  1.00  0.00    -0.248 NA
ENDROOT
TORSDOF 0
ENDMDL
MODEL 7
REMARK VINA RESULT:    -4.414      1.009      5.291
REMARK INTER + INTRA:          -4.414
REMARK INTER:                  -4.414
REMARK INTRA:                   0.000
REMARK UNBOUND:                 0.000
REMARK SMILES c1ccc2nc3ccccc3cc2c1
REMARK SMILES IDX 1 1 2 2 3 3 4 4 13 5 14 6 12 7 11 8 10 9 9 10 8 11 7 12 6 13
REMARK SMILES IDX 5 14
REMARK H PARENT
REMARK Flexibility Score: inf
ROOT
ATOM      1  C   UNL     1      31.294   8.038  21.545  1.00  0.00     0.001 A 
ATOM      2  C   UNL     1      30.875   8.975  22.494  1.00  0.00     0.002 A 
ATOM      3  C   UNL     1      31.758   9.957  22.952  1.00  0.00     0.029 A 
ATOM      4  C   UNL     1      33.068  10.006  22.459  1.00  0.00     0.071 A 
ATOM      5  C   UNL     1      33.495   9.060  21.499  1.00  0.00     0.001 A 
ATOM      6  C   UNL     1      32.601   8.077  21.046  1.00  0.00     0.010 A 
ATOM      7  C   UNL     1      34.809   9.122  21.016  1.00  0.00     0.020 A 
ATOM      8  C   UNL     1      35.677  10.115  21.489  1.00  0.00     0.001 A 
ATOM      9  C   UNL     1      36.998  10.204  21.026  1.00  0.00     0.010 A 
ATOM     10  C   UNL     1      37.844  11.206  21.515  1.00  0.00     0.001 A 
ATOM     11  C   UNL     1      37.378  12.120  22.465  1.00  0.00     0.002 A 
ATOM     12  C   UNL     1      36.062  12.039  22.931  1.00  0.00     0.029 A 
ATOM     13  C   UNL     1      35.207  11.041  22.449  1.00  0.00     0.071 A 
ATOM     14  N   UNL     1      33.929  10.961  22.903  1.00  0.00    -0.248 NA
ENDROOT
TORSDOF 0
ENDMDL
MODEL 8
REMARK VINA RESULT:    -4.403      0.808      2.121
REMARK INTER + INTRA:          -4.403
REMARK INTER:                  -4.403
REMARK INTRA:                   0.000
REMARK UNBOUND:                 0.000
REMARK SMILES c1ccc2nc3ccccc3cc2c1
REMARK SMILES IDX 1 1 2 2 3 3 4 4 13 5 14 6 12 7 11 8 10 9 9 10 8 11 7 12 6 13
REMARK SMILES IDX 5 14
REMARK H PARENT
REMARK Flexibility Score: inf
ROOT
ATOM      1  C   UNL     1      38.339  10.883  21.280  1.00  0.00     0.001 A 
ATOM      2  C   UNL     1      38.144  11.851  22.271  1.00  0.00     0.002 A 
ATOM      3  C   UNL     1      36.897  11.984  22.889  1.00  0.00     0.029 A 
ATOM      4  C   UNL     1      35.839  11.147  22.518  1.00  0.00     0.071 A 
ATOM      5  C   UNL     1      36.031  10.168  21.517  1.00  0.00     0.001 A 
ATOM      6  C   UNL     1      37.287  10.042  20.902  1.00  0.00     0.010 A 
ATOM      7  C   UNL     1      34.961   9.338  21.158  1.00  0.00     0.020 A 
ATOM      8  C   UNL     1      33.720   9.489  21.792  1.00  0.00     0.001 A 
ATOM      9  C   UNL     1      32.629   8.676  21.454  1.00  0.00     0.010 A 
ATOM     10  C   UNL     1      31.401   8.848  22.102  1.00  0.00     0.001 A 
ATOM     11  C   UNL     1      31.257   9.831  23.087  1.00  0.00     0.002 A 
ATOM     12  C   UNL     1      32.340  10.646  23.430  1.00  0.00     0.029 A 
ATOM     13  C   UNL     1      33.572  10.482  22.788  1.00  0.00     0.071 A 
ATOM     14  N   UNL     1      34.625  11.276  23.119  1.00  0.00    -0.248 NA
ENDROOT
TORSDOF 0
ENDMDL
MODEL 9
REMARK VINA RESULT:    -4.302      1.544      2.983
REMARK INTER + INTRA:          -4.302
REMARK INTER:                  -4.302
REMARK INTRA:                   0.000
REMARK UNBOUND:                 0.000
REMARK SMILES c1ccc2nc3ccccc3cc2c1
REMARK SMILES IDX 1 1 2 2 3 3 4 4 13 5 14 6 12 7 11 8 10 9 9 10 8 11 7 12 6 13
REMARK SMILES IDX 5 14
REMARK H PARENT
REMARK Flexibility Score: inf
ROOT
ATOM      1  C   UNL     1      34.776  11.991  23.302  1.00  0.00     0.001 A 
ATOM      2  C   UNL     1      35.876  11.550  22.558  1.00  0.00     0.002 A 
ATOM      3  C   UNL     1      35.764  10.426  21.735  1.00  0.00     0.029 A 
ATOM      4  C   UNL     1      34.547   9.738  21.652  1.00  0.00     0.071 A 
ATOM      5  C   UNL     1      33.434  10.180  22.402  1.00  0.00     0.001 A 
ATOM      6  C   UNL     1      33.557  11.310  23.226  1.00  0.00     0.010 A 
ATOM      7  C   UNL     1      32.224   9.479  22.308  1.00  0.00     0.020 A 
ATOM      8  C   UNL     1      32.135   8.355  21.476  1.00  0.00     0.001 A 
ATOM      9  C   UNL     1      30.939   7.631  21.360  1.00  0.00     0.010 A 
ATOM     10  C   UNL     1      30.877   6.513  20.522  1.00  0.00     0.001 A 
ATOM     11  C   UNL     1      32.005   6.112  19.798  1.00  0.00     0.002 A 
ATOM     12  C   UNL     1      33.201   6.828  19.908  1.00  0.00     0.029 A 
ATOM     13  C   UNL     1      33.274   7.948  20.743  1.00  0.00     0.071 A 
ATOM     14  N   UNL     1      34.437   8.643  20.851  1.00  0.00    -0.248 NA
ENDROOT
TORSDOF 0
ENDMDL
