MODEL 1
REMARK VINA RESULT:    17.319      0.000      0.000
REMARK INTER + INTRA:          42.288
REMARK INTER:                  43.642
REMARK INTRA:                  -1.354
REMARK UNBOUND:                -1.354
REMARK SMILES CCCCCCCCCCCCCCCCCCCCCCCCCCCC(=O)[O-]
REMARK SMILES IDX 15 1 16 2 17 3 18 4 19 5 20 6 21 7 22 8 23 9 24 10 25 11
REMARK SMILES IDX 26 12 27 13 28 14 29 15 30 16 14 17 13 18 12 19 11 20 10 21
REMARK SMILES IDX 9 22 8 23 7 24 6 25 5 26 4 27 3 28 2 29 1 30
REMARK H PARENT
REMARK Flexibility Score: inf
ROOT
ATOM      1  C   UNL     1      13.811 -57.911  -3.784  1.00  0.00     0.000 C 
ENDROOT
BRANCH   1   2
ATOM      2  C   UNL     1      12.605 -58.240  -2.891  1.00  0.00     0.000 C 
BRANCH   2   3
ATOM      3  C   UNL     1      11.427 -57.279  -3.111  1.00  0.00     0.000 C 
BRANCH   3   4
ATOM      4  C   UNL     1      11.711 -56.316  -4.270  1.00  0.00     0.000 C 
BRANCH   4   5
ATOM      5  C   UNL     1      11.529 -54.858  -3.829  1.00  0.00     0.000 C 
BRANCH   5   6
ATOM      6  C   UNL     1      10.307 -54.229  -4.516  1.00  0.00     0.000 C 
BRANCH   6   7
ATOM      7  C   UNL     1       9.051 -54.238  -3.630  1.00  0.00     0.000 C 
BRANCH   7   8
ATOM      8  C   UNL     1       8.399 -52.860  -3.401  1.00  0.00     0.000 C 
BRANCH   8   9
ATOM      9  C   UNL     1       9.405 -51.694  -3.295  1.00  0.00     0.000 C 
BRANCH   9  10
ATOM     10  C   UNL     1       8.754 -50.398  -2.774  1.00  0.00     0.000 C 
BRANCH  10  11
ATOM     11  C   UNL     1       9.669 -49.607  -1.822  1.00  0.00     0.000 C 
BRANCH  11  12
ATOM     12  C   UNL     1      10.371 -48.393  -2.457  1.00  0.00     0.006 C 
BRANCH  12  13
ATOM     13  C   UNL     1      11.901 -48.459  -2.349  1.00  0.00     0.053 C 
BRANCH  13  14
ATOM     14  C   UNL     1      12.331 -48.571  -0.918  1.00  0.00     0.041 C 
ATOM     15  O   UNL     1      11.549 -48.226   0.006  1.00  0.00    -0.550 OA
ATOM     16  O   UNL     1      13.580 -49.094  -0.602  1.00  0.00    -0.550 OA
ENDBRANCH  13  14
ENDBRANCH  12  13
ENDBRANCH  11  12
ENDBRANCH  10  11
ENDBRANCH   9  10
ENDBRANCH   8   9
ENDBRANCH   7   8
ENDBRANCH   6   7
ENDBRANCH   5   6
ENDBRANCH   4   5
ENDBRANCH   3   4
ENDBRANCH   2   3
ENDBRANCH   1   2
BRANCH   1  17
ATOM     17  C   UNL     1      14.777 -59.101  -3.934  1.00  0.00     0.000 C 
BRANCH  17  18
ATOM     18  C   UNL     1      16.187 -58.782  -3.413  1.00  0.00     0.000 C 
BRANCH  18  19
ATOM     19  C   UNL     1      16.787 -59.930  -2.582  1.00  0.00     0.000 C 
BRANCH  19  20
ATOM     20  C   UNL     1      18.285 -60.151  -2.861  1.00  0.00     0.000 C 
BRANCH  20  21
ATOM     21  C   UNL     1      19.050 -58.901  -3.336  1.00  0.00     0.000 C 
BRANCH  21  22
ATOM     22  C   UNL     1      18.777 -57.663  -2.463  1.00  0.00    -0.000 C 
BRANCH  22  23
ATOM     23  C   UNL     1      19.041 -57.912  -0.967  1.00  0.00    -0.000 C 
BRANCH  23  24
ATOM     24  C   UNL     1      17.927 -57.437  -0.016  1.00  0.00    -0.000 C 
BRANCH  24  25
ATOM     25  C   UNL     1      17.358 -56.059  -0.402  1.00  0.00    -0.000 C 
BRANCH  25  26
ATOM     26  C   UNL     1      16.063 -56.159  -1.222  1.00  0.00    -0.000 C 
BRANCH  26  27
ATOM     27  C   UNL     1      16.204 -55.548  -2.626  1.00  0.00    -0.000 C 
BRANCH  27  28
ATOM     28  C   UNL     1      17.401 -54.590  -2.692  1.00  0.00    -0.000 C 
BRANCH  28  29
ATOM     29  C   UNL     1      17.910 -54.381  -4.128  1.00  0.00    -0.003 C 
ATOM     30  C   UNL     1      17.285 -55.358  -5.123  1.00  0.00     0.004 C 
ENDBRANCH  28  29
ENDBRANCH  27  28
ENDBRANCH  26  27
ENDBRANCH  25  26
ENDBRANCH  24  25
ENDBRANCH  23  24
ENDBRANCH  22  23
ENDBRANCH  21  22
ENDBRANCH  20  21
ENDBRANCH  19  20
ENDBRANCH  18  19
ENDBRANCH  17  18
ENDBRANCH   1  17
TORSDOF 26
ENDMDL
MODEL 2
REMARK VINA RESULT:    17.911      2.377      9.121
REMARK INTER + INTRA:          43.781
REMARK INTER:                  45.950
REMARK INTRA:                  -2.169
REMARK UNBOUND:                -1.354
REMARK SMILES CCCCCCCCCCCCCCCCCCCCCCCCCCCC(=O)[O-]
REMARK SMILES IDX 15 1 16 2 17 3 18 4 19 5 20 6 21 7 22 8 23 9 24 10 25 11
REMARK SMILES IDX 26 12 27 13 28 14 29 15 30 16 14 17 13 18 12 19 11 20 10 21
REMARK SMILES IDX 9 22 8 23 7 24 6 25 5 26 4 27 3 28 2 29 1 30
REMARK H PARENT
REMARK Flexibility Score: inf
ROOT
ATOM      1  C   UNL     1      12.432 -58.164  -2.882  1.00  0.00     0.000 C 
ENDROOT
BRANCH   1   2
ATOM      2  C   UNL     1      13.332 -58.309  -4.119  1.00  0.00     0.000 C 
BRANCH   2   3
ATOM      3  C   UNL     1      14.802 -57.977  -3.821  1.00  0.00     0.000 C 
BRANCH   3   4
ATOM      4  C   UNL     1      15.700 -59.200  -4.046  1.00  0.00     0.000 C 
BRANCH   4   5
ATOM      5  C   UNL     1      16.380 -59.628  -2.740  1.00  0.00     0.000 C 
BRANCH   5   6
ATOM      6  C   UNL     1      17.593 -60.527  -3.025  1.00  0.00     0.000 C 
BRANCH   6   7
ATOM      7  C   UNL     1      18.930 -59.773  -2.941  1.00  0.00     0.000 C 
BRANCH   7   8
ATOM      8  C   UNL     1      18.812 -58.245  -2.774  1.00  0.00     0.000 C 
BRANCH   8   9
ATOM      9  C   UNL     1      19.125 -57.739  -1.350  1.00  0.00     0.000 C 
BRANCH   9  10
ATOM     10  C   UNL     1      17.851 -57.400  -0.552  1.00  0.00     0.000 C 
BRANCH  10  11
ATOM     11  C   UNL     1      16.846 -56.553  -1.354  1.00  0.00     0.000 C 
BRANCH  11  12
ATOM     12  C   UNL     1      17.429 -55.272  -1.978  1.00  0.00     0.006 C 
BRANCH  12  13
ATOM     13  C   UNL     1      16.620 -54.769  -3.182  1.00  0.00     0.053 C 
BRANCH  13  14
ATOM     14  C   UNL     1      17.453 -54.780  -4.427  1.00  0.00     0.041 C 
ATOM     15  O   UNL     1      17.647 -55.858  -5.048  1.00  0.00    -0.550 OA
ATOM     16  O   UNL     1      17.982 -53.595  -4.926  1.00  0.00    -0.550 OA
ENDBRANCH  13  14
ENDBRANCH  12  13
ENDBRANCH  11  12
ENDBRANCH  10  11
ENDBRANCH   9  10
ENDBRANCH   8   9
ENDBRANCH   7   8
ENDBRANCH   6   7
ENDBRANCH   5   6
ENDBRANCH   4   5
ENDBRANCH   3   4
ENDBRANCH   2   3
ENDBRANCH   1   2
BRANCH   1  17
ATOM     17  C   UNL     1      11.299 -57.142  -3.093  1.00  0.00     0.000 C 
BRANCH  17  18
ATOM     18  C   UNL     1      11.829 -55.721  -3.338  1.00  0.00     0.000 C 
BRANCH  18  19
ATOM     19  C   UNL     1      11.232 -55.073  -4.601  1.00  0.00     0.000 C 
BRANCH  19  20
ATOM     20  C   UNL     1      10.662 -53.667  -4.338  1.00  0.00     0.000 C 
BRANCH  20  21
ATOM     21  C   UNL     1       9.484 -53.616  -3.347  1.00  0.00     0.000 C 
BRANCH  21  22
ATOM     22  C   UNL     1       8.343 -52.696  -3.818  1.00  0.00    -0.000 C 
BRANCH  22  23
ATOM     23  C   UNL     1       8.598 -51.212  -3.501  1.00  0.00    -0.000 C 
BRANCH  23  24
ATOM     24  C   UNL     1       8.582 -50.848  -2.005  1.00  0.00    -0.000 C 
BRANCH  24  25
ATOM     25  C   UNL     1       9.508 -49.665  -1.668  1.00  0.00    -0.000 C 
BRANCH  25  26
ATOM     26  C   UNL     1       9.487 -48.568  -2.744  1.00  0.00    -0.000 C 
BRANCH  26  27
ATOM     27  C   UNL     1      10.880 -47.976  -3.011  1.00  0.00    -0.000 C 
BRANCH  27  28
ATOM     28  C   UNL     1      11.982 -48.889  -2.455  1.00  0.00    -0.000 C 
BRANCH  28  29
ATOM     29  C   UNL     1      12.729 -48.256  -1.270  1.00  0.00    -0.003 C 
ATOM     30  C   UNL     1      13.427 -49.295  -0.392  1.00  0.00     0.004 C 
ENDBRANCH  28  29
ENDBRANCH  27  28
ENDBRANCH  26  27
ENDBRANCH  25  26
ENDBRANCH  24  25
ENDBRANCH  23  24
ENDBRANCH  22  23
ENDBRANCH  21  22
ENDBRANCH  20  21
ENDBRANCH  19  20
ENDBRANCH  18  19
ENDBRANCH  17  18
ENDBRANCH   1  17
TORSDOF 26
ENDMDL
MODEL 3
REMARK VINA RESULT:    18.069      2.038      2.838
REMARK INTER + INTRA:          44.179
REMARK INTER:                  44.576
REMARK INTRA:                  -0.397
REMARK UNBOUND:                -1.354
REMARK SMILES CCCCCCCCCCCCCCCCCCCCCCCCCCCC(=O)[O-]
REMARK SMILES IDX 15 1 16 2 17 3 18 4 19 5 20 6 21 7 22 8 23 9 24 10 25 11
REMARK SMILES IDX 26 12 27 13 28 14 29 15 30 16 14 17 13 18 12 19 11 20 10 21
REMARK SMILES IDX 9 22 8 23 7 24 6 25 5 26 4 27 3 28 2 29 1 30
REMARK H PARENT
REMARK Flexibility Score: inf
ROOT
ATOM      1  C   UNL     1      12.455 -58.014  -3.010  1.00  0.00     0.000 C 
ENDROOT
BRANCH   1   2
ATOM      2  C   UNL     1      11.307 -56.992  -3.006  1.00  0.00     0.000 C 
BRANCH   2   3
ATOM      3  C   UNL     1      11.261 -56.151  -4.291  1.00  0.00     0.000 C 
BRANCH   3   4
ATOM      4  C   UNL     1      11.530 -54.672  -3.992  1.00  0.00     0.000 C 
BRANCH   4   5
ATOM      5  C   UNL     1      10.340 -53.801  -4.416  1.00  0.00     0.000 C 
BRANCH   5   6
ATOM      6  C   UNL     1       9.526 -53.355  -3.191  1.00  0.00     0.000 C 
BRANCH   6   7
ATOM      7  C   UNL     1       8.455 -52.307  -3.535  1.00  0.00     0.000 C 
BRANCH   7   8
ATOM      8  C   UNL     1       8.937 -50.842  -3.506  1.00  0.00     0.000 C 
BRANCH   8   9
ATOM      9  C   UNL     1       9.217 -50.297  -2.090  1.00  0.00     0.000 C 
BRANCH   9  10
ATOM     10  C   UNL     1      10.300 -49.201  -2.084  1.00  0.00     0.000 C 
BRANCH  10  11
ATOM     11  C   UNL     1       9.827 -47.885  -2.727  1.00  0.00     0.000 C 
BRANCH  11  12
ATOM     12  C   UNL     1       8.872 -47.044  -1.860  1.00  0.00     0.006 C 
BRANCH  12  13
ATOM     13  C   UNL     1       8.007 -46.079  -2.683  1.00  0.00     0.053 C 
BRANCH  13  14
ATOM     14  C   UNL     1       7.082 -45.302  -1.795  1.00  0.00     0.041 C 
ATOM     15  O   UNL     1       7.042 -45.543  -0.560  1.00  0.00    -0.550 OA
ATOM     16  O   UNL     1       6.295 -44.286  -2.324  1.00  0.00    -0.550 OA
ENDBRANCH  13  14
ENDBRANCH  12  13
ENDBRANCH  11  12
ENDBRANCH  10  11
ENDBRANCH   9  10
ENDBRANCH   8   9
ENDBRANCH   7   8
ENDBRANCH   6   7
ENDBRANCH   5   6
ENDBRANCH   4   5
ENDBRANCH   3   4
ENDBRANCH   2   3
ENDBRANCH   1   2
BRANCH   1  17
ATOM     17  C   UNL     1      13.448 -57.780  -4.163  1.00  0.00     0.000 C 
BRANCH  17  18
ATOM     18  C   UNL     1      14.908 -57.988  -3.731  1.00  0.00     0.000 C 
BRANCH  18  19
ATOM     19  C   UNL     1      15.351 -59.459  -3.820  1.00  0.00     0.000 C 
BRANCH  19  20
ATOM     20  C   UNL     1      16.407 -59.830  -2.763  1.00  0.00     0.000 C 
BRANCH  20  21
ATOM     21  C   UNL     1      17.727 -60.389  -3.329  1.00  0.00     0.000 C 
BRANCH  21  22
ATOM     22  C   UNL     1      18.944 -59.509  -2.990  1.00  0.00    -0.000 C 
BRANCH  22  23
ATOM     23  C   UNL     1      18.554 -58.158  -2.364  1.00  0.00    -0.000 C 
BRANCH  23  24
ATOM     24  C   UNL     1      19.094 -57.911  -0.944  1.00  0.00    -0.000 C 
BRANCH  24  25
ATOM     25  C   UNL     1      18.066 -57.228  -0.024  1.00  0.00    -0.000 C 
BRANCH  25  26
ATOM     26  C   UNL     1      17.214 -56.180  -0.758  1.00  0.00    -0.000 C 
BRANCH  26  27
ATOM     27  C   UNL     1      17.532 -56.107  -2.260  1.00  0.00    -0.000 C 
BRANCH  27  28
ATOM     28  C   UNL     1      16.615 -55.100  -2.968  1.00  0.00    -0.000 C 
BRANCH  28  29
ATOM     29  C   UNL     1      17.339 -54.324  -4.079  1.00  0.00    -0.003 C 
ATOM     30  C   UNL     1      17.738 -55.214  -5.256  1.00  0.00     0.004 C 
ENDBRANCH  28  29
ENDBRANCH  27  28
ENDBRANCH  26  27
ENDBRANCH  25  26
ENDBRANCH  24  25
ENDBRANCH  23  24
ENDBRANCH  22  23
ENDBRANCH  21  22
ENDBRANCH  20  21
ENDBRANCH  19  20
ENDBRANCH  18  19
ENDBRANCH  17  18
ENDBRANCH   1  17
TORSDOF 26
ENDMDL
MODEL 4
REMARK VINA RESULT:    18.083      2.708      9.960
REMARK INTER + INTRA:          44.214
REMARK INTER:                  44.908
REMARK INTRA:                  -0.694
REMARK UNBOUND:                -1.354
REMARK SMILES CCCCCCCCCCCCCCCCCCCCCCCCCCCC(=O)[O-]
REMARK SMILES IDX 15 1 16 2 17 3 18 4 19 5 20 6 21 7 22 8 23 9 24 10 25 11
REMARK SMILES IDX 26 12 27 13 28 14 29 15 30 16 14 17 13 18 12 19 11 20 10 21
REMARK SMILES IDX 9 22 8 23 7 24 6 25 5 26 4 27 3 28 2 29 1 30
REMARK H PARENT
REMARK Flexibility Score: inf
ROOT
ATOM      1  C   UNL     1      11.636 -57.624  -3.263  1.00  0.00     0.000 C 
ENDROOT
BRANCH   1   2
ATOM      2  C   UNL     1      13.148 -57.350  -3.252  1.00  0.00     0.000 C 
BRANCH   2   3
ATOM      3  C   UNL     1      13.884 -58.052  -4.405  1.00  0.00     0.000 C 
BRANCH   3   4
ATOM      4  C   UNL     1      14.675 -59.263  -3.897  1.00  0.00     0.000 C 
BRANCH   4   5
ATOM      5  C   UNL     1      15.994 -58.824  -3.249  1.00  0.00     0.000 C 
BRANCH   5   6
ATOM      6  C   UNL     1      16.854 -60.042  -2.880  1.00  0.00     0.000 C 
BRANCH   6   7
ATOM      7  C   UNL     1      18.361 -59.744  -2.915  1.00  0.00     0.000 C 
BRANCH   7   8
ATOM      8  C   UNL     1      18.733 -58.250  -3.008  1.00  0.00     0.000 C 
BRANCH   8   9
ATOM      9  C   UNL     1      19.108 -57.607  -1.656  1.00  0.00     0.000 C 
BRANCH   9  10
ATOM     10  C   UNL     1      17.882 -57.045  -0.909  1.00  0.00     0.000 C 
BRANCH  10  11
ATOM     11  C   UNL     1      16.674 -56.806  -1.833  1.00  0.00     0.000 C 
BRANCH  11  12
ATOM     12  C   UNL     1      16.430 -55.336  -2.216  1.00  0.00     0.006 C 
BRANCH  12  13
ATOM     13  C   UNL     1      17.666 -54.661  -2.828  1.00  0.00     0.053 C 
BRANCH  13  14
ATOM     14  C   UNL     1      17.587 -54.657  -4.324  1.00  0.00     0.041 C 
ATOM     15  O   UNL     1      17.861 -53.611  -4.969  1.00  0.00    -0.550 OA
ATOM     16  O   UNL     1      17.251 -55.819  -5.010  1.00  0.00    -0.550 OA
ENDBRANCH  13  14
ENDBRANCH  12  13
ENDBRANCH  11  12
ENDBRANCH  10  11
ENDBRANCH   9  10
ENDBRANCH   8   9
ENDBRANCH   7   8
ENDBRANCH   6   7
ENDBRANCH   5   6
ENDBRANCH   4   5
ENDBRANCH   3   4
ENDBRANCH   2   3
ENDBRANCH   1   2
BRANCH   1  17
ATOM     17  C   UNL     1      10.811 -56.364  -3.583  1.00  0.00     0.000 C 
BRANCH  17  18
ATOM     18  C   UNL     1      11.690 -55.178  -4.009  1.00  0.00     0.000 C 
BRANCH  18  19
ATOM     19  C   UNL     1      10.878 -53.893  -4.248  1.00  0.00     0.000 C 
BRANCH  19  20
ATOM     20  C   UNL     1       9.393 -54.046  -3.873  1.00  0.00     0.000 C 
BRANCH  20  21
ATOM     21  C   UNL     1       8.623 -52.722  -3.704  1.00  0.00     0.000 C 
BRANCH  21  22
ATOM     22  C   UNL     1       9.193 -51.837  -2.581  1.00  0.00    -0.000 C 
BRANCH  22  23
ATOM     23  C   UNL     1       9.173 -50.337  -2.929  1.00  0.00    -0.000 C 
BRANCH  23  24
ATOM     24  C   UNL     1       9.935 -49.426  -1.950  1.00  0.00    -0.000 C 
BRANCH  24  25
ATOM     25  C   UNL     1      10.641 -48.252  -2.652  1.00  0.00    -0.000 C 
BRANCH  25  26
ATOM     26  C   UNL     1       9.660 -47.318  -3.379  1.00  0.00    -0.000 C 
BRANCH  26  27
ATOM     27  C   UNL     1       8.577 -46.755  -2.445  1.00  0.00    -0.000 C 
BRANCH  27  28
ATOM     28  C   UNL     1       8.029 -45.424  -2.978  1.00  0.00    -0.000 C 
BRANCH  28  29
ATOM     29  C   UNL     1       6.713 -45.013  -2.297  1.00  0.00    -0.003 C 
ATOM     30  C   UNL     1       6.817 -45.008  -0.772  1.00  0.00     0.004 C 
ENDBRANCH  28  29
ENDBRANCH  27  28
ENDBRANCH  26  27
ENDBRANCH  25  26
ENDBRANCH  24  25
ENDBRANCH  23  24
ENDBRANCH  22  23
ENDBRANCH  21  22
ENDBRANCH  20  21
ENDBRANCH  19  20
ENDBRANCH  18  19
ENDBRANCH  17  18
ENDBRANCH   1  17
TORSDOF 26
ENDMDL
MODEL 5
REMARK VINA RESULT:    18.364      0.825      2.669
REMARK INTER + INTRA:          44.923
REMARK INTER:                  45.558
REMARK INTRA:                  -0.635
REMARK UNBOUND:                -1.354
REMARK SMILES CCCCCCCCCCCCCCCCCCCCCCCCCCCC(=O)[O-]
REMARK SMILES IDX 15 1 16 2 17 3 18 4 19 5 20 6 21 7 22 8 23 9 24 10 25 11
REMARK SMILES IDX 26 12 27 13 28 14 29 15 30 16 14 17 13 18 12 19 11 20 10 21
REMARK SMILES IDX 9 22 8 23 7 24 6 25 5 26 4 27 3 28 2 29 1 30
REMARK H PARENT
REMARK Flexibility Score: inf
ROOT
ATOM      1  C   UNL     1      11.087 -56.851  -3.611  1.00  0.00     0.000 C 
ENDROOT
BRANCH   1   2
ATOM      2  C   UNL     1      11.547 -55.581  -4.344  1.00  0.00     0.000 C 
BRANCH   2   3
ATOM      3  C   UNL     1      10.911 -54.306  -3.770  1.00  0.00     0.000 C 
BRANCH   3   4
ATOM      4  C   UNL     1       9.454 -54.162  -4.226  1.00  0.00     0.000 C 
BRANCH   4   5
ATOM      5  C   UNL     1       8.699 -53.161  -3.343  1.00  0.00     0.000 C 
BRANCH   5   6
ATOM      6  C   UNL     1       9.400 -51.794  -3.344  1.00  0.00     0.000 C 
BRANCH   6   7
ATOM      7  C   UNL     1       8.616 -50.719  -2.575  1.00  0.00     0.000 C 
BRANCH   7   8
ATOM      8  C   UNL     1       9.473 -49.774  -1.708  1.00  0.00     0.000 C 
BRANCH   8   9
ATOM      9  C   UNL     1       9.393 -48.290  -2.123  1.00  0.00     0.000 C 
BRANCH   9  10
ATOM     10  C   UNL     1      10.063 -48.021  -3.485  1.00  0.00     0.000 C 
BRANCH  10  11
ATOM     11  C   UNL     1      11.324 -48.873  -3.713  1.00  0.00     0.000 C 
BRANCH  11  12
ATOM     12  C   UNL     1      12.139 -49.179  -2.443  1.00  0.00     0.006 C 
BRANCH  12  13
ATOM     13  C   UNL     1      12.431 -47.929  -1.601  1.00  0.00     0.053 C 
BRANCH  13  14
ATOM     14  C   UNL     1      13.107 -48.298  -0.315  1.00  0.00     0.041 C 
ATOM     15  O   UNL     1      12.942 -47.587   0.712  1.00  0.00    -0.550 OA
ATOM     16  O   UNL     1      13.886 -49.447  -0.239  1.00  0.00    -0.550 OA
ENDBRANCH  13  14
ENDBRANCH  12  13
ENDBRANCH  11  12
ENDBRANCH  10  11
ENDBRANCH   9  10
ENDBRANCH   8   9
ENDBRANCH   7   8
ENDBRANCH   6   7
ENDBRANCH   5   6
ENDBRANCH   4   5
ENDBRANCH   3   4
ENDBRANCH   2   3
ENDBRANCH   1   2
BRANCH   1  17
ATOM     17  C   UNL     1      12.195 -57.457  -2.730  1.00  0.00     0.000 C 
BRANCH  17  18
ATOM     18  C   UNL     1      13.595 -57.273  -3.336  1.00  0.00     0.000 C 
BRANCH  18  19
ATOM     19  C   UNL     1      13.898 -58.291  -4.450  1.00  0.00     0.000 C 
BRANCH  19  20
ATOM     20  C   UNL     1      14.829 -59.426  -3.984  1.00  0.00     0.000 C 
BRANCH  20  21
ATOM     21  C   UNL     1      16.102 -58.964  -3.249  1.00  0.00     0.000 C 
BRANCH  21  22
ATOM     22  C   UNL     1      17.036 -60.130  -2.878  1.00  0.00    -0.000 C 
BRANCH  22  23
ATOM     23  C   UNL     1      18.521 -59.724  -2.849  1.00  0.00    -0.000 C 
BRANCH  23  24
ATOM     24  C   UNL     1      18.789 -58.209  -2.886  1.00  0.00    -0.000 C 
BRANCH  24  25
ATOM     25  C   UNL     1      18.822 -57.573  -1.485  1.00  0.00    -0.000 C 
BRANCH  25  26
ATOM     26  C   UNL     1      17.656 -56.602  -1.244  1.00  0.00    -0.000 C 
BRANCH  26  27
ATOM     27  C   UNL     1      17.050 -56.069  -2.552  1.00  0.00    -0.000 C 
BRANCH  27  28
ATOM     28  C   UNL     1      17.417 -54.595  -2.768  1.00  0.00    -0.000 C 
BRANCH  28  29
ATOM     29  C   UNL     1      17.565 -54.236  -4.256  1.00  0.00    -0.003 C 
ATOM     30  C   UNL     1      17.634 -55.470  -5.155  1.00  0.00     0.004 C 
ENDBRANCH  28  29
ENDBRANCH  27  28
ENDBRANCH  26  27
ENDBRANCH  25  26
ENDBRANCH  24  25
ENDBRANCH  23  24
ENDBRANCH  22  23
ENDBRANCH  21  22
ENDBRANCH  20  21
ENDBRANCH  19  20
ENDBRANCH  18  19
ENDBRANCH  17  18
ENDBRANCH   1  17
TORSDOF 26
ENDMDL
MODEL 6
REMARK VINA RESULT:    18.630      2.704      5.346
REMARK INTER + INTRA:          45.592
REMARK INTER:                  46.956
REMARK INTRA:                  -1.364
REMARK UNBOUND:                -1.354
REMARK SMILES CCCCCCCCCCCCCCCCCCCCCCCCCCCC(=O)[O-]
REMARK SMILES IDX 15 1 16 2 17 3 18 4 19 5 20 6 21 7 22 8 23 9 24 10 25 11
REMARK SMILES IDX 26 12 27 13 28 14 29 15 30 16 14 17 13 18 12 19 11 20 10 21
REMARK SMILES IDX 9 22 8 23 7 24 6 25 5 26 4 27 3 28 2 29 1 30
REMARK H PARENT
REMARK Flexibility Score: inf
ROOT
ATOM      1  C   UNL     1       9.556 -54.185  -3.475  1.00  0.00     0.000 C 
ENDROOT
BRANCH   1   2
ATOM      2  C   UNL     1       8.824 -52.907  -3.910  1.00  0.00     0.000 C 
BRANCH   2   3
ATOM      3  C   UNL     1       8.592 -51.933  -2.745  1.00  0.00     0.000 C 
BRANCH   3   4
ATOM      4  C   UNL     1       9.462 -50.679  -2.892  1.00  0.00     0.000 C 
BRANCH   4   5
ATOM      5  C   UNL     1       9.321 -49.766  -1.669  1.00  0.00     0.000 C 
BRANCH   5   6
ATOM      6  C   UNL     1      10.554 -48.862  -1.515  1.00  0.00     0.000 C 
BRANCH   6   7
ATOM      7  C   UNL     1      11.207 -48.508  -2.861  1.00  0.00     0.000 C 
BRANCH   7   8
ATOM      8  C   UNL     1      10.391 -47.552  -3.755  1.00  0.00     0.000 C 
BRANCH   8   9
ATOM      9  C   UNL     1       9.355 -46.701  -2.990  1.00  0.00     0.000 C 
BRANCH   9  10
ATOM     10  C   UNL     1       8.194 -46.235  -3.891  1.00  0.00     0.000 C 
BRANCH  10  11
ATOM     11  C   UNL     1       7.622 -44.868  -3.474  1.00  0.00     0.000 C 
BRANCH  11  12
ATOM     12  C   UNL     1       6.190 -44.907  -2.912  1.00  0.00     0.006 C 
BRANCH  12  13
ATOM     13  C   UNL     1       6.000 -44.002  -1.688  1.00  0.00     0.053 C 
BRANCH  13  14
ATOM     14  C   UNL     1       6.722 -44.556  -0.497  1.00  0.00     0.041 C 
ATOM     15  O   UNL     1       6.802 -43.881   0.564  1.00  0.00    -0.550 OA
ATOM     16  O   UNL     1       7.271 -45.832  -0.543  1.00  0.00    -0.550 OA
ENDBRANCH  13  14
ENDBRANCH  12  13
ENDBRANCH  11  12
ENDBRANCH  10  11
ENDBRANCH   9  10
ENDBRANCH   8   9
ENDBRANCH   7   8
ENDBRANCH   6   7
ENDBRANCH   5   6
ENDBRANCH   4   5
ENDBRANCH   3   4
ENDBRANCH   2   3
ENDBRANCH   1   2
BRANCH   1  17
ATOM     17  C   UNL     1      10.817 -54.459  -4.316  1.00  0.00     0.000 C 
BRANCH  17  18
ATOM     18  C   UNL     1      11.131 -55.959  -4.432  1.00  0.00     0.000 C 
BRANCH  18  19
ATOM     19  C   UNL     1      11.660 -56.558  -3.117  1.00  0.00     0.000 C 
BRANCH  19  20
ATOM     20  C   UNL     1      12.619 -57.741  -3.343  1.00  0.00     0.000 C 
BRANCH  20  21
ATOM     21  C   UNL     1      14.033 -57.352  -3.816  1.00  0.00     0.000 C 
BRANCH  21  22
ATOM     22  C   UNL     1      14.838 -58.551  -4.348  1.00  0.00    -0.000 C 
BRANCH  22  23
ATOM     23  C   UNL     1      15.009 -59.670  -3.304  1.00  0.00    -0.000 C 
BRANCH  23  24
ATOM     24  C   UNL     1      16.464 -59.986  -2.912  1.00  0.00    -0.000 C 
BRANCH  24  25
ATOM     25  C   UNL     1      17.053 -58.962  -1.925  1.00  0.00    -0.000 C 
BRANCH  25  26
ATOM     26  C   UNL     1      18.015 -57.971  -2.599  1.00  0.00    -0.000 C 
BRANCH  26  27
ATOM     27  C   UNL     1      17.948 -56.566  -1.979  1.00  0.00    -0.000 C 
BRANCH  27  28
ATOM     28  C   UNL     1      16.874 -55.712  -2.667  1.00  0.00    -0.000 C 
BRANCH  28  29
ATOM     29  C   UNL     1      17.475 -54.656  -3.608  1.00  0.00    -0.003 C 
ATOM     30  C   UNL     1      17.551 -55.134  -5.058  1.00  0.00     0.004 C 
ENDBRANCH  28  29
ENDBRANCH  27  28
ENDBRANCH  26  27
ENDBRANCH  25  26
ENDBRANCH  24  25
ENDBRANCH  23  24
ENDBRANCH  22  23
ENDBRANCH  21  22
ENDBRANCH  20  21
ENDBRANCH  19  20
ENDBRANCH  18  19
ENDBRANCH  17  18
ENDBRANCH   1  17
TORSDOF 26
ENDMDL
MODEL 7
REMARK VINA RESULT:    18.707      2.353      3.853
REMARK INTER + INTRA:          45.786
REMARK INTER:                  47.363
REMARK INTRA:                  -1.577
REMARK UNBOUND:                -1.354
REMARK SMILES CCCCCCCCCCCCCCCCCCCCCCCCCCCC(=O)[O-]
REMARK SMILES IDX 15 1 16 2 17 3 18 4 19 5 20 6 21 7 22 8 23 9 24 10 25 11
REMARK SMILES IDX 26 12 27 13 28 14 29 15 30 16 14 17 13 18 12 19 11 20 10 21
REMARK SMILES IDX 9 22 8 23 7 24 6 25 5 26 4 27 3 28 2 29 1 30
REMARK H PARENT
REMARK Flexibility Score: inf
ROOT
ATOM      1  C   UNL     1      10.893 -56.770  -3.531  1.00  0.00     0.000 C 
ENDROOT
BRANCH   1   2
ATOM      2  C   UNL     1      11.325 -55.365  -3.980  1.00  0.00     0.000 C 
BRANCH   2   3
ATOM      3  C   UNL     1      10.135 -54.482  -4.385  1.00  0.00     0.000 C 
BRANCH   3   4
ATOM      4  C   UNL     1      10.042 -53.239  -3.492  1.00  0.00     0.000 C 
BRANCH   4   5
ATOM      5  C   UNL     1       8.591 -52.756  -3.373  1.00  0.00     0.000 C 
BRANCH   5   6
ATOM      6  C   UNL     1       8.527 -51.221  -3.343  1.00  0.00     0.000 C 
BRANCH   6   7
ATOM      7  C   UNL     1       9.862 -50.574  -2.942  1.00  0.00     0.000 C 
BRANCH   7   8
ATOM      8  C   UNL     1       9.811 -49.690  -1.680  1.00  0.00     0.000 C 
BRANCH   8   9
ATOM      9  C   UNL     1      10.707 -48.435  -1.751  1.00  0.00     0.000 C 
BRANCH   9  10
ATOM     10  C   UNL     1      10.592 -47.704  -3.103  1.00  0.00     0.000 C 
BRANCH  10  11
ATOM     11  C   UNL     1       9.157 -47.243  -3.416  1.00  0.00     0.000 C 
BRANCH  11  12
ATOM     12  C   UNL     1       8.428 -46.550  -2.251  1.00  0.00     0.006 C 
BRANCH  12  13
ATOM     13  C   UNL     1       7.991 -45.117  -2.584  1.00  0.00     0.053 C 
BRANCH  13  14
ATOM     14  C   UNL     1       6.718 -44.768  -1.874  1.00  0.00     0.041 C 
ATOM     15  O   UNL     1       6.623 -44.934  -0.629  1.00  0.00    -0.550 OA
ATOM     16  O   UNL     1       5.651 -44.221  -2.578  1.00  0.00    -0.550 OA
ENDBRANCH  13  14
ENDBRANCH  12  13
ENDBRANCH  11  12
ENDBRANCH  10  11
ENDBRANCH   9  10
ENDBRANCH   8   9
ENDBRANCH   7   8
ENDBRANCH   6   7
ENDBRANCH   5   6
ENDBRANCH   4   5
ENDBRANCH   3   4
ENDBRANCH   2   3
ENDBRANCH   1   2
BRANCH   1  17
ATOM     17  C   UNL     1      12.079 -57.624  -3.044  1.00  0.00     0.000 C 
BRANCH  17  18
ATOM     18  C   UNL     1      13.406 -57.216  -3.701  1.00  0.00     0.000 C 
BRANCH  18  19
ATOM     19  C   UNL     1      14.144 -58.406  -4.339  1.00  0.00     0.000 C 
BRANCH  19  20
ATOM     20  C   UNL     1      15.036 -59.162  -3.337  1.00  0.00     0.000 C 
BRANCH  20  21
ATOM     21  C   UNL     1      16.168 -59.994  -3.970  1.00  0.00     0.000 C 
BRANCH  21  22
ATOM     22  C   UNL     1      17.172 -60.527  -2.933  1.00  0.00    -0.000 C 
BRANCH  22  23
ATOM     23  C   UNL     1      18.626 -60.125  -3.241  1.00  0.00    -0.000 C 
BRANCH  23  24
ATOM     24  C   UNL     1      19.103 -58.824  -2.571  1.00  0.00    -0.000 C 
BRANCH  24  25
ATOM     25  C   UNL     1      17.971 -58.073  -1.848  1.00  0.00    -0.000 C 
BRANCH  25  26
ATOM     26  C   UNL     1      18.457 -56.795  -1.146  1.00  0.00    -0.000 C 
BRANCH  26  27
ATOM     27  C   UNL     1      17.716 -55.538  -1.630  1.00  0.00    -0.000 C 
BRANCH  27  28
ATOM     28  C   UNL     1      17.177 -55.730  -3.054  1.00  0.00    -0.000 C 
BRANCH  28  29
ATOM     29  C   UNL     1      17.601 -54.597  -4.002  1.00  0.00    -0.003 C 
ATOM     30  C   UNL     1      17.492 -54.991  -5.475  1.00  0.00     0.004 C 
ENDBRANCH  28  29
ENDBRANCH  27  28
ENDBRANCH  26  27
ENDBRANCH  25  26
ENDBRANCH  24  25
ENDBRANCH  23  24
ENDBRANCH  22  23
ENDBRANCH  21  22
ENDBRANCH  20  21
ENDBRANCH  19  20
ENDBRANCH  18  19
ENDBRANCH  17  18
ENDBRANCH   1  17
TORSDOF 26
ENDMDL
MODEL 8
REMARK VINA RESULT:    19.033      2.917     10.470
REMARK INTER + INTRA:          46.608
REMARK INTER:                  46.905
REMARK INTRA:                  -0.297
REMARK UNBOUND:                -1.354
REMARK SMILES CCCCCCCCCCCCCCCCCCCCCCCCCCCC(=O)[O-]
REMARK SMILES IDX 15 1 16 2 17 3 18 4 19 5 20 6 21 7 22 8 23 9 24 10 25 11
REMARK SMILES IDX 26 12 27 13 28 14 29 15 30 16 14 17 13 18 12 19 11 20 10 21
REMARK SMILES IDX 9 22 8 23 7 24 6 25 5 26 4 27 3 28 2 29 1 30
REMARK H PARENT
REMARK Flexibility Score: inf
ROOT
ATOM      1  C   UNL     1      10.860 -55.406  -4.379  1.00  0.00     0.000 C 
ENDROOT
BRANCH   1   2
ATOM      2  C   UNL     1      11.904 -55.987  -3.412  1.00  0.00     0.000 C 
BRANCH   2   3
ATOM      3  C   UNL     1      11.575 -57.425  -2.982  1.00  0.00     0.000 C 
BRANCH   3   4
ATOM      4  C   UNL     1      12.743 -58.371  -3.284  1.00  0.00     0.000 C 
BRANCH   4   5
ATOM      5  C   UNL     1      13.690 -57.759  -4.323  1.00  0.00     0.000 C 
BRANCH   5   6
ATOM      6  C   UNL     1      15.098 -58.362  -4.201  1.00  0.00     0.000 C 
BRANCH   6   7
ATOM      7  C   UNL     1      15.146 -59.588  -3.276  1.00  0.00     0.000 C 
BRANCH   7   8
ATOM      8  C   UNL     1      16.543 -60.212  -3.084  1.00  0.00     0.000 C 
BRANCH   8   9
ATOM      9  C   UNL     1      17.563 -59.277  -2.401  1.00  0.00     0.000 C 
BRANCH   9  10
ATOM     10  C   UNL     1      16.886 -58.131  -1.625  1.00  0.00     0.000 C 
BRANCH  10  11
ATOM     11  C   UNL     1      17.886 -57.079  -1.111  1.00  0.00     0.000 C 
BRANCH  11  12
ATOM     12  C   UNL     1      18.275 -55.998  -2.136  1.00  0.00     0.006 C 
BRANCH  12  13
ATOM     13  C   UNL     1      17.131 -55.638  -3.093  1.00  0.00     0.053 C 
BRANCH  13  14
ATOM     14  C   UNL     1      17.622 -54.766  -4.209  1.00  0.00     0.041 C 
ATOM     15  O   UNL     1      17.628 -55.196  -5.392  1.00  0.00    -0.550 OA
ATOM     16  O   UNL     1      18.036 -53.465  -3.948  1.00  0.00    -0.550 OA
ENDBRANCH  13  14
ENDBRANCH  12  13
ENDBRANCH  11  12
ENDBRANCH  10  11
ENDBRANCH   9  10
ENDBRANCH   8   9
ENDBRANCH   7   8
ENDBRANCH   6   7
ENDBRANCH   5   6
ENDBRANCH   4   5
ENDBRANCH   3   4
ENDBRANCH   2   3
ENDBRANCH   1   2
BRANCH   1  17
ATOM     17  C   UNL     1      10.626 -53.900  -4.161  1.00  0.00     0.000 C 
BRANCH  17  18
ATOM     18  C   UNL     1       9.303 -53.610  -3.436  1.00  0.00     0.000 C 
BRANCH  18  19
ATOM     19  C   UNL     1       8.408 -52.622  -4.205  1.00  0.00     0.000 C 
BRANCH  19  20
ATOM     20  C   UNL     1       8.146 -51.321  -3.424  1.00  0.00     0.000 C 
BRANCH  20  21
ATOM     21  C   UNL     1       9.183 -50.996  -2.332  1.00  0.00     0.000 C 
BRANCH  21  22
ATOM     22  C   UNL     1       9.279 -49.491  -2.026  1.00  0.00    -0.000 C 
BRANCH  22  23
ATOM     23  C   UNL     1      10.676 -48.909  -2.308  1.00  0.00    -0.000 C 
BRANCH  23  24
ATOM     24  C   UNL     1      10.687 -47.560  -3.051  1.00  0.00    -0.000 C 
BRANCH  24  25
ATOM     25  C   UNL     1       9.306 -47.174  -3.610  1.00  0.00    -0.000 C 
BRANCH  25  26
ATOM     26  C   UNL     1       8.561 -46.171  -2.716  1.00  0.00    -0.000 C 
BRANCH  26  27
ATOM     27  C   UNL     1       7.598 -45.273  -3.509  1.00  0.00    -0.000 C 
BRANCH  27  28
ATOM     28  C   UNL     1       6.418 -44.824  -2.636  1.00  0.00    -0.000 C 
BRANCH  28  29
ATOM     29  C   UNL     1       6.831 -44.563  -1.178  1.00  0.00    -0.003 C 
ATOM     30  C   UNL     1       7.365 -45.815  -0.484  1.00  0.00     0.004 C 
ENDBRANCH  28  29
ENDBRANCH  27  28
ENDBRANCH  26  27
ENDBRANCH  25  26
ENDBRANCH  24  25
ENDBRANCH  23  24
ENDBRANCH  22  23
ENDBRANCH  21  22
ENDBRANCH  20  21
ENDBRANCH  19  20
ENDBRANCH  18  19
ENDBRANCH  17  18
ENDBRANCH   1  17
TORSDOF 26
ENDMDL
MODEL 9
REMARK VINA RESULT:    19.201      2.748      8.949
REMARK INTER + INTRA:          47.031
REMARK INTER:                  48.826
REMARK INTRA:                  -1.795
REMARK UNBOUND:                -1.354
REMARK SMILES CCCCCCCCCCCCCCCCCCCCCCCCCCCC(=O)[O-]
REMARK SMILES IDX 15 1 16 2 17 3 18 4 19 5 20 6 21 7 22 8 23 9 24 10 25 11
REMARK SMILES IDX 26 12 27 13 28 14 29 15 30 16 14 17 13 18 12 19 11 20 10 21
REMARK SMILES IDX 9 22 8 23 7 24 6 25 5 26 4 27 3 28 2 29 1 30
REMARK H PARENT
REMARK Flexibility Score: inf
ROOT
ATOM      1  C   UNL     1      13.025 -58.493  -3.073  1.00  0.00     0.000 C 
ENDROOT
BRANCH   1   2
ATOM      2  C   UNL     1      13.938 -57.967  -4.192  1.00  0.00     0.000 C 
BRANCH   2   3
ATOM      3  C   UNL     1      15.360 -58.543  -4.112  1.00  0.00     0.000 C 
BRANCH   3   4
ATOM      4  C   UNL     1      15.374 -59.872  -3.348  1.00  0.00     0.000 C 
BRANCH   4   5
ATOM      5  C   UNL     1      16.651 -60.009  -2.509  1.00  0.00     0.000 C 
BRANCH   5   6
ATOM      6  C   UNL     1      17.901 -59.926  -3.398  1.00  0.00     0.000 C 
BRANCH   6   7
ATOM      7  C   UNL     1      19.072 -59.198  -2.718  1.00  0.00     0.000 C 
BRANCH   7   8
ATOM      8  C   UNL     1      18.936 -57.664  -2.639  1.00  0.00     0.000 C 
BRANCH   8   9
ATOM      9  C   UNL     1      18.722 -56.978  -4.004  1.00  0.00     0.000 C 
BRANCH   9  10
ATOM     10  C   UNL     1      17.532 -55.998  -3.992  1.00  0.00     0.000 C 
BRANCH  10  11
ATOM     11  C   UNL     1      17.305 -55.345  -2.617  1.00  0.00     0.000 C 
BRANCH  11  12
ATOM     12  C   UNL     1      16.032 -55.802  -1.883  1.00  0.00     0.006 C 
BRANCH  12  13
ATOM     13  C   UNL     1      16.217 -55.900  -0.362  1.00  0.00     0.053 C 
BRANCH  13  14
ATOM     14  C   UNL     1      17.138 -57.028  -0.008  1.00  0.00     0.041 C 
ATOM     15  O   UNL     1      16.880 -58.200  -0.392  1.00  0.00    -0.550 OA
ATOM     16  O   UNL     1      18.303 -56.781   0.709  1.00  0.00    -0.550 OA
ENDBRANCH  13  14
ENDBRANCH  12  13
ENDBRANCH  11  12
ENDBRANCH  10  11
ENDBRANCH   9  10
ENDBRANCH   8   9
ENDBRANCH   7   8
ENDBRANCH   6   7
ENDBRANCH   5   6
ENDBRANCH   4   5
ENDBRANCH   3   4
ENDBRANCH   2   3
ENDBRANCH   1   2
BRANCH   1  17
ATOM     17  C   UNL     1      11.679 -57.746  -3.010  1.00  0.00     0.000 C 
BRANCH  17  18
ATOM     18  C   UNL     1      11.817 -56.258  -3.367  1.00  0.00     0.000 C 
BRANCH  18  19
ATOM     19  C   UNL     1      10.923 -55.846  -4.550  1.00  0.00     0.000 C 
BRANCH  19  20
ATOM     20  C   UNL     1      11.108 -54.371  -4.953  1.00  0.00     0.000 C 
BRANCH  20  21
ATOM     21  C   UNL     1      10.727 -53.346  -3.867  1.00  0.00     0.000 C 
BRANCH  21  22
ATOM     22  C   UNL     1       9.209 -53.106  -3.776  1.00  0.00    -0.000 C 
BRANCH  22  23
ATOM     23  C   UNL     1       8.818 -52.162  -2.625  1.00  0.00    -0.000 C 
BRANCH  23  24
ATOM     24  C   UNL     1       8.306 -50.776  -3.057  1.00  0.00    -0.000 C 
BRANCH  24  25
ATOM     25  C   UNL     1       9.125 -49.621  -2.452  1.00  0.00    -0.000 C 
BRANCH  25  26
ATOM     26  C   UNL     1      10.548 -49.535  -3.027  1.00  0.00    -0.000 C 
BRANCH  26  27
ATOM     27  C   UNL     1      11.362 -48.382  -2.419  1.00  0.00    -0.000 C 
BRANCH  27  28
ATOM     28  C   UNL     1      11.704 -48.665  -0.949  1.00  0.00    -0.000 C 
BRANCH  28  29
ATOM     29  C   UNL     1      13.178 -48.378  -0.621  1.00  0.00    -0.003 C 
ATOM     30  C   UNL     1      13.958 -49.641  -0.258  1.00  0.00     0.004 C 
ENDBRANCH  28  29
ENDBRANCH  27  28
ENDBRANCH  26  27
ENDBRANCH  25  26
ENDBRANCH  24  25
ENDBRANCH  23  24
ENDBRANCH  22  23
ENDBRANCH  21  22
ENDBRANCH  20  21
ENDBRANCH  19  20
ENDBRANCH  18  19
ENDBRANCH  17  18
ENDBRANCH   1  17
TORSDOF 26
ENDMDL
