MODEL 1
REMARK VINA RESULT:    -5.196      0.000      0.000
REMARK INTER + INTRA:          -5.731
REMARK INTER:                  -5.652
REMARK INTRA:                  -0.079
REMARK UNBOUND:                -0.079
REMARK SMILES O=C([O-])c1ccccc1O
REMARK SMILES IDX 4 1 9 2 5 3 8 4 6 5 7 6 2 7 1 8 3 9 10 10
REMARK H PARENT 10 11
REMARK Flexibility Score: inf
ROOT
ATOM      1  C   UNL     1       8.071  24.790 -11.841  1.00  0.00     0.039 A 
ATOM      2  C   UNL     1       6.939  25.197 -12.593  1.00  0.00     0.124 A 
ATOM      3  C   UNL     1       9.184  25.648 -11.767  1.00  0.00     0.014 A 
ATOM      4  C   UNL     1       6.924  26.464 -13.191  1.00  0.00     0.047 A 
ATOM      5  C   UNL     1       9.161  26.899 -12.387  1.00  0.00     0.001 A 
ATOM      6  C   UNL     1       8.029  27.310 -13.090  1.00  0.00     0.004 A 
ENDROOT
BRANCH   1   7
ATOM      7  C   UNL     1       8.112  23.511 -11.099  1.00  0.00     0.075 C 
ATOM      8  O   UNL     1       8.755  22.531 -11.562  1.00  0.00    -0.545 OA
ATOM      9  O   UNL     1       7.504  23.389  -9.855  1.00  0.00    -0.545 OA
ENDBRANCH   1   7
BRANCH   2  10
ATOM     10  O   UNL     1       5.835  24.368 -12.799  1.00  0.00    -0.507 OA
ATOM     11  H   UNL     1       4.944  24.506 -12.342  1.00  0.00     0.293 HD
ENDBRANCH   2  10
TORSDOF 2
ENDMDL
MODEL 2
REMARK VINA RESULT:    -5.181     15.956     17.172
REMARK INTER + INTRA:          -5.714
REMARK INTER:                  -5.467
REMARK INTRA:                  -0.247
REMARK UNBOUND:                -0.079
REMARK SMILES O=C([O-])c1ccccc1O
REMARK SMILES IDX 4 1 9 2 5 3 8 4 6 5 7 6 2 7 1 8 3 9 10 10
REMARK H PARENT 10 11
REMARK Flexibility Score: inf
ROOT
ATOM      1  C   UNL     1      -6.115  32.527 -17.906  1.00  0.00     0.039 A 
ATOM      2  C   UNL     1      -6.185  31.869 -16.652  1.00  0.00     0.124 A 
ATOM      3  C   UNL     1      -7.121  33.451 -18.249  1.00  0.00     0.014 A 
ATOM      4  C   UNL     1      -7.212  32.195 -15.756  1.00  0.00     0.047 A 
ATOM      5  C   UNL     1      -8.149  33.749 -17.351  1.00  0.00     0.001 A 
ATOM      6  C   UNL     1      -8.189  33.129 -16.104  1.00  0.00     0.004 A 
ENDROOT
BRANCH   1   7
ATOM      7  C   UNL     1      -5.003  32.308 -18.856  1.00  0.00     0.075 C 
ATOM      8  O   UNL     1      -4.677  31.138 -19.190  1.00  0.00    -0.545 OA
ATOM      9  O   UNL     1      -4.347  33.383 -19.446  1.00  0.00    -0.545 OA
ENDBRANCH   1   7
BRANCH   2  10
ATOM     10  O   UNL     1      -5.286  30.870 -16.275  1.00  0.00    -0.507 OA
ATOM     11  H   UNL     1      -4.491  30.597 -16.837  1.00  0.00     0.293 HD
ENDBRANCH   2  10
TORSDOF 2
ENDMDL
MODEL 3
REMARK VINA RESULT:    -5.096     15.177     17.043
REMARK INTER + INTRA:          -5.622
REMARK INTER:                  -5.374
REMARK INTRA:                  -0.248
REMARK UNBOUND:                -0.079
REMARK SMILES O=C([O-])c1ccccc1O
REMARK SMILES IDX 4 1 9 2 5 3 8 4 6 5 7 6 2 7 1 8 3 9 10 10
REMARK H PARENT 10 11
REMARK Flexibility Score: inf
ROOT
ATOM      1  C   UNL     1      -6.323  33.003 -17.354  1.00  0.00     0.039 A 
ATOM      2  C   UNL     1      -5.848  31.805 -16.762  1.00  0.00     0.124 A 
ATOM      3  C   UNL     1      -5.399  33.882 -17.949  1.00  0.00     0.014 A 
ATOM      4  C   UNL     1      -4.485  31.489 -16.837  1.00  0.00     0.047 A 
ATOM      5  C   UNL     1      -4.041  33.562 -17.996  1.00  0.00     0.001 A 
ATOM      6  C   UNL     1      -3.586  32.363 -17.449  1.00  0.00     0.004 A 
ENDROOT
BRANCH   1   7
ATOM      7  C   UNL     1      -7.761  33.348 -17.402  1.00  0.00     0.075 C 
ATOM      8  O   UNL     1      -8.308  33.627 -18.502  1.00  0.00    -0.545 OA
ATOM      9  O   UNL     1      -8.543  33.304 -16.253  1.00  0.00    -0.545 OA
ENDBRANCH   1   7
BRANCH   2  10
ATOM     10  O   UNL     1      -6.682  30.927 -16.066  1.00  0.00    -0.507 OA
ATOM     11  H   UNL     1      -6.425  30.494 -15.190  1.00  0.00     0.293 HD
ENDBRANCH   2  10
TORSDOF 2
ENDMDL
MODEL 4
REMARK VINA RESULT:    -5.031      1.166      1.359
REMARK INTER + INTRA:          -5.551
REMARK INTER:                  -5.366
REMARK INTRA:                  -0.185
REMARK UNBOUND:                -0.079
REMARK SMILES O=C([O-])c1ccccc1O
REMARK SMILES IDX 4 1 9 2 5 3 8 4 6 5 7 6 2 7 1 8 3 9 10 10
REMARK H PARENT 10 11
REMARK Flexibility Score: inf
ROOT
ATOM      1  C   UNL     1       8.584  25.900 -12.296  1.00  0.00     0.039 A 
ATOM      2  C   UNL     1       7.320  26.176 -12.878  1.00  0.00     0.124 A 
ATOM      3  C   UNL     1       9.538  26.932 -12.220  1.00  0.00     0.014 A 
ATOM      4  C   UNL     1       7.023  27.477 -13.304  1.00  0.00     0.047 A 
ATOM      5  C   UNL     1       9.233  28.219 -12.668  1.00  0.00     0.001 A 
ATOM      6  C   UNL     1       7.975  28.493 -13.201  1.00  0.00     0.004 A 
ENDROOT
BRANCH   1   7
ATOM      7  C   UNL     1       8.926  24.576 -11.732  1.00  0.00     0.075 C 
ATOM      8  O   UNL     1       9.085  23.585 -12.493  1.00  0.00    -0.545 OA
ATOM      9  O   UNL     1       9.143  24.418 -10.368  1.00  0.00    -0.545 OA
ENDBRANCH   1   7
BRANCH   2  10
ATOM     10  O   UNL     1       6.354  25.188 -13.081  1.00  0.00    -0.507 OA
ATOM     11  H   UNL     1       5.661  25.232 -13.815  1.00  0.00     0.293 HD
ENDBRANCH   2  10
TORSDOF 2
ENDMDL
MODEL 5
REMARK VINA RESULT:    -5.023     15.697     17.168
REMARK INTER + INTRA:          -5.542
REMARK INTER:                  -5.318
REMARK INTRA:                  -0.225
REMARK UNBOUND:                -0.079
REMARK SMILES O=C([O-])c1ccccc1O
REMARK SMILES IDX 4 1 9 2 5 3 8 4 6 5 7 6 2 7 1 8 3 9 10 10
REMARK H PARENT 10 11
REMARK Flexibility Score: inf
ROOT
ATOM      1  C   UNL     1      -6.502  32.449 -17.073  1.00  0.00     0.039 A 
ATOM      2  C   UNL     1      -6.540  32.774 -18.453  1.00  0.00     0.124 A 
ATOM      3  C   UNL     1      -5.373  31.781 -16.561  1.00  0.00     0.014 A 
ATOM      4  C   UNL     1      -5.435  32.484 -19.263  1.00  0.00     0.047 A 
ATOM      5  C   UNL     1      -4.288  31.480 -17.388  1.00  0.00     0.001 A 
ATOM      6  C   UNL     1      -4.315  31.839 -18.734  1.00  0.00     0.004 A 
ENDROOT
BRANCH   1   7
ATOM      7  C   UNL     1      -7.589  32.819 -16.140  1.00  0.00     0.075 C 
ATOM      8  O   UNL     1      -7.626  32.322 -14.983  1.00  0.00    -0.545 OA
ATOM      9  O   UNL     1      -8.542  33.766 -16.497  1.00  0.00    -0.545 OA
ENDBRANCH   1   7
BRANCH   2  10
ATOM     10  O   UNL     1      -7.659  33.348 -19.060  1.00  0.00    -0.507 OA
ATOM     11  H   UNL     1      -7.600  34.054 -19.780  1.00  0.00     0.293 HD
ENDBRANCH   2  10
TORSDOF 2
ENDMDL
MODEL 6
REMARK VINA RESULT:    -4.999      9.174     10.199
REMARK INTER + INTRA:          -5.516
REMARK INTER:                  -5.277
REMARK INTRA:                  -0.239
REMARK UNBOUND:                -0.079
REMARK SMILES O=C([O-])c1ccccc1O
REMARK SMILES IDX 4 1 9 2 5 3 8 4 6 5 7 6 2 7 1 8 3 9 10 10
REMARK H PARENT 10 11
REMARK Flexibility Score: inf
ROOT
ATOM      1  C   UNL     1       2.461  21.403 -19.571  1.00  0.00     0.039 A 
ATOM      2  C   UNL     1       1.105  21.398 -19.156  1.00  0.00     0.124 A 
ATOM      3  C   UNL     1       3.374  22.243 -18.906  1.00  0.00     0.014 A 
ATOM      4  C   UNL     1       0.715  22.175 -18.057  1.00  0.00     0.047 A 
ATOM      5  C   UNL     1       2.964  23.027 -17.826  1.00  0.00     0.001 A 
ATOM      6  C   UNL     1       1.638  22.986 -17.396  1.00  0.00     0.004 A 
ENDROOT
BRANCH   1   7
ATOM      7  C   UNL     1       2.962  20.530 -20.655  1.00  0.00     0.075 C 
ATOM      8  O   UNL     1       3.724  20.997 -21.543  1.00  0.00    -0.545 OA
ATOM      9  O   UNL     1       2.659  19.173 -20.674  1.00  0.00    -0.545 OA
ENDBRANCH   1   7
BRANCH   2  10
ATOM     10  O   UNL     1       0.117  20.670 -19.822  1.00  0.00    -0.507 OA
ATOM     11  H   UNL     1      -0.618  20.166 -19.345  1.00  0.00     0.293 HD
ENDBRANCH   2  10
TORSDOF 2
ENDMDL
MODEL 7
REMARK VINA RESULT:    -4.928      1.921      2.449
REMARK INTER + INTRA:          -5.438
REMARK INTER:                  -5.292
REMARK INTRA:                  -0.147
REMARK UNBOUND:                -0.079
REMARK SMILES O=C([O-])c1ccccc1O
REMARK SMILES IDX 4 1 9 2 5 3 8 4 6 5 7 6 2 7 1 8 3 9 10 10
REMARK H PARENT 10 11
REMARK Flexibility Score: inf
ROOT
ATOM      1  C   UNL     1       9.211  24.914 -12.441  1.00  0.00     0.039 A 
ATOM      2  C   UNL     1       9.454  24.762 -13.830  1.00  0.00     0.124 A 
ATOM      3  C   UNL     1       9.948  25.874 -11.721  1.00  0.00     0.014 A 
ATOM      4  C   UNL     1      10.369  25.608 -14.469  1.00  0.00     0.047 A 
ATOM      5  C   UNL     1      10.872  26.696 -12.371  1.00  0.00     0.001 A 
ATOM      6  C   UNL     1      11.076  26.569 -13.744  1.00  0.00     0.004 A 
ENDROOT
BRANCH   1   7
ATOM      7  C   UNL     1       8.185  24.126 -11.724  1.00  0.00     0.075 C 
ATOM      8  O   UNL     1       6.962  24.331 -11.943  1.00  0.00    -0.545 OA
ATOM      9  O   UNL     1       8.551  23.107 -10.852  1.00  0.00    -0.545 OA
ENDBRANCH   1   7
BRANCH   2  10
ATOM     10  O   UNL     1       8.840  23.770 -14.597  1.00  0.00    -0.507 OA
ATOM     11  H   UNL     1       9.250  23.382 -15.434  1.00  0.00     0.293 HD
ENDBRANCH   2  10
TORSDOF 2
ENDMDL
MODEL 8
REMARK VINA RESULT:    -4.894      2.332      3.417
REMARK INTER + INTRA:          -5.401
REMARK INTER:                  -5.153
REMARK INTRA:                  -0.249
REMARK UNBOUND:                -0.079
REMARK SMILES O=C([O-])c1ccccc1O
REMARK SMILES IDX 4 1 9 2 5 3 8 4 6 5 7 6 2 7 1 8 3 9 10 10
REMARK H PARENT 10 11
REMARK Flexibility Score: inf
ROOT
ATOM      1  C   UNL     1       8.750  25.700 -12.468  1.00  0.00     0.039 A 
ATOM      2  C   UNL     1       7.376  25.364 -12.572  1.00  0.00     0.124 A 
ATOM      3  C   UNL     1       9.510  25.144 -11.421  1.00  0.00     0.014 A 
ATOM      4  C   UNL     1       6.819  24.442 -11.676  1.00  0.00     0.047 A 
ATOM      5  C   UNL     1       8.933  24.243 -10.524  1.00  0.00     0.001 A 
ATOM      6  C   UNL     1       7.593  23.885 -10.657  1.00  0.00     0.004 A 
ENDROOT
BRANCH   1   7
ATOM      7  C   UNL     1       9.427  26.585 -13.441  1.00  0.00     0.075 C 
ATOM      8  O   UNL     1      10.476  26.201 -14.022  1.00  0.00    -0.545 OA
ATOM      9  O   UNL     1       8.882  27.819 -13.779  1.00  0.00    -0.545 OA
ENDBRANCH   1   7
BRANCH   2  10
ATOM     10  O   UNL     1       6.530  25.944 -13.518  1.00  0.00    -0.507 OA
ATOM     11  H   UNL     1       6.066  25.418 -14.246  1.00  0.00     0.293 HD
ENDBRANCH   2  10
TORSDOF 2
ENDMDL
MODEL 9
REMARK VINA RESULT:    -4.840      1.467      2.823
REMARK INTER + INTRA:          -5.343
REMARK INTER:                  -5.138
REMARK INTRA:                  -0.205
REMARK UNBOUND:                -0.079
REMARK SMILES O=C([O-])c1ccccc1O
REMARK SMILES IDX 4 1 9 2 5 3 8 4 6 5 7 6 2 7 1 8 3 9 10 10
REMARK H PARENT 10 11
REMARK Flexibility Score: inf
ROOT
ATOM      1  C   UNL     1       8.185  26.137 -12.394  1.00  0.00     0.039 A 
ATOM      2  C   UNL     1       9.580  26.291 -12.187  1.00  0.00     0.124 A 
ATOM      3  C   UNL     1       7.421  27.265 -12.747  1.00  0.00     0.014 A 
ATOM      4  C   UNL     1      10.178  27.539 -12.401  1.00  0.00     0.047 A 
ATOM      5  C   UNL     1       8.030  28.508 -12.936  1.00  0.00     0.001 A 
ATOM      6  C   UNL     1       9.407  28.642 -12.772  1.00  0.00     0.004 A 
ENDROOT
BRANCH   1   7
ATOM      7  C   UNL     1       7.507  24.827 -12.287  1.00  0.00     0.075 C 
ATOM      8  O   UNL     1       6.334  24.684 -12.724  1.00  0.00    -0.545 OA
ATOM      9  O   UNL     1       8.172  23.721 -11.769  1.00  0.00    -0.545 OA
ENDBRANCH   1   7
BRANCH   2  10
ATOM     10  O   UNL     1      10.394  25.248 -11.741  1.00  0.00    -0.507 OA
ATOM     11  H   UNL     1      10.033  24.360 -11.421  1.00  0.00     0.293 HD
ENDBRANCH   2  10
TORSDOF 2
ENDMDL
