MODEL 1
REMARK VINA RESULT:    -3.742      0.000      0.000
REMARK INTER + INTRA:          -6.117
REMARK INTER:                  -5.383
REMARK INTRA:                  -0.734
REMARK UNBOUND:                -0.734
REMARK SMILES O=C(CO)[C@@H](O)[C@H](O)[C@H](O)CO
REMARK SMILES IDX 7 1 9 2 11 3 12 4 10 6 5 8 2 9 1 10 3 11 4 12 6 14 8 16
REMARK H PARENT 12 5 10 7 4 13 6 15 8 17
REMARK Flexibility Score: inf
ROOT
ATOM      1  C   UNL     1      71.016  33.668  58.950  1.00  0.00     0.181 C 
ENDROOT
BRANCH   1   2
ATOM      2  C   UNL     1      70.577  35.094  59.393  1.00  0.00     0.171 C 
BRANCH   2   3
ATOM      3  C   UNL     1      69.417  35.623  58.526  1.00  0.00     0.190 C 
BRANCH   3   4
ATOM      4  O   UNL     1      68.309  35.938  59.326  1.00  0.00    -0.394 OA
ATOM      5  H   UNL     1      67.573  36.186  58.708  1.00  0.00     0.210 HD
ENDBRANCH   3   4
ENDBRANCH   2   3
BRANCH   2   6
ATOM      6  O   UNL     1      70.205  35.121  60.748  1.00  0.00    -0.388 OA
ATOM      7  H   UNL     1      70.994  35.426  61.269  1.00  0.00     0.211 HD
ENDBRANCH   2   6
ENDBRANCH   1   2
BRANCH   1   8
ATOM      8  C   UNL     1      71.434  32.731  60.121  1.00  0.00     0.214 C 
BRANCH   8   9
ATOM      9  C   UNL     1      71.794  31.325  59.667  1.00  0.00     0.189 C 
ATOM     10  O   UNL     1      71.603  31.019  58.498  1.00  0.00    -0.294 OA
BRANCH   9  11
ATOM     11  C   UNL     1      72.377  30.308  60.614  1.00  0.00     0.234 C 
BRANCH  11  12
ATOM     12  O   UNL     1      71.830  30.456  61.895  1.00  0.00    -0.388 OA
ATOM     13  H   UNL     1      71.988  29.596  62.364  1.00  0.00     0.211 HD
ENDBRANCH  11  12
ENDBRANCH   9  11
ENDBRANCH   8   9
BRANCH   8  14
ATOM     14  O   UNL     1      72.428  33.316  60.929  1.00  0.00    -0.382 OA
ATOM     15  H   UNL     1      72.361  32.936  61.839  1.00  0.00     0.211 HD
ENDBRANCH   8  14
ENDBRANCH   1   8
BRANCH   1  16
ATOM     16  O   UNL     1      72.092  33.781  58.051  1.00  0.00    -0.387 OA
ATOM     17  H   UNL     1      72.654  32.971  58.164  1.00  0.00     0.211 HD
ENDBRANCH   1  16
TORSDOF 10
ENDMDL
MODEL 2
REMARK VINA RESULT:    -3.580      1.119      4.654
REMARK INTER + INTRA:          -5.883
REMARK INTER:                  -5.168
REMARK INTRA:                  -0.715
REMARK UNBOUND:                -0.734
REMARK SMILES O=C(CO)[C@@H](O)[C@H](O)[C@H](O)CO
REMARK SMILES IDX 7 1 9 2 11 3 12 4 10 6 5 8 2 9 1 10 3 11 4 12 6 14 8 16
REMARK H PARENT 12 5 10 7 4 13 6 15 8 17
REMARK Flexibility Score: inf
ROOT
ATOM      1  C   UNL     1      71.079  33.244  59.055  1.00  0.00     0.181 C 
ENDROOT
BRANCH   1   2
ATOM      2  C   UNL     1      71.491  32.685  60.448  1.00  0.00     0.171 C 
BRANCH   2   3
ATOM      3  C   UNL     1      71.937  31.212  60.357  1.00  0.00     0.190 C 
BRANCH   3   4
ATOM      4  O   UNL     1      71.847  30.593  61.613  1.00  0.00    -0.394 OA
ATOM      5  H   UNL     1      72.027  31.297  62.289  1.00  0.00     0.210 HD
ENDBRANCH   3   4
ENDBRANCH   2   3
BRANCH   2   6
ATOM      6  O   UNL     1      72.514  33.453  61.030  1.00  0.00    -0.388 OA
ATOM      7  H   UNL     1      73.219  33.585  60.341  1.00  0.00     0.211 HD
ENDBRANCH   2   6
ENDBRANCH   1   2
BRANCH   1   8
ATOM      8  C   UNL     1      70.709  34.757  59.053  1.00  0.00     0.214 C 
BRANCH   8   9
ATOM      9  C   UNL     1      69.797  35.150  57.902  1.00  0.00     0.189 C 
ATOM     10  O   UNL     1      69.935  34.588  56.825  1.00  0.00    -0.294 OA
BRANCH   9  11
ATOM     11  C   UNL     1      68.734  36.207  58.055  1.00  0.00     0.234 C 
BRANCH  11  12
ATOM     12  O   UNL     1      67.899  35.913  59.142  1.00  0.00    -0.388 OA
ATOM     13  H   UNL     1      66.999  36.252  58.897  1.00  0.00     0.211 HD
ENDBRANCH  11  12
ENDBRANCH   9  11
ENDBRANCH   8   9
BRANCH   8  14
ATOM     14  O   UNL     1      70.222  35.176  60.306  1.00  0.00    -0.382 OA
ATOM     15  H   UNL     1      70.849  35.841  60.683  1.00  0.00     0.211 HD
ENDBRANCH   8  14
ENDBRANCH   1   8
BRANCH   1  16
ATOM     16  O   UNL     1      69.983  32.506  58.573  1.00  0.00    -0.387 OA
ATOM     17  H   UNL     1      69.161  32.972  58.876  1.00  0.00     0.211 HD
ENDBRANCH   1  16
TORSDOF 10
ENDMDL
MODEL 3
REMARK VINA RESULT:    -3.564      1.436      4.572
REMARK INTER + INTRA:          -5.861
REMARK INTER:                  -4.935
REMARK INTRA:                  -0.926
REMARK UNBOUND:                -0.734
REMARK SMILES O=C(CO)[C@@H](O)[C@H](O)[C@H](O)CO
REMARK SMILES IDX 7 1 9 2 11 3 12 4 10 6 5 8 2 9 1 10 3 11 4 12 6 14 8 16
REMARK H PARENT 12 5 10 7 4 13 6 15 8 17
REMARK Flexibility Score: inf
ROOT
ATOM      1  C   UNL     1      71.403  31.810  59.514  1.00  0.00     0.181 C 
ENDROOT
BRANCH   1   2
ATOM      2  C   UNL     1      71.650  31.196  60.922  1.00  0.00     0.171 C 
BRANCH   2   3
ATOM      3  C   UNL     1      71.583  29.656  60.887  1.00  0.00     0.190 C 
BRANCH   3   4
ATOM      4  O   UNL     1      70.300  29.212  61.236  1.00  0.00    -0.394 OA
ATOM      5  H   UNL     1      70.142  28.373  60.730  1.00  0.00     0.210 HD
ENDBRANCH   3   4
ENDBRANCH   2   3
BRANCH   2   6
ATOM      6  O   UNL     1      72.885  31.603  61.454  1.00  0.00    -0.388 OA
ATOM      7  H   UNL     1      72.705  32.042  62.328  1.00  0.00     0.211 HD
ENDBRANCH   2   6
ENDBRANCH   1   2
BRANCH   1   8
ATOM      8  C   UNL     1      71.571  33.357  59.449  1.00  0.00     0.214 C 
BRANCH   8   9
ATOM      9  C   UNL     1      70.754  34.004  58.341  1.00  0.00     0.189 C 
ATOM     10  O   UNL     1      70.634  33.412  57.277  1.00  0.00    -0.294 OA
BRANCH   9  11
ATOM     11  C   UNL     1      70.092  35.345  58.521  1.00  0.00     0.234 C 
BRANCH  11  12
ATOM     12  O   UNL     1      71.022  36.300  58.953  1.00  0.00    -0.388 OA
ATOM     13  H   UNL     1      71.271  36.043  59.879  1.00  0.00     0.211 HD
ENDBRANCH  11  12
ENDBRANCH   9  11
ENDBRANCH   8   9
BRANCH   8  14
ATOM     14  O   UNL     1      71.363  33.958  60.704  1.00  0.00    -0.382 OA
ATOM     15  H   UNL     1      70.635  33.476  61.170  1.00  0.00     0.211 HD
ENDBRANCH   8  14
ENDBRANCH   1   8
BRANCH   1  16
ATOM     16  O   UNL     1      70.105  31.474  59.090  1.00  0.00    -0.387 OA
ATOM     17  H   UNL     1      70.199  30.885  58.297  1.00  0.00     0.211 HD
ENDBRANCH   1  16
TORSDOF 10
ENDMDL
MODEL 4
REMARK VINA RESULT:    -3.529     21.344     22.607
REMARK INTER + INTRA:          -5.810
REMARK INTER:                  -4.925
REMARK INTRA:                  -0.885
REMARK UNBOUND:                -0.734
REMARK SMILES O=C(CO)[C@@H](O)[C@H](O)[C@H](O)CO
REMARK SMILES IDX 7 1 9 2 11 3 12 4 10 6 5 8 2 9 1 10 3 11 4 12 6 14 8 16
REMARK H PARENT 12 5 10 7 4 13 6 15 8 17
REMARK Flexibility Score: inf
ROOT
ATOM      1  C   UNL     1      55.991  18.947  52.221  1.00  0.00     0.181 C 
ENDROOT
BRANCH   1   2
ATOM      2  C   UNL     1      56.261  18.567  50.736  1.00  0.00     0.171 C 
BRANCH   2   3
ATOM      3  C   UNL     1      57.480  17.632  50.604  1.00  0.00     0.190 C 
BRANCH   3   4
ATOM      4  O   UNL     1      57.454  16.963  49.372  1.00  0.00    -0.394 OA
ATOM      5  H   UNL     1      58.142  17.394  48.800  1.00  0.00     0.210 HD
ENDBRANCH   3   4
ENDBRANCH   2   3
BRANCH   2   6
ATOM      6  O   UNL     1      55.137  17.965  50.145  1.00  0.00    -0.388 OA
ATOM      7  H   UNL     1      55.464  17.244  49.544  1.00  0.00     0.211 HD
ENDBRANCH   2   6
ENDBRANCH   1   2
BRANCH   1   8
ATOM      8  C   UNL     1      54.541  19.440  52.505  1.00  0.00     0.214 C 
BRANCH   8   9
ATOM      9  C   UNL     1      54.411  20.198  53.817  1.00  0.00     0.189 C 
ATOM     10  O   UNL     1      54.580  19.591  54.866  1.00  0.00    -0.294 OA
BRANCH   9  11
ATOM     11  C   UNL     1      54.083  21.668  53.857  1.00  0.00     0.234 C 
BRANCH  11  12
ATOM     12  O   UNL     1      54.956  22.390  53.031  1.00  0.00    -0.388 OA
ATOM     13  H   UNL     1      55.576  22.870  53.639  1.00  0.00     0.211 HD
ENDBRANCH  11  12
ENDBRANCH   9  11
ENDBRANCH   8   9
BRANCH   8  14
ATOM     14  O   UNL     1      54.005  20.144  51.411  1.00  0.00    -0.382 OA
ATOM     15  H   UNL     1      54.621  20.051  50.642  1.00  0.00     0.211 HD
ENDBRANCH   8  14
ENDBRANCH   1   8
BRANCH   1  16
ATOM     16  O   UNL     1      56.897  19.950  52.608  1.00  0.00    -0.387 OA
ATOM     17  H   UNL     1      56.875  20.651  51.906  1.00  0.00     0.211 HD
ENDBRANCH   1  16
TORSDOF 10
ENDMDL
MODEL 5
REMARK VINA RESULT:    -3.506     20.999     22.372
REMARK INTER + INTRA:          -5.776
REMARK INTER:                  -4.849
REMARK INTRA:                  -0.928
REMARK UNBOUND:                -0.734
REMARK SMILES O=C(CO)[C@@H](O)[C@H](O)[C@H](O)CO
REMARK SMILES IDX 7 1 9 2 11 3 12 4 10 6 5 8 2 9 1 10 3 11 4 12 6 14 8 16
REMARK H PARENT 12 5 10 7 4 13 6 15 8 17
REMARK Flexibility Score: inf
ROOT
ATOM      1  C   UNL     1      57.411  18.531  51.433  1.00  0.00     0.181 C 
ENDROOT
BRANCH   1   2
ATOM      2  C   UNL     1      58.038  18.167  50.057  1.00  0.00     0.171 C 
BRANCH   2   3
ATOM      3  C   UNL     1      59.547  17.875  50.182  1.00  0.00     0.190 C 
BRANCH   3   4
ATOM      4  O   UNL     1      60.289  19.055  50.028  1.00  0.00    -0.394 OA
ATOM      5  H   UNL     1      61.198  18.783  49.736  1.00  0.00     0.210 HD
ENDBRANCH   3   4
ENDBRANCH   2   3
BRANCH   2   6
ATOM      6  O   UNL     1      57.392  17.066  49.470  1.00  0.00    -0.388 OA
ATOM      7  H   UNL     1      56.432  17.110  49.725  1.00  0.00     0.211 HD
ENDBRANCH   2   6
ENDBRANCH   1   2
BRANCH   1   8
ATOM      8  C   UNL     1      55.854  18.566  51.441  1.00  0.00     0.214 C 
BRANCH   8   9
ATOM      9  C   UNL     1      55.274  19.234  52.679  1.00  0.00     0.189 C 
ATOM     10  O   UNL     1      55.961  19.294  53.689  1.00  0.00    -0.294 OA
BRANCH   9  11
ATOM     11  C   UNL     1      53.886  19.820  52.690  1.00  0.00     0.234 C 
BRANCH  11  12
ATOM     12  O   UNL     1      53.803  20.908  51.810  1.00  0.00    -0.388 OA
ATOM     13  H   UNL     1      52.948  20.799  51.317  1.00  0.00     0.211 HD
ENDBRANCH  11  12
ENDBRANCH   9  11
ENDBRANCH   8   9
BRANCH   8  14
ATOM     14  O   UNL     1      55.338  19.094  50.242  1.00  0.00    -0.382 OA
ATOM     15  H   UNL     1      55.454  20.077  50.253  1.00  0.00     0.211 HD
ENDBRANCH   8  14
ENDBRANCH   1   8
BRANCH   1  16
ATOM     16  O   UNL     1      57.897  19.786  51.839  1.00  0.00    -0.387 OA
ATOM     17  H   UNL     1      57.743  20.417  51.088  1.00  0.00     0.211 HD
ENDBRANCH   1  16
TORSDOF 10
ENDMDL
MODEL 6
REMARK VINA RESULT:    -3.461      1.495      4.911
REMARK INTER + INTRA:          -5.713
REMARK INTER:                  -4.651
REMARK INTRA:                  -1.062
REMARK UNBOUND:                -0.734
REMARK SMILES O=C(CO)[C@@H](O)[C@H](O)[C@H](O)CO
REMARK SMILES IDX 7 1 9 2 11 3 12 4 10 6 5 8 2 9 1 10 3 11 4 12 6 14 8 16
REMARK H PARENT 12 5 10 7 4 13 6 15 8 17
REMARK Flexibility Score: inf
ROOT
ATOM      1  C   UNL     1      70.826  33.534  59.001  1.00  0.00     0.181 C 
ENDROOT
BRANCH   1   2
ATOM      2  C   UNL     1      71.935  32.446  59.090  1.00  0.00     0.171 C 
BRANCH   2   3
ATOM      3  C   UNL     1      71.845  31.651  60.408  1.00  0.00     0.190 C 
BRANCH   3   4
ATOM      4  O   UNL     1      72.768  32.143  61.342  1.00  0.00    -0.394 OA
ATOM      5  H   UNL     1      73.123  32.992  60.970  1.00  0.00     0.210 HD
ENDBRANCH   3   4
ENDBRANCH   2   3
BRANCH   2   6
ATOM      6  O   UNL     1      71.878  31.561  58.000  1.00  0.00    -0.388 OA
ATOM      7  H   UNL     1      72.220  32.045  57.202  1.00  0.00     0.211 HD
ENDBRANCH   2   6
ENDBRANCH   1   2
BRANCH   1   8
ATOM      8  C   UNL     1      70.887  34.411  57.716  1.00  0.00     0.214 C 
BRANCH   8   9
ATOM      9  C   UNL     1      70.113  35.715  57.841  1.00  0.00     0.189 C 
ATOM     10  O   UNL     1      68.896  35.667  57.947  1.00  0.00    -0.294 OA
BRANCH   9  11
ATOM     11  C   UNL     1      70.806  37.053  57.841  1.00  0.00     0.234 C 
BRANCH  11  12
ATOM     12  O   UNL     1      71.742  37.124  58.881  1.00  0.00    -0.388 OA
ATOM     13  H   UNL     1      71.546  36.359  59.481  1.00  0.00     0.211 HD
ENDBRANCH  11  12
ENDBRANCH   9  11
ENDBRANCH   8   9
BRANCH   8  14
ATOM     14  O   UNL     1      72.210  34.600  57.275  1.00  0.00    -0.382 OA
ATOM     15  H   UNL     1      72.195  35.147  56.451  1.00  0.00     0.211 HD
ENDBRANCH   8  14
ENDBRANCH   1   8
BRANCH   1  16
ATOM     16  O   UNL     1      70.917  34.370  60.128  1.00  0.00    -0.387 OA
ATOM     17  H   UNL     1      70.087  34.914  60.157  1.00  0.00     0.211 HD
ENDBRANCH   1  16
TORSDOF 10
ENDMDL
MODEL 7
REMARK VINA RESULT:    -3.410     21.932     23.119
REMARK INTER + INTRA:          -5.638
REMARK INTER:                  -5.124
REMARK INTRA:                  -0.515
REMARK UNBOUND:                -0.734
REMARK SMILES O=C(CO)[C@@H](O)[C@H](O)[C@H](O)CO
REMARK SMILES IDX 7 1 9 2 11 3 12 4 10 6 5 8 2 9 1 10 3 11 4 12 6 14 8 16
REMARK H PARENT 12 5 10 7 4 13 6 15 8 17
REMARK Flexibility Score: inf
ROOT
ATOM      1  C   UNL     1      55.942  18.913  52.218  1.00  0.00     0.181 C 
ENDROOT
BRANCH   1   2
ATOM      2  C   UNL     1      56.242  18.558  50.733  1.00  0.00     0.171 C 
BRANCH   2   3
ATOM      3  C   UNL     1      57.402  17.549  50.616  1.00  0.00     0.190 C 
BRANCH   3   4
ATOM      4  O   UNL     1      57.424  16.972  49.338  1.00  0.00    -0.394 OA
ATOM      5  H   UNL     1      58.153  17.421  48.836  1.00  0.00     0.210 HD
ENDBRANCH   3   4
ENDBRANCH   2   3
BRANCH   2   6
ATOM      6  O   UNL     1      55.105  18.047  50.085  1.00  0.00    -0.388 OA
ATOM      7  H   UNL     1      54.385  17.959  50.765  1.00  0.00     0.211 HD
ENDBRANCH   2   6
ENDBRANCH   1   2
BRANCH   1   8
ATOM      8  C   UNL     1      54.443  19.214  52.517  1.00  0.00     0.214 C 
BRANCH   8   9
ATOM      9  C   UNL     1      54.114  19.206  54.002  1.00  0.00     0.189 C 
ATOM     10  O   UNL     1      54.823  19.848  54.764  1.00  0.00    -0.294 OA
BRANCH   9  11
ATOM     11  C   UNL     1      52.942  18.434  54.552  1.00  0.00     0.234 C 
BRANCH  11  12
ATOM     12  O   UNL     1      53.156  17.055  54.424  1.00  0.00    -0.388 OA
ATOM     13  H   UNL     1      52.257  16.643  54.343  1.00  0.00     0.211 HD
ENDBRANCH  11  12
ENDBRANCH   9  11
ENDBRANCH   8   9
BRANCH   8  14
ATOM     14  O   UNL     1      54.006  20.383  51.866  1.00  0.00    -0.382 OA
ATOM     15  H   UNL     1      53.035  20.487  52.020  1.00  0.00     0.211 HD
ENDBRANCH   8  14
ENDBRANCH   1   8
BRANCH   1  16
ATOM     16  O   UNL     1      56.713  20.030  52.586  1.00  0.00    -0.387 OA
ATOM     17  H   UNL     1      56.378  20.802  52.061  1.00  0.00     0.211 HD
ENDBRANCH   1  16
TORSDOF 10
ENDMDL
MODEL 8
REMARK VINA RESULT:    -3.385      1.790      2.664
REMARK INTER + INTRA:          -5.603
REMARK INTER:                  -4.643
REMARK INTRA:                  -0.960
REMARK UNBOUND:                -0.734
REMARK SMILES O=C(CO)[C@@H](O)[C@H](O)[C@H](O)CO
REMARK SMILES IDX 7 1 9 2 11 3 12 4 10 6 5 8 2 9 1 10 3 11 4 12 6 14 8 16
REMARK H PARENT 12 5 10 7 4 13 6 15 8 17
REMARK Flexibility Score: inf
ROOT
ATOM      1  C   UNL     1      70.697  35.416  57.670  1.00  0.00     0.181 C 
ENDROOT
BRANCH   1   2
ATOM      2  C   UNL     1      69.818  36.700  57.675  1.00  0.00     0.171 C 
BRANCH   2   3
ATOM      3  C   UNL     1      69.306  37.040  56.261  1.00  0.00     0.190 C 
BRANCH   3   4
ATOM      4  O   UNL     1      69.982  36.279  55.297  1.00  0.00    -0.394 OA
ATOM      5  H   UNL     1      69.307  35.679  54.884  1.00  0.00     0.210 HD
ENDBRANCH   3   4
ENDBRANCH   2   3
BRANCH   2   6
ATOM      6  O   UNL     1      68.730  36.576  58.555  1.00  0.00    -0.388 OA
ATOM      7  H   UNL     1      68.262  35.726  58.337  1.00  0.00     0.211 HD
ENDBRANCH   2   6
ENDBRANCH   1   2
BRANCH   1   8
ATOM      8  C   UNL     1      70.608  34.570  58.974  1.00  0.00     0.214 C 
BRANCH   8   9
ATOM      9  C   UNL     1      71.361  33.251  58.888  1.00  0.00     0.189 C 
ATOM     10  O   UNL     1      71.714  32.848  57.789  1.00  0.00    -0.294 OA
BRANCH   9  11
ATOM     11  C   UNL     1      71.682  32.437  60.115  1.00  0.00     0.234 C 
BRANCH  11  12
ATOM     12  O   UNL     1      72.464  33.181  61.009  1.00  0.00    -0.388 OA
ATOM     13  H   UNL     1      71.829  33.720  61.549  1.00  0.00     0.211 HD
ENDBRANCH  11  12
ENDBRANCH   9  11
ENDBRANCH   8   9
BRANCH   8  14
ATOM     14  O   UNL     1      70.955  35.325  60.110  1.00  0.00    -0.382 OA
ATOM     15  H   UNL     1      70.345  35.083  60.851  1.00  0.00     0.211 HD
ENDBRANCH   8  14
ENDBRANCH   1   8
BRANCH   1  16
ATOM     16  O   UNL     1      72.038  35.781  57.455  1.00  0.00    -0.387 OA
ATOM     17  H   UNL     1      72.603  35.099  57.902  1.00  0.00     0.211 HD
ENDBRANCH   1  16
TORSDOF 10
ENDMDL
MODEL 9
REMARK VINA RESULT:    -3.377     16.399     17.963
REMARK INTER + INTRA:          -5.591
REMARK INTER:                  -4.662
REMARK INTRA:                  -0.929
REMARK UNBOUND:                -0.734
REMARK SMILES O=C(CO)[C@@H](O)[C@H](O)[C@H](O)CO
REMARK SMILES IDX 7 1 9 2 11 3 12 4 10 6 5 8 2 9 1 10 3 11 4 12 6 14 8 16
REMARK H PARENT 12 5 10 7 4 13 6 15 8 17
REMARK Flexibility Score: inf
ROOT
ATOM      1  C   UNL     1      57.745  27.759  50.405  1.00  0.00     0.181 C 
ENDROOT
BRANCH   1   2
ATOM      2  C   UNL     1      59.214  28.142  50.065  1.00  0.00     0.171 C 
BRANCH   2   3
ATOM      3  C   UNL     1      60.055  26.898  49.714  1.00  0.00     0.190 C 
BRANCH   3   4
ATOM      4  O   UNL     1      59.224  25.836  49.328  1.00  0.00    -0.394 OA
ATOM      5  H   UNL     1      59.822  25.091  49.058  1.00  0.00     0.210 HD
ENDBRANCH   3   4
ENDBRANCH   2   3
BRANCH   2   6
ATOM      6  O   UNL     1      59.275  29.066  49.009  1.00  0.00    -0.388 OA
ATOM      7  H   UNL     1      58.367  29.457  48.899  1.00  0.00     0.211 HD
ENDBRANCH   2   6
ENDBRANCH   1   2
BRANCH   1   8
ATOM      8  C   UNL     1      56.752  28.959  50.408  1.00  0.00     0.214 C 
BRANCH   8   9
ATOM      9  C   UNL     1      55.322  28.556  50.734  1.00  0.00     0.189 C 
ATOM     10  O   UNL     1      54.982  27.396  50.546  1.00  0.00    -0.294 OA
BRANCH   9  11
ATOM     11  C   UNL     1      54.323  29.542  51.280  1.00  0.00     0.234 C 
BRANCH  11  12
ATOM     12  O   UNL     1      54.496  30.800  50.686  1.00  0.00    -0.388 OA
ATOM     13  H   UNL     1      55.468  30.889  50.508  1.00  0.00     0.211 HD
ENDBRANCH  11  12
ENDBRANCH   9  11
ENDBRANCH   8   9
BRANCH   8  14
ATOM     14  O   UNL     1      57.217  30.020  51.208  1.00  0.00    -0.382 OA
ATOM     15  H   UNL     1      57.531  29.652  52.071  1.00  0.00     0.211 HD
ENDBRANCH   8  14
ENDBRANCH   1   8
BRANCH   1  16
ATOM     16  O   UNL     1      57.715  27.141  51.668  1.00  0.00    -0.387 OA
ATOM     17  H   UNL     1      56.791  26.804  51.807  1.00  0.00     0.211 HD
ENDBRANCH   1  16
TORSDOF 10
ENDMDL
