MODEL 1
REMARK VINA RESULT:    -3.359      0.000      0.000
REMARK INTER + INTRA:          -5.405
REMARK INTER:                  -4.930
REMARK INTRA:                  -0.476
REMARK UNBOUND:                -0.476
REMARK SMILES C=C1C=C[C@@H](C(C)C)CCC(C)=CCC1
REMARK SMILES IDX 3 1 4 2 5 3 9 4 10 5 11 6 12 7 13 8 6 10 7 11 8 12 2 13 1 14
REMARK SMILES IDX 15 15 14 16
REMARK H PARENT
REMARK Flexibility Score: 70.00
ROOT
ATOM      1  C   UNL     1      28.611  11.041  28.779  1.00  0.00    -0.001 C 
ATOM      2  C   UNL     1      29.002  10.399  29.894  1.00  0.00    -0.023 C 
ENDROOT
BRANCH   2   3
ATOM      3  C   UNL     1      30.397  10.021  30.376  1.00  0.00     0.014 C 
BRANCH   3   4
ATOM      4  C   UNL     1      30.760   8.514  30.305  1.00  0.00     0.012 C 
BRANCH   4   5
ATOM      5  C   UNL     1      29.921   7.629  29.369  1.00  0.00     0.031 C 
BRANCH   5   6
ATOM      6  C   UNL     1      30.691   7.352  28.095  1.00  0.00    -0.077 C 
ATOM      7  C   UNL     1      31.757   6.288  28.112  1.00  0.00     0.039 C 
ATOM      8  C   UNL     1      30.525   8.083  26.971  1.00  0.00    -0.028 CG0
ATOM      9  G   UNL     1      29.466   9.142  26.785  1.00  0.00     0.000 G0
ENDBRANCH   5   6
ENDBRANCH   4   5
ENDBRANCH   3   4
BRANCH   3  10
ATOM     10  C   UNL     1      30.891  10.868  31.592  1.00  0.00    -0.010 C 
ATOM     11  C   UNL     1      31.643  12.134  31.155  1.00  0.00     0.008 C 
ATOM     12  C   UNL     1      31.692  10.101  32.651  1.00  0.00     0.008 C 
ENDBRANCH   3  10
ENDBRANCH   2   3
BRANCH   1  13
ATOM     13  C   UNL     1      29.456  11.551  27.686  1.00  0.00    -0.055 C 
ATOM     14  C   UNL     1      30.033  12.745  27.865  1.00  0.00     0.012 C 
BRANCH  13  15
ATOM     15  C   UNL     1      30.044  10.570  26.691  1.00  0.00     0.039 C 
BRANCH  15  16
ATOM     16  C   UNL     1      29.459   9.139  26.779  1.00  0.00     0.032 CG0
ATOM     17  G   UNL     1      30.507   8.073  26.989  1.00  0.00     0.000 G0
ENDBRANCH  15  16
ENDBRANCH  13  15
ENDBRANCH   1  13
TORSDOF 1
ENDMDL
MODEL 2
REMARK VINA RESULT:    -3.238      6.017      9.160
REMARK INTER + INTRA:          -5.229
REMARK INTER:                  -4.844
REMARK INTRA:                  -0.384
REMARK UNBOUND:                -0.476
REMARK SMILES C=C1C=C[C@@H](C(C)C)CCC(C)=CCC1
REMARK SMILES IDX 3 1 4 2 5 3 9 4 10 5 11 6 12 7 13 8 6 10 7 11 8 12 2 13 1 14
REMARK SMILES IDX 15 15 14 16
REMARK H PARENT
REMARK Flexibility Score: 70.00
ROOT
ATOM      1  C   UNL     1      29.596   7.014  35.508  1.00  0.00    -0.001 C 
ATOM      2  C   UNL     1      30.001   8.016  34.707  1.00  0.00    -0.023 C 
ENDROOT
BRANCH   2   3
ATOM      3  C   UNL     1      31.278   8.846  34.735  1.00  0.00     0.014 C 
BRANCH   3   4
ATOM      4  C   UNL     1      31.244  10.124  35.615  1.00  0.00     0.012 C 
BRANCH   4   5
ATOM      5  C   UNL     1      31.759  10.002  37.058  1.00  0.00     0.031 C 
BRANCH   5   6
ATOM      6  C   UNL     1      30.612  10.179  38.030  1.00  0.00    -0.077 C 
ATOM      7  C   UNL     1      29.964  11.534  38.144  1.00  0.00     0.039 C 
ATOM      8  C   UNL     1      30.207   9.197  38.865  1.00  0.00    -0.028 CG0
ATOM      9  G   UNL     1      30.721   7.778  38.834  1.00  0.00     0.000 G0
ENDBRANCH   5   6
ENDBRANCH   4   5
ENDBRANCH   3   4
BRANCH   3  10
ATOM     10  C   UNL     1      32.034   8.879  33.368  1.00  0.00    -0.010 C 
ATOM     11  C   UNL     1      32.714  10.232  33.110  1.00  0.00     0.008 C 
ATOM     12  C   UNL     1      31.212   8.445  32.148  1.00  0.00     0.008 C 
ENDBRANCH   3  10
ENDBRANCH   2   3
BRANCH   1  13
ATOM     13  C   UNL     1      30.298   6.448  36.673  1.00  0.00    -0.055 C 
ATOM     14  C   UNL     1      31.563   6.052  36.492  1.00  0.00     0.012 C 
BRANCH  13  15
ATOM     15  C   UNL     1      29.806   6.788  38.066  1.00  0.00     0.039 C 
BRANCH  15  16
ATOM     16  C   UNL     1      30.713   7.774  38.842  1.00  0.00     0.032 CG0
ATOM     17  G   UNL     1      30.185   9.188  38.863  1.00  0.00     0.000 G0
ENDBRANCH  15  16
ENDBRANCH  13  15
ENDBRANCH   1  13
TORSDOF 1
ENDMDL
MODEL 3
REMARK VINA RESULT:    -3.040      5.839      8.498
REMARK INTER + INTRA:          -4.938
REMARK INTER:                  -4.473
REMARK INTRA:                  -0.465
REMARK UNBOUND:                -0.476
REMARK SMILES C=C1C=C[C@@H](C(C)C)CCC(C)=CCC1
REMARK SMILES IDX 3 1 4 2 5 3 9 4 10 5 11 6 12 7 13 8 6 10 7 11 8 12 2 13 1 14
REMARK SMILES IDX 15 15 14 16
REMARK H PARENT
REMARK Flexibility Score: 70.00
ROOT
ATOM      1  C   UNL     1      31.583   6.744  36.501  1.00  0.00    -0.001 C 
ATOM      2  C   UNL     1      31.356   6.557  35.188  1.00  0.00    -0.023 C 
ENDROOT
BRANCH   2   3
ATOM      3  C   UNL     1      30.604   7.422  34.185  1.00  0.00     0.014 C 
BRANCH   3   4
ATOM      4  C   UNL     1      29.055   7.381  34.273  1.00  0.00     0.012 C 
BRANCH   4   5
ATOM      5  C   UNL     1      28.346   8.630  34.822  1.00  0.00     0.031 C 
BRANCH   5   6
ATOM      6  C   UNL     1      27.326   8.225  35.864  1.00  0.00    -0.077 C 
ATOM      7  C   UNL     1      25.993   7.694  35.404  1.00  0.00     0.039 C 
ATOM      8  C   UNL     1      27.526   8.408  37.188  1.00  0.00    -0.028 CG0
ATOM      9  G   UNL     1      28.821   8.879  37.803  1.00  0.00     0.000 G0
ENDBRANCH   5   6
ENDBRANCH   4   5
ENDBRANCH   3   4
BRANCH   3  10
ATOM     10  C   UNL     1      31.287   7.493  32.783  1.00  0.00    -0.010 C 
ATOM     11  C   UNL     1      31.645   8.932  32.379  1.00  0.00     0.008 C 
ATOM     12  C   UNL     1      30.541   6.782  31.646  1.00  0.00     0.008 C 
ENDBRANCH   3  10
ENDBRANCH   2   3
BRANCH   1  13
ATOM     13  C   UNL     1      31.133   7.863  37.346  1.00  0.00    -0.055 C 
ATOM     14  C   UNL     1      31.630   9.075  37.071  1.00  0.00     0.012 C 
BRANCH  13  15
ATOM     15  C   UNL     1      29.824   7.738  38.099  1.00  0.00     0.039 C 
BRANCH  15  16
ATOM     16  C   UNL     1      28.813   8.879  37.821  1.00  0.00     0.032 CG0
ATOM     17  G   UNL     1      27.535   8.404  37.172  1.00  0.00     0.000 G0
ENDBRANCH  15  16
ENDBRANCH  13  15
ENDBRANCH   1  13
TORSDOF 1
ENDMDL
MODEL 4
REMARK VINA RESULT:    -3.038      1.961      4.404
REMARK INTER + INTRA:          -4.934
REMARK INTER:                  -4.437
REMARK INTRA:                  -0.498
REMARK UNBOUND:                -0.476
REMARK SMILES C=C1C=C[C@@H](C(C)C)CCC(C)=CCC1
REMARK SMILES IDX 3 1 4 2 5 3 9 4 10 5 11 6 12 7 13 8 6 10 7 11 8 12 2 13 1 14
REMARK SMILES IDX 15 15 14 16
REMARK H PARENT
REMARK Flexibility Score: 70.00
ROOT
ATOM      1  C   UNL     1      29.756   8.950  28.824  1.00  0.00    -0.001 C 
ATOM      2  C   UNL     1      29.368  10.170  29.237  1.00  0.00    -0.023 C 
ENDROOT
BRANCH   2   3
ATOM      3  C   UNL     1      28.964  11.400  28.435  1.00  0.00     0.014 C 
BRANCH   3   4
ATOM      4  C   UNL     1      30.115  12.159  27.722  1.00  0.00     0.012 C 
BRANCH   4   5
ATOM      5  C   UNL     1      30.354  11.846  26.236  1.00  0.00     0.031 C 
BRANCH   5   6
ATOM      6  C   UNL     1      29.035  11.843  25.493  1.00  0.00    -0.077 C 
ATOM      7  C   UNL     1      28.318  13.151  25.288  1.00  0.00     0.039 C 
ATOM      8  C   UNL     1      28.431  10.705  25.087  1.00  0.00    -0.028 CG0
ATOM      9  G   UNL     1      29.045   9.329  25.173  1.00  0.00     0.000 G0
ENDBRANCH   5   6
ENDBRANCH   4   5
ENDBRANCH   3   4
BRANCH   3  10
ATOM     10  C   UNL     1      27.797  12.213  29.080  1.00  0.00    -0.010 C 
ATOM     11  C   UNL     1      26.421  11.781  28.550  1.00  0.00     0.008 C 
ATOM     12  C   UNL     1      27.944  13.739  29.023  1.00  0.00     0.008 C 
ENDBRANCH   3  10
ENDBRANCH   2   3
BRANCH   1  13
ATOM     13  C   UNL     1      29.915   8.472  27.439  1.00  0.00    -0.055 C 
ATOM     14  C   UNL     1      30.881   7.575  27.209  1.00  0.00     0.012 C 
BRANCH  13  15
ATOM     15  C   UNL     1      28.743   8.581  26.484  1.00  0.00     0.039 C 
BRANCH  15  16
ATOM     16  C   UNL     1      29.060   9.326  25.163  1.00  0.00     0.032 CG0
ATOM     17  G   UNL     1      28.419  10.689  25.074  1.00  0.00     0.000 G0
ENDBRANCH  15  16
ENDBRANCH  13  15
ENDBRANCH   1  13
TORSDOF 1
ENDMDL
MODEL 5
REMARK VINA RESULT:    -2.984      1.582      2.344
REMARK INTER + INTRA:          -4.855
REMARK INTER:                  -4.553
REMARK INTRA:                  -0.303
REMARK UNBOUND:                -0.476
REMARK SMILES C=C1C=C[C@@H](C(C)C)CCC(C)=CCC1
REMARK SMILES IDX 3 1 4 2 5 3 9 4 10 5 11 6 12 7 13 8 6 10 7 11 8 12 2 13 1 14
REMARK SMILES IDX 15 15 14 16
REMARK H PARENT
REMARK Flexibility Score: 70.00
ROOT
ATOM      1  C   UNL     1      28.426  10.395  25.945  1.00  0.00    -0.001 C 
ATOM      2  C   UNL     1      28.302  10.299  27.281  1.00  0.00    -0.023 C 
ENDROOT
BRANCH   2   3
ATOM      3  C   UNL     1      29.359  10.357  28.376  1.00  0.00     0.014 C 
BRANCH   3   4
ATOM      4  C   UNL     1      29.790   8.996  28.983  1.00  0.00     0.012 C 
BRANCH   4   5
ATOM      5  C   UNL     1      29.414   7.725  28.204  1.00  0.00     0.031 C 
BRANCH   5   6
ATOM      6  C   UNL     1      30.635   7.173  27.499  1.00  0.00    -0.077 C 
ATOM      7  C   UNL     1      31.688   6.475  28.318  1.00  0.00     0.039 C 
ATOM      8  C   UNL     1      30.863   7.364  26.181  1.00  0.00    -0.028 CG0
ATOM      9  G   UNL     1      29.882   7.997  25.224  1.00  0.00     0.000 G0
ENDBRANCH   5   6
ENDBRANCH   4   5
ENDBRANCH   3   4
BRANCH   3  10
ATOM     10  C   UNL     1      29.225  11.602  29.310  1.00  0.00    -0.010 C 
ATOM     11  C   UNL     1      30.319  11.643  30.388  1.00  0.00     0.008 C 
ATOM     12  C   UNL     1      27.841  11.813  29.936  1.00  0.00     0.008 C 
ENDBRANCH   3  10
ENDBRANCH   2   3
BRANCH   1  13
ATOM     13  C   UNL     1      29.661  10.571  25.162  1.00  0.00    -0.055 C 
ATOM     14  C   UNL     1      30.340  11.711  25.339  1.00  0.00     0.012 C 
BRANCH  13  15
ATOM     15  C   UNL     1      30.371   9.346  24.622  1.00  0.00     0.039 C 
BRANCH  15  16
ATOM     16  C   UNL     1      29.878   8.004  25.219  1.00  0.00     0.032 CG0
ATOM     17  G   UNL     1      30.866   7.370  26.167  1.00  0.00     0.000 G0
ENDBRANCH  15  16
ENDBRANCH  13  15
ENDBRANCH   1  13
TORSDOF 1
ENDMDL
MODEL 6
REMARK VINA RESULT:    -2.980      4.553      7.301
REMARK INTER + INTRA:          -4.849
REMARK INTER:                  -4.390
REMARK INTRA:                  -0.459
REMARK UNBOUND:                -0.476
REMARK SMILES C=C1C=C[C@@H](C(C)C)CCC(C)=CCC1
REMARK SMILES IDX 3 1 4 2 5 3 9 4 10 5 11 6 12 7 13 8 6 10 7 11 8 12 2 13 1 14
REMARK SMILES IDX 15 15 14 16
REMARK H PARENT
REMARK Flexibility Score: 70.00
ROOT
ATOM      1  C   UNL     1      31.654   8.142  36.977  1.00  0.00    -0.001 C 
ATOM      2  C   UNL     1      31.391   9.386  36.541  1.00  0.00    -0.023 C 
ENDROOT
BRANCH   2   3
ATOM      3  C   UNL     1      30.203   9.925  35.754  1.00  0.00     0.014 C 
BRANCH   3   4
ATOM      4  C   UNL     1      30.459  10.232  34.255  1.00  0.00     0.012 C 
BRANCH   4   5
ATOM      5  C   UNL     1      31.703   9.604  33.607  1.00  0.00     0.031 C 
BRANCH   5   6
ATOM      6  C   UNL     1      31.288   8.505  32.653  1.00  0.00    -0.077 C 
ATOM      7  C   UNL     1      30.844   8.883  31.264  1.00  0.00     0.039 C 
ATOM      8  C   UNL     1      31.209   7.209  33.026  1.00  0.00    -0.028 CG0
ATOM      9  G   UNL     1      31.666   6.671  34.360  1.00  0.00     0.000 G0
ENDBRANCH   5   6
ENDBRANCH   4   5
ENDBRANCH   3   4
BRANCH   3  10
ATOM     10  C   UNL     1      29.283  10.877  36.583  1.00  0.00    -0.010 C 
ATOM     11  C   UNL     1      28.760  10.213  37.866  1.00  0.00     0.008 C 
ATOM     12  C   UNL     1      28.134  11.530  35.804  1.00  0.00     0.008 C 
ENDBRANCH   3  10
ENDBRANCH   2   3
BRANCH   1  13
ATOM     13  C   UNL     1      30.842   6.927  36.788  1.00  0.00    -0.055 C 
ATOM     14  C   UNL     1      30.072   6.541  37.812  1.00  0.00     0.012 C 
BRANCH  13  15
ATOM     15  C   UNL     1      30.506   6.477  35.380  1.00  0.00     0.039 C 
BRANCH  15  16
ATOM     16  C   UNL     1      31.662   6.643  34.362  1.00  0.00     0.032 CG0
ATOM     17  G   UNL     1      31.217   7.211  33.036  1.00  0.00     0.000 G0
ENDBRANCH  15  16
ENDBRANCH  13  15
ENDBRANCH   1  13
TORSDOF 1
ENDMDL
MODEL 7
REMARK VINA RESULT:    -2.885      3.471      5.766
REMARK INTER + INTRA:          -4.710
REMARK INTER:                  -4.373
REMARK INTRA:                  -0.337
REMARK UNBOUND:                -0.476
REMARK SMILES C=C1C=C[C@@H](C(C)C)CCC(C)=CCC1
REMARK SMILES IDX 3 1 4 2 5 3 9 4 10 5 11 6 12 7 13 8 6 10 7 11 8 12 2 13 1 14
REMARK SMILES IDX 15 15 14 16
REMARK H PARENT
REMARK Flexibility Score: 70.00
ROOT
ATOM      1  C   UNL     1      30.532  10.961  31.521  1.00  0.00    -0.001 C 
ATOM      2  C   UNL     1      31.117   9.780  31.255  1.00  0.00    -0.023 C 
ENDROOT
BRANCH   2   3
ATOM      3  C   UNL     1      30.606   8.360  31.453  1.00  0.00     0.014 C 
BRANCH   3   4
ATOM      4  C   UNL     1      31.373   7.495  32.488  1.00  0.00     0.012 C 
BRANCH   4   5
ATOM      5  C   UNL     1      32.004   8.222  33.687  1.00  0.00     0.031 C 
BRANCH   5   6
ATOM      6  C   UNL     1      31.061   8.177  34.870  1.00  0.00    -0.077 C 
ATOM      7  C   UNL     1      31.026   6.934  35.720  1.00  0.00     0.039 C 
ATOM      8  C   UNL     1      30.184   9.169  35.139  1.00  0.00    -0.028 CG0
ATOM      9  G   UNL     1      30.135  10.492  34.414  1.00  0.00     0.000 G0
ENDBRANCH   5   6
ENDBRANCH   4   5
ENDBRANCH   3   4
BRANCH   3  10
ATOM     10  C   UNL     1      30.080   7.694  30.142  1.00  0.00    -0.010 C 
ATOM     11  C   UNL     1      30.740   6.333  29.873  1.00  0.00     0.008 C 
ATOM     12  C   UNL     1      30.127   8.575  28.887  1.00  0.00     0.008 C 
ENDBRANCH   3  10
ENDBRANCH   2   3
BRANCH   1  13
ATOM     13  C   UNL     1      29.203  11.200  32.110  1.00  0.00    -0.055 C 
ATOM     14  C   UNL     1      28.206  11.501  31.270  1.00  0.00     0.012 C 
BRANCH  13  15
ATOM     15  C   UNL     1      28.890  10.624  33.477  1.00  0.00     0.039 C 
BRANCH  15  16
ATOM     16  C   UNL     1      30.115  10.498  34.416  1.00  0.00     0.032 CG0
ATOM     17  G   UNL     1      30.190   9.172  35.132  1.00  0.00     0.000 G0
ENDBRANCH  15  16
ENDBRANCH  13  15
ENDBRANCH   1  13
TORSDOF 1
ENDMDL
MODEL 8
REMARK VINA RESULT:    -2.878      5.630      7.775
REMARK INTER + INTRA:          -4.699
REMARK INTER:                  -4.332
REMARK INTRA:                  -0.367
REMARK UNBOUND:                -0.476
REMARK SMILES C=C1C=C[C@@H](C(C)C)CCC(C)=CCC1
REMARK SMILES IDX 3 1 4 2 5 3 9 4 10 5 11 6 12 7 13 8 6 10 7 11 8 12 2 13 1 14
REMARK SMILES IDX 15 15 14 16
REMARK H PARENT
REMARK Flexibility Score: 70.00
ROOT
ATOM      1  C   UNL     1      28.880  10.937  35.346  1.00  0.00    -0.001 C 
ATOM      2  C   UNL     1      30.147  10.695  34.967  1.00  0.00    -0.023 C 
ENDROOT
BRANCH   2   3
ATOM      3  C   UNL     1      31.021   9.465  35.176  1.00  0.00     0.014 C 
BRANCH   3   4
ATOM      4  C   UNL     1      31.642   9.301  36.588  1.00  0.00     0.012 C 
BRANCH   4   5
ATOM      5  C   UNL     1      30.919   8.369  37.574  1.00  0.00     0.031 C 
BRANCH   5   6
ATOM      6  C   UNL     1      30.595   7.055  36.896  1.00  0.00    -0.077 C 
ATOM      7  C   UNL     1      31.721   6.102  36.592  1.00  0.00     0.039 C 
ATOM      8  C   UNL     1      29.352   6.743  36.470  1.00  0.00    -0.028 CG0
ATOM      9  G   UNL     1      28.118   7.568  36.745  1.00  0.00     0.000 G0
ENDBRANCH   5   6
ENDBRANCH   4   5
ENDBRANCH   3   4
BRANCH   3  10
ATOM     10  C   UNL     1      31.864   9.075  33.920  1.00  0.00    -0.010 C 
ATOM     11  C   UNL     1      32.581  10.282  33.299  1.00  0.00     0.008 C 
ATOM     12  C   UNL     1      31.116   8.277  32.844  1.00  0.00     0.008 C 
ENDBRANCH   3  10
ENDBRANCH   2   3
BRANCH   1  13
ATOM     13  C   UNL     1      27.978  10.053  36.105  1.00  0.00    -0.055 C 
ATOM     14  C   UNL     1      27.031  10.637  36.848  1.00  0.00     0.012 C 
BRANCH  13  15
ATOM     15  C   UNL     1      27.803   8.617  35.653  1.00  0.00     0.039 C 
BRANCH  15  16
ATOM     16  C   UNL     1      28.106   7.560  36.744  1.00  0.00     0.032 CG0
ATOM     17  G   UNL     1      29.351   6.752  36.468  1.00  0.00     0.000 G0
ENDBRANCH  15  16
ENDBRANCH  13  15
ENDBRANCH   1  13
TORSDOF 1
ENDMDL
MODEL 9
REMARK VINA RESULT:    -2.843      2.961      4.408
REMARK INTER + INTRA:          -4.648
REMARK INTER:                  -4.237
REMARK INTRA:                  -0.411
REMARK UNBOUND:                -0.476
REMARK SMILES C=C1C=C[C@@H](C(C)C)CCC(C)=CCC1
REMARK SMILES IDX 3 1 4 2 5 3 9 4 10 5 11 6 12 7 13 8 6 10 7 11 8 12 2 13 1 14
REMARK SMILES IDX 15 15 14 16
REMARK H PARENT
REMARK Flexibility Score: 70.00
ROOT
ATOM      1  C   UNL     1      28.349  10.575  26.849  1.00  0.00    -0.001 C 
ATOM      2  C   UNL     1      28.711   9.324  27.186  1.00  0.00    -0.023 C 
ENDROOT
BRANCH   2   3
ATOM      3  C   UNL     1      29.950   8.522  26.813  1.00  0.00     0.014 C 
BRANCH   3   4
ATOM      4  C   UNL     1      29.945   7.869  25.405  1.00  0.00     0.012 C 
BRANCH   4   5
ATOM      5  C   UNL     1      30.829   8.513  24.325  1.00  0.00     0.031 C 
BRANCH   5   6
ATOM      6  C   UNL     1      30.004   8.797  23.088  1.00  0.00    -0.077 C 
ATOM      7  C   UNL     1      29.653   7.653  22.174  1.00  0.00     0.039 C 
ATOM      8  C   UNL     1      29.649  10.049  22.722  1.00  0.00    -0.028 CG0
ATOM      9  G   UNL     1      29.881  11.285  23.556  1.00  0.00     0.000 G0
ENDBRANCH   5   6
ENDBRANCH   4   5
ENDBRANCH   3   4
BRANCH   3  10
ATOM     10  C   UNL     1      30.577   7.743  28.014  1.00  0.00    -0.010 C 
ATOM     11  C   UNL     1      31.591   6.683  27.557  1.00  0.00     0.008 C 
ATOM     12  C   UNL     1      29.575   7.141  29.007  1.00  0.00     0.008 C 
ENDBRANCH   3  10
ENDBRANCH   2   3
BRANCH   1  13
ATOM     13  C   UNL     1      29.075  11.524  25.987  1.00  0.00    -0.055 C 
ATOM     14  C   UNL     1      30.283  11.925  26.400  1.00  0.00     0.012 C 
BRANCH  13  15
ATOM     15  C   UNL     1      28.713  11.610  24.517  1.00  0.00     0.039 C 
BRANCH  15  16
ATOM     16  C   UNL     1      29.881  11.291  23.551  1.00  0.00     0.032 CG0
ATOM     17  G   UNL     1      29.656  10.046  22.727  1.00  0.00     0.000 G0
ENDBRANCH  15  16
ENDBRANCH  13  15
ENDBRANCH   1  13
TORSDOF 1
ENDMDL
