MODEL 1
REMARK VINA RESULT:    -2.915      0.000      0.000
REMARK INTER + INTRA:          -6.552
REMARK INTER:                  -5.301
REMARK INTRA:                  -1.251
REMARK UNBOUND:                -1.251
REMARK SMILES CCCCCCCCCCCCCC[C@H](C)C(=O)[O-]
REMARK SMILES IDX 9 1 10 2 11 3 12 4 13 5 14 6 15 7 16 8 17 9 18 10 19 11 8 12
REMARK SMILES IDX 7 13 6 14 5 15 4 16 3 17 2 18 1 19
REMARK H PARENT
REMARK Flexibility Score: inf
ROOT
ATOM      1  C   UNL     1     -16.898  -2.843  -2.800  1.00  0.00     0.000 C 
ENDROOT
BRANCH   1   2
ATOM      2  C   UNL     1     -16.041  -1.742  -2.159  1.00  0.00     0.000 C 
BRANCH   2   3
ATOM      3  C   UNL     1     -16.399  -0.335  -2.666  1.00  0.00     0.000 C 
BRANCH   3   4
ATOM      4  C   UNL     1     -17.120   0.566  -1.643  1.00  0.00     0.000 C 
BRANCH   4   5
ATOM      5  C   UNL     1     -17.125   0.042  -0.196  1.00  0.00     0.001 C 
BRANCH   5   6
ATOM      6  C   UNL     1     -16.370   0.967   0.777  1.00  0.00     0.009 C 
BRANCH   6   7
ATOM      7  C   UNL     1     -15.603   0.173   1.855  1.00  0.00     0.032 C 
ATOM      8  C   UNL     1     -15.131  -1.174   1.300  1.00  0.00     0.014 C 
BRANCH   7   9
ATOM      9  C   UNL     1     -16.452  -0.053   3.078  1.00  0.00     0.044 C 
ATOM     10  O   UNL     1     -16.776  -1.221   3.414  1.00  0.00    -0.550 OA
ATOM     11  O   UNL     1     -16.886   1.025   3.840  1.00  0.00    -0.550 OA
ENDBRANCH   7   9
ENDBRANCH   6   7
ENDBRANCH   5   6
ENDBRANCH   4   5
ENDBRANCH   3   4
ENDBRANCH   2   3
ENDBRANCH   1   2
BRANCH   1  12
ATOM     12  C   UNL     1     -16.155  -4.186  -2.804  1.00  0.00     0.000 C 
BRANCH  12  13
ATOM     13  C   UNL     1     -14.933  -4.141  -1.880  1.00  0.00    -0.000 C 
BRANCH  13  14
ATOM     14  C   UNL     1     -13.686  -4.687  -2.592  1.00  0.00    -0.000 C 
BRANCH  14  15
ATOM     15  C   UNL     1     -13.972  -5.116  -4.039  1.00  0.00    -0.000 C 
BRANCH  15  16
ATOM     16  C   UNL     1     -12.780  -4.861  -4.978  1.00  0.00    -0.000 C 
BRANCH  16  17
ATOM     17  C   UNL     1     -13.140  -5.063  -6.458  1.00  0.00    -0.000 C 
BRANCH  17  18
ATOM     18  C   UNL     1     -14.449  -4.362  -6.847  1.00  0.00    -0.003 C 
ATOM     19  C   UNL     1     -14.881  -4.749  -8.259  1.00  0.00     0.004 C 
ENDBRANCH  17  18
ENDBRANCH  16  17
ENDBRANCH  15  16
ENDBRANCH  14  15
ENDBRANCH  13  14
ENDBRANCH  12  13
ENDBRANCH   1  12
TORSDOF 14
ENDMDL
MODEL 2
REMARK VINA RESULT:    -1.928      2.385      4.021
REMARK INTER + INTRA:          -4.757
REMARK INTER:                  -3.781
REMARK INTRA:                  -0.976
REMARK UNBOUND:                -1.251
REMARK SMILES CCCCCCCCCCCCCC[C@H](C)C(=O)[O-]
REMARK SMILES IDX 9 1 10 2 11 3 12 4 13 5 14 6 15 7 16 8 17 9 18 10 19 11 8 12
REMARK SMILES IDX 7 13 6 14 5 15 4 16 3 17 2 18 1 19
REMARK H PARENT
REMARK Flexibility Score: inf
ROOT
ATOM      1  C   UNL     1     -13.063  -4.198  -3.639  1.00  0.00     0.000 C 
ENDROOT
BRANCH   1   2
ATOM      2  C   UNL     1     -13.821  -4.977  -2.554  1.00  0.00     0.000 C 
BRANCH   2   3
ATOM      3  C   UNL     1     -15.018  -4.197  -1.984  1.00  0.00     0.000 C 
BRANCH   3   4
ATOM      4  C   UNL     1     -15.370  -2.897  -2.737  1.00  0.00     0.000 C 
BRANCH   4   5
ATOM      5  C   UNL     1     -16.821  -2.412  -2.564  1.00  0.00     0.001 C 
BRANCH   5   6
ATOM      6  C   UNL     1     -16.912  -0.916  -2.210  1.00  0.00     0.009 C 
BRANCH   6   7
ATOM      7  C   UNL     1     -16.086  -0.565  -0.956  1.00  0.00     0.032 C 
ATOM      8  C   UNL     1     -16.529  -1.416   0.238  1.00  0.00     0.014 C 
BRANCH   7   9
ATOM      9  C   UNL     1     -16.210   0.896  -0.610  1.00  0.00     0.044 C 
ATOM     10  O   UNL     1     -15.487   1.395   0.292  1.00  0.00    -0.550 OA
ATOM     11  O   UNL     1     -17.124   1.701  -1.278  1.00  0.00    -0.550 OA
ENDBRANCH   7   9
ENDBRANCH   6   7
ENDBRANCH   5   6
ENDBRANCH   4   5
ENDBRANCH   3   4
ENDBRANCH   2   3
ENDBRANCH   1   2
BRANCH   1  12
ATOM     12  C   UNL     1     -13.077  -4.958  -4.972  1.00  0.00     0.000 C 
BRANCH  12  13
ATOM     13  C   UNL     1     -14.508  -5.124  -5.496  1.00  0.00    -0.000 C 
BRANCH  13  14
ATOM     14  C   UNL     1     -14.536  -5.104  -7.032  1.00  0.00    -0.000 C 
BRANCH  14  15
ATOM     15  C   UNL     1     -13.129  -5.102  -7.649  1.00  0.00    -0.000 C 
BRANCH  15  16
ATOM     16  C   UNL     1     -13.155  -4.945  -9.180  1.00  0.00    -0.000 C 
BRANCH  16  17
ATOM     17  C   UNL     1     -11.747  -4.838  -9.786  1.00  0.00    -0.000 C 
BRANCH  17  18
ATOM     18  C   UNL     1     -10.648  -4.767  -8.716  1.00  0.00    -0.003 C 
ATOM     19  C   UNL     1      -9.269  -4.985  -9.331  1.00  0.00     0.004 C 
ENDBRANCH  17  18
ENDBRANCH  16  17
ENDBRANCH  15  16
ENDBRANCH  14  15
ENDBRANCH  13  14
ENDBRANCH  12  13
ENDBRANCH   1  12
TORSDOF 14
ENDMDL
MODEL 3
REMARK VINA RESULT:    -1.448      4.066      8.756
REMARK INTER + INTRA:          -3.885
REMARK INTER:                  -3.482
REMARK INTRA:                  -0.403
REMARK UNBOUND:                -1.251
REMARK SMILES CCCCCCCCCCCCCC[C@H](C)C(=O)[O-]
REMARK SMILES IDX 9 1 10 2 11 3 12 4 13 5 14 6 15 7 16 8 17 9 18 10 19 11 8 12
REMARK SMILES IDX 7 13 6 14 5 15 4 16 3 17 2 18 1 19
REMARK H PARENT
REMARK Flexibility Score: inf
ROOT
ATOM      1  C   UNL     1     -17.069   0.009  -2.981  1.00  0.00     0.000 C 
ENDROOT
BRANCH   1   2
ATOM      2  C   UNL     1     -16.948  -1.473  -3.366  1.00  0.00     0.000 C 
BRANCH   2   3
ATOM      3  C   UNL     1     -15.525  -1.864  -3.798  1.00  0.00     0.000 C 
BRANCH   3   4
ATOM      4  C   UNL     1     -14.965  -3.137  -3.132  1.00  0.00     0.000 C 
BRANCH   4   5
ATOM      5  C   UNL     1     -15.668  -4.448  -3.528  1.00  0.00     0.001 C 
BRANCH   5   6
ATOM      6  C   UNL     1     -16.160  -4.445  -4.987  1.00  0.00     0.009 C 
BRANCH   6   7
ATOM      7  C   UNL     1     -15.080  -4.950  -5.966  1.00  0.00     0.032 C 
ATOM      8  C   UNL     1     -13.680  -4.727  -5.387  1.00  0.00     0.014 C 
BRANCH   7   9
ATOM      9  C   UNL     1     -15.189  -4.267  -7.303  1.00  0.00     0.044 C 
ATOM     10  O   UNL     1     -15.610  -3.083  -7.374  1.00  0.00    -0.550 OA
ATOM     11  O   UNL     1     -14.831  -4.938  -8.466  1.00  0.00    -0.550 OA
ENDBRANCH   7   9
ENDBRANCH   6   7
ENDBRANCH   5   6
ENDBRANCH   4   5
ENDBRANCH   3   4
ENDBRANCH   2   3
ENDBRANCH   1   2
BRANCH   1  12
ATOM     12  C   UNL     1     -17.125   0.178  -1.458  1.00  0.00     0.000 C 
BRANCH  12  13
ATOM     13  C   UNL     1     -16.902  -1.161  -0.746  1.00  0.00    -0.000 C 
BRANCH  13  14
ATOM     14  C   UNL     1     -16.933  -0.985   0.779  1.00  0.00    -0.000 C 
BRANCH  14  15
ATOM     15  C   UNL     1     -15.557  -0.624   1.361  1.00  0.00    -0.000 C 
BRANCH  15  16
ATOM     16  C   UNL     1     -15.587  -0.455   2.890  1.00  0.00    -0.000 C 
BRANCH  16  17
ATOM     17  C   UNL     1     -17.004  -0.208   3.429  1.00  0.00    -0.000 C 
BRANCH  17  18
ATOM     18  C   UNL     1     -17.125   1.126   4.180  1.00  0.00    -0.003 C 
ATOM     19  C   UNL     1     -16.950   0.928   5.683  1.00  0.00     0.004 C 
ENDBRANCH  17  18
ENDBRANCH  16  17
ENDBRANCH  15  16
ENDBRANCH  14  15
ENDBRANCH  13  14
ENDBRANCH  12  13
ENDBRANCH   1  12
TORSDOF 14
ENDMDL
MODEL 4
REMARK VINA RESULT:    -0.380      4.125      7.052
REMARK INTER + INTRA:          -1.942
REMARK INTER:                  -1.441
REMARK INTRA:                  -0.500
REMARK UNBOUND:                -1.251
REMARK SMILES CCCCCCCCCCCCCC[C@H](C)C(=O)[O-]
REMARK SMILES IDX 9 1 10 2 11 3 12 4 13 5 14 6 15 7 16 8 17 9 18 10 19 11 8 12
REMARK SMILES IDX 7 13 6 14 5 15 4 16 3 17 2 18 1 19
REMARK H PARENT
REMARK Flexibility Score: inf
ROOT
ATOM      1  C   UNL     1     -17.052   0.512  -1.526  1.00  0.00     0.000 C 
ENDROOT
BRANCH   1   2
ATOM      2  C   UNL     1     -16.690   0.094  -2.959  1.00  0.00     0.000 C 
BRANCH   2   3
ATOM      3  C   UNL     1     -17.125  -1.344  -3.290  1.00  0.00     0.000 C 
BRANCH   3   4
ATOM      4  C   UNL     1     -16.862  -1.789  -4.743  1.00  0.00     0.000 C 
BRANCH   4   5
ATOM      5  C   UNL     1     -16.474  -3.269  -4.915  1.00  0.00     0.001 C 
BRANCH   5   6
ATOM      6  C   UNL     1     -14.974  -3.463  -5.203  1.00  0.00     0.009 C 
BRANCH   6   7
ATOM      7  C   UNL     1     -14.717  -4.618  -6.194  1.00  0.00     0.032 C 
ATOM      8  C   UNL     1     -13.221  -4.933  -6.279  1.00  0.00     0.014 C 
BRANCH   7   9
ATOM      9  C   UNL     1     -15.244  -4.290  -7.566  1.00  0.00     0.044 C 
ATOM     10  O   UNL     1     -14.616  -4.664  -8.590  1.00  0.00    -0.550 OA
ATOM     11  O   UNL     1     -16.424  -3.570  -7.712  1.00  0.00    -0.550 OA
ENDBRANCH   7   9
ENDBRANCH   6   7
ENDBRANCH   5   6
ENDBRANCH   4   5
ENDBRANCH   3   4
ENDBRANCH   2   3
ENDBRANCH   1   2
BRANCH   1  12
ATOM     12  C   UNL     1     -15.790   0.732  -0.682  1.00  0.00     0.000 C 
BRANCH  12  13
ATOM     13  C   UNL     1     -15.685  -0.312   0.436  1.00  0.00    -0.000 C 
BRANCH  13  14
ATOM     14  C   UNL     1     -16.379  -1.621   0.032  1.00  0.00    -0.000 C 
BRANCH  14  15
ATOM     15  C   UNL     1     -15.395  -2.668  -0.513  1.00  0.00    -0.000 C 
BRANCH  15  16
ATOM     16  C   UNL     1     -16.032  -3.582  -1.574  1.00  0.00    -0.000 C 
BRANCH  16  17
ATOM     17  C   UNL     1     -15.144  -4.785  -1.928  1.00  0.00    -0.000 C 
BRANCH  17  18
ATOM     18  C   UNL     1     -13.685  -4.588  -1.494  1.00  0.00    -0.003 C 
ATOM     19  C   UNL     1     -12.722  -4.965  -2.616  1.00  0.00     0.004 C 
ENDBRANCH  17  18
ENDBRANCH  16  17
ENDBRANCH  15  16
ENDBRANCH  14  15
ENDBRANCH  13  14
ENDBRANCH  12  13
ENDBRANCH   1  12
TORSDOF 14
ENDMDL
