MODEL 1
REMARK VINA RESULT:    -6.526      0.000      0.000
REMARK INTER + INTRA:          -7.552
REMARK INTER:                  -7.862
REMARK INTRA:                   0.310
REMARK UNBOUND:                 0.310
REMARK SMILES O=c1c(O)c(-c2ccc(O)c(O)c2)oc2cc(O)cc(O)c12
REMARK SMILES IDX 5 1 3 2 2 3 1 4 22 5 20 6 19 7 17 8 16 9 15 10 14 11 6 12
REMARK SMILES IDX 7 13 8 14 9 15 13 16 11 17 10 18 12 20 4 22 21 24 18 26
REMARK H PARENT 10 19 12 21 4 23 21 25 18 27
REMARK Flexibility Score: inf
ROOT
ATOM      1  C   UNL     1       0.616 -36.550  20.963  1.00  0.00     0.180 A 
ATOM      2  C   UNL     1       0.934 -37.259  19.793  1.00  0.00     0.208 A 
ATOM      3  C   UNL     1       2.284 -37.442  19.453  1.00  0.00     0.238 A 
ATOM      4  O   UNL     1       2.563 -38.124  18.434  1.00  0.00    -0.285 OA
ATOM      5  C   UNL     1       3.297 -36.901  20.281  1.00  0.00     0.111 A 
ATOM      6  C   UNL     1       4.697 -36.992  20.012  1.00  0.00     0.134 A 
ATOM      7  C   UNL     1       5.614 -36.534  20.966  1.00  0.00     0.093 A 
ATOM      8  C   UNL     1       5.184 -35.930  22.147  1.00  0.00     0.123 A 
ATOM      9  C   UNL     1       3.818 -35.783  22.393  1.00  0.00     0.094 A 
ATOM     10  C   UNL     1       2.879 -36.262  21.477  1.00  0.00     0.146 A 
ATOM     11  O   UNL     1       1.589 -36.112  21.753  1.00  0.00    -0.452 OA
ENDROOT
BRANCH   1  12
ATOM     12  C   UNL     1      -0.785 -36.295  21.374  1.00  0.00     0.025 A 
ATOM     13  C   UNL     1      -1.827 -37.158  20.997  1.00  0.00     0.016 A 
ATOM     14  C   UNL     1      -3.144 -36.885  21.375  1.00  0.00     0.051 A 
ATOM     15  C   UNL     1      -3.441 -35.739  22.125  1.00  0.00     0.157 A 
ATOM     16  C   UNL     1      -1.090 -35.136  22.107  1.00  0.00     0.062 A 
ATOM     17  C   UNL     1      -2.408 -34.859  22.489  1.00  0.00     0.158 A 
BRANCH  15  18
ATOM     18  O   UNL     1      -4.755 -35.470  22.502  1.00  0.00    -0.504 OA
ATOM     19  H   UNL     1      -4.969 -34.903  23.313  1.00  0.00     0.293 HD
ENDBRANCH  15  18
BRANCH  17  20
ATOM     20  O   UNL     1      -2.672 -33.706  23.228  1.00  0.00    -0.504 OA
ATOM     21  H   UNL     1      -1.964 -33.257  23.797  1.00  0.00     0.293 HD
ENDBRANCH  17  20
ENDBRANCH   1  12
BRANCH   2  22
ATOM     22  O   UNL     1      -0.082 -37.803  19.002  1.00  0.00    -0.502 OA
ATOM     23  H   UNL     1      -0.310 -37.441  18.084  1.00  0.00     0.293 HD
ENDBRANCH   2  22
BRANCH   6  24
ATOM     24  O   UNL     1       5.232 -37.493  18.822  1.00  0.00    -0.507 OA
ATOM     25  H   UNL     1       5.411 -36.943  17.996  1.00  0.00     0.293 HD
ENDBRANCH   6  24
BRANCH   8  26
ATOM     26  O   UNL     1       6.125 -35.472  23.066  1.00  0.00    -0.508 OA
ATOM     27  H   UNL     1       6.319 -35.978  23.923  1.00  0.00     0.293 HD
ENDBRANCH   8  26
TORSDOF 6
ENDMDL
MODEL 2
REMARK VINA RESULT:    -6.107      1.717      6.664
REMARK INTER + INTRA:          -7.047
REMARK INTER:                  -6.712
REMARK INTRA:                  -0.335
REMARK UNBOUND:                 0.310
REMARK SMILES O=c1c(O)c(-c2ccc(O)c(O)c2)oc2cc(O)cc(O)c12
REMARK SMILES IDX 5 1 3 2 2 3 1 4 22 5 20 6 19 7 17 8 16 9 15 10 14 11 6 12
REMARK SMILES IDX 7 13 8 14 9 15 13 16 11 17 10 18 12 20 4 22 21 24 18 26
REMARK H PARENT 10 19 12 21 4 23 21 25 18 27
REMARK Flexibility Score: inf
ROOT
ATOM      1  C   UNL     1       0.722 -36.279  20.933  1.00  0.00     0.180 A 
ATOM      2  C   UNL     1      -0.410 -37.030  20.574  1.00  0.00     0.208 A 
ATOM      3  C   UNL     1      -1.667 -36.645  21.068  1.00  0.00     0.238 A 
ATOM      4  O   UNL     1      -2.684 -37.289  20.700  1.00  0.00    -0.285 OA
ATOM      5  C   UNL     1      -1.773 -35.523  21.925  1.00  0.00     0.111 A 
ATOM      6  C   UNL     1      -2.991 -35.067  22.515  1.00  0.00     0.134 A 
ATOM      7  C   UNL     1      -3.000 -33.870  23.242  1.00  0.00     0.093 A 
ATOM      8  C   UNL     1      -1.826 -33.148  23.455  1.00  0.00     0.123 A 
ATOM      9  C   UNL     1      -0.620 -33.616  22.932  1.00  0.00     0.094 A 
ATOM     10  C   UNL     1      -0.586 -34.788  22.173  1.00  0.00     0.146 A 
ATOM     11  O   UNL     1       0.581 -35.194  21.684  1.00  0.00    -0.452 OA
ENDROOT
BRANCH   1  12
ATOM     12  C   UNL     1       2.083 -36.637  20.473  1.00  0.00     0.025 A 
ATOM     13  C   UNL     1       2.893 -37.524  21.203  1.00  0.00     0.016 A 
ATOM     14  C   UNL     1       4.183 -37.829  20.764  1.00  0.00     0.051 A 
ATOM     15  C   UNL     1       4.689 -37.244  19.595  1.00  0.00     0.157 A 
ATOM     16  C   UNL     1       2.603 -36.037  19.314  1.00  0.00     0.062 A 
ATOM     17  C   UNL     1       3.894 -36.340  18.870  1.00  0.00     0.158 A 
BRANCH  15  18
ATOM     18  O   UNL     1       5.977 -37.551  19.158  1.00  0.00    -0.504 OA
ATOM     19  H   UNL     1       6.199 -38.454  18.756  1.00  0.00     0.293 HD
ENDBRANCH  15  18
BRANCH  17  20
ATOM     20  O   UNL     1       4.371 -35.736  17.707  1.00  0.00    -0.504 OA
ATOM     21  H   UNL     1       3.913 -34.935  17.288  1.00  0.00     0.293 HD
ENDBRANCH  17  20
ENDBRANCH   1  12
BRANCH   2  22
ATOM     22  O   UNL     1      -0.286 -38.121  19.710  1.00  0.00    -0.502 OA
ATOM     23  H   UNL     1      -0.597 -39.052  19.960  1.00  0.00     0.293 HD
ENDBRANCH   2  22
BRANCH   6  24
ATOM     24  O   UNL     1      -4.202 -35.762  22.442  1.00  0.00    -0.507 OA
ATOM     25  H   UNL     1      -4.300 -36.759  22.557  1.00  0.00     0.293 HD
ENDBRANCH   6  24
BRANCH   8  26
ATOM     26  O   UNL     1      -1.870 -31.969  24.196  1.00  0.00    -0.508 OA
ATOM     27  H   UNL     1      -2.746 -31.586  24.531  1.00  0.00     0.293 HD
ENDBRANCH   8  26
TORSDOF 6
ENDMDL
MODEL 3
REMARK VINA RESULT:    -6.068      1.650      7.229
REMARK INTER + INTRA:          -7.000
REMARK INTER:                  -6.999
REMARK INTRA:                  -0.001
REMARK UNBOUND:                 0.310
REMARK SMILES O=c1c(O)c(-c2ccc(O)c(O)c2)oc2cc(O)cc(O)c12
REMARK SMILES IDX 5 1 3 2 2 3 1 4 22 5 20 6 19 7 17 8 16 9 15 10 14 11 6 12
REMARK SMILES IDX 7 13 8 14 9 15 13 16 11 17 10 18 12 20 4 22 21 24 18 26
REMARK H PARENT 10 19 12 21 4 23 21 25 18 27
REMARK Flexibility Score: inf
ROOT
ATOM      1  C   UNL     1       1.263 -36.510  20.316  1.00  0.00     0.180 A 
ATOM      2  C   UNL     1       1.216 -35.511  21.303  1.00  0.00     0.208 A 
ATOM      3  C   UNL     1      -0.023 -35.170  21.868  1.00  0.00     0.238 A 
ATOM      4  O   UNL     1      -0.052 -34.314  22.789  1.00  0.00    -0.285 OA
ATOM      5  C   UNL     1      -1.201 -35.823  21.429  1.00  0.00     0.111 A 
ATOM      6  C   UNL     1      -2.515 -35.528  21.904  1.00  0.00     0.134 A 
ATOM      7  C   UNL     1      -3.591 -36.325  21.494  1.00  0.00     0.093 A 
ATOM      8  C   UNL     1      -3.413 -37.361  20.579  1.00  0.00     0.123 A 
ATOM      9  C   UNL     1      -2.142 -37.620  20.063  1.00  0.00     0.094 A 
ATOM     10  C   UNL     1      -1.043 -36.865  20.480  1.00  0.00     0.146 A 
ATOM     11  O   UNL     1       0.151 -37.149  19.973  1.00  0.00    -0.452 OA
ENDROOT
BRANCH   1  12
ATOM     12  C   UNL     1       2.528 -36.907  19.655  1.00  0.00     0.025 A 
ATOM     13  C   UNL     1       2.639 -36.955  18.255  1.00  0.00     0.016 A 
ATOM     14  C   UNL     1       3.834 -37.355  17.653  1.00  0.00     0.051 A 
ATOM     15  C   UNL     1       4.933 -37.726  18.441  1.00  0.00     0.157 A 
ATOM     16  C   UNL     1       3.624 -37.301  20.440  1.00  0.00     0.062 A 
ATOM     17  C   UNL     1       4.824 -37.702  19.842  1.00  0.00     0.158 A 
BRANCH  15  18
ATOM     18  O   UNL     1       6.125 -38.124  17.838  1.00  0.00    -0.504 OA
ATOM     19  H   UNL     1       6.162 -38.916  17.209  1.00  0.00     0.293 HD
ENDBRANCH  15  18
BRANCH  17  20
ATOM     20  O   UNL     1       5.896 -38.072  20.653  1.00  0.00    -0.504 OA
ATOM     21  H   UNL     1       5.787 -38.243  21.646  1.00  0.00     0.293 HD
ENDBRANCH  17  20
ENDBRANCH   1  12
BRANCH   2  22
ATOM     22  O   UNL     1       2.393 -34.896  21.737  1.00  0.00    -0.502 OA
ATOM     23  H   UNL     1       2.874 -35.177  22.582  1.00  0.00     0.293 HD
ENDBRANCH   2  22
BRANCH   6  24
ATOM     24  O   UNL     1      -2.817 -34.457  22.749  1.00  0.00    -0.507 OA
ATOM     25  H   UNL     1      -3.141 -33.553  22.439  1.00  0.00     0.293 HD
ENDBRANCH   6  24
BRANCH   8  26
ATOM     26  O   UNL     1      -4.509 -38.124  20.182  1.00  0.00    -0.508 OA
ATOM     27  H   UNL     1      -5.098 -38.598  20.858  1.00  0.00     0.293 HD
ENDBRANCH   8  26
TORSDOF 6
ENDMDL
MODEL 4
REMARK VINA RESULT:    -6.022      1.508      6.664
REMARK INTER + INTRA:          -6.944
REMARK INTER:                  -6.645
REMARK INTRA:                  -0.299
REMARK UNBOUND:                 0.310
REMARK SMILES O=c1c(O)c(-c2ccc(O)c(O)c2)oc2cc(O)cc(O)c12
REMARK SMILES IDX 5 1 3 2 2 3 1 4 22 5 20 6 19 7 17 8 16 9 15 10 14 11 6 12
REMARK SMILES IDX 7 13 8 14 9 15 13 16 11 17 10 18 12 20 4 22 21 24 18 26
REMARK H PARENT 10 19 12 21 4 23 21 25 18 27
REMARK Flexibility Score: inf
ROOT
ATOM      1  C   UNL     1       0.896 -36.148  20.762  1.00  0.00     0.180 A 
ATOM      2  C   UNL     1      -0.199 -36.960  20.418  1.00  0.00     0.208 A 
ATOM      3  C   UNL     1      -1.459 -36.671  20.966  1.00  0.00     0.238 A 
ATOM      4  O   UNL     1      -2.445 -37.367  20.613  1.00  0.00    -0.285 OA
ATOM      5  C   UNL     1      -1.605 -35.583  21.860  1.00  0.00     0.111 A 
ATOM      6  C   UNL     1      -2.828 -35.224  22.506  1.00  0.00     0.134 A 
ATOM      7  C   UNL     1      -2.886 -34.051  23.270  1.00  0.00     0.093 A 
ATOM      8  C   UNL     1      -1.754 -33.262  23.465  1.00  0.00     0.123 A 
ATOM      9  C   UNL     1      -0.540 -33.636  22.888  1.00  0.00     0.094 A 
ATOM     10  C   UNL     1      -0.459 -34.781  22.091  1.00  0.00     0.146 A 
ATOM     11  O   UNL     1       0.713 -35.096  21.551  1.00  0.00    -0.452 OA
ENDROOT
BRANCH   1  12
ATOM     12  C   UNL     1       2.260 -36.404  20.245  1.00  0.00     0.025 A 
ATOM     13  C   UNL     1       2.647 -35.982  18.961  1.00  0.00     0.016 A 
ATOM     14  C   UNL     1       3.931 -36.256  18.484  1.00  0.00     0.051 A 
ATOM     15  C   UNL     1       4.844 -36.966  19.277  1.00  0.00     0.157 A 
ATOM     16  C   UNL     1       3.170 -37.134  21.027  1.00  0.00     0.062 A 
ATOM     17  C   UNL     1       4.458 -37.410  20.553  1.00  0.00     0.158 A 
BRANCH  15  18
ATOM     18  O   UNL     1       6.125 -37.237  18.800  1.00  0.00    -0.504 OA
ATOM     19  H   UNL     1       6.880 -36.570  18.901  1.00  0.00     0.293 HD
ENDBRANCH  15  18
BRANCH  17  20
ATOM     20  O   UNL     1       5.340 -38.125  21.364  1.00  0.00    -0.504 OA
ATOM     21  H   UNL     1       5.291 -38.090  22.375  1.00  0.00     0.293 HD
ENDBRANCH  17  20
ENDBRANCH   1  12
BRANCH   2  22
ATOM     22  O   UNL     1      -0.036 -38.015  19.516  1.00  0.00    -0.502 OA
ATOM     23  H   UNL     1       0.535 -38.824  19.724  1.00  0.00     0.293 HD
ENDBRANCH   2  22
BRANCH   6  24
ATOM     24  O   UNL     1      -3.994 -35.992  22.452  1.00  0.00    -0.507 OA
ATOM     25  H   UNL     1      -4.046 -36.934  22.092  1.00  0.00     0.293 HD
ENDBRANCH   6  24
BRANCH   8  26
ATOM     26  O   UNL     1      -1.845 -32.111  24.244  1.00  0.00    -0.508 OA
ATOM     27  H   UNL     1      -2.404 -32.085  25.089  1.00  0.00     0.293 HD
ENDBRANCH   8  26
TORSDOF 6
ENDMDL
MODEL 5
REMARK VINA RESULT:    -5.556      1.299      2.935
REMARK INTER + INTRA:          -6.383
REMARK INTER:                  -6.683
REMARK INTRA:                   0.300
REMARK UNBOUND:                 0.310
REMARK SMILES O=c1c(O)c(-c2ccc(O)c(O)c2)oc2cc(O)cc(O)c12
REMARK SMILES IDX 5 1 3 2 2 3 1 4 22 5 20 6 19 7 17 8 16 9 15 10 14 11 6 12
REMARK SMILES IDX 7 13 8 14 9 15 13 16 11 17 10 18 12 20 4 22 21 24 18 26
REMARK H PARENT 10 19 12 21 4 23 21 25 18 27
REMARK Flexibility Score: inf
ROOT
ATOM      1  C   UNL     1       0.959 -35.825  21.299  1.00  0.00     0.180 A 
ATOM      2  C   UNL     1       1.971 -35.316  22.129  1.00  0.00     0.208 A 
ATOM      3  C   UNL     1       3.313 -35.515  21.767  1.00  0.00     0.238 A 
ATOM      4  O   UNL     1       4.214 -35.011  22.485  1.00  0.00    -0.285 OA
ATOM      5  C   UNL     1       3.625 -36.234  20.587  1.00  0.00     0.111 A 
ATOM      6  C   UNL     1       4.950 -36.529  20.145  1.00  0.00     0.134 A 
ATOM      7  C   UNL     1       5.142 -37.134  18.896  1.00  0.00     0.093 A 
ATOM      8  C   UNL     1       4.059 -37.512  18.105  1.00  0.00     0.123 A 
ATOM      9  C   UNL     1       2.758 -37.281  18.554  1.00  0.00     0.094 A 
ATOM     10  C   UNL     1       2.535 -36.648  19.779  1.00  0.00     0.146 A 
ATOM     11  O   UNL     1       1.282 -36.437  20.166  1.00  0.00    -0.452 OA
ENDROOT
BRANCH   1  12
ATOM     12  C   UNL     1      -0.478 -35.677  21.626  1.00  0.00     0.025 A 
ATOM     13  C   UNL     1      -1.422 -36.639  21.230  1.00  0.00     0.016 A 
ATOM     14  C   UNL     1      -2.776 -36.468  21.528  1.00  0.00     0.051 A 
ATOM     15  C   UNL     1      -3.209 -35.326  22.217  1.00  0.00     0.157 A 
ATOM     16  C   UNL     1      -0.920 -34.524  22.297  1.00  0.00     0.062 A 
ATOM     17  C   UNL     1      -2.275 -34.348  22.599  1.00  0.00     0.158 A 
BRANCH  15  18
ATOM     18  O   UNL     1      -4.560 -35.158  22.515  1.00  0.00    -0.504 OA
ATOM     19  H   UNL     1      -4.945 -35.437  23.409  1.00  0.00     0.293 HD
ENDBRANCH  15  18
BRANCH  17  20
ATOM     20  O   UNL     1      -2.674 -33.198  23.278  1.00  0.00    -0.504 OA
ATOM     21  H   UNL     1      -3.594 -32.791  23.156  1.00  0.00     0.293 HD
ENDBRANCH  17  20
ENDBRANCH   1  12
BRANCH   2  22
ATOM     22  O   UNL     1       1.641 -34.591  23.277  1.00  0.00    -0.502 OA
ATOM     23  H   UNL     1       1.727 -33.583  23.327  1.00  0.00     0.293 HD
ENDBRANCH   2  22
BRANCH   6  24
ATOM     24  O   UNL     1       6.099 -36.278  20.900  1.00  0.00    -0.507 OA
ATOM     25  H   UNL     1       6.931 -36.848  20.889  1.00  0.00     0.293 HD
ENDBRANCH   6  24
BRANCH   8  26
ATOM     26  O   UNL     1       4.287 -38.125  16.875  1.00  0.00    -0.508 OA
ATOM     27  H   UNL     1       3.567 -38.668  16.411  1.00  0.00     0.293 HD
ENDBRANCH   8  26
TORSDOF 6
ENDMDL
MODEL 6
REMARK VINA RESULT:    -5.194      1.731      3.485
REMARK INTER + INTRA:          -5.947
REMARK INTER:                  -6.202
REMARK INTRA:                   0.254
REMARK UNBOUND:                 0.310
REMARK SMILES O=c1c(O)c(-c2ccc(O)c(O)c2)oc2cc(O)cc(O)c12
REMARK SMILES IDX 5 1 3 2 2 3 1 4 22 5 20 6 19 7 17 8 16 9 15 10 14 11 6 12
REMARK SMILES IDX 7 13 8 14 9 15 13 16 11 17 10 18 12 20 4 22 21 24 18 26
REMARK H PARENT 10 19 12 21 4 23 21 25 18 27
REMARK Flexibility Score: inf
ROOT
ATOM      1  C   UNL     1       1.517 -35.144  21.858  1.00  0.00     0.180 A 
ATOM      2  C   UNL     1       2.700 -35.127  22.615  1.00  0.00     0.208 A 
ATOM      3  C   UNL     1       3.855 -35.725  22.087  1.00  0.00     0.238 A 
ATOM      4  O   UNL     1       4.925 -35.660  22.746  1.00  0.00    -0.285 OA
ATOM      5  C   UNL     1       3.809 -36.344  20.814  1.00  0.00     0.111 A 
ATOM      6  C   UNL     1       4.909 -37.015  20.199  1.00  0.00     0.134 A 
ATOM      7  C   UNL     1       4.786 -37.478  18.882  1.00  0.00     0.093 A 
ATOM      8  C   UNL     1       3.586 -37.353  18.184  1.00  0.00     0.123 A 
ATOM      9  C   UNL     1       2.486 -36.752  18.797  1.00  0.00     0.094 A 
ATOM     10  C   UNL     1       2.589 -36.248  20.096  1.00  0.00     0.146 A 
ATOM     11  O   UNL     1       1.522 -35.674  20.640  1.00  0.00    -0.452 OA
ENDROOT
BRANCH   1  12
ATOM     12  C   UNL     1       0.252 -34.556  22.358  1.00  0.00     0.025 A 
ATOM     13  C   UNL     1      -0.995 -35.115  22.029  1.00  0.00     0.016 A 
ATOM     14  C   UNL     1      -2.176 -34.531  22.492  1.00  0.00     0.051 A 
ATOM     15  C   UNL     1      -2.130 -33.372  23.279  1.00  0.00     0.157 A 
ATOM     16  C   UNL     1       0.292 -33.383  23.129  1.00  0.00     0.062 A 
ATOM     17  C   UNL     1      -0.889 -32.795  23.595  1.00  0.00     0.158 A 
BRANCH  15  18
ATOM     18  O   UNL     1      -3.310 -32.792  23.741  1.00  0.00    -0.504 OA
ATOM     19  H   UNL     1      -3.659 -31.922  23.358  1.00  0.00     0.293 HD
ENDBRANCH  15  18
BRANCH  17  20
ATOM     20  O   UNL     1      -0.810 -31.638  24.371  1.00  0.00    -0.504 OA
ATOM     21  H   UNL     1      -1.603 -31.283  24.892  1.00  0.00     0.293 HD
ENDBRANCH  17  20
ENDBRANCH   1  12
BRANCH   2  22
ATOM     22  O   UNL     1       2.730 -34.492  23.860  1.00  0.00    -0.502 OA
ATOM     23  H   UNL     1       3.260 -33.646  24.026  1.00  0.00     0.293 HD
ENDBRANCH   2  22
BRANCH   6  24
ATOM     24  O   UNL     1       6.122 -37.275  20.841  1.00  0.00    -0.507 OA
ATOM     25  H   UNL     1       6.740 -36.569  21.212  1.00  0.00     0.293 HD
ENDBRANCH   6  24
BRANCH   8  26
ATOM     26  O   UNL     1       3.495 -37.839  16.882  1.00  0.00    -0.508 OA
ATOM     27  H   UNL     1       2.887 -37.406  16.195  1.00  0.00     0.293 HD
ENDBRANCH   8  26
TORSDOF 6
ENDMDL
MODEL 7
REMARK VINA RESULT:    -4.808      1.336      1.850
REMARK INTER + INTRA:          -5.482
REMARK INTER:                  -5.824
REMARK INTRA:                   0.342
REMARK UNBOUND:                 0.310
REMARK SMILES O=c1c(O)c(-c2ccc(O)c(O)c2)oc2cc(O)cc(O)c12
REMARK SMILES IDX 5 1 3 2 2 3 1 4 22 5 20 6 19 7 17 8 16 9 15 10 14 11 6 12
REMARK SMILES IDX 7 13 8 14 9 15 13 16 11 17 10 18 12 20 4 22 21 24 18 26
REMARK H PARENT 10 19 12 21 4 23 21 25 18 27
REMARK Flexibility Score: inf
ROOT
ATOM      1  C   UNL     1       0.197 -35.461  21.672  1.00  0.00     0.180 A 
ATOM      2  C   UNL     1      -0.005 -36.377  20.626  1.00  0.00     0.208 A 
ATOM      3  C   UNL     1       1.105 -37.033  20.071  1.00  0.00     0.238 A 
ATOM      4  O   UNL     1       0.913 -37.892  19.172  1.00  0.00    -0.285 OA
ATOM      5  C   UNL     1       2.405 -36.754  20.560  1.00  0.00     0.111 A 
ATOM      6  C   UNL     1       3.605 -37.331  20.044  1.00  0.00     0.134 A 
ATOM      7  C   UNL     1       4.823 -37.081  20.689  1.00  0.00     0.093 A 
ATOM      8  C   UNL     1       4.894 -36.226  21.788  1.00  0.00     0.123 A 
ATOM      9  C   UNL     1       3.736 -35.610  22.263  1.00  0.00     0.094 A 
ATOM     10  C   UNL     1       2.501 -35.868  21.663  1.00  0.00     0.146 A 
ATOM     11  O   UNL     1       1.420 -35.270  22.152  1.00  0.00    -0.452 OA
ENDROOT
BRANCH   1  12
ATOM     12  C   UNL     1      -0.921 -34.712  22.291  1.00  0.00     0.025 A 
ATOM     13  C   UNL     1      -2.237 -35.204  22.261  1.00  0.00     0.016 A 
ATOM     14  C   UNL     1      -3.280 -34.470  22.829  1.00  0.00     0.051 A 
ATOM     15  C   UNL     1      -3.026 -33.227  23.426  1.00  0.00     0.157 A 
ATOM     16  C   UNL     1      -0.675 -33.457  22.871  1.00  0.00     0.062 A 
ATOM     17  C   UNL     1      -1.717 -32.718  23.443  1.00  0.00     0.158 A 
BRANCH  15  18
ATOM     18  O   UNL     1      -4.069 -32.497  23.995  1.00  0.00    -0.504 OA
ATOM     19  H   UNL     1      -4.472 -31.696  23.526  1.00  0.00     0.293 HD
ENDBRANCH  15  18
BRANCH  17  20
ATOM     20  O   UNL     1      -1.433 -31.482  24.023  1.00  0.00    -0.504 OA
ATOM     21  H   UNL     1      -0.489 -31.121  24.088  1.00  0.00     0.293 HD
ENDBRANCH  17  20
ENDBRANCH   1  12
BRANCH   2  22
ATOM     22  O   UNL     1      -1.298 -36.654  20.174  1.00  0.00    -0.502 OA
ATOM     23  H   UNL     1      -1.914 -37.301  20.651  1.00  0.00     0.293 HD
ENDBRANCH   2  22
BRANCH   6  24
ATOM     24  O   UNL     1       3.659 -38.125  18.895  1.00  0.00    -0.507 OA
ATOM     25  H   UNL     1       3.851 -37.781  17.967  1.00  0.00     0.293 HD
ENDBRANCH   6  24
BRANCH   8  26
ATOM     26  O   UNL     1       6.125 -35.988  22.395  1.00  0.00    -0.508 OA
ATOM     27  H   UNL     1       6.584 -36.696  22.957  1.00  0.00     0.293 HD
ENDBRANCH   8  26
TORSDOF 6
ENDMDL
MODEL 8
REMARK VINA RESULT:    -4.308      1.784      3.429
REMARK INTER + INTRA:          -4.880
REMARK INTER:                  -4.806
REMARK INTRA:                  -0.075
REMARK UNBOUND:                 0.310
REMARK SMILES O=c1c(O)c(-c2ccc(O)c(O)c2)oc2cc(O)cc(O)c12
REMARK SMILES IDX 5 1 3 2 2 3 1 4 22 5 20 6 19 7 17 8 16 9 15 10 14 11 6 12
REMARK SMILES IDX 7 13 8 14 9 15 13 16 11 17 10 18 12 20 4 22 21 24 18 26
REMARK H PARENT 10 19 12 21 4 23 21 25 18 27
REMARK Flexibility Score: inf
ROOT
ATOM      1  C   UNL     1       0.108 -36.719  20.577  1.00  0.00     0.180 A 
ATOM      2  C   UNL     1       0.495 -35.788  21.557  1.00  0.00     0.208 A 
ATOM      3  C   UNL     1       1.861 -35.525  21.743  1.00  0.00     0.238 A 
ATOM      4  O   UNL     1       2.199 -34.652  22.583  1.00  0.00    -0.285 OA
ATOM      5  C   UNL     1       2.823 -36.206  20.959  1.00  0.00     0.111 A 
ATOM      6  C   UNL     1       4.236 -36.047  21.091  1.00  0.00     0.134 A 
ATOM      7  C   UNL     1       5.090 -36.674  20.174  1.00  0.00     0.093 A 
ATOM      8  C   UNL     1       4.588 -37.504  19.174  1.00  0.00     0.123 A 
ATOM      9  C   UNL     1       3.212 -37.714  19.073  1.00  0.00     0.094 A 
ATOM     10  C   UNL     1       2.332 -37.075  19.950  1.00  0.00     0.146 A 
ATOM     11  O   UNL     1       1.029 -37.292  19.813  1.00  0.00    -0.452 OA
ENDROOT
BRANCH   1  12
ATOM     12  C   UNL     1      -1.312 -37.068  20.339  1.00  0.00     0.025 A 
ATOM     13  C   UNL     1      -2.142 -37.510  21.383  1.00  0.00     0.016 A 
ATOM     14  C   UNL     1      -3.472 -37.856  21.132  1.00  0.00     0.051 A 
ATOM     15  C   UNL     1      -3.989 -37.780  19.831  1.00  0.00     0.157 A 
ATOM     16  C   UNL     1      -1.829 -37.013  19.034  1.00  0.00     0.062 A 
ATOM     17  C   UNL     1      -3.160 -37.359  18.777  1.00  0.00     0.158 A 
BRANCH  15  18
ATOM     18  O   UNL     1      -5.316 -38.125  19.583  1.00  0.00    -0.504 OA
ATOM     19  H   UNL     1      -5.672 -38.222  18.640  1.00  0.00     0.293 HD
ENDBRANCH  15  18
BRANCH  17  20
ATOM     20  O   UNL     1      -3.642 -37.279  17.471  1.00  0.00    -0.504 OA
ATOM     21  H   UNL     1      -4.411 -37.851  17.144  1.00  0.00     0.293 HD
ENDBRANCH  17  20
ENDBRANCH   1  12
BRANCH   2  22
ATOM     22  O   UNL     1      -0.472 -35.111  22.304  1.00  0.00    -0.502 OA
ATOM     23  H   UNL     1      -0.784 -35.436  23.212  1.00  0.00     0.293 HD
ENDBRANCH   2  22
BRANCH   6  24
ATOM     24  O   UNL     1       4.846 -35.314  22.112  1.00  0.00    -0.507 OA
ATOM     25  H   UNL     1       5.653 -34.720  21.991  1.00  0.00     0.293 HD
ENDBRANCH   6  24
BRANCH   8  26
ATOM     26  O   UNL     1       5.467 -38.124  18.289  1.00  0.00    -0.508 OA
ATOM     27  H   UNL     1       5.180 -38.914  17.721  1.00  0.00     0.293 HD
ENDBRANCH   8  26
TORSDOF 6
ENDMDL
MODEL 9
REMARK VINA RESULT:    -4.284      1.739      2.253
REMARK INTER + INTRA:          -4.851
REMARK INTER:                  -5.375
REMARK INTRA:                   0.524
REMARK UNBOUND:                 0.310
REMARK SMILES O=c1c(O)c(-c2ccc(O)c(O)c2)oc2cc(O)cc(O)c12
REMARK SMILES IDX 5 1 3 2 2 3 1 4 22 5 20 6 19 7 17 8 16 9 15 10 14 11 6 12
REMARK SMILES IDX 7 13 8 14 9 15 13 16 11 17 10 18 12 20 4 22 21 24 18 26
REMARK H PARENT 10 19 12 21 4 23 21 25 18 27
REMARK Flexibility Score: inf
ROOT
ATOM      1  C   UNL     1       1.033 -37.212  20.547  1.00  0.00     0.180 A 
ATOM      2  C   UNL     1       1.801 -37.576  19.428  1.00  0.00     0.208 A 
ATOM      3  C   UNL     1       3.195 -37.415  19.478  1.00  0.00     0.238 A 
ATOM      4  O   UNL     1       3.883 -37.793  18.494  1.00  0.00    -0.285 OA
ATOM      5  C   UNL     1       3.801 -36.878  20.639  1.00  0.00     0.111 A 
ATOM      6  C   UNL     1       5.201 -36.633  20.783  1.00  0.00     0.134 A 
ATOM      7  C   UNL     1       5.705 -36.221  22.024  1.00  0.00     0.093 A 
ATOM      8  C   UNL     1       4.856 -35.981  23.103  1.00  0.00     0.123 A 
ATOM      9  C   UNL     1       3.480 -36.160  22.955  1.00  0.00     0.094 A 
ATOM     10  C   UNL     1       2.951 -36.605  21.741  1.00  0.00     0.146 A 
ATOM     11  O   UNL     1       1.637 -36.773  21.645  1.00  0.00    -0.452 OA
ENDROOT
BRANCH   1  12
ATOM     12  C   UNL     1      -0.443 -37.329  20.562  1.00  0.00     0.025 A 
ATOM     13  C   UNL     1      -1.177 -37.182  21.751  1.00  0.00     0.016 A 
ATOM     14  C   UNL     1      -2.567 -37.320  21.746  1.00  0.00     0.051 A 
ATOM     15  C   UNL     1      -3.244 -37.621  20.556  1.00  0.00     0.157 A 
ATOM     16  C   UNL     1      -1.123 -37.652  19.376  1.00  0.00     0.062 A 
ATOM     17  C   UNL     1      -2.516 -37.791  19.367  1.00  0.00     0.158 A 
BRANCH  15  18
ATOM     18  O   UNL     1      -4.631 -37.758  20.554  1.00  0.00    -0.504 OA
ATOM     19  H   UNL     1      -5.211 -37.285  21.236  1.00  0.00     0.293 HD
ENDBRANCH  15  18
BRANCH  17  20
ATOM     20  O   UNL     1      -3.158 -38.098  18.167  1.00  0.00    -0.504 OA
ATOM     21  H   UNL     1      -3.303 -39.053  17.862  1.00  0.00     0.293 HD
ENDBRANCH  17  20
ENDBRANCH   1  12
BRANCH   2  22
ATOM     22  O   UNL     1       1.185 -38.125  18.301  1.00  0.00    -0.502 OA
ATOM     23  H   UNL     1       0.187 -38.063  18.143  1.00  0.00     0.293 HD
ENDBRANCH   2  22
BRANCH   6  24
ATOM     24  O   UNL     1       6.125 -36.752  19.742  1.00  0.00    -0.507 OA
ATOM     25  H   UNL     1       6.415 -37.625  19.327  1.00  0.00     0.293 HD
ENDBRANCH   6  24
BRANCH   8  26
ATOM     26  O   UNL     1       5.391 -35.557  24.317  1.00  0.00    -0.508 OA
ATOM     27  H   UNL     1       6.345 -35.222  24.388  1.00  0.00     0.293 HD
ENDBRANCH   8  26
TORSDOF 6
ENDMDL
