MODEL 1
REMARK VINA RESULT:    -6.740      0.000      0.000
REMARK INTER + INTRA:          -8.977
REMARK INTER:                  -8.513
REMARK INTRA:                  -0.464
REMARK UNBOUND:                -0.464
REMARK SMILES Oc1cc(O)cc(CCc2ccccc2O)c1
REMARK SMILES IDX 9 1 10 2 12 3 13 4 11 5 14 6 15 7 16 8 8 10 7 11 6 12 17 13
REMARK SMILES IDX 4 14 2 15 3 16 5 17 1 19
REMARK H PARENT 16 9 5 18 1 20
REMARK Flexibility Score: inf
ROOT
ATOM      1  C   UNL     1      29.416  38.359  29.885  1.00  0.00     0.044 C 
ENDROOT
BRANCH   1   2
ATOM      2  C   UNL     1      30.478  38.715  28.875  1.00  0.00    -0.006 A 
ATOM      3  C   UNL     1      31.755  40.413  27.693  1.00  0.00     0.001 A 
ATOM      4  C   UNL     1      32.398  39.420  26.952  1.00  0.00     0.004 A 
ATOM      5  C   UNL     1      30.795  40.065  28.647  1.00  0.00     0.007 A 
ATOM      6  C   UNL     1      32.081  38.076  27.159  1.00  0.00     0.046 A 
ATOM      7  C   UNL     1      31.118  37.716  28.114  1.00  0.00     0.118 A 
BRANCH   7   8
ATOM      8  O   UNL     1      30.796  36.373  28.306  1.00  0.00    -0.508 OA
ATOM      9  H   UNL     1      31.066  35.877  29.147  1.00  0.00     0.293 HD
ENDBRANCH   7   8
ENDBRANCH   1   2
BRANCH   1  10
ATOM     10  C   UNL     1      28.025  38.716  29.353  1.00  0.00     0.040 C 
BRANCH  10  11
ATOM     11  C   UNL     1      27.780  38.051  28.024  1.00  0.00    -0.040 A 
ATOM     12  C   UNL     1      27.726  38.817  26.849  1.00  0.00     0.050 A 
ATOM     13  C   UNL     1      27.663  36.654  27.942  1.00  0.00     0.050 A 
ATOM     14  C   UNL     1      27.532  38.197  25.608  1.00  0.00     0.119 A 
ATOM     15  C   UNL     1      27.469  36.032  26.702  1.00  0.00     0.119 A 
ATOM     16  C   UNL     1      27.400  36.806  25.539  1.00  0.00     0.092 A 
BRANCH  14  17
ATOM     17  O   UNL     1      27.469  38.951  24.438  1.00  0.00    -0.508 OA
ATOM     18  H   UNL     1      28.031  38.718  23.627  1.00  0.00     0.293 HD
ENDBRANCH  14  17
BRANCH  15  19
ATOM     19  O   UNL     1      27.344  34.647  26.613  1.00  0.00    -0.508 OA
ATOM     20  H   UNL     1      27.298  34.176  25.718  1.00  0.00     0.293 HD
ENDBRANCH  15  19
ENDBRANCH  10  11
ENDBRANCH   1  10
TORSDOF 6
ENDMDL
MODEL 2
REMARK VINA RESULT:    -6.662      1.544      2.958
REMARK INTER + INTRA:          -8.879
REMARK INTER:                  -8.630
REMARK INTRA:                  -0.248
REMARK UNBOUND:                -0.464
REMARK SMILES Oc1cc(O)cc(CCc2ccccc2O)c1
REMARK SMILES IDX 9 1 10 2 12 3 13 4 11 5 14 6 15 7 16 8 8 10 7 11 6 12 17 13
REMARK SMILES IDX 4 14 2 15 3 16 5 17 1 19
REMARK H PARENT 16 9 5 18 1 20
REMARK Flexibility Score: inf
ROOT
ATOM      1  C   UNL     1      30.415  36.030  27.748  1.00  0.00     0.044 C 
ENDROOT
BRANCH   1   2
ATOM      2  C   UNL     1      30.844  37.475  27.793  1.00  0.00    -0.006 A 
ATOM      3  C   UNL     1      32.346  39.236  27.049  1.00  0.00     0.001 A 
ATOM      4  C   UNL     1      31.716  40.142  27.904  1.00  0.00     0.004 A 
ATOM      5  C   UNL     1      31.917  37.907  26.996  1.00  0.00     0.007 A 
ATOM      6  C   UNL     1      30.658  39.721  28.712  1.00  0.00     0.046 A 
ATOM      7  C   UNL     1      30.219  38.389  28.667  1.00  0.00     0.118 A 
BRANCH   7   8
ATOM      8  O   UNL     1      29.171  37.973  29.487  1.00  0.00    -0.508 OA
ATOM      9  H   UNL     1      29.340  37.478  30.355  1.00  0.00     0.293 HD
ENDBRANCH   7   8
ENDBRANCH   1   2
BRANCH   1  10
ATOM     10  C   UNL     1      29.617  35.745  26.472  1.00  0.00     0.040 C 
BRANCH  10  11
ATOM     11  C   UNL     1      28.557  36.794  26.265  1.00  0.00    -0.040 A 
ATOM     12  C   UNL     1      27.323  36.693  26.927  1.00  0.00     0.050 A 
ATOM     13  C   UNL     1      28.815  37.912  25.455  1.00  0.00     0.050 A 
ATOM     14  C   UNL     1      26.347  37.686  26.762  1.00  0.00     0.119 A 
ATOM     15  C   UNL     1      27.841  38.906  25.289  1.00  0.00     0.119 A 
ATOM     16  C   UNL     1      26.609  38.787  25.940  1.00  0.00     0.092 A 
BRANCH  14  17
ATOM     17  O   UNL     1      25.118  37.589  27.409  1.00  0.00    -0.508 OA
ATOM     18  H   UNL     1      24.578  38.413  27.646  1.00  0.00     0.293 HD
ENDBRANCH  14  17
BRANCH  15  19
ATOM     19  O   UNL     1      28.088  40.014  24.481  1.00  0.00    -0.508 OA
ATOM     20  H   UNL     1      27.714  40.077  23.542  1.00  0.00     0.293 HD
ENDBRANCH  15  19
ENDBRANCH  10  11
ENDBRANCH   1  10
TORSDOF 6
ENDMDL
MODEL 3
REMARK VINA RESULT:    -6.628      0.084      2.032
REMARK INTER + INTRA:          -8.835
REMARK INTER:                  -8.430
REMARK INTRA:                  -0.405
REMARK UNBOUND:                -0.464
REMARK SMILES Oc1cc(O)cc(CCc2ccccc2O)c1
REMARK SMILES IDX 9 1 10 2 12 3 13 4 11 5 14 6 15 7 16 8 8 10 7 11 6 12 17 13
REMARK SMILES IDX 4 14 2 15 3 16 5 17 1 19
REMARK H PARENT 16 9 5 18 1 20
REMARK Flexibility Score: inf
ROOT
ATOM      1  C   UNL     1      29.459  38.394  29.906  1.00  0.00     0.044 C 
ENDROOT
BRANCH   1   2
ATOM      2  C   UNL     1      30.507  38.749  28.882  1.00  0.00    -0.006 A 
ATOM      3  C   UNL     1      31.746  40.446  27.658  1.00  0.00     0.001 A 
ATOM      4  C   UNL     1      32.402  39.450  26.932  1.00  0.00     0.004 A 
ATOM      5  C   UNL     1      30.799  40.099  28.625  1.00  0.00     0.007 A 
ATOM      6  C   UNL     1      32.110  38.105  27.168  1.00  0.00     0.046 A 
ATOM      7  C   UNL     1      31.160  37.746  28.137  1.00  0.00     0.118 A 
BRANCH   7   8
ATOM      8  O   UNL     1      30.863  36.402  28.357  1.00  0.00    -0.508 OA
ATOM      9  H   UNL     1      30.657  36.048  29.284  1.00  0.00     0.293 HD
ENDBRANCH   7   8
ENDBRANCH   1   2
BRANCH   1  10
ATOM     10  C   UNL     1      28.055  38.665  29.356  1.00  0.00     0.040 C 
BRANCH  10  11
ATOM     11  C   UNL     1      27.865  37.977  28.030  1.00  0.00    -0.040 A 
ATOM     12  C   UNL     1      27.730  36.581  27.969  1.00  0.00     0.050 A 
ATOM     13  C   UNL     1      27.763  38.732  26.850  1.00  0.00     0.050 A 
ATOM     14  C   UNL     1      27.519  35.943  26.739  1.00  0.00     0.119 A 
ATOM     15  C   UNL     1      27.553  38.096  25.619  1.00  0.00     0.119 A 
ATOM     16  C   UNL     1      27.436  36.703  25.568  1.00  0.00     0.092 A 
BRANCH  14  17
ATOM     17  O   UNL     1      27.392  34.558  26.670  1.00  0.00    -0.508 OA
ATOM     18  H   UNL     1      26.934  34.107  25.886  1.00  0.00     0.293 HD
ENDBRANCH  14  17
BRANCH  15  19
ATOM     19  O   UNL     1      27.459  38.837  24.443  1.00  0.00    -0.508 OA
ATOM     20  H   UNL     1      27.016  39.747  24.426  1.00  0.00     0.293 HD
ENDBRANCH  15  19
ENDBRANCH  10  11
ENDBRANCH   1  10
TORSDOF 6
ENDMDL
MODEL 4
REMARK VINA RESULT:    -6.586      1.535      2.379
REMARK INTER + INTRA:          -8.783
REMARK INTER:                  -8.546
REMARK INTRA:                  -0.238
REMARK UNBOUND:                -0.464
REMARK SMILES Oc1cc(O)cc(CCc2ccccc2O)c1
REMARK SMILES IDX 9 1 10 2 12 3 13 4 11 5 14 6 15 7 16 8 8 10 7 11 6 12 17 13
REMARK SMILES IDX 4 14 2 15 3 16 5 17 1 19
REMARK H PARENT 16 9 5 18 1 20
REMARK Flexibility Score: inf
ROOT
ATOM      1  C   UNL     1      30.518  36.094  27.726  1.00  0.00     0.044 C 
ENDROOT
BRANCH   1   2
ATOM      2  C   UNL     1      30.916  37.547  27.789  1.00  0.00    -0.006 A 
ATOM      3  C   UNL     1      32.378  39.350  27.063  1.00  0.00     0.001 A 
ATOM      4  C   UNL     1      31.732  40.230  27.934  1.00  0.00     0.004 A 
ATOM      5  C   UNL     1      31.977  38.013  26.993  1.00  0.00     0.007 A 
ATOM      6  C   UNL     1      30.687  39.775  28.741  1.00  0.00     0.046 A 
ATOM      7  C   UNL     1      30.277  38.434  28.679  1.00  0.00     0.118 A 
BRANCH   7   8
ATOM      8  O   UNL     1      29.242  37.984  29.498  1.00  0.00    -0.508 OA
ATOM      9  H   UNL     1      28.401  38.532  29.640  1.00  0.00     0.293 HD
ENDBRANCH   7   8
ENDBRANCH   1   2
BRANCH   1  10
ATOM     10  C   UNL     1      29.692  35.817  26.465  1.00  0.00     0.040 C 
BRANCH  10  11
ATOM     11  C   UNL     1      28.635  36.873  26.283  1.00  0.00    -0.040 A 
ATOM     12  C   UNL     1      28.869  37.970  25.439  1.00  0.00     0.050 A 
ATOM     13  C   UNL     1      27.385  36.739  26.910  1.00  0.00     0.050 A 
ATOM     14  C   UNL     1      27.873  38.937  25.242  1.00  0.00     0.119 A 
ATOM     15  C   UNL     1      26.389  37.705  26.714  1.00  0.00     0.119 A 
ATOM     16  C   UNL     1      26.638  38.802  25.883  1.00  0.00     0.092 A 
BRANCH  14  17
ATOM     17  O   UNL     1      28.100  40.032  24.412  1.00  0.00    -0.508 OA
ATOM     18  H   UNL     1      27.338  40.509  23.944  1.00  0.00     0.293 HD
ENDBRANCH  14  17
BRANCH  15  19
ATOM     19  O   UNL     1      25.149  37.583  27.339  1.00  0.00    -0.508 OA
ATOM     20  H   UNL     1      25.072  37.318  28.313  1.00  0.00     0.293 HD
ENDBRANCH  15  19
ENDBRANCH  10  11
ENDBRANCH   1  10
TORSDOF 6
ENDMDL
MODEL 5
REMARK VINA RESULT:    -6.280      1.943      5.120
REMARK INTER + INTRA:          -8.396
REMARK INTER:                  -8.270
REMARK INTRA:                  -0.125
REMARK UNBOUND:                -0.464
REMARK SMILES Oc1cc(O)cc(CCc2ccccc2O)c1
REMARK SMILES IDX 9 1 10 2 12 3 13 4 11 5 14 6 15 7 16 8 8 10 7 11 6 12 17 13
REMARK SMILES IDX 4 14 2 15 3 16 5 17 1 19
REMARK H PARENT 16 9 5 18 1 20
REMARK Flexibility Score: inf
ROOT
ATOM      1  C   UNL     1      28.856  38.941  24.220  1.00  0.00     0.044 C 
ENDROOT
BRANCH   1   2
ATOM      2  C   UNL     1      27.856  38.379  25.199  1.00  0.00    -0.006 A 
ATOM      3  C   UNL     1      26.732  36.453  26.169  1.00  0.00     0.001 A 
ATOM      4  C   UNL     1      25.952  37.300  26.959  1.00  0.00     0.004 A 
ATOM      5  C   UNL     1      27.676  36.988  25.288  1.00  0.00     0.007 A 
ATOM      6  C   UNL     1      26.111  38.685  26.868  1.00  0.00     0.046 A 
ATOM      7  C   UNL     1      27.056  39.232  25.987  1.00  0.00     0.118 A 
BRANCH   7   8
ATOM      8  O   UNL     1      27.199  40.616  25.892  1.00  0.00    -0.508 OA
ATOM      9  H   UNL     1      26.929  41.231  26.650  1.00  0.00     0.293 HD
ENDBRANCH   7   8
ENDBRANCH   1   2
BRANCH   1  10
ATOM     10  C   UNL     1      30.208  38.237  24.368  1.00  0.00     0.040 C 
BRANCH  10  11
ATOM     11  C   UNL     1      30.591  38.126  25.820  1.00  0.00    -0.040 A 
ATOM     12  C   UNL     1      30.626  39.271  26.632  1.00  0.00     0.050 A 
ATOM     13  C   UNL     1      30.859  36.870  26.388  1.00  0.00     0.050 A 
ATOM     14  C   UNL     1      30.949  39.164  27.992  1.00  0.00     0.119 A 
ATOM     15  C   UNL     1      31.182  36.762  27.747  1.00  0.00     0.119 A 
ATOM     16  C   UNL     1      31.230  37.910  28.543  1.00  0.00     0.092 A 
BRANCH  14  17
ATOM     17  O   UNL     1      30.993  40.296  28.802  1.00  0.00    -0.508 OA
ATOM     18  H   UNL     1      31.443  41.151  28.493  1.00  0.00     0.293 HD
ENDBRANCH  14  17
BRANCH  15  19
ATOM     19  O   UNL     1      31.457  35.519  28.315  1.00  0.00    -0.508 OA
ATOM     20  H   UNL     1      31.695  35.427  29.295  1.00  0.00     0.293 HD
ENDBRANCH  15  19
ENDBRANCH  10  11
ENDBRANCH   1  10
TORSDOF 6
ENDMDL
MODEL 6
REMARK VINA RESULT:    -6.279      2.097      4.339
REMARK INTER + INTRA:          -8.395
REMARK INTER:                  -8.542
REMARK INTRA:                   0.147
REMARK UNBOUND:                -0.464
REMARK SMILES Oc1cc(O)cc(CCc2ccccc2O)c1
REMARK SMILES IDX 9 1 10 2 12 3 13 4 11 5 14 6 15 7 16 8 8 10 7 11 6 12 17 13
REMARK SMILES IDX 4 14 2 15 3 16 5 17 1 19
REMARK H PARENT 16 9 5 18 1 20
REMARK Flexibility Score: inf
ROOT
ATOM      1  C   UNL     1      28.188  38.243  25.212  1.00  0.00     0.044 C 
ENDROOT
BRANCH   1   2
ATOM      2  C   UNL     1      28.686  36.972  25.852  1.00  0.00    -0.006 A 
ATOM      3  C   UNL     1      30.489  35.726  26.907  1.00  0.00     0.001 A 
ATOM      4  C   UNL     1      29.670  34.598  26.985  1.00  0.00     0.004 A 
ATOM      5  C   UNL     1      30.003  36.907  26.338  1.00  0.00     0.007 A 
ATOM      6  C   UNL     1      28.364  34.646  26.492  1.00  0.00     0.046 A 
ATOM      7  C   UNL     1      27.867  35.826  25.919  1.00  0.00     0.118 A 
BRANCH   7   8
ATOM      8  O   UNL     1      26.567  35.862  25.416  1.00  0.00    -0.508 OA
ATOM      9  H   UNL     1      25.884  36.530  25.755  1.00  0.00     0.293 HD
ENDBRANCH   7   8
ENDBRANCH   1   2
BRANCH   1  10
ATOM     10  C   UNL     1      27.367  39.063  26.212  1.00  0.00     0.040 C 
BRANCH  10  11
ATOM     11  C   UNL     1      27.856  38.829  27.617  1.00  0.00    -0.040 A 
ATOM     12  C   UNL     1      29.027  39.456  28.072  1.00  0.00     0.050 A 
ATOM     13  C   UNL     1      27.115  38.029  28.501  1.00  0.00     0.050 A 
ATOM     14  C   UNL     1      29.466  39.266  29.389  1.00  0.00     0.119 A 
ATOM     15  C   UNL     1      27.552  37.838  29.818  1.00  0.00     0.119 A 
ATOM     16  C   UNL     1      28.728  38.454  30.257  1.00  0.00     0.092 A 
BRANCH  14  17
ATOM     17  O   UNL     1      30.631  39.878  29.845  1.00  0.00    -0.508 OA
ATOM     18  H   UNL     1      31.511  39.376  29.890  1.00  0.00     0.293 HD
ENDBRANCH  14  17
BRANCH  15  19
ATOM     19  O   UNL     1      26.825  37.039  30.699  1.00  0.00    -0.508 OA
ATOM     20  H   UNL     1      26.832  37.211  31.697  1.00  0.00     0.293 HD
ENDBRANCH  15  19
ENDBRANCH  10  11
ENDBRANCH   1  10
TORSDOF 6
ENDMDL
MODEL 7
REMARK VINA RESULT:    -6.273      2.114      4.603
REMARK INTER + INTRA:          -8.387
REMARK INTER:                  -8.528
REMARK INTRA:                   0.142
REMARK UNBOUND:                -0.464
REMARK SMILES Oc1cc(O)cc(CCc2ccccc2O)c1
REMARK SMILES IDX 9 1 10 2 12 3 13 4 11 5 14 6 15 7 16 8 8 10 7 11 6 12 17 13
REMARK SMILES IDX 4 14 2 15 3 16 5 17 1 19
REMARK H PARENT 16 9 5 18 1 20
REMARK Flexibility Score: inf
ROOT
ATOM      1  C   UNL     1      28.138  38.217  25.272  1.00  0.00     0.044 C 
ENDROOT
BRANCH   1   2
ATOM      2  C   UNL     1      28.681  36.954  25.891  1.00  0.00    -0.006 A 
ATOM      3  C   UNL     1      30.510  35.773  26.974  1.00  0.00     0.001 A 
ATOM      4  C   UNL     1      29.751  34.602  26.989  1.00  0.00     0.004 A 
ATOM      5  C   UNL     1      29.981  36.944  26.424  1.00  0.00     0.007 A 
ATOM      6  C   UNL     1      28.463  34.595  26.449  1.00  0.00     0.046 A 
ATOM      7  C   UNL     1      27.923  35.765  25.894  1.00  0.00     0.118 A 
BRANCH   7   8
ATOM      8  O   UNL     1      26.641  35.748  25.344  1.00  0.00    -0.508 OA
ATOM      9  H   UNL     1      26.442  36.175  24.446  1.00  0.00     0.293 HD
ENDBRANCH   7   8
ENDBRANCH   1   2
BRANCH   1  10
ATOM     10  C   UNL     1      27.208  38.941  26.251  1.00  0.00     0.040 C 
BRANCH  10  11
ATOM     11  C   UNL     1      27.696  38.773  27.666  1.00  0.00    -0.040 A 
ATOM     12  C   UNL     1      26.999  37.946  28.561  1.00  0.00     0.050 A 
ATOM     13  C   UNL     1      28.883  39.395  28.084  1.00  0.00     0.050 A 
ATOM     14  C   UNL     1      27.470  37.762  29.868  1.00  0.00     0.119 A 
ATOM     15  C   UNL     1      29.356  39.212  29.390  1.00  0.00     0.119 A 
ATOM     16  C   UNL     1      28.646  38.399  30.279  1.00  0.00     0.092 A 
BRANCH  14  17
ATOM     17  O   UNL     1      26.780  36.949  30.764  1.00  0.00    -0.508 OA
ATOM     18  H   UNL     1      26.262  36.136  30.450  1.00  0.00     0.293 HD
ENDBRANCH  14  17
BRANCH  15  19
ATOM     19  O   UNL     1      30.529  39.833  29.815  1.00  0.00    -0.508 OA
ATOM     20  H   UNL     1      30.614  40.224  30.745  1.00  0.00     0.293 HD
ENDBRANCH  15  19
ENDBRANCH  10  11
ENDBRANCH   1  10
TORSDOF 6
ENDMDL
MODEL 8
REMARK VINA RESULT:    -6.167      1.980      3.407
REMARK INTER + INTRA:          -8.254
REMARK INTER:                  -9.160
REMARK INTRA:                   0.906
REMARK UNBOUND:                -0.464
REMARK SMILES Oc1cc(O)cc(CCc2ccccc2O)c1
REMARK SMILES IDX 9 1 10 2 12 3 13 4 11 5 14 6 15 7 16 8 8 10 7 11 6 12 17 13
REMARK SMILES IDX 4 14 2 15 3 16 5 17 1 19
REMARK H PARENT 16 9 5 18 1 20
REMARK Flexibility Score: inf
ROOT
ATOM      1  C   UNL     1      29.742  39.548  24.434  1.00  0.00     0.044 C 
ENDROOT
BRANCH   1   2
ATOM      2  C   UNL     1      30.554  38.791  25.455  1.00  0.00    -0.006 A 
ATOM      3  C   UNL     1      31.442  38.617  27.712  1.00  0.00     0.001 A 
ATOM      4  C   UNL     1      32.114  37.445  27.362  1.00  0.00     0.004 A 
ATOM      5  C   UNL     1      30.669  39.292  26.763  1.00  0.00     0.007 A 
ATOM      6  C   UNL     1      32.020  36.945  26.062  1.00  0.00     0.046 A 
ATOM      7  C   UNL     1      31.247  37.615  25.101  1.00  0.00     0.118 A 
BRANCH   7   8
ATOM      8  O   UNL     1      31.169  37.118  23.800  1.00  0.00    -0.508 OA
ATOM      9  H   UNL     1      31.087  37.734  23.000  1.00  0.00     0.293 HD
ENDBRANCH   7   8
ENDBRANCH   1   2
BRANCH   1  10
ATOM     10  C   UNL     1      28.281  39.089  24.460  1.00  0.00     0.040 C 
BRANCH  10  11
ATOM     11  C   UNL     1      27.985  38.340  25.732  1.00  0.00    -0.040 A 
ATOM     12  C   UNL     1      27.913  36.938  25.726  1.00  0.00     0.050 A 
ATOM     13  C   UNL     1      27.835  39.033  26.944  1.00  0.00     0.050 A 
ATOM     14  C   UNL     1      27.670  36.237  26.915  1.00  0.00     0.119 A 
ATOM     15  C   UNL     1      27.593  38.334  28.134  1.00  0.00     0.119 A 
ATOM     16  C   UNL     1      27.507  36.938  28.114  1.00  0.00     0.092 A 
BRANCH  14  17
ATOM     17  O   UNL     1      27.589  34.846  26.917  1.00  0.00    -0.508 OA
ATOM     18  H   UNL     1      28.163  34.283  27.535  1.00  0.00     0.293 HD
ENDBRANCH  14  17
BRANCH  15  19
ATOM     19  O   UNL     1      27.436  39.015  29.339  1.00  0.00    -0.508 OA
ATOM     20  H   UNL     1      27.637  40.005  29.417  1.00  0.00     0.293 HD
ENDBRANCH  15  19
ENDBRANCH  10  11
ENDBRANCH   1  10
TORSDOF 6
ENDMDL
MODEL 9
REMARK VINA RESULT:    -6.060      2.155      3.432
REMARK INTER + INTRA:          -8.119
REMARK INTER:                  -7.980
REMARK INTRA:                  -0.138
REMARK UNBOUND:                -0.464
REMARK SMILES Oc1cc(O)cc(CCc2ccccc2O)c1
REMARK SMILES IDX 9 1 10 2 12 3 13 4 11 5 14 6 15 7 16 8 8 10 7 11 6 12 17 13
REMARK SMILES IDX 4 14 2 15 3 16 5 17 1 19
REMARK H PARENT 16 9 5 18 1 20
REMARK Flexibility Score: inf
ROOT
ATOM      1  C   UNL     1      30.362  37.730  25.056  1.00  0.00     0.044 C 
ENDROOT
BRANCH   1   2
ATOM      2  C   UNL     1      30.779  36.931  26.265  1.00  0.00    -0.006 A 
ATOM      3  C   UNL     1      32.303  36.601  28.131  1.00  0.00     0.001 A 
ATOM      4  C   UNL     1      31.627  35.431  28.482  1.00  0.00     0.004 A 
ATOM      5  C   UNL     1      31.886  37.347  27.025  1.00  0.00     0.007 A 
ATOM      6  C   UNL     1      30.536  34.999  27.725  1.00  0.00     0.046 A 
ATOM      7  C   UNL     1      30.109  35.741  26.613  1.00  0.00     0.118 A 
BRANCH   7   8
ATOM      8  O   UNL     1      29.026  35.297  25.854  1.00  0.00    -0.508 OA
ATOM      9  H   UNL     1      28.071  35.514  26.113  1.00  0.00     0.293 HD
ENDBRANCH   7   8
ENDBRANCH   1   2
BRANCH   1  10
ATOM     10  C   UNL     1      29.594  38.986  25.479  1.00  0.00     0.040 C 
BRANCH  10  11
ATOM     11  C   UNL     1      28.531  38.642  26.488  1.00  0.00    -0.040 A 
ATOM     12  C   UNL     1      27.261  38.222  26.062  1.00  0.00     0.050 A 
ATOM     13  C   UNL     1      28.819  38.682  27.862  1.00  0.00     0.050 A 
ATOM     14  C   UNL     1      26.281  37.868  27.000  1.00  0.00     0.119 A 
ATOM     15  C   UNL     1      27.841  38.329  28.801  1.00  0.00     0.119 A 
ATOM     16  C   UNL     1      26.574  37.927  28.366  1.00  0.00     0.092 A 
BRANCH  14  17
ATOM     17  O   UNL     1      25.016  37.458  26.585  1.00  0.00    -0.508 OA
ATOM     18  H   UNL     1      24.734  37.514  25.613  1.00  0.00     0.293 HD
ENDBRANCH  14  17
BRANCH  15  19
ATOM     19  O   UNL     1      28.117  38.374  30.166  1.00  0.00    -0.508 OA
ATOM     20  H   UNL     1      28.684  37.665  30.614  1.00  0.00     0.293 HD
ENDBRANCH  15  19
ENDBRANCH  10  11
ENDBRANCH   1  10
TORSDOF 6
ENDMDL
