MODEL 1
REMARK VINA RESULT:    -3.517      0.000      0.000
REMARK INTER + INTRA:         -11.072
REMARK INTER:                  -7.629
REMARK INTRA:                  -3.443
REMARK UNBOUND:                -3.443
REMARK SMILES CCCCCCCCCCCCCCCCCCCCCC(=O)[O-]
REMARK SMILES IDX 12 1 11 2 10 3 9 4 8 5 7 6 6 7 5 8 4 9 3 10 2 11 1 12 13 13
REMARK SMILES IDX 14 14 15 15 16 16 17 17 18 18 19 19 20 20 21 21 22 22 23 23
REMARK SMILES IDX 24 24
REMARK H PARENT
REMARK Flexibility Score: inf
ROOT
ATOM      1  C   UNL     1      -7.279  -6.124   0.293  1.00  0.00     0.000 C 
ENDROOT
BRANCH   1   2
ATOM      2  C   UNL     1      -8.616  -5.564   0.806  1.00  0.00     0.000 C 
BRANCH   2   3
ATOM      3  C   UNL     1      -8.793  -5.760   2.321  1.00  0.00     0.000 C 
BRANCH   3   4
ATOM      4  C   UNL     1      -7.472  -5.619   3.094  1.00  0.00    -0.000 C 
BRANCH   4   5
ATOM      5  C   UNL     1      -7.677  -5.907   4.587  1.00  0.00    -0.000 C 
BRANCH   5   6
ATOM      6  C   UNL     1      -6.876  -4.921   5.452  1.00  0.00    -0.000 C 
BRANCH   6   7
ATOM      7  C   UNL     1      -5.540  -4.516   4.809  1.00  0.00    -0.000 C 
BRANCH   7   8
ATOM      8  C   UNL     1      -5.305  -2.999   4.836  1.00  0.00    -0.000 C 
BRANCH   8   9
ATOM      9  C   UNL     1      -6.623  -2.235   4.632  1.00  0.00    -0.000 C 
BRANCH   9  10
ATOM     10  C   UNL     1      -7.048  -2.158   3.154  1.00  0.00    -0.000 C 
BRANCH  10  11
ATOM     11  C   UNL     1      -5.918  -1.796   2.173  1.00  0.00    -0.003 C 
ATOM     12  C   UNL     1      -6.079  -2.455   0.805  1.00  0.00     0.004 C 
ENDBRANCH  10  11
ENDBRANCH   9  10
ENDBRANCH   8   9
ENDBRANCH   7   8
ENDBRANCH   6   7
ENDBRANCH   5   6
ENDBRANCH   4   5
ENDBRANCH   3   4
ENDBRANCH   2   3
ENDBRANCH   1   2
BRANCH   1  13
ATOM     13  C   UNL     1      -7.454  -7.343  -0.631  1.00  0.00     0.000 C 
BRANCH  13  14
ATOM     14  C   UNL     1      -6.995  -8.685  -0.032  1.00  0.00     0.000 C 
BRANCH  14  15
ATOM     15  C   UNL     1      -7.923  -9.190   1.087  1.00  0.00     0.000 C 
BRANCH  15  16
ATOM     16  C   UNL     1      -7.207  -9.317   2.439  1.00  0.00     0.000 C 
BRANCH  16  17
ATOM     17  C   UNL     1      -5.793  -8.718   2.419  1.00  0.00     0.000 C 
BRANCH  17  18
ATOM     18  C   UNL     1      -5.178  -8.716   3.827  1.00  0.00     0.000 C 
BRANCH  18  19
ATOM     19  C   UNL     1      -5.253 -10.093   4.506  1.00  0.00     0.000 C 
BRANCH  19  20
ATOM     20  C   UNL     1      -6.010 -10.049   5.846  1.00  0.00     0.006 C 
BRANCH  20  21
ATOM     21  C   UNL     1      -6.104  -8.627   6.412  1.00  0.00     0.053 C 
BRANCH  21  22
ATOM     22  C   UNL     1      -6.535  -8.626   7.847  1.00  0.00     0.041 C 
ATOM     23  O   UNL     1      -6.148  -9.538   8.625  1.00  0.00    -0.550 OA
ATOM     24  O   UNL     1      -7.378  -7.630   8.321  1.00  0.00    -0.550 OA
ENDBRANCH  21  22
ENDBRANCH  20  21
ENDBRANCH  19  20
ENDBRANCH  18  19
ENDBRANCH  17  18
ENDBRANCH  16  17
ENDBRANCH  15  16
ENDBRANCH  14  15
ENDBRANCH  13  14
ENDBRANCH   1  13
TORSDOF 20
ENDMDL
MODEL 2
REMARK VINA RESULT:    -3.435      3.086      5.368
REMARK INTER + INTRA:         -10.894
REMARK INTER:                  -7.506
REMARK INTRA:                  -3.388
REMARK UNBOUND:                -3.443
REMARK SMILES CCCCCCCCCCCCCCCCCCCCCC(=O)[O-]
REMARK SMILES IDX 12 1 11 2 10 3 9 4 8 5 7 6 6 7 5 8 4 9 3 10 2 11 1 12 13 13
REMARK SMILES IDX 14 14 15 15 16 16 17 17 18 18 19 19 20 20 21 21 22 22 23 23
REMARK SMILES IDX 24 24
REMARK H PARENT
REMARK Flexibility Score: inf
ROOT
ATOM      1  C   UNL     1      -7.754  -5.772   5.806  1.00  0.00     0.000 C 
ENDROOT
BRANCH   1   2
ATOM      2  C   UNL     1      -8.580  -6.568   4.782  1.00  0.00     0.000 C 
BRANCH   2   3
ATOM      3  C   UNL     1      -9.290  -5.659   3.764  1.00  0.00     0.000 C 
BRANCH   3   4
ATOM      4  C   UNL     1      -8.786  -5.873   2.328  1.00  0.00    -0.000 C 
BRANCH   4   5
ATOM      5  C   UNL     1      -7.295  -5.530   2.214  1.00  0.00    -0.000 C 
BRANCH   5   6
ATOM      6  C   UNL     1      -7.055  -4.483   1.115  1.00  0.00    -0.000 C 
BRANCH   6   7
ATOM      7  C   UNL     1      -7.919  -3.224   1.295  1.00  0.00    -0.000 C 
BRANCH   7   8
ATOM      8  C   UNL     1      -7.133  -1.926   1.058  1.00  0.00    -0.000 C 
BRANCH   8   9
ATOM      9  C   UNL     1      -5.956  -1.810   2.040  1.00  0.00    -0.000 C 
BRANCH   9  10
ATOM     10  C   UNL     1      -6.406  -1.524   3.484  1.00  0.00    -0.000 C 
BRANCH  10  11
ATOM     11  C   UNL     1      -6.322  -2.728   4.440  1.00  0.00    -0.003 C 
ATOM     12  C   UNL     1      -4.909  -2.978   4.966  1.00  0.00     0.004 C 
ENDBRANCH  10  11
ENDBRANCH   9  10
ENDBRANCH   8   9
ENDBRANCH   7   8
ENDBRANCH   6   7
ENDBRANCH   5   6
ENDBRANCH   4   5
ENDBRANCH   3   4
ENDBRANCH   2   3
ENDBRANCH   1   2
BRANCH   1  13
ATOM     13  C   UNL     1      -6.310  -6.287   5.942  1.00  0.00     0.000 C 
BRANCH  13  14
ATOM     14  C   UNL     1      -6.069  -7.704   5.392  1.00  0.00     0.000 C 
BRANCH  14  15
ATOM     15  C   UNL     1      -5.139  -7.720   4.166  1.00  0.00     0.000 C 
BRANCH  15  16
ATOM     16  C   UNL     1      -5.252  -9.018   3.352  1.00  0.00     0.000 C 
BRANCH  16  17
ATOM     17  C   UNL     1      -6.131  -8.858   2.103  1.00  0.00     0.000 C 
BRANCH  17  18
ATOM     18  C   UNL     1      -7.572  -9.309   2.385  1.00  0.00     0.000 C 
BRANCH  18  19
ATOM     19  C   UNL     1      -8.332  -9.698   1.106  1.00  0.00     0.000 C 
BRANCH  19  20
ATOM     20  C   UNL     1      -7.578  -9.295  -0.173  1.00  0.00     0.006 C 
BRANCH  20  21
ATOM     21  C   UNL     1      -8.477  -8.549  -1.166  1.00  0.00     0.053 C 
BRANCH  21  22
ATOM     22  C   UNL     1      -7.987  -7.158  -1.427  1.00  0.00     0.041 C 
ATOM     23  O   UNL     1      -8.756  -6.300  -1.935  1.00  0.00    -0.550 OA
ATOM     24  O   UNL     1      -6.676  -6.813  -1.126  1.00  0.00    -0.550 OA
ENDBRANCH  21  22
ENDBRANCH  20  21
ENDBRANCH  19  20
ENDBRANCH  18  19
ENDBRANCH  17  18
ENDBRANCH  16  17
ENDBRANCH  15  16
ENDBRANCH  14  15
ENDBRANCH  13  14
ENDBRANCH   1  13
TORSDOF 20
ENDMDL
MODEL 3
REMARK VINA RESULT:    -3.380      4.306      7.718
REMARK INTER + INTRA:         -10.775
REMARK INTER:                  -8.320
REMARK INTRA:                  -2.455
REMARK UNBOUND:                -3.443
REMARK SMILES CCCCCCCCCCCCCCCCCCCCCC(=O)[O-]
REMARK SMILES IDX 12 1 11 2 10 3 9 4 8 5 7 6 6 7 5 8 4 9 3 10 2 11 1 12 13 13
REMARK SMILES IDX 14 14 15 15 16 16 17 17 18 18 19 19 20 20 21 21 22 22 23 23
REMARK SMILES IDX 24 24
REMARK H PARENT
REMARK Flexibility Score: inf
ROOT
ATOM      1  C   UNL     1      -6.091  -6.745   4.257  1.00  0.00     0.000 C 
ENDROOT
BRANCH   1   2
ATOM      2  C   UNL     1      -5.349  -8.063   3.979  1.00  0.00     0.000 C 
BRANCH   2   3
ATOM      3  C   UNL     1      -5.675  -8.640   2.591  1.00  0.00     0.000 C 
BRANCH   3   4
ATOM      4  C   UNL     1      -7.052  -8.194   2.074  1.00  0.00    -0.000 C 
BRANCH   4   5
ATOM      5  C   UNL     1      -6.940  -7.582   0.672  1.00  0.00    -0.000 C 
BRANCH   5   6
ATOM      6  C   UNL     1      -7.218  -6.071   0.708  1.00  0.00    -0.000 C 
BRANCH   6   7
ATOM      7  C   UNL     1      -8.543  -5.727   1.408  1.00  0.00    -0.000 C 
BRANCH   7   8
ATOM      8  C   UNL     1      -8.385  -4.633   2.473  1.00  0.00    -0.000 C 
BRANCH   8   9
ATOM      9  C   UNL     1      -8.372  -3.238   1.830  1.00  0.00    -0.000 C 
BRANCH   9  10
ATOM     10  C   UNL     1      -7.520  -2.224   2.614  1.00  0.00    -0.000 C 
BRANCH  10  11
ATOM     11  C   UNL     1      -6.047  -2.139   2.175  1.00  0.00    -0.003 C 
ATOM     12  C   UNL     1      -5.881  -1.979   0.664  1.00  0.00     0.004 C 
ENDBRANCH  10  11
ENDBRANCH   9  10
ENDBRANCH   8   9
ENDBRANCH   7   8
ENDBRANCH   6   7
ENDBRANCH   5   6
ENDBRANCH   4   5
ENDBRANCH   3   4
ENDBRANCH   2   3
ENDBRANCH   1   2
BRANCH   1  13
ATOM     13  C   UNL     1      -5.412  -5.893   5.345  1.00  0.00     0.000 C 
BRANCH  13  14
ATOM     14  C   UNL     1      -5.590  -4.372   5.186  1.00  0.00     0.000 C 
BRANCH  14  15
ATOM     15  C   UNL     1      -6.920  -3.862   5.769  1.00  0.00     0.000 C 
BRANCH  15  16
ATOM     16  C   UNL     1      -6.753  -2.574   6.589  1.00  0.00     0.000 C 
BRANCH  16  17
ATOM     17  C   UNL     1      -5.879  -1.529   5.879  1.00  0.00     0.000 C 
BRANCH  17  18
ATOM     18  C   UNL     1      -6.379  -0.106   6.172  1.00  0.00     0.000 C 
BRANCH  18  19
ATOM     19  C   UNL     1      -5.306   0.771   6.838  1.00  0.00     0.000 C 
BRANCH  19  20
ATOM     20  C   UNL     1      -5.752   2.237   6.987  1.00  0.00     0.006 C 
BRANCH  20  21
ATOM     21  C   UNL     1      -5.895   2.940   5.631  1.00  0.00     0.053 C 
BRANCH  21  22
ATOM     22  C   UNL     1      -4.583   3.470   5.138  1.00  0.00     0.041 C 
ATOM     23  O   UNL     1      -3.689   3.811   5.956  1.00  0.00    -0.550 OA
ATOM     24  O   UNL     1      -4.355   3.604   3.775  1.00  0.00    -0.550 OA
ENDBRANCH  21  22
ENDBRANCH  20  21
ENDBRANCH  19  20
ENDBRANCH  18  19
ENDBRANCH  17  18
ENDBRANCH  16  17
ENDBRANCH  15  16
ENDBRANCH  14  15
ENDBRANCH  13  14
ENDBRANCH   1  13
TORSDOF 20
ENDMDL
MODEL 4
REMARK VINA RESULT:    -3.379      3.607      6.644
REMARK INTER + INTRA:         -10.773
REMARK INTER:                  -7.813
REMARK INTRA:                  -2.960
REMARK UNBOUND:                -3.443
REMARK SMILES CCCCCCCCCCCCCCCCCCCCCC(=O)[O-]
REMARK SMILES IDX 12 1 11 2 10 3 9 4 8 5 7 6 6 7 5 8 4 9 3 10 2 11 1 12 13 13
REMARK SMILES IDX 14 14 15 15 16 16 17 17 18 18 19 19 20 20 21 21 22 22 23 23
REMARK SMILES IDX 24 24
REMARK H PARENT
REMARK Flexibility Score: inf
ROOT
ATOM      1  C   UNL     1      -5.247  -8.770   4.016  1.00  0.00     0.000 C 
ENDROOT
BRANCH   1   2
ATOM      2  C   UNL     1      -5.315  -8.997   2.497  1.00  0.00     0.000 C 
BRANCH   2   3
ATOM      3  C   UNL     1      -6.741  -8.841   1.942  1.00  0.00     0.000 C 
BRANCH   3   4
ATOM      4  C   UNL     1      -6.762  -8.255   0.521  1.00  0.00    -0.000 C 
BRANCH   4   5
ATOM      5  C   UNL     1      -7.688  -7.035   0.445  1.00  0.00    -0.000 C 
BRANCH   5   6
ATOM      6  C   UNL     1      -8.020  -6.509   1.851  1.00  0.00    -0.000 C 
BRANCH   6   7
ATOM      7  C   UNL     1      -7.438  -5.111   2.116  1.00  0.00    -0.000 C 
BRANCH   7   8
ATOM      8  C   UNL     1      -8.460  -4.151   2.740  1.00  0.00    -0.000 C 
BRANCH   8   9
ATOM      9  C   UNL     1      -7.999  -2.692   2.602  1.00  0.00    -0.000 C 
BRANCH   9  10
ATOM     10  C   UNL     1      -7.830  -2.253   1.136  1.00  0.00    -0.000 C 
BRANCH  10  11
ATOM     11  C   UNL     1      -6.398  -1.849   0.742  1.00  0.00    -0.003 C 
ATOM     12  C   UNL     1      -5.621  -1.203   1.888  1.00  0.00     0.004 C 
ENDBRANCH  10  11
ENDBRANCH   9  10
ENDBRANCH   8   9
ENDBRANCH   7   8
ENDBRANCH   6   7
ENDBRANCH   5   6
ENDBRANCH   4   5
ENDBRANCH   3   4
ENDBRANCH   2   3
ENDBRANCH   1   2
BRANCH   1  13
ATOM     13  C   UNL     1      -5.365  -7.286   4.407  1.00  0.00     0.000 C 
BRANCH  13  14
ATOM     14  C   UNL     1      -6.605  -6.930   5.247  1.00  0.00     0.000 C 
BRANCH  14  15
ATOM     15  C   UNL     1      -6.520  -5.527   5.875  1.00  0.00     0.000 C 
BRANCH  15  16
ATOM     16  C   UNL     1      -5.298  -4.733   5.389  1.00  0.00     0.000 C 
BRANCH  16  17
ATOM     17  C   UNL     1      -5.625  -3.259   5.107  1.00  0.00     0.000 C 
BRANCH  17  18
ATOM     18  C   UNL     1      -6.440  -2.648   6.257  1.00  0.00     0.000 C 
BRANCH  18  19
ATOM     19  C   UNL     1      -7.162  -1.355   5.849  1.00  0.00     0.000 C 
BRANCH  19  20
ATOM     20  C   UNL     1      -6.275  -0.107   6.009  1.00  0.00     0.006 C 
BRANCH  20  21
ATOM     21  C   UNL     1      -6.742   1.054   5.123  1.00  0.00     0.053 C 
BRANCH  21  22
ATOM     22  C   UNL     1      -6.086   2.346   5.506  1.00  0.00     0.041 C 
ATOM     23  O   UNL     1      -5.371   2.964   4.674  1.00  0.00    -0.550 OA
ATOM     24  O   UNL     1      -6.249   2.857   6.787  1.00  0.00    -0.550 OA
ENDBRANCH  21  22
ENDBRANCH  20  21
ENDBRANCH  19  20
ENDBRANCH  18  19
ENDBRANCH  17  18
ENDBRANCH  16  17
ENDBRANCH  15  16
ENDBRANCH  14  15
ENDBRANCH  13  14
ENDBRANCH   1  13
TORSDOF 20
ENDMDL
MODEL 5
REMARK VINA RESULT:    -3.358      2.974      6.597
REMARK INTER + INTRA:         -10.727
REMARK INTER:                  -7.475
REMARK INTRA:                  -3.252
REMARK UNBOUND:                -3.443
REMARK SMILES CCCCCCCCCCCCCCCCCCCCCC(=O)[O-]
REMARK SMILES IDX 12 1 11 2 10 3 9 4 8 5 7 6 6 7 5 8 4 9 3 10 2 11 1 12 13 13
REMARK SMILES IDX 14 14 15 15 16 16 17 17 18 18 19 19 20 20 21 21 22 22 23 23
REMARK SMILES IDX 24 24
REMARK H PARENT
REMARK Flexibility Score: inf
ROOT
ATOM      1  C   UNL     1      -8.383  -5.491   0.735  1.00  0.00     0.000 C 
ENDROOT
BRANCH   1   2
ATOM      2  C   UNL     1      -8.488  -6.865   0.052  1.00  0.00     0.000 C 
BRANCH   2   3
ATOM      3  C   UNL     1      -7.111  -7.476  -0.255  1.00  0.00     0.000 C 
BRANCH   3   4
ATOM      4  C   UNL     1      -7.006  -8.947   0.178  1.00  0.00    -0.000 C 
BRANCH   4   5
ATOM      5  C   UNL     1      -7.035  -9.072   1.706  1.00  0.00    -0.000 C 
BRANCH   5   6
ATOM      6  C   UNL     1      -5.711  -8.594   2.322  1.00  0.00    -0.000 C 
BRANCH   6   7
ATOM      7  C   UNL     1      -5.287  -9.428   3.542  1.00  0.00    -0.000 C 
BRANCH   7   8
ATOM      8  C   UNL     1      -6.351  -9.444   4.649  1.00  0.00    -0.000 C 
BRANCH   8   9
ATOM      9  C   UNL     1      -5.814  -8.798   5.936  1.00  0.00    -0.000 C 
BRANCH   9  10
ATOM     10  C   UNL     1      -6.687  -9.099   7.167  1.00  0.00    -0.000 C 
BRANCH  10  11
ATOM     11  C   UNL     1      -7.591  -7.938   7.619  1.00  0.00    -0.003 C 
ATOM     12  C   UNL     1      -9.051  -8.119   7.204  1.00  0.00     0.004 C 
ENDBRANCH  10  11
ENDBRANCH   9  10
ENDBRANCH   8   9
ENDBRANCH   7   8
ENDBRANCH   6   7
ENDBRANCH   5   6
ENDBRANCH   4   5
ENDBRANCH   3   4
ENDBRANCH   2   3
ENDBRANCH   1   2
BRANCH   1  13
ATOM     13  C   UNL     1      -8.561  -5.566   2.263  1.00  0.00     0.000 C 
BRANCH  13  14
ATOM     14  C   UNL     1      -7.254  -5.503   3.074  1.00  0.00     0.000 C 
BRANCH  14  15
ATOM     15  C   UNL     1      -7.450  -5.881   4.553  1.00  0.00     0.000 C 
BRANCH  15  16
ATOM     16  C   UNL     1      -6.862  -4.838   5.515  1.00  0.00     0.000 C 
BRANCH  16  17
ATOM     17  C   UNL     1      -5.421  -4.446   5.153  1.00  0.00     0.000 C 
BRANCH  17  18
ATOM     18  C   UNL     1      -5.326  -2.947   4.826  1.00  0.00     0.000 C 
BRANCH  18  19
ATOM     19  C   UNL     1      -6.688  -2.238   4.902  1.00  0.00     0.000 C 
BRANCH  19  20
ATOM     20  C   UNL     1      -7.176  -1.749   3.527  1.00  0.00     0.006 C 
BRANCH  20  21
ATOM     21  C   UNL     1      -6.080  -1.834   2.458  1.00  0.00     0.053 C 
BRANCH  21  22
ATOM     22  C   UNL     1      -6.625  -2.274   1.134  1.00  0.00     0.041 C 
ATOM     23  O   UNL     1      -5.876  -2.848   0.300  1.00  0.00    -0.550 OA
ATOM     24  O   UNL     1      -7.954  -2.035   0.813  1.00  0.00    -0.550 OA
ENDBRANCH  21  22
ENDBRANCH  20  21
ENDBRANCH  19  20
ENDBRANCH  18  19
ENDBRANCH  17  18
ENDBRANCH  16  17
ENDBRANCH  15  16
ENDBRANCH  14  15
ENDBRANCH  13  14
ENDBRANCH   1  13
TORSDOF 20
ENDMDL
MODEL 6
REMARK VINA RESULT:    -3.350      4.209      8.206
REMARK INTER + INTRA:         -10.711
REMARK INTER:                  -8.166
REMARK INTRA:                  -2.545
REMARK UNBOUND:                -3.443
REMARK SMILES CCCCCCCCCCCCCCCCCCCCCC(=O)[O-]
REMARK SMILES IDX 12 1 11 2 10 3 9 4 8 5 7 6 6 7 5 8 4 9 3 10 2 11 1 12 13 13
REMARK SMILES IDX 14 14 15 15 16 16 17 17 18 18 19 19 20 20 21 21 22 22 23 23
REMARK SMILES IDX 24 24
REMARK H PARENT
REMARK Flexibility Score: inf
ROOT
ATOM      1  C   UNL     1      -5.898  -1.492   1.845  1.00  0.00     0.000 C 
ENDROOT
BRANCH   1   2
ATOM      2  C   UNL     1      -6.648  -2.494   0.951  1.00  0.00     0.000 C 
BRANCH   2   3
ATOM      3  C   UNL     1      -8.097  -2.725   1.412  1.00  0.00     0.000 C 
BRANCH   3   4
ATOM      4  C   UNL     1      -8.445  -4.216   1.545  1.00  0.00    -0.000 C 
BRANCH   4   5
ATOM      5  C   UNL     1      -7.175  -5.073   1.594  1.00  0.00    -0.000 C 
BRANCH   5   6
ATOM      6  C   UNL     1      -7.049  -5.941   0.331  1.00  0.00    -0.000 C 
BRANCH   6   7
ATOM      7  C   UNL     1      -7.852  -7.248   0.426  1.00  0.00    -0.000 C 
BRANCH   7   8
ATOM      8  C   UNL     1      -6.957  -8.495   0.438  1.00  0.00    -0.000 C 
BRANCH   8   9
ATOM      9  C   UNL     1      -6.804  -9.047   1.864  1.00  0.00    -0.000 C 
BRANCH   9  10
ATOM     10  C   UNL     1      -5.495  -8.602   2.542  1.00  0.00    -0.000 C 
BRANCH  10  11
ATOM     11  C   UNL     1      -5.593  -8.391   4.064  1.00  0.00    -0.003 C 
ATOM     12  C   UNL     1      -5.509  -6.921   4.472  1.00  0.00     0.004 C 
ENDBRANCH  10  11
ENDBRANCH   9  10
ENDBRANCH   8   9
ENDBRANCH   7   8
ENDBRANCH   6   7
ENDBRANCH   5   6
ENDBRANCH   4   5
ENDBRANCH   3   4
ENDBRANCH   2   3
ENDBRANCH   1   2
BRANCH   1  13
ATOM     13  C   UNL     1      -6.381  -1.515   3.306  1.00  0.00     0.000 C 
BRANCH  13  14
ATOM     14  C   UNL     1      -5.772  -2.630   4.176  1.00  0.00     0.000 C 
BRANCH  14  15
ATOM     15  C   UNL     1      -6.820  -3.354   5.039  1.00  0.00     0.000 C 
BRANCH  15  16
ATOM     16  C   UNL     1      -7.625  -2.393   5.926  1.00  0.00     0.000 C 
BRANCH  16  17
ATOM     17  C   UNL     1      -6.762  -1.720   7.004  1.00  0.00     0.000 C 
BRANCH  17  18
ATOM     18  C   UNL     1      -7.046  -0.211   7.071  1.00  0.00     0.000 C 
BRANCH  18  19
ATOM     19  C   UNL     1      -5.952   0.628   6.392  1.00  0.00     0.000 C 
BRANCH  19  20
ATOM     20  C   UNL     1      -6.521   1.611   5.354  1.00  0.00     0.006 C 
BRANCH  20  21
ATOM     21  C   UNL     1      -6.144   3.065   5.663  1.00  0.00     0.053 C 
BRANCH  21  22
ATOM     22  C   UNL     1      -4.762   3.395   5.189  1.00  0.00     0.041 C 
ATOM     23  O   UNL     1      -4.507   3.432   3.957  1.00  0.00    -0.550 OA
ATOM     24  O   UNL     1      -3.751   3.645   6.108  1.00  0.00    -0.550 OA
ENDBRANCH  21  22
ENDBRANCH  20  21
ENDBRANCH  19  20
ENDBRANCH  18  19
ENDBRANCH  17  18
ENDBRANCH  16  17
ENDBRANCH  15  16
ENDBRANCH  14  15
ENDBRANCH  13  14
ENDBRANCH   1  13
TORSDOF 20
ENDMDL
MODEL 7
REMARK VINA RESULT:    -3.338      3.671      7.320
REMARK INTER + INTRA:         -10.684
REMARK INTER:                  -8.003
REMARK INTRA:                  -2.682
REMARK UNBOUND:                -3.443
REMARK SMILES CCCCCCCCCCCCCCCCCCCCCC(=O)[O-]
REMARK SMILES IDX 12 1 11 2 10 3 9 4 8 5 7 6 6 7 5 8 4 9 3 10 2 11 1 12 13 13
REMARK SMILES IDX 14 14 15 15 16 16 17 17 18 18 19 19 20 20 21 21 22 22 23 23
REMARK SMILES IDX 24 24
REMARK H PARENT
REMARK Flexibility Score: inf
ROOT
ATOM      1  C   UNL     1      -7.630  -3.564   1.541  1.00  0.00     0.000 C 
ENDROOT
BRANCH   1   2
ATOM      2  C   UNL     1      -7.219  -4.989   1.947  1.00  0.00     0.000 C 
BRANCH   2   3
ATOM      3  C   UNL     1      -8.235  -5.646   2.897  1.00  0.00     0.000 C 
BRANCH   3   4
ATOM      4  C   UNL     1      -7.635  -5.965   4.276  1.00  0.00    -0.000 C 
BRANCH   4   5
ATOM      5  C   UNL     1      -6.133  -6.258   4.166  1.00  0.00    -0.000 C 
BRANCH   5   6
ATOM      6  C   UNL     1      -5.836  -7.730   4.496  1.00  0.00    -0.000 C 
BRANCH   6   7
ATOM      7  C   UNL     1      -5.399  -8.539   3.264  1.00  0.00    -0.000 C 
BRANCH   7   8
ATOM      8  C   UNL     1      -6.588  -9.071   2.451  1.00  0.00    -0.000 C 
BRANCH   8   9
ATOM      9  C   UNL     1      -6.518  -8.585   0.995  1.00  0.00    -0.000 C 
BRANCH   9  10
ATOM     10  C   UNL     1      -7.765  -8.967   0.176  1.00  0.00    -0.000 C 
BRANCH  10  11
ATOM     11  C   UNL     1      -8.091  -8.015  -0.989  1.00  0.00    -0.003 C 
ATOM     12  C   UNL     1      -7.175  -6.793  -1.038  1.00  0.00     0.004 C 
ENDBRANCH  10  11
ENDBRANCH   9  10
ENDBRANCH   8   9
ENDBRANCH   7   8
ENDBRANCH   6   7
ENDBRANCH   5   6
ENDBRANCH   4   5
ENDBRANCH   3   4
ENDBRANCH   2   3
ENDBRANCH   1   2
BRANCH   1  13
ATOM     13  C   UNL     1      -6.450  -2.724   1.019  1.00  0.00     0.000 C 
BRANCH  13  14
ATOM     14  C   UNL     1      -5.736  -1.871   2.083  1.00  0.00     0.000 C 
BRANCH  14  15
ATOM     15  C   UNL     1      -6.414  -1.947   3.463  1.00  0.00     0.000 C 
BRANCH  15  16
ATOM     16  C   UNL     1      -5.544  -2.653   4.513  1.00  0.00     0.000 C 
BRANCH  16  17
ATOM     17  C   UNL     1      -6.269  -2.839   5.854  1.00  0.00     0.000 C 
BRANCH  17  18
ATOM     18  C   UNL     1      -7.039  -1.567   6.242  1.00  0.00     0.000 C 
BRANCH  18  19
ATOM     19  C   UNL     1      -6.389  -0.817   7.416  1.00  0.00     0.000 C 
BRANCH  19  20
ATOM     20  C   UNL     1      -5.413   0.277   6.949  1.00  0.00     0.006 C 
BRANCH  20  21
ATOM     21  C   UNL     1      -6.053   1.671   6.967  1.00  0.00     0.053 C 
BRANCH  21  22
ATOM     22  C   UNL     1      -6.106   2.277   5.598  1.00  0.00     0.041 C 
ATOM     23  O   UNL     1      -7.066   2.016   4.826  1.00  0.00    -0.550 OA
ATOM     24  O   UNL     1      -5.087   3.116   5.167  1.00  0.00    -0.550 OA
ENDBRANCH  21  22
ENDBRANCH  20  21
ENDBRANCH  19  20
ENDBRANCH  18  19
ENDBRANCH  17  18
ENDBRANCH  16  17
ENDBRANCH  15  16
ENDBRANCH  14  15
ENDBRANCH  13  14
ENDBRANCH   1  13
TORSDOF 20
ENDMDL
MODEL 8
REMARK VINA RESULT:    -3.321      3.585      5.472
REMARK INTER + INTRA:         -10.647
REMARK INTER:                  -7.320
REMARK INTRA:                  -3.327
REMARK UNBOUND:                -3.443
REMARK SMILES CCCCCCCCCCCCCCCCCCCCCC(=O)[O-]
REMARK SMILES IDX 12 1 11 2 10 3 9 4 8 5 7 6 6 7 5 8 4 9 3 10 2 11 1 12 13 13
REMARK SMILES IDX 14 14 15 15 16 16 17 17 18 18 19 19 20 20 21 21 22 22 23 23
REMARK SMILES IDX 24 24
REMARK H PARENT
REMARK Flexibility Score: inf
ROOT
ATOM      1  C   UNL     1      -5.782  -8.667   2.354  1.00  0.00     0.000 C 
ENDROOT
BRANCH   1   2
ATOM      2  C   UNL     1      -5.250  -9.393   3.601  1.00  0.00     0.000 C 
BRANCH   2   3
ATOM      3  C   UNL     1      -5.533  -8.616   4.898  1.00  0.00     0.000 C 
BRANCH   3   4
ATOM      4  C   UNL     1      -5.611  -7.098   4.674  1.00  0.00    -0.000 C 
BRANCH   4   5
ATOM      5  C   UNL     1      -6.469  -6.427   5.754  1.00  0.00    -0.000 C 
BRANCH   5   6
ATOM      6  C   UNL     1      -6.725  -4.950   5.414  1.00  0.00    -0.000 C 
BRANCH   6   7
ATOM      7  C   UNL     1      -5.429  -4.174   5.129  1.00  0.00    -0.000 C 
BRANCH   7   8
ATOM      8  C   UNL     1      -5.649  -2.655   5.068  1.00  0.00    -0.000 C 
BRANCH   8   9
ATOM      9  C   UNL     1      -5.600  -2.151   3.617  1.00  0.00    -0.000 C 
BRANCH   9  10
ATOM     10  C   UNL     1      -6.998  -1.945   3.007  1.00  0.00    -0.000 C 
BRANCH  10  11
ATOM     11  C   UNL     1      -7.172  -2.504   1.583  1.00  0.00    -0.003 C 
ATOM     12  C   UNL     1      -5.965  -2.240   0.685  1.00  0.00     0.004 C 
ENDBRANCH  10  11
ENDBRANCH   9  10
ENDBRANCH   8   9
ENDBRANCH   7   8
ENDBRANCH   6   7
ENDBRANCH   5   6
ENDBRANCH   4   5
ENDBRANCH   3   4
ENDBRANCH   2   3
ENDBRANCH   1   2
BRANCH   1  13
ATOM     13  C   UNL     1      -7.038  -9.334   1.763  1.00  0.00     0.000 C 
BRANCH  13  14
ATOM     14  C   UNL     1      -8.269  -9.337   2.686  1.00  0.00     0.000 C 
BRANCH  14  15
ATOM     15  C   UNL     1      -9.254  -8.195   2.374  1.00  0.00     0.000 C 
BRANCH  15  16
ATOM     16  C   UNL     1      -9.022  -6.956   3.251  1.00  0.00     0.000 C 
BRANCH  16  17
ATOM     17  C   UNL     1      -8.888  -5.666   2.428  1.00  0.00     0.000 C 
BRANCH  17  18
ATOM     18  C   UNL     1      -8.743  -5.982   0.932  1.00  0.00     0.000 C 
BRANCH  18  19
ATOM     19  C   UNL     1      -7.282  -5.944   0.458  1.00  0.00     0.000 C 
BRANCH  19  20
ATOM     20  C   UNL     1      -7.094  -6.587  -0.928  1.00  0.00     0.006 C 
BRANCH  20  21
ATOM     21  C   UNL     1      -8.129  -7.684  -1.203  1.00  0.00     0.053 C 
BRANCH  21  22
ATOM     22  C   UNL     1      -8.995  -7.350  -2.379  1.00  0.00     0.041 C 
ATOM     23  O   UNL     1      -9.416  -8.264  -3.136  1.00  0.00    -0.550 OA
ATOM     24  O   UNL     1      -9.324  -6.028  -2.649  1.00  0.00    -0.550 OA
ENDBRANCH  21  22
ENDBRANCH  20  21
ENDBRANCH  19  20
ENDBRANCH  18  19
ENDBRANCH  17  18
ENDBRANCH  16  17
ENDBRANCH  15  16
ENDBRANCH  14  15
ENDBRANCH  13  14
ENDBRANCH   1  13
TORSDOF 20
ENDMDL
MODEL 9
REMARK VINA RESULT:    -3.317      2.862      6.859
REMARK INTER + INTRA:         -10.638
REMARK INTER:                  -7.334
REMARK INTRA:                  -3.304
REMARK UNBOUND:                -3.443
REMARK SMILES CCCCCCCCCCCCCCCCCCCCCC(=O)[O-]
REMARK SMILES IDX 12 1 11 2 10 3 9 4 8 5 7 6 6 7 5 8 4 9 3 10 2 11 1 12 13 13
REMARK SMILES IDX 14 14 15 15 16 16 17 17 18 18 19 19 20 20 21 21 22 22 23 23
REMARK SMILES IDX 24 24
REMARK H PARENT
REMARK Flexibility Score: inf
ROOT
ATOM      1  C   UNL     1      -5.978  -8.803   5.729  1.00  0.00     0.000 C 
ENDROOT
BRANCH   1   2
ATOM      2  C   UNL     1      -6.041  -9.798   4.558  1.00  0.00     0.000 C 
BRANCH   2   3
ATOM      3  C   UNL     1      -5.090  -9.417   3.411  1.00  0.00     0.000 C 
BRANCH   3   4
ATOM      4  C   UNL     1      -5.804  -8.667   2.275  1.00  0.00    -0.000 C 
BRANCH   4   5
ATOM      5  C   UNL     1      -7.312  -8.946   2.296  1.00  0.00    -0.000 C 
BRANCH   5   6
ATOM      6  C   UNL     1      -7.737  -9.763   1.065  1.00  0.00    -0.000 C 
BRANCH   6   7
ATOM      7  C   UNL     1      -7.170  -9.199  -0.248  1.00  0.00    -0.000 C 
BRANCH   7   8
ATOM      8  C   UNL     1      -8.257  -8.610  -1.158  1.00  0.00    -0.000 C 
BRANCH   8   9
ATOM      9  C   UNL     1      -8.386  -7.093  -0.949  1.00  0.00    -0.000 C 
BRANCH   9  10
ATOM     10  C   UNL     1      -7.045  -6.419  -0.608  1.00  0.00    -0.000 C 
BRANCH  10  11
ATOM     11  C   UNL     1      -7.035  -5.627   0.713  1.00  0.00    -0.003 C 
ATOM     12  C   UNL     1      -8.418  -5.515   1.354  1.00  0.00     0.004 C 
ENDBRANCH  10  11
ENDBRANCH   9  10
ENDBRANCH   8   9
ENDBRANCH   7   8
ENDBRANCH   6   7
ENDBRANCH   5   6
ENDBRANCH   4   5
ENDBRANCH   3   4
ENDBRANCH   2   3
ENDBRANCH   1   2
BRANCH   1  13
ATOM     13  C   UNL     1      -7.256  -7.956   5.866  1.00  0.00     0.000 C 
BRANCH  13  14
ATOM     14  C   UNL     1      -7.214  -6.592   5.152  1.00  0.00     0.000 C 
BRANCH  14  15
ATOM     15  C   UNL     1      -5.781  -6.068   4.949  1.00  0.00     0.000 C 
BRANCH  15  16
ATOM     16  C   UNL     1      -5.671  -4.550   5.148  1.00  0.00     0.000 C 
BRANCH  16  17
ATOM     17  C   UNL     1      -6.743  -3.998   6.099  1.00  0.00     0.000 C 
BRANCH  17  18
ATOM     18  C   UNL     1      -7.185  -2.591   5.671  1.00  0.00     0.000 C 
BRANCH  18  19
ATOM     19  C   UNL     1      -8.151  -2.613   4.474  1.00  0.00     0.000 C 
BRANCH  19  20
ATOM     20  C   UNL     1      -7.789  -1.566   3.405  1.00  0.00     0.006 C 
BRANCH  20  21
ATOM     21  C   UNL     1      -7.578  -2.198   2.024  1.00  0.00     0.053 C 
BRANCH  21  22
ATOM     22  C   UNL     1      -6.158  -2.069   1.564  1.00  0.00     0.041 C 
ATOM     23  O   UNL     1      -5.870  -2.221   0.347  1.00  0.00    -0.550 OA
ATOM     24  O   UNL     1      -5.150  -1.802   2.480  1.00  0.00    -0.550 OA
ENDBRANCH  21  22
ENDBRANCH  20  21
ENDBRANCH  19  20
ENDBRANCH  18  19
ENDBRANCH  17  18
ENDBRANCH  16  17
ENDBRANCH  15  16
ENDBRANCH  14  15
ENDBRANCH  13  14
ENDBRANCH   1  13
TORSDOF 20
ENDMDL
