MODEL 1
REMARK VINA RESULT:    -5.311      0.000      0.000
REMARK INTER + INTRA:          -5.942
REMARK INTER:                  -5.621
REMARK INTRA:                  -0.321
REMARK UNBOUND:                -0.321
REMARK SMILES c1ccc(-c2ccccc2)cc1
REMARK SMILES IDX 1 1 2 2 3 3 4 4 11 5 12 6 5 7 6 8 10 9 7 10 9 11 8 12
REMARK H PARENT
REMARK Flexibility Score: inf
ROOT
ATOM      1  C   UNL     1       1.590  21.124  43.144  1.00  0.00     0.000 A 
ATOM      2  C   UNL     1       1.974  21.890  44.246  1.00  0.00     0.001 A 
ATOM      3  C   UNL     1       2.772  23.024  44.069  1.00  0.00     0.009 A 
ATOM      4  C   UNL     1       3.193  23.406  42.781  1.00  0.00    -0.018 A 
ATOM      5  C   UNL     1       2.797  22.625  41.677  1.00  0.00     0.009 A 
ATOM      6  C   UNL     1       2.000  21.491  41.860  1.00  0.00     0.001 A 
ENDROOT
BRANCH   4   7
ATOM      7  C   UNL     1       4.040  24.612  42.588  1.00  0.00    -0.018 A 
ATOM      8  C   UNL     1       4.671  24.853  41.353  1.00  0.00     0.009 A 
ATOM      9  C   UNL     1       4.226  25.531  43.637  1.00  0.00     0.009 A 
ATOM     10  C   UNL     1       5.467  25.988  41.173  1.00  0.00     0.001 A 
ATOM     11  C   UNL     1       5.024  26.665  43.452  1.00  0.00     0.001 A 
ATOM     12  C   UNL     1       5.643  26.892  42.223  1.00  0.00     0.000 A 
ENDBRANCH   4   7
TORSDOF 1
ENDMDL
MODEL 2
REMARK VINA RESULT:    -5.309      0.048      5.136
REMARK INTER + INTRA:          -5.940
REMARK INTER:                  -5.619
REMARK INTRA:                  -0.321
REMARK UNBOUND:                -0.321
REMARK SMILES c1ccc(-c2ccccc2)cc1
REMARK SMILES IDX 1 1 2 2 3 3 4 4 11 5 12 6 5 7 6 8 10 9 7 10 9 11 8 12
REMARK H PARENT
REMARK Flexibility Score: inf
ROOT
ATOM      1  C   UNL     1       5.647  26.914  42.257  1.00  0.00     0.000 A 
ATOM      2  C   UNL     1       5.469  26.009  41.209  1.00  0.00     0.001 A 
ATOM      3  C   UNL     1       4.674  24.874  41.389  1.00  0.00     0.009 A 
ATOM      4  C   UNL     1       4.045  24.633  42.625  1.00  0.00    -0.018 A 
ATOM      5  C   UNL     1       4.231  25.553  43.674  1.00  0.00     0.009 A 
ATOM      6  C   UNL     1       5.028  26.687  43.488  1.00  0.00     0.001 A 
ENDROOT
BRANCH   4   7
ATOM      7  C   UNL     1       3.198  23.427  42.820  1.00  0.00    -0.018 A 
ATOM      8  C   UNL     1       2.797  23.035  44.112  1.00  0.00     0.009 A 
ATOM      9  C   UNL     1       2.783  22.657  41.717  1.00  0.00     0.009 A 
ATOM     10  C   UNL     1       2.000  21.901  44.293  1.00  0.00     0.001 A 
ATOM     11  C   UNL     1       1.987  21.523  41.905  1.00  0.00     0.001 A 
ATOM     12  C   UNL     1       1.596  21.146  43.190  1.00  0.00     0.000 A 
ENDBRANCH   4   7
TORSDOF 1
ENDMDL
MODEL 3
REMARK VINA RESULT:    -5.302      0.048      1.978
REMARK INTER + INTRA:          -5.933
REMARK INTER:                  -5.611
REMARK INTRA:                  -0.322
REMARK UNBOUND:                -0.321
REMARK SMILES c1ccc(-c2ccccc2)cc1
REMARK SMILES IDX 1 1 2 2 3 3 4 4 11 5 12 6 5 7 6 8 10 9 7 10 9 11 8 12
REMARK H PARENT
REMARK Flexibility Score: inf
ROOT
ATOM      1  C   UNL     1       1.590  21.122  43.137  1.00  0.00     0.000 A 
ATOM      2  C   UNL     1       1.980  21.496  41.849  1.00  0.00     0.001 A 
ATOM      3  C   UNL     1       2.785  22.624  41.660  1.00  0.00     0.009 A 
ATOM      4  C   UNL     1       3.210  23.390  42.762  1.00  0.00    -0.018 A 
ATOM      5  C   UNL     1       2.810  23.001  44.055  1.00  0.00     0.009 A 
ATOM      6  C   UNL     1       2.005  21.873  44.239  1.00  0.00     0.001 A 
ENDROOT
BRANCH   4   7
ATOM      7  C   UNL     1       4.067  24.588  42.565  1.00  0.00    -0.018 A 
ATOM      8  C   UNL     1       4.289  25.491  43.622  1.00  0.00     0.009 A 
ATOM      9  C   UNL     1       4.669  24.841  41.318  1.00  0.00     0.009 A 
ATOM     10  C   UNL     1       5.095  26.618  43.435  1.00  0.00     0.001 A 
ATOM     11  C   UNL     1       5.474  25.970  41.136  1.00  0.00     0.001 A 
ATOM     12  C   UNL     1       5.686  26.857  42.192  1.00  0.00     0.000 A 
ENDBRANCH   4   7
TORSDOF 1
ENDMDL
MODEL 4
REMARK VINA RESULT:    -5.262      2.522      4.798
REMARK INTER + INTRA:          -5.891
REMARK INTER:                  -5.568
REMARK INTRA:                  -0.323
REMARK UNBOUND:                -0.321
REMARK SMILES c1ccc(-c2ccccc2)cc1
REMARK SMILES IDX 1 1 2 2 3 3 4 4 11 5 12 6 5 7 6 8 10 9 7 10 9 11 8 12
REMARK H PARENT
REMARK Flexibility Score: inf
ROOT
ATOM      1  C   UNL     1       1.892  26.210  47.701  1.00  0.00     0.000 A 
ATOM      2  C   UNL     1       1.227  24.983  47.671  1.00  0.00     0.001 A 
ATOM      3  C   UNL     1       1.368  24.134  46.568  1.00  0.00     0.009 A 
ATOM      4  C   UNL     1       2.180  24.508  45.481  1.00  0.00    -0.018 A 
ATOM      5  C   UNL     1       2.845  25.749  45.523  1.00  0.00     0.009 A 
ATOM      6  C   UNL     1       2.700  26.593  46.628  1.00  0.00     0.001 A 
ENDROOT
BRANCH   4   7
ATOM      7  C   UNL     1       2.332  23.609  44.307  1.00  0.00    -0.018 A 
ATOM      8  C   UNL     1       3.092  24.011  43.192  1.00  0.00     0.009 A 
ATOM      9  C   UNL     1       1.720  22.342  44.291  1.00  0.00     0.009 A 
ATOM     10  C   UNL     1       3.235  23.164  42.089  1.00  0.00     0.001 A 
ATOM     11  C   UNL     1       1.866  21.499  43.185  1.00  0.00     0.001 A 
ATOM     12  C   UNL     1       2.621  21.910  42.086  1.00  0.00     0.000 A 
ENDBRANCH   4   7
TORSDOF 1
ENDMDL
MODEL 5
REMARK VINA RESULT:    -5.257      2.135      3.698
REMARK INTER + INTRA:          -5.885
REMARK INTER:                  -5.562
REMARK INTRA:                  -0.323
REMARK UNBOUND:                -0.321
REMARK SMILES c1ccc(-c2ccccc2)cc1
REMARK SMILES IDX 1 1 2 2 3 3 4 4 11 5 12 6 5 7 6 8 10 9 7 10 9 11 8 12
REMARK H PARENT
REMARK Flexibility Score: inf
ROOT
ATOM      1  C   UNL     1       2.372  21.502  41.774  1.00  0.00     0.000 A 
ATOM      2  C   UNL     1       1.670  21.178  42.937  1.00  0.00     0.001 A 
ATOM      3  C   UNL     1       1.646  22.070  44.014  1.00  0.00     0.009 A 
ATOM      4  C   UNL     1       2.327  23.299  43.936  1.00  0.00    -0.018 A 
ATOM      5  C   UNL     1       3.031  23.614  42.757  1.00  0.00     0.009 A 
ATOM      6  C   UNL     1       3.051  22.718  41.684  1.00  0.00     0.001 A 
ENDROOT
BRANCH   4   7
ATOM      7  C   UNL     1       2.303  24.250  45.078  1.00  0.00    -0.018 A 
ATOM      8  C   UNL     1       1.655  23.908  46.280  1.00  0.00     0.009 A 
ATOM      9  C   UNL     1       2.927  25.508  44.976  1.00  0.00     0.009 A 
ATOM     10  C   UNL     1       1.635  24.804  47.354  1.00  0.00     0.001 A 
ATOM     11  C   UNL     1       2.903  26.400  46.053  1.00  0.00     0.001 A 
ATOM     12  C   UNL     1       2.257  26.048  47.239  1.00  0.00     0.000 A 
ENDBRANCH   4   7
TORSDOF 1
ENDMDL
MODEL 6
REMARK VINA RESULT:    -5.239      2.158      3.735
REMARK INTER + INTRA:          -5.866
REMARK INTER:                  -5.543
REMARK INTRA:                  -0.323
REMARK UNBOUND:                -0.321
REMARK SMILES c1ccc(-c2ccccc2)cc1
REMARK SMILES IDX 1 1 2 2 3 3 4 4 11 5 12 6 5 7 6 8 10 9 7 10 9 11 8 12
REMARK H PARENT
REMARK Flexibility Score: inf
ROOT
ATOM      1  C   UNL     1       2.390  21.534  41.752  1.00  0.00     0.000 A 
ATOM      2  C   UNL     1       3.045  22.764  41.677  1.00  0.00     0.001 A 
ATOM      3  C   UNL     1       3.008  23.646  42.763  1.00  0.00     0.009 A 
ATOM      4  C   UNL     1       2.314  23.300  43.938  1.00  0.00    -0.018 A 
ATOM      5  C   UNL     1       1.658  22.055  44.000  1.00  0.00     0.009 A 
ATOM      6  C   UNL     1       1.698  21.179  42.911  1.00  0.00     0.001 A 
ENDROOT
BRANCH   4   7
ATOM      7  C   UNL     1       2.273  24.234  45.094  1.00  0.00    -0.018 A 
ATOM      8  C   UNL     1       2.884  25.500  45.013  1.00  0.00     0.009 A 
ATOM      9  C   UNL     1       1.625  23.867  46.288  1.00  0.00     0.009 A 
ATOM     10  C   UNL     1       2.844  26.377  46.101  1.00  0.00     0.001 A 
ATOM     11  C   UNL     1       1.589  24.747  47.374  1.00  0.00     0.001 A 
ATOM     12  C   UNL     1       2.198  26.000  47.280  1.00  0.00     0.000 A 
ENDBRANCH   4   7
TORSDOF 1
ENDMDL
MODEL 7
REMARK VINA RESULT:    -5.179      2.038      4.774
REMARK INTER + INTRA:          -5.803
REMARK INTER:                  -5.480
REMARK INTRA:                  -0.323
REMARK UNBOUND:                -0.321
REMARK SMILES c1ccc(-c2ccccc2)cc1
REMARK SMILES IDX 1 1 2 2 3 3 4 4 11 5 12 6 5 7 6 8 10 9 7 10 9 11 8 12
REMARK H PARENT
REMARK Flexibility Score: inf
ROOT
ATOM      1  C   UNL     1       2.348  26.025  47.069  1.00  0.00     0.000 A 
ATOM      2  C   UNL     1       1.629  24.834  47.184  1.00  0.00     0.001 A 
ATOM      3  C   UNL     1       1.622  23.914  46.131  1.00  0.00     0.009 A 
ATOM      4  C   UNL     1       2.339  24.178  44.949  1.00  0.00    -0.018 A 
ATOM      5  C   UNL     1       3.061  25.383  44.845  1.00  0.00     0.009 A 
ATOM      6  C   UNL     1       3.064  26.300  45.901  1.00  0.00     0.001 A 
ENDROOT
BRANCH   4   7
ATOM      7  C   UNL     1       2.335  23.202  43.828  1.00  0.00    -0.018 A 
ATOM      8  C   UNL     1       1.627  21.990  43.937  1.00  0.00     0.009 A 
ATOM      9  C   UNL     1       3.038  23.473  42.639  1.00  0.00     0.009 A 
ATOM     10  C   UNL     1       1.623  21.073  42.881  1.00  0.00     0.001 A 
ATOM     11  C   UNL     1       3.032  22.553  41.587  1.00  0.00     0.001 A 
ATOM     12  C   UNL     1       2.326  21.355  41.708  1.00  0.00     0.000 A 
ENDBRANCH   4   7
TORSDOF 1
ENDMDL
MODEL 8
REMARK VINA RESULT:    -5.115      2.962      4.983
REMARK INTER + INTRA:          -5.735
REMARK INTER:                  -5.413
REMARK INTRA:                  -0.323
REMARK UNBOUND:                -0.321
REMARK SMILES c1ccc(-c2ccccc2)cc1
REMARK SMILES IDX 1 1 2 2 3 3 4 4 11 5 12 6 5 7 6 8 10 9 7 10 9 11 8 12
REMARK H PARENT
REMARK Flexibility Score: inf
ROOT
ATOM      1  C   UNL     1       1.708  26.181  48.384  1.00  0.00     0.000 A 
ATOM      2  C   UNL     1       1.307  24.846  48.297  1.00  0.00     0.001 A 
ATOM      3  C   UNL     1       1.546  24.116  47.129  1.00  0.00     0.009 A 
ATOM      4  C   UNL     1       2.193  24.717  46.033  1.00  0.00    -0.018 A 
ATOM      5  C   UNL     1       2.593  26.063  46.133  1.00  0.00     0.009 A 
ATOM      6  C   UNL     1       2.351  26.789  47.304  1.00  0.00     0.001 A 
ENDROOT
BRANCH   4   7
ATOM      7  C   UNL     1       2.449  23.943  44.789  1.00  0.00    -0.018 A 
ATOM      8  C   UNL     1       2.057  22.595  44.692  1.00  0.00     0.009 A 
ATOM      9  C   UNL     1       3.089  24.546  43.691  1.00  0.00     0.009 A 
ATOM     10  C   UNL     1       2.298  21.869  43.521  1.00  0.00     0.001 A 
ATOM     11  C   UNL     1       3.329  23.815  42.523  1.00  0.00     0.001 A 
ATOM     12  C   UNL     1       2.935  22.479  42.439  1.00  0.00     0.000 A 
ENDBRANCH   4   7
TORSDOF 1
ENDMDL
MODEL 9
REMARK VINA RESULT:    -4.934      4.299      5.953
REMARK INTER + INTRA:          -5.543
REMARK INTER:                  -5.223
REMARK INTRA:                  -0.320
REMARK UNBOUND:                -0.321
REMARK SMILES c1ccc(-c2ccccc2)cc1
REMARK SMILES IDX 1 1 2 2 3 3 4 4 11 5 12 6 5 7 6 8 10 9 7 10 9 11 8 12
REMARK H PARENT
REMARK Flexibility Score: inf
ROOT
ATOM      1  C   UNL     1       2.948  23.410  43.829  1.00  0.00     0.000 A 
ATOM      2  C   UNL     1       2.767  24.781  44.021  1.00  0.00     0.001 A 
ATOM      3  C   UNL     1       2.362  25.267  45.268  1.00  0.00     0.009 A 
ATOM      4  C   UNL     1       2.136  24.382  46.339  1.00  0.00    -0.018 A 
ATOM      5  C   UNL     1       2.323  23.001  46.132  1.00  0.00     0.009 A 
ATOM      6  C   UNL     1       2.727  22.521  44.883  1.00  0.00     0.001 A 
ENDROOT
BRANCH   4   7
ATOM      7  C   UNL     1       1.706  24.895  47.667  1.00  0.00    -0.018 A 
ATOM      8  C   UNL     1       1.800  24.082  48.812  1.00  0.00     0.009 A 
ATOM      9  C   UNL     1       1.199  26.201  47.799  1.00  0.00     0.009 A 
ATOM     10  C   UNL     1       1.396  24.566  50.060  1.00  0.00     0.001 A 
ATOM     11  C   UNL     1       0.796  26.680  49.050  1.00  0.00     0.001 A 
ATOM     12  C   UNL     1       0.894  25.864  50.178  1.00  0.00     0.000 A 
ENDBRANCH   4   7
TORSDOF 1
ENDMDL
