MODEL 1
REMARK VINA RESULT:    -3.609      0.000      0.000
REMARK INTER + INTRA:          -5.746
REMARK INTER:                  -5.297
REMARK INTRA:                  -0.448
REMARK UNBOUND:                -0.448
REMARK SMILES O=C([O-])CCCCCCCC(=O)[O-]
REMARK SMILES IDX 7 1 6 2 5 3 4 4 2 5 1 6 3 7 8 8 9 9 10 10 11 11 12 12 13 13
REMARK H PARENT
REMARK Flexibility Score: inf
ROOT
ATOM      1  C   UNL     1      39.710  12.803  14.729  1.00  0.00     0.000 C 
ENDROOT
BRANCH   1   2
ATOM      2  C   UNL     1      38.928  12.454  13.453  1.00  0.00     0.000 C 
BRANCH   2   3
ATOM      3  C   UNL     1      39.845  12.184  12.251  1.00  0.00     0.006 C 
BRANCH   3   4
ATOM      4  C   UNL     1      39.490  10.855  11.579  1.00  0.00     0.053 C 
BRANCH   4   5
ATOM      5  C   UNL     1      40.631   9.893  11.680  1.00  0.00     0.041 C 
ATOM      6  O   UNL     1      41.810  10.320  11.800  1.00  0.00    -0.550 OA
ATOM      7  O   UNL     1      40.389   8.526  11.693  1.00  0.00    -0.550 OA
ENDBRANCH   4   5
ENDBRANCH   3   4
ENDBRANCH   2   3
ENDBRANCH   1   2
BRANCH   1   8
ATOM      8  C   UNL     1      40.549  11.627  15.251  1.00  0.00     0.000 C 
BRANCH   8   9
ATOM      9  C   UNL     1      41.928  12.104  15.724  1.00  0.00     0.006 C 
BRANCH   9  10
ATOM     10  C   UNL     1      42.226  11.605  17.141  1.00  0.00     0.053 C 
BRANCH  10  11
ATOM     11  C   UNL     1      42.300  12.754  18.096  1.00  0.00     0.041 C 
ATOM     12  O   UNL     1      41.354  13.582  18.165  1.00  0.00    -0.550 OA
ATOM     13  O   UNL     1      43.435  12.939  18.874  1.00  0.00    -0.550 OA
ENDBRANCH  10  11
ENDBRANCH   9  10
ENDBRANCH   8   9
ENDBRANCH   1   8
TORSDOF 8
ENDMDL
MODEL 2
REMARK VINA RESULT:    -3.579      1.981      2.797
REMARK INTER + INTRA:          -5.701
REMARK INTER:                  -5.108
REMARK INTRA:                  -0.593
REMARK UNBOUND:                -0.448
REMARK SMILES O=C([O-])CCCCCCCC(=O)[O-]
REMARK SMILES IDX 7 1 6 2 5 3 4 4 2 5 1 6 3 7 8 8 9 9 10 10 11 11 12 12 13 13
REMARK H PARENT
REMARK Flexibility Score: inf
ROOT
ATOM      1  C   UNL     1      39.941  12.293  12.565  1.00  0.00     0.000 C 
ENDROOT
BRANCH   1   2
ATOM      2  C   UNL     1      40.959  11.144  12.496  1.00  0.00     0.000 C 
BRANCH   2   3
ATOM      3  C   UNL     1      40.808  10.293  11.226  1.00  0.00     0.006 C 
BRANCH   3   4
ATOM      4  C   UNL     1      40.542   8.827  11.577  1.00  0.00     0.053 C 
BRANCH   4   5
ATOM      5  C   UNL     1      39.140   8.652  12.070  1.00  0.00     0.041 C 
ATOM      6  O   UNL     1      38.907   7.918  13.066  1.00  0.00    -0.550 OA
ATOM      7  O   UNL     1      38.098   9.339  11.462  1.00  0.00    -0.550 OA
ENDBRANCH   4   5
ENDBRANCH   3   4
ENDBRANCH   2   3
ENDBRANCH   1   2
BRANCH   1   8
ATOM      8  C   UNL     1      39.036  12.210  13.803  1.00  0.00     0.000 C 
BRANCH   8   9
ATOM      9  C   UNL     1      39.134  13.491  14.642  1.00  0.00     0.006 C 
BRANCH   9  10
ATOM     10  C   UNL     1      40.583  13.980  14.732  1.00  0.00     0.053 C 
BRANCH  10  11
ATOM     11  C   UNL     1      41.283  13.334  15.884  1.00  0.00     0.041 C 
ATOM     12  O   UNL     1      42.076  12.376  15.687  1.00  0.00    -0.550 OA
ATOM     13  O   UNL     1      41.023  13.757  17.181  1.00  0.00    -0.550 OA
ENDBRANCH  10  11
ENDBRANCH   9  10
ENDBRANCH   8   9
ENDBRANCH   1   8
TORSDOF 8
ENDMDL
MODEL 3
REMARK VINA RESULT:    -3.498      1.668      5.947
REMARK INTER + INTRA:          -5.582
REMARK INTER:                  -4.862
REMARK INTRA:                  -0.720
REMARK UNBOUND:                -0.448
REMARK SMILES O=C([O-])CCCCCCCC(=O)[O-]
REMARK SMILES IDX 7 1 6 2 5 3 4 4 2 5 1 6 3 7 8 8 9 9 10 10 11 11 12 12 13 13
REMARK H PARENT
REMARK Flexibility Score: inf
ROOT
ATOM      1  C   UNL     1      38.911  12.087  13.697  1.00  0.00     0.000 C 
ENDROOT
BRANCH   1   2
ATOM      2  C   UNL     1      39.381  11.081  14.760  1.00  0.00     0.000 C 
BRANCH   2   3
ATOM      3  C   UNL     1      39.644  11.740  16.123  1.00  0.00     0.006 C 
BRANCH   3   4
ATOM      4  C   UNL     1      41.042  12.362  16.170  1.00  0.00     0.053 C 
BRANCH   4   5
ATOM      5  C   UNL     1      40.951  13.853  16.255  1.00  0.00     0.041 C 
ATOM      6  O   UNL     1      40.839  14.417  17.375  1.00  0.00    -0.550 OA
ATOM      7  O   UNL     1      41.040  14.622  15.102  1.00  0.00    -0.550 OA
ENDBRANCH   4   5
ENDBRANCH   3   4
ENDBRANCH   2   3
ENDBRANCH   1   2
BRANCH   1   8
ATOM      8  C   UNL     1      39.951  12.306  12.588  1.00  0.00     0.000 C 
BRANCH   8   9
ATOM      9  C   UNL     1      41.012  11.198  12.604  1.00  0.00     0.006 C 
BRANCH   9  10
ATOM     10  C   UNL     1      40.909  10.319  11.354  1.00  0.00     0.053 C 
BRANCH  10  11
ATOM     11  C   UNL     1      40.048   9.126  11.622  1.00  0.00     0.041 C 
ATOM     12  O   UNL     1      40.571   8.031  11.959  1.00  0.00    -0.550 OA
ATOM     13  O   UNL     1      38.673   9.208  11.450  1.00  0.00    -0.550 OA
ENDBRANCH  10  11
ENDBRANCH   9  10
ENDBRANCH   8   9
ENDBRANCH   1   8
TORSDOF 8
ENDMDL
MODEL 4
REMARK VINA RESULT:    -3.461      0.837      6.138
REMARK INTER + INTRA:          -5.529
REMARK INTER:                  -5.072
REMARK INTRA:                  -0.457
REMARK UNBOUND:                -0.448
REMARK SMILES O=C([O-])CCCCCCCC(=O)[O-]
REMARK SMILES IDX 7 1 6 2 5 3 4 4 2 5 1 6 3 7 8 8 9 9 10 10 11 11 12 12 13 13
REMARK H PARENT
REMARK Flexibility Score: inf
ROOT
ATOM      1  C   UNL     1      40.512  13.121  13.599  1.00  0.00     0.000 C 
ENDROOT
BRANCH   1   2
ATOM      2  C   UNL     1      41.173  12.114  14.553  1.00  0.00     0.000 C 
BRANCH   2   3
ATOM      3  C   UNL     1      41.167  12.590  16.014  1.00  0.00     0.006 C 
BRANCH   3   4
ATOM      4  C   UNL     1      42.346  11.996  16.788  1.00  0.00     0.053 C 
BRANCH   4   5
ATOM      5  C   UNL     1      42.342  12.481  18.204  1.00  0.00     0.041 C 
ATOM      6  O   UNL     1      43.417  12.837  18.754  1.00  0.00    -0.550 OA
ATOM      7  O   UNL     1      41.144  12.587  18.899  1.00  0.00    -0.550 OA
ENDBRANCH   4   5
ENDBRANCH   3   4
ENDBRANCH   2   3
ENDBRANCH   1   2
BRANCH   1   8
ATOM      8  C   UNL     1      39.241  12.566  12.939  1.00  0.00     0.000 C 
BRANCH   8   9
ATOM      9  C   UNL     1      39.165  11.041  13.093  1.00  0.00     0.006 C 
BRANCH   9  10
ATOM     10  C   UNL     1      39.296  10.344  11.735  1.00  0.00     0.053 C 
BRANCH  10  11
ATOM     11  C   UNL     1      40.580   9.581  11.660  1.00  0.00     0.041 C 
ATOM     12  O   UNL     1      40.571   8.322  11.691  1.00  0.00    -0.550 OA
ATOM     13  O   UNL     1      41.790  10.259  11.607  1.00  0.00    -0.550 OA
ENDBRANCH  10  11
ENDBRANCH   9  10
ENDBRANCH   8   9
ENDBRANCH   1   8
TORSDOF 8
ENDMDL
MODEL 5
REMARK VINA RESULT:    -3.430      2.368      3.115
REMARK INTER + INTRA:          -5.483
REMARK INTER:                  -4.971
REMARK INTRA:                  -0.511
REMARK UNBOUND:                -0.448
REMARK SMILES O=C([O-])CCCCCCCC(=O)[O-]
REMARK SMILES IDX 7 1 6 2 5 3 4 4 2 5 1 6 3 7 8 8 9 9 10 10 11 11 12 12 13 13
REMARK H PARENT
REMARK Flexibility Score: inf
ROOT
ATOM      1  C   UNL     1      41.978  12.009  15.930  1.00  0.00     0.000 C 
ENDROOT
BRANCH   1   2
ATOM      2  C   UNL     1      40.832  11.775  14.933  1.00  0.00     0.000 C 
BRANCH   2   3
ATOM      3  C   UNL     1      41.218  12.139  13.491  1.00  0.00     0.006 C 
BRANCH   3   4
ATOM      4  C   UNL     1      39.987  12.153  12.582  1.00  0.00     0.053 C 
BRANCH   4   5
ATOM      5  C   UNL     1      39.993  10.966  11.672  1.00  0.00     0.041 C 
ATOM      6  O   UNL     1      38.912  10.523  11.202  1.00  0.00    -0.550 OA
ATOM      7  O   UNL     1      41.197  10.379  11.302  1.00  0.00    -0.550 OA
ENDBRANCH   4   5
ENDBRANCH   3   4
ENDBRANCH   2   3
ENDBRANCH   1   2
BRANCH   1   8
ATOM      8  C   UNL     1      41.585  12.959  17.071  1.00  0.00     0.000 C 
BRANCH   8   9
ATOM      9  C   UNL     1      40.218  13.602  16.804  1.00  0.00     0.006 C 
BRANCH   9  10
ATOM     10  C   UNL     1      40.209  15.073  17.230  1.00  0.00     0.053 C 
BRANCH  10  11
ATOM     11  C   UNL     1      40.597  15.953  16.085  1.00  0.00     0.041 C 
ATOM     12  O   UNL     1      40.594  15.501  14.910  1.00  0.00    -0.550 OA
ATOM     13  O   UNL     1      41.010  17.258  16.320  1.00  0.00    -0.550 OA
ENDBRANCH  10  11
ENDBRANCH   9  10
ENDBRANCH   8   9
ENDBRANCH   1   8
TORSDOF 8
ENDMDL
MODEL 6
REMARK VINA RESULT:    -3.387      2.224      6.308
REMARK INTER + INTRA:          -5.419
REMARK INTER:                  -4.918
REMARK INTRA:                  -0.501
REMARK UNBOUND:                -0.448
REMARK SMILES O=C([O-])CCCCCCCC(=O)[O-]
REMARK SMILES IDX 7 1 6 2 5 3 4 4 2 5 1 6 3 7 8 8 9 9 10 10 11 11 12 12 13 13
REMARK H PARENT
REMARK Flexibility Score: inf
ROOT
ATOM      1  C   UNL     1      41.345  12.092  14.356  1.00  0.00     0.000 C 
ENDROOT
BRANCH   1   2
ATOM      2  C   UNL     1      41.528  12.684  15.762  1.00  0.00     0.000 C 
BRANCH   2   3
ATOM      3  C   UNL     1      40.231  13.287  16.324  1.00  0.00     0.006 C 
BRANCH   3   4
ATOM      4  C   UNL     1      40.502  14.634  17.000  1.00  0.00     0.053 C 
BRANCH   4   5
ATOM      5  C   UNL     1      40.128  15.762  16.091  1.00  0.00     0.041 C 
ATOM      6  O   UNL     1      39.126  15.661  15.335  1.00  0.00    -0.550 OA
ATOM      7  O   UNL     1      40.856  16.944  16.115  1.00  0.00    -0.550 OA
ENDBRANCH   4   5
ENDBRANCH   3   4
ENDBRANCH   2   3
ENDBRANCH   1   2
BRANCH   1   8
ATOM      8  C   UNL     1      40.444  12.956  13.462  1.00  0.00     0.000 C 
BRANCH   8   9
ATOM      9  C   UNL     1      39.816  12.117  12.342  1.00  0.00     0.006 C 
BRANCH   9  10
ATOM     10  C   UNL     1      39.756  10.637  12.730  1.00  0.00     0.053 C 
BRANCH  10  11
ATOM     11  C   UNL     1      40.504   9.804  11.738  1.00  0.00     0.041 C 
ATOM     12  O   UNL     1      41.507  10.278  11.141  1.00  0.00    -0.550 OA
ATOM     13  O   UNL     1      40.065   8.522  11.435  1.00  0.00    -0.550 OA
ENDBRANCH  10  11
ENDBRANCH   9  10
ENDBRANCH   8   9
ENDBRANCH   1   8
TORSDOF 8
ENDMDL
MODEL 7
REMARK VINA RESULT:    -3.383      1.985      3.007
REMARK INTER + INTRA:          -5.413
REMARK INTER:                  -4.628
REMARK INTRA:                  -0.785
REMARK UNBOUND:                -0.448
REMARK SMILES O=C([O-])CCCCCCCC(=O)[O-]
REMARK SMILES IDX 7 1 6 2 5 3 4 4 2 5 1 6 3 7 8 8 9 9 10 10 11 11 12 12 13 13
REMARK H PARENT
REMARK Flexibility Score: inf
ROOT
ATOM      1  C   UNL     1      38.797   9.665  14.584  1.00  0.00     0.000 C 
ENDROOT
BRANCH   1   2
ATOM      2  C   UNL     1      38.596   8.456  13.656  1.00  0.00     0.000 C 
BRANCH   2   3
ATOM      3  C   UNL     1      38.733   8.820  12.170  1.00  0.00     0.006 C 
BRANCH   3   4
ATOM      4  C   UNL     1      40.184   8.676  11.703  1.00  0.00     0.053 C 
BRANCH   4   5
ATOM      5  C   UNL     1      40.775  10.017  11.401  1.00  0.00     0.041 C 
ATOM      6  O   UNL     1      41.973  10.263  11.701  1.00  0.00    -0.550 OA
ATOM      7  O   UNL     1      40.017  10.978  10.744  1.00  0.00    -0.550 OA
ENDBRANCH   4   5
ENDBRANCH   3   4
ENDBRANCH   2   3
ENDBRANCH   1   2
BRANCH   1   8
ATOM      8  C   UNL     1      38.181  10.954  14.019  1.00  0.00     0.000 C 
BRANCH   8   9
ATOM      9  C   UNL     1      39.204  12.097  14.022  1.00  0.00     0.006 C 
BRANCH   9  10
ATOM     10  C   UNL     1      40.500  11.675  14.720  1.00  0.00     0.053 C 
BRANCH  10  11
ATOM     11  C   UNL     1      41.214  12.870  15.267  1.00  0.00     0.041 C 
ATOM     12  O   UNL     1      42.161  12.722  16.084  1.00  0.00    -0.550 OA
ATOM     13  O   UNL     1      40.802  14.148  14.915  1.00  0.00    -0.550 OA
ENDBRANCH  10  11
ENDBRANCH   9  10
ENDBRANCH   8   9
ENDBRANCH   1   8
TORSDOF 8
ENDMDL
MODEL 8
REMARK VINA RESULT:    -3.372      2.484      5.703
REMARK INTER + INTRA:          -5.398
REMARK INTER:                  -4.649
REMARK INTRA:                  -0.749
REMARK UNBOUND:                -0.448
REMARK SMILES O=C([O-])CCCCCCCC(=O)[O-]
REMARK SMILES IDX 7 1 6 2 5 3 4 4 2 5 1 6 3 7 8 8 9 9 10 10 11 11 12 12 13 13
REMARK H PARENT
REMARK Flexibility Score: inf
ROOT
ATOM      1  C   UNL     1      38.603  12.839  15.291  1.00  0.00     0.000 C 
ENDROOT
BRANCH   1   2
ATOM      2  C   UNL     1      39.515  13.294  16.441  1.00  0.00     0.000 C 
BRANCH   2   3
ATOM      3  C   UNL     1      40.877  13.807  15.950  1.00  0.00     0.006 C 
BRANCH   3   4
ATOM      4  C   UNL     1      40.701  14.869  14.861  1.00  0.00     0.053 C 
BRANCH   4   5
ATOM      5  C   UNL     1      40.136  16.127  15.442  1.00  0.00     0.041 C 
ATOM      6  O   UNL     1      40.852  16.868  16.166  1.00  0.00    -0.550 OA
ATOM      7  O   UNL     1      38.834  16.507  15.142  1.00  0.00    -0.550 OA
ENDBRANCH   4   5
ENDBRANCH   3   4
ENDBRANCH   2   3
ENDBRANCH   1   2
BRANCH   1   8
ATOM      8  C   UNL     1      38.875  11.392  14.856  1.00  0.00     0.000 C 
BRANCH   8   9
ATOM      9  C   UNL     1      38.724  11.237  13.337  1.00  0.00     0.006 C 
BRANCH   9  10
ATOM     10  C   UNL     1      39.795  12.041  12.594  1.00  0.00     0.053 C 
BRANCH  10  11
ATOM     11  C   UNL     1      41.092  11.298  12.581  1.00  0.00     0.041 C 
ATOM     12  O   UNL     1      42.031  11.649  13.344  1.00  0.00    -0.550 OA
ATOM     13  O   UNL     1      41.285  10.250  11.691  1.00  0.00    -0.550 OA
ENDBRANCH  10  11
ENDBRANCH   9  10
ENDBRANCH   8   9
ENDBRANCH   1   8
TORSDOF 8
ENDMDL
MODEL 9
REMARK VINA RESULT:    -3.224      2.167      2.823
REMARK INTER + INTRA:          -5.180
REMARK INTER:                  -4.826
REMARK INTRA:                  -0.354
REMARK UNBOUND:                -0.448
REMARK SMILES O=C([O-])CCCCCCCC(=O)[O-]
REMARK SMILES IDX 7 1 6 2 5 3 4 4 2 5 1 6 3 7 8 8 9 9 10 10 11 11 12 12 13 13
REMARK H PARENT
REMARK Flexibility Score: inf
ROOT
ATOM      1  C   UNL     1      40.960  12.082  14.029  1.00  0.00     0.000 C 
ENDROOT
BRANCH   1   2
ATOM      2  C   UNL     1      39.901  12.290  12.935  1.00  0.00     0.000 C 
BRANCH   2   3
ATOM      3  C   UNL     1      40.083  11.336  11.744  1.00  0.00     0.006 C 
BRANCH   3   4
ATOM      4  C   UNL     1      38.975  10.281  11.714  1.00  0.00     0.053 C 
BRANCH   4   5
ATOM      5  C   UNL     1      39.445   9.007  12.344  1.00  0.00     0.041 C 
ATOM      6  O   UNL     1      40.264   8.266  11.738  1.00  0.00    -0.550 OA
ATOM      7  O   UNL     1      39.019   8.664  13.620  1.00  0.00    -0.550 OA
ENDBRANCH   4   5
ENDBRANCH   3   4
ENDBRANCH   2   3
ENDBRANCH   1   2
BRANCH   1   8
ATOM      8  C   UNL     1      40.818  13.079  15.189  1.00  0.00     0.000 C 
BRANCH   8   9
ATOM      9  C   UNL     1      40.872  14.525  14.679  1.00  0.00     0.006 C 
BRANCH   9  10
ATOM     10  C   UNL     1      39.835  15.399  15.391  1.00  0.00     0.053 C 
BRANCH  10  11
ATOM     11  C   UNL     1      40.458  16.113  16.548  1.00  0.00     0.041 C 
ATOM     12  O   UNL     1      40.924  17.274  16.399  1.00  0.00    -0.550 OA
ATOM     13  O   UNL     1      40.568  15.480  17.779  1.00  0.00    -0.550 OA
ENDBRANCH  10  11
ENDBRANCH   9  10
ENDBRANCH   8   9
ENDBRANCH   1   8
TORSDOF 8
ENDMDL
