MODEL 1
REMARK VINA RESULT:    -3.906      0.000      0.000
REMARK INTER + INTRA:          -5.688
REMARK INTER:                  -5.277
REMARK INTRA:                  -0.412
REMARK UNBOUND:                -0.412
REMARK SMILES CCCCCCCC(=O)[O-]
REMARK SMILES IDX 5 1 6 2 7 3 8 4 9 5 10 6 4 7 3 8 2 9 1 10
REMARK H PARENT
REMARK Flexibility Score: inf
ROOT
ATOM      1  C   UNL     1     -20.083 -30.148  18.955  1.00  0.00     0.000 C 
ENDROOT
BRANCH   1   2
ATOM      2  C   UNL     1     -18.803 -30.381  18.133  1.00  0.00     0.006 C 
BRANCH   2   3
ATOM      3  C   UNL     1     -17.979 -29.104  17.884  1.00  0.00     0.053 C 
BRANCH   3   4
ATOM      4  C   UNL     1     -17.766 -28.299  19.129  1.00  0.00     0.041 C 
ATOM      5  O   UNL     1     -17.042 -28.746  20.058  1.00  0.00    -0.550 OA
ATOM      6  O   UNL     1     -18.341 -27.041  19.252  1.00  0.00    -0.550 OA
ENDBRANCH   3   4
ENDBRANCH   2   3
ENDBRANCH   1   2
BRANCH   1   7
ATOM      7  C   UNL     1     -20.257 -31.159  20.098  1.00  0.00     0.000 C 
BRANCH   7   8
ATOM      8  C   UNL     1     -18.919 -31.824  20.452  1.00  0.00    -0.000 C 
BRANCH   8   9
ATOM      9  C   UNL     1     -18.979 -33.357  20.364  1.00  0.00    -0.003 C 
ATOM     10  C   UNL     1     -17.666 -34.026  20.773  1.00  0.00     0.004 C 
ENDBRANCH   8   9
ENDBRANCH   7   8
ENDBRANCH   1   7
TORSDOF 6
ENDMDL
MODEL 2
REMARK VINA RESULT:    -3.835      1.023      1.392
REMARK INTER + INTRA:          -5.591
REMARK INTER:                  -5.095
REMARK INTRA:                  -0.497
REMARK UNBOUND:                -0.412
REMARK SMILES CCCCCCCC(=O)[O-]
REMARK SMILES IDX 5 1 6 2 7 3 8 4 9 5 10 6 4 7 3 8 2 9 1 10
REMARK H PARENT
REMARK Flexibility Score: inf
ROOT
ATOM      1  C   UNL     1     -20.048 -31.151  20.018  1.00  0.00     0.000 C 
ENDROOT
BRANCH   1   2
ATOM      2  C   UNL     1     -19.957 -30.120  18.878  1.00  0.00     0.006 C 
BRANCH   2   3
ATOM      3  C   UNL     1     -18.517 -29.807  18.432  1.00  0.00     0.053 C 
BRANCH   3   4
ATOM      4  C   UNL     1     -17.879 -28.725  19.249  1.00  0.00     0.041 C 
ATOM      5  O   UNL     1     -16.910 -28.990  20.007  1.00  0.00    -0.550 OA
ATOM      6  O   UNL     1     -18.335 -27.417  19.148  1.00  0.00    -0.550 OA
ENDBRANCH   3   4
ENDBRANCH   2   3
ENDBRANCH   1   2
BRANCH   1   7
ATOM      7  C   UNL     1     -19.641 -32.566  19.583  1.00  0.00     0.000 C 
BRANCH   7   8
ATOM      8  C   UNL     1     -18.593 -33.155  20.540  1.00  0.00    -0.000 C 
BRANCH   8   9
ATOM      9  C   UNL     1     -18.106 -32.136  21.582  1.00  0.00    -0.003 C 
ATOM     10  C   UNL     1     -16.599 -32.218  21.830  1.00  0.00     0.004 C 
ENDBRANCH   8   9
ENDBRANCH   7   8
ENDBRANCH   1   7
TORSDOF 6
ENDMDL
MODEL 3
REMARK VINA RESULT:    -3.794      1.044      1.454
REMARK INTER + INTRA:          -5.536
REMARK INTER:                  -4.971
REMARK INTRA:                  -0.565
REMARK UNBOUND:                -0.412
REMARK SMILES CCCCCCCC(=O)[O-]
REMARK SMILES IDX 5 1 6 2 7 3 8 4 9 5 10 6 4 7 3 8 2 9 1 10
REMARK H PARENT
REMARK Flexibility Score: inf
ROOT
ATOM      1  C   UNL     1     -20.285 -31.177  19.992  1.00  0.00     0.000 C 
ENDROOT
BRANCH   1   2
ATOM      2  C   UNL     1     -19.985 -30.085  18.949  1.00  0.00     0.006 C 
BRANCH   2   3
ATOM      3  C   UNL     1     -18.512 -30.032  18.506  1.00  0.00     0.053 C 
BRANCH   3   4
ATOM      4  C   UNL     1     -17.625 -29.371  19.517  1.00  0.00     0.041 C 
ATOM      5  O   UNL     1     -16.961 -30.067  20.330  1.00  0.00    -0.550 OA
ATOM      6  O   UNL     1     -17.507 -27.988  19.541  1.00  0.00    -0.550 OA
ENDBRANCH   3   4
ENDBRANCH   2   3
ENDBRANCH   1   2
BRANCH   1   7
ATOM      7  C   UNL     1     -19.660 -32.534  19.638  1.00  0.00     0.000 C 
BRANCH   7   8
ATOM      8  C   UNL     1     -18.806 -33.065  20.799  1.00  0.00    -0.000 C 
BRANCH   8   9
ATOM      9  C   UNL     1     -17.551 -33.809  20.316  1.00  0.00    -0.003 C 
ATOM     10  C   UNL     1     -17.357 -33.722  18.802  1.00  0.00     0.004 C 
ENDBRANCH   8   9
ENDBRANCH   7   8
ENDBRANCH   1   7
TORSDOF 6
ENDMDL
MODEL 4
REMARK VINA RESULT:    -3.776      2.411      4.591
REMARK INTER + INTRA:          -5.513
REMARK INTER:                  -5.193
REMARK INTRA:                  -0.320
REMARK UNBOUND:                -0.412
REMARK SMILES CCCCCCCC(=O)[O-]
REMARK SMILES IDX 5 1 6 2 7 3 8 4 9 5 10 6 4 7 3 8 2 9 1 10
REMARK H PARENT
REMARK Flexibility Score: inf
ROOT
ATOM      1  C   UNL     1     -20.017 -30.165  18.904  1.00  0.00     0.000 C 
ENDROOT
BRANCH   1   2
ATOM      2  C   UNL     1     -20.154 -31.162  20.069  1.00  0.00     0.006 C 
BRANCH   2   3
ATOM      3  C   UNL     1     -19.661 -32.582  19.738  1.00  0.00     0.053 C 
BRANCH   3   4
ATOM      4  C   UNL     1     -18.551 -33.035  20.637  1.00  0.00     0.041 C 
ATOM      5  O   UNL     1     -17.849 -34.033  20.326  1.00  0.00    -0.550 OA
ATOM      6  O   UNL     1     -18.273 -32.336  21.804  1.00  0.00    -0.550 OA
ENDBRANCH   3   4
ENDBRANCH   2   3
ENDBRANCH   1   2
BRANCH   1   7
ATOM      7  C   UNL     1     -18.560 -29.945  18.469  1.00  0.00     0.000 C 
BRANCH   7   8
ATOM      8  C   UNL     1     -17.690 -29.513  19.658  1.00  0.00    -0.000 C 
BRANCH   8   9
ATOM      9  C   UNL     1     -17.161 -28.078  19.512  1.00  0.00    -0.003 C 
ATOM     10  C   UNL     1     -18.253 -27.080  19.128  1.00  0.00     0.004 C 
ENDBRANCH   8   9
ENDBRANCH   7   8
ENDBRANCH   1   7
TORSDOF 6
ENDMDL
MODEL 5
REMARK VINA RESULT:    -3.754      2.349      4.272
REMARK INTER + INTRA:          -5.482
REMARK INTER:                  -4.913
REMARK INTRA:                  -0.569
REMARK UNBOUND:                -0.412
REMARK SMILES CCCCCCCC(=O)[O-]
REMARK SMILES IDX 5 1 6 2 7 3 8 4 9 5 10 6 4 7 3 8 2 9 1 10
REMARK H PARENT
REMARK Flexibility Score: inf
ROOT
ATOM      1  C   UNL     1     -19.692 -32.674  19.571  1.00  0.00     0.000 C 
ENDROOT
BRANCH   1   2
ATOM      2  C   UNL     1     -18.691 -33.419  20.472  1.00  0.00     0.006 C 
BRANCH   2   3
ATOM      3  C   UNL     1     -18.078 -32.546  21.582  1.00  0.00     0.053 C 
BRANCH   3   4
ATOM      4  C   UNL     1     -16.579 -32.555  21.567  1.00  0.00     0.041 C 
ATOM      5  O   UNL     1     -15.954 -32.283  20.509  1.00  0.00    -0.550 OA
ATOM      6  O   UNL     1     -15.874 -32.834  22.730  1.00  0.00    -0.550 OA
ENDBRANCH   3   4
ENDBRANCH   2   3
ENDBRANCH   1   2
BRANCH   1   7
ATOM      7  C   UNL     1     -20.035 -31.269  20.088  1.00  0.00     0.000 C 
BRANCH   7   8
ATOM      8  C   UNL     1     -19.952 -30.232  18.958  1.00  0.00    -0.000 C 
BRANCH   8   9
ATOM      9  C   UNL     1     -18.512 -29.997  18.476  1.00  0.00    -0.003 C 
ATOM     10  C   UNL     1     -17.624 -29.366  19.550  1.00  0.00     0.004 C 
ENDBRANCH   8   9
ENDBRANCH   7   8
ENDBRANCH   1   7
TORSDOF 6
ENDMDL
MODEL 6
REMARK VINA RESULT:    -3.738      1.599      2.517
REMARK INTER + INTRA:          -5.462
REMARK INTER:                  -4.772
REMARK INTRA:                  -0.690
REMARK UNBOUND:                -0.412
REMARK SMILES CCCCCCCC(=O)[O-]
REMARK SMILES IDX 5 1 6 2 7 3 8 4 9 5 10 6 4 7 3 8 2 9 1 10
REMARK H PARENT
REMARK Flexibility Score: inf
ROOT
ATOM      1  C   UNL     1     -19.617 -32.827  19.609  1.00  0.00     0.000 C 
ENDROOT
BRANCH   1   2
ATOM      2  C   UNL     1     -20.004 -31.407  20.057  1.00  0.00     0.006 C 
BRANCH   2   3
ATOM      3  C   UNL     1     -19.738 -30.323  18.996  1.00  0.00     0.053 C 
BRANCH   3   4
ATOM      4  C   UNL     1     -18.283 -29.995  18.853  1.00  0.00     0.041 C 
ATOM      5  O   UNL     1     -17.686 -29.348  19.754  1.00  0.00    -0.550 OA
ATOM      6  O   UNL     1     -17.578 -30.433  17.740  1.00  0.00    -0.550 OA
ENDBRANCH   3   4
ENDBRANCH   2   3
ENDBRANCH   1   2
BRANCH   1   7
ATOM      7  C   UNL     1     -18.496 -33.442  20.461  1.00  0.00     0.000 C 
BRANCH   7   8
ATOM      8  C   UNL     1     -18.189 -32.564  21.682  1.00  0.00    -0.000 C 
BRANCH   8   9
ATOM      9  C   UNL     1     -16.713 -32.142  21.750  1.00  0.00    -0.003 C 
ATOM     10  C   UNL     1     -15.943 -32.475  20.472  1.00  0.00     0.004 C 
ENDBRANCH   8   9
ENDBRANCH   7   8
ENDBRANCH   1   7
TORSDOF 6
ENDMDL
MODEL 7
REMARK VINA RESULT:    -3.673      2.090      3.108
REMARK INTER + INTRA:          -5.373
REMARK INTER:                  -4.747
REMARK INTRA:                  -0.626
REMARK UNBOUND:                -0.412
REMARK SMILES CCCCCCCC(=O)[O-]
REMARK SMILES IDX 5 1 6 2 7 3 8 4 9 5 10 6 4 7 3 8 2 9 1 10
REMARK H PARENT
REMARK Flexibility Score: inf
ROOT
ATOM      1  C   UNL     1     -19.687 -32.922  19.752  1.00  0.00     0.000 C 
ENDROOT
BRANCH   1   2
ATOM      2  C   UNL     1     -19.745 -31.439  20.162  1.00  0.00     0.006 C 
BRANCH   2   3
ATOM      3  C   UNL     1     -19.880 -30.467  18.975  1.00  0.00     0.053 C 
BRANCH   3   4
ATOM      4  C   UNL     1     -18.592 -29.781  18.638  1.00  0.00     0.041 C 
ATOM      5  O   UNL     1     -18.128 -28.892  19.399  1.00  0.00    -0.550 OA
ATOM      6  O   UNL     1     -17.886 -30.146  17.499  1.00  0.00    -0.550 OA
ENDBRANCH   3   4
ENDBRANCH   2   3
ENDBRANCH   1   2
BRANCH   1   7
ATOM      7  C   UNL     1     -18.259 -33.413  19.471  1.00  0.00     0.000 C 
BRANCH   7   8
ATOM      8  C   UNL     1     -18.038 -33.628  17.966  1.00  0.00    -0.000 C 
BRANCH   8   9
ATOM      9  C   UNL     1     -19.351 -33.870  17.205  1.00  0.00    -0.003 C 
ATOM     10  C   UNL     1     -19.468 -33.017  15.941  1.00  0.00     0.004 C 
ENDBRANCH   8   9
ENDBRANCH   7   8
ENDBRANCH   1   7
TORSDOF 6
ENDMDL
MODEL 8
REMARK VINA RESULT:    -3.596      2.821      4.273
REMARK INTER + INTRA:          -5.269
REMARK INTER:                  -4.668
REMARK INTRA:                  -0.600
REMARK UNBOUND:                -0.412
REMARK SMILES CCCCCCCC(=O)[O-]
REMARK SMILES IDX 5 1 6 2 7 3 8 4 9 5 10 6 4 7 3 8 2 9 1 10
REMARK H PARENT
REMARK Flexibility Score: inf
ROOT
ATOM      1  C   UNL     1     -19.995 -30.050  18.914  1.00  0.00     0.000 C 
ENDROOT
BRANCH   1   2
ATOM      2  C   UNL     1     -20.345 -31.093  19.990  1.00  0.00     0.006 C 
BRANCH   2   3
ATOM      3  C   UNL     1     -19.122 -31.824  20.574  1.00  0.00     0.053 C 
BRANCH   3   4
ATOM      4  C   UNL     1     -18.896 -33.167  19.951  1.00  0.00     0.041 C 
ATOM      5  O   UNL     1     -19.630 -33.561  19.007  1.00  0.00    -0.550 OA
ATOM      6  O   UNL     1     -17.855 -33.973  20.393  1.00  0.00    -0.550 OA
ENDBRANCH   3   4
ENDBRANCH   2   3
ENDBRANCH   1   2
BRANCH   1   7
ATOM      7  C   UNL     1     -18.579 -29.477  19.070  1.00  0.00     0.000 C 
BRANCH   7   8
ATOM      8  C   UNL     1     -17.818 -29.520  17.737  1.00  0.00    -0.000 C 
BRANCH   8   9
ATOM      9  C   UNL     1     -17.277 -30.920  17.410  1.00  0.00    -0.003 C 
ATOM     10  C   UNL     1     -16.097 -31.321  18.297  1.00  0.00     0.004 C 
ENDBRANCH   8   9
ENDBRANCH   7   8
ENDBRANCH   1   7
TORSDOF 6
ENDMDL
MODEL 9
REMARK VINA RESULT:    -3.530      2.815      4.247
REMARK INTER + INTRA:          -5.180
REMARK INTER:                  -4.525
REMARK INTRA:                  -0.656
REMARK UNBOUND:                -0.412
REMARK SMILES CCCCCCCC(=O)[O-]
REMARK SMILES IDX 5 1 6 2 7 3 8 4 9 5 10 6 4 7 3 8 2 9 1 10
REMARK H PARENT
REMARK Flexibility Score: inf
ROOT
ATOM      1  C   UNL     1     -19.991 -30.388  19.176  1.00  0.00     0.000 C 
ENDROOT
BRANCH   1   2
ATOM      2  C   UNL     1     -19.630 -31.442  20.238  1.00  0.00     0.006 C 
BRANCH   2   3
ATOM      3  C   UNL     1     -19.773 -32.895  19.750  1.00  0.00     0.053 C 
BRANCH   3   4
ATOM      4  C   UNL     1     -18.821 -33.232  18.643  1.00  0.00     0.041 C 
ATOM      5  O   UNL     1     -17.598 -33.406  18.888  1.00  0.00    -0.550 OA
ATOM      6  O   UNL     1     -19.290 -33.385  17.345  1.00  0.00    -0.550 OA
ENDBRANCH   3   4
ENDBRANCH   2   3
ENDBRANCH   1   2
BRANCH   1   7
ATOM      7  C   UNL     1     -18.827 -29.442  18.847  1.00  0.00     0.000 C 
BRANCH   7   8
ATOM      8  C   UNL     1     -17.612 -29.733  19.740  1.00  0.00    -0.000 C 
BRANCH   8   9
ATOM      9  C   UNL     1     -16.329 -29.980  18.931  1.00  0.00    -0.003 C 
ATOM     10  C   UNL     1     -16.610 -30.353  17.475  1.00  0.00     0.004 C 
ENDBRANCH   8   9
ENDBRANCH   7   8
ENDBRANCH   1   7
TORSDOF 6
ENDMDL
