MODEL 1
REMARK VINA RESULT:    -3.787      0.000      0.000
REMARK INTER + INTRA:          -5.865
REMARK INTER:                  -5.116
REMARK INTRA:                  -0.749
REMARK UNBOUND:                -0.749
REMARK SMILES CCCCCCC=CC(=O)[O-]
REMARK SMILES IDX 5 1 6 2 7 3 8 4 9 5 10 6 11 7 4 8 3 9 2 10 1 11
REMARK H PARENT
REMARK Flexibility Score: inf
ROOT
ATOM      1  C   UNL     1      37.590  33.488  36.023  1.00  0.00     0.004 C 
ENDROOT
BRANCH   1   2
ATOM      2  C   UNL     1      36.217  34.167  35.953  1.00  0.00     0.027 C 
BRANCH   2   3
ATOM      3  C   UNL     1      36.308  35.514  35.295  1.00  0.00    -0.025 C 
ATOM      4  C   UNL     1      35.379  35.935  34.433  1.00  0.00     0.020 C 
BRANCH   4   5
ATOM      5  C   UNL     1      35.463  37.246  33.772  1.00  0.00     0.064 C 
ATOM      6  O   UNL     1      35.432  37.312  32.515  1.00  0.00    -0.545 OA
ATOM      7  O   UNL     1      35.575  38.417  34.514  1.00  0.00    -0.545 OA
ENDBRANCH   4   5
ENDBRANCH   2   3
ENDBRANCH   1   2
BRANCH   1   8
ATOM      8  C   UNL     1      38.343  33.632  34.692  1.00  0.00     0.000 C 
BRANCH   8   9
ATOM      9  C   UNL     1      37.991  32.525  33.682  1.00  0.00    -0.000 C 
BRANCH   9  10
ATOM     10  C   UNL     1      37.172  32.994  32.467  1.00  0.00    -0.003 C 
ATOM     11  C   UNL     1      37.621  34.352  31.929  1.00  0.00     0.004 C 
ENDBRANCH   9  10
ENDBRANCH   8   9
ENDBRANCH   1   8
TORSDOF 6
ENDMDL
MODEL 2
REMARK VINA RESULT:    -3.683      2.871      4.409
REMARK INTER + INTRA:          -5.724
REMARK INTER:                  -5.005
REMARK INTRA:                  -0.720
REMARK UNBOUND:                -0.749
REMARK SMILES CCCCCCC=CC(=O)[O-]
REMARK SMILES IDX 5 1 6 2 7 3 8 4 9 5 10 6 11 7 4 8 3 9 2 10 1 11
REMARK H PARENT
REMARK Flexibility Score: inf
ROOT
ATOM      1  C   UNL     1      35.720  34.621  36.145  1.00  0.00     0.004 C 
ENDROOT
BRANCH   1   2
ATOM      2  C   UNL     1      37.077  33.918  36.026  1.00  0.00     0.027 C 
BRANCH   2   3
ATOM      3  C   UNL     1      37.153  33.091  34.776  1.00  0.00    -0.025 C 
ATOM      4  C   UNL     1      38.267  33.039  34.038  1.00  0.00     0.020 C 
BRANCH   4   5
ATOM      5  C   UNL     1      38.350  32.243  32.805  1.00  0.00     0.064 C 
ATOM      6  O   UNL     1      38.182  30.996  32.856  1.00  0.00    -0.545 OA
ATOM      7  O   UNL     1      38.610  32.847  31.579  1.00  0.00    -0.545 OA
ENDBRANCH   4   5
ENDBRANCH   2   3
ENDBRANCH   1   2
BRANCH   1   8
ATOM      8  C   UNL     1      35.282  35.205  34.794  1.00  0.00     0.000 C 
BRANCH   8   9
ATOM      9  C   UNL     1      35.787  36.642  34.569  1.00  0.00    -0.000 C 
BRANCH   9  10
ATOM     10  C   UNL     1      36.594  36.850  33.276  1.00  0.00    -0.003 C 
ATOM     11  C   UNL     1      36.400  35.725  32.261  1.00  0.00     0.004 C 
ENDBRANCH   9  10
ENDBRANCH   8   9
ENDBRANCH   1   8
TORSDOF 6
ENDMDL
MODEL 3
REMARK VINA RESULT:    -3.487      9.841     10.703
REMARK INTER + INTRA:          -5.460
REMARK INTER:                  -4.948
REMARK INTRA:                  -0.512
REMARK UNBOUND:                -0.749
REMARK SMILES CCCCCCC=CC(=O)[O-]
REMARK SMILES IDX 5 1 6 2 7 3 8 4 9 5 10 6 11 7 4 8 3 9 2 10 1 11
REMARK H PARENT
REMARK Flexibility Score: inf
ROOT
ATOM      1  C   UNL     1      30.738  27.158  36.224  1.00  0.00     0.004 C 
ENDROOT
BRANCH   1   2
ATOM      2  C   UNL     1      30.466  28.602  36.664  1.00  0.00     0.027 C 
BRANCH   2   3
ATOM      3  C   UNL     1      29.598  29.319  35.671  1.00  0.00    -0.025 C 
ATOM      4  C   UNL     1      28.590  30.104  36.063  1.00  0.00     0.020 C 
BRANCH   4   5
ATOM      5  C   UNL     1      27.723  30.801  35.101  1.00  0.00     0.064 C 
ATOM      6  O   UNL     1      26.605  30.307  34.799  1.00  0.00    -0.545 OA
ATOM      7  O   UNL     1      28.118  32.001  34.521  1.00  0.00    -0.545 OA
ENDBRANCH   4   5
ENDBRANCH   2   3
ENDBRANCH   1   2
BRANCH   1   8
ATOM      8  C   UNL     1      29.962  26.162  37.098  1.00  0.00     0.000 C 
BRANCH   8   9
ATOM      9  C   UNL     1      29.297  26.825  38.318  1.00  0.00    -0.000 C 
BRANCH   9  10
ATOM     10  C   UNL     1      27.804  27.155  38.143  1.00  0.00    -0.003 C 
ATOM     11  C   UNL     1      27.195  26.528  36.890  1.00  0.00     0.004 C 
ENDBRANCH   9  10
ENDBRANCH   8   9
ENDBRANCH   1   8
TORSDOF 6
ENDMDL
MODEL 4
REMARK VINA RESULT:    -3.463     11.049     12.014
REMARK INTER + INTRA:          -5.426
REMARK INTER:                  -4.691
REMARK INTRA:                  -0.735
REMARK UNBOUND:                -0.749
REMARK SMILES CCCCCCC=CC(=O)[O-]
REMARK SMILES IDX 5 1 6 2 7 3 8 4 9 5 10 6 11 7 4 8 3 9 2 10 1 11
REMARK H PARENT
REMARK Flexibility Score: inf
ROOT
ATOM      1  C   UNL     1      28.760  27.930  37.615  1.00  0.00     0.004 C 
ENDROOT
BRANCH   1   2
ATOM      2  C   UNL     1      29.388  26.711  38.302  1.00  0.00     0.027 C 
BRANCH   2   3
ATOM      3  C   UNL     1      30.011  25.783  37.302  1.00  0.00    -0.025 C 
ATOM      4  C   UNL     1      29.266  25.023  36.493  1.00  0.00     0.020 C 
BRANCH   4   5
ATOM      5  C   UNL     1      29.865  24.099  35.518  1.00  0.00     0.064 C 
ATOM      6  O   UNL     1      31.040  23.683  35.695  1.00  0.00    -0.545 OA
ATOM      7  O   UNL     1      29.150  23.674  34.403  1.00  0.00    -0.545 OA
ENDBRANCH   4   5
ENDBRANCH   2   3
ENDBRANCH   1   2
BRANCH   1   8
ATOM      8  C   UNL     1      29.841  28.824  36.988  1.00  0.00     0.000 C 
BRANCH   8   9
ATOM      9  C   UNL     1      29.450  29.350  35.595  1.00  0.00    -0.000 C 
BRANCH   9  10
ATOM     10  C   UNL     1      28.967  28.272  34.609  1.00  0.00    -0.003 C 
ATOM     11  C   UNL     1      30.113  27.525  33.928  1.00  0.00     0.004 C 
ENDBRANCH   9  10
ENDBRANCH   8   9
ENDBRANCH   1   8
TORSDOF 6
ENDMDL
MODEL 5
REMARK VINA RESULT:    -3.457      2.160      3.593
REMARK INTER + INTRA:          -5.419
REMARK INTER:                  -5.202
REMARK INTRA:                  -0.217
REMARK UNBOUND:                -0.749
REMARK SMILES CCCCCCC=CC(=O)[O-]
REMARK SMILES IDX 5 1 6 2 7 3 8 4 9 5 10 6 11 7 4 8 3 9 2 10 1 11
REMARK H PARENT
REMARK Flexibility Score: inf
ROOT
ATOM      1  C   UNL     1      35.140  35.838  33.937  1.00  0.00     0.004 C 
ENDROOT
BRANCH   1   2
ATOM      2  C   UNL     1      34.997  37.288  33.459  1.00  0.00     0.027 C 
BRANCH   2   3
ATOM      3  C   UNL     1      36.220  38.093  33.790  1.00  0.00    -0.025 C 
ATOM      4  C   UNL     1      37.233  38.214  32.926  1.00  0.00     0.020 C 
BRANCH   4   5
ATOM      5  C   UNL     1      38.442  38.988  33.243  1.00  0.00     0.064 C 
ATOM      6  O   UNL     1      39.574  38.526  32.940  1.00  0.00    -0.545 OA
ATOM      7  O   UNL     1      38.356  40.226  33.871  1.00  0.00    -0.545 OA
ENDBRANCH   4   5
ENDBRANCH   2   3
ENDBRANCH   1   2
BRANCH   1   8
ATOM      8  C   UNL     1      36.185  35.729  35.057  1.00  0.00     0.000 C 
BRANCH   8   9
ATOM      9  C   UNL     1      35.921  34.550  36.011  1.00  0.00    -0.000 C 
BRANCH   9  10
ATOM     10  C   UNL     1      37.071  33.534  36.119  1.00  0.00    -0.003 C 
ATOM     11  C   UNL     1      38.032  33.589  34.933  1.00  0.00     0.004 C 
ENDBRANCH   9  10
ENDBRANCH   8   9
ENDBRANCH   1   8
TORSDOF 6
ENDMDL
MODEL 6
REMARK VINA RESULT:    -3.453      9.892     10.773
REMARK INTER + INTRA:          -5.414
REMARK INTER:                  -4.664
REMARK INTRA:                  -0.750
REMARK UNBOUND:                -0.749
REMARK SMILES CCCCCCC=CC(=O)[O-]
REMARK SMILES IDX 5 1 6 2 7 3 8 4 9 5 10 6 11 7 4 8 3 9 2 10 1 11
REMARK H PARENT
REMARK Flexibility Score: inf
ROOT
ATOM      1  C   UNL     1      30.833  27.275  36.207  1.00  0.00     0.004 C 
ENDROOT
BRANCH   1   2
ATOM      2  C   UNL     1      30.357  27.312  34.750  1.00  0.00     0.027 C 
BRANCH   2   3
ATOM      3  C   UNL     1      29.253  28.311  34.563  1.00  0.00    -0.025 C 
ATOM      4  C   UNL     1      29.286  29.509  35.154  1.00  0.00     0.020 C 
BRANCH   4   5
ATOM      5  C   UNL     1      28.204  30.492  34.990  1.00  0.00     0.064 C 
ATOM      6  O   UNL     1      28.487  31.712  34.862  1.00  0.00    -0.545 OA
ATOM      7  O   UNL     1      26.872  30.093  34.972  1.00  0.00    -0.545 OA
ENDBRANCH   4   5
ENDBRANCH   2   3
ENDBRANCH   1   2
BRANCH   1   8
ATOM      8  C   UNL     1      30.106  26.176  36.995  1.00  0.00     0.000 C 
BRANCH   8   9
ATOM      9  C   UNL     1      29.402  26.708  38.257  1.00  0.00    -0.000 C 
BRANCH   9  10
ATOM     10  C   UNL     1      28.054  27.404  38.002  1.00  0.00    -0.003 C 
ATOM     11  C   UNL     1      27.142  26.615  37.063  1.00  0.00     0.004 C 
ENDBRANCH   9  10
ENDBRANCH   8   9
ENDBRANCH   1   8
TORSDOF 6
ENDMDL
MODEL 7
REMARK VINA RESULT:    -3.379     11.316     12.139
REMARK INTER + INTRA:          -5.313
REMARK INTER:                  -4.676
REMARK INTRA:                  -0.637
REMARK UNBOUND:                -0.749
REMARK SMILES CCCCCCC=CC(=O)[O-]
REMARK SMILES IDX 5 1 6 2 7 3 8 4 9 5 10 6 11 7 4 8 3 9 2 10 1 11
REMARK H PARENT
REMARK Flexibility Score: inf
ROOT
ATOM      1  C   UNL     1      30.026  26.266  37.033  1.00  0.00     0.004 C 
ENDROOT
BRANCH   1   2
ATOM      2  C   UNL     1      29.225  26.888  38.183  1.00  0.00     0.027 C 
BRANCH   2   3
ATOM      3  C   UNL     1      27.756  26.904  37.877  1.00  0.00    -0.025 C 
ATOM      4  C   UNL     1      27.281  26.474  36.704  1.00  0.00     0.020 C 
BRANCH   4   5
ATOM      5  C   UNL     1      25.846  26.497  36.386  1.00  0.00     0.064 C 
ATOM      6  O   UNL     1      25.370  27.460  35.728  1.00  0.00    -0.545 OA
ATOM      7  O   UNL     1      25.005  25.470  36.798  1.00  0.00    -0.545 OA
ENDBRANCH   4   5
ENDBRANCH   2   3
ENDBRANCH   1   2
BRANCH   1   8
ATOM      8  C   UNL     1      30.900  27.322  36.339  1.00  0.00     0.000 C 
BRANCH   8   9
ATOM      9  C   UNL     1      30.348  28.751  36.490  1.00  0.00    -0.000 C 
BRANCH   9  10
ATOM     10  C   UNL     1      29.416  29.208  35.354  1.00  0.00    -0.003 C 
ATOM     11  C   UNL     1      28.291  30.123  35.834  1.00  0.00     0.004 C 
ENDBRANCH   9  10
ENDBRANCH   8   9
ENDBRANCH   1   8
TORSDOF 6
ENDMDL
MODEL 8
REMARK VINA RESULT:    -3.377      1.272      2.863
REMARK INTER + INTRA:          -5.311
REMARK INTER:                  -4.602
REMARK INTRA:                  -0.709
REMARK UNBOUND:                -0.749
REMARK SMILES CCCCCCC=CC(=O)[O-]
REMARK SMILES IDX 5 1 6 2 7 3 8 4 9 5 10 6 11 7 4 8 3 9 2 10 1 11
REMARK H PARENT
REMARK Flexibility Score: inf
ROOT
ATOM      1  C   UNL     1      38.132  33.975  32.609  1.00  0.00     0.004 C 
ENDROOT
BRANCH   1   2
ATOM      2  C   UNL     1      36.809  34.366  31.940  1.00  0.00     0.027 C 
BRANCH   2   3
ATOM      3  C   UNL     1      36.326  35.701  32.427  1.00  0.00    -0.025 C 
ATOM      4  C   UNL     1      37.160  36.587  32.980  1.00  0.00     0.020 C 
BRANCH   4   5
ATOM      5  C   UNL     1      36.698  37.893  33.474  1.00  0.00     0.064 C 
ATOM      6  O   UNL     1      37.455  38.895  33.384  1.00  0.00    -0.545 OA
ATOM      7  O   UNL     1      35.435  38.040  34.037  1.00  0.00    -0.545 OA
ENDBRANCH   4   5
ENDBRANCH   2   3
ENDBRANCH   1   2
BRANCH   1   8
ATOM      8  C   UNL     1      37.893  32.995  33.767  1.00  0.00     0.000 C 
BRANCH   8   9
ATOM      9  C   UNL     1      38.180  33.617  35.147  1.00  0.00    -0.000 C 
BRANCH   9  10
ATOM     10  C   UNL     1      37.012  33.540  36.146  1.00  0.00    -0.003 C 
ATOM     11  C   UNL     1      35.990  34.660  35.961  1.00  0.00     0.004 C 
ENDBRANCH   9  10
ENDBRANCH   8   9
ENDBRANCH   1   8
TORSDOF 6
ENDMDL
MODEL 9
REMARK VINA RESULT:    -3.375      1.664      2.626
REMARK INTER + INTRA:          -5.308
REMARK INTER:                  -4.643
REMARK INTRA:                  -0.665
REMARK UNBOUND:                -0.749
REMARK SMILES CCCCCCC=CC(=O)[O-]
REMARK SMILES IDX 5 1 6 2 7 3 8 4 9 5 10 6 11 7 4 8 3 9 2 10 1 11
REMARK H PARENT
REMARK Flexibility Score: inf
ROOT
ATOM      1  C   UNL     1      35.190  34.994  35.607  1.00  0.00     0.004 C 
ENDROOT
BRANCH   1   2
ATOM      2  C   UNL     1      35.088  35.674  34.236  1.00  0.00     0.027 C 
BRANCH   2   3
ATOM      3  C   UNL     1      36.089  36.784  34.103  1.00  0.00    -0.025 C 
ATOM      4  C   UNL     1      36.619  37.110  32.921  1.00  0.00     0.020 C 
BRANCH   4   5
ATOM      5  C   UNL     1      37.611  38.186  32.778  1.00  0.00     0.064 C 
ATOM      6  O   UNL     1      37.580  39.168  33.566  1.00  0.00    -0.545 OA
ATOM      7  O   UNL     1      38.586  38.135  31.788  1.00  0.00    -0.545 OA
ENDBRANCH   4   5
ENDBRANCH   2   3
ENDBRANCH   1   2
BRANCH   1   8
ATOM      8  C   UNL     1      36.645  34.623  35.930  1.00  0.00     0.000 C 
BRANCH   8   9
ATOM      9  C   UNL     1      37.009  33.191  35.499  1.00  0.00    -0.000 C 
BRANCH   9  10
ATOM     10  C   UNL     1      37.911  33.098  34.257  1.00  0.00    -0.003 C 
ATOM     11  C   UNL     1      38.932  34.232  34.171  1.00  0.00     0.004 C 
ENDBRANCH   9  10
ENDBRANCH   8   9
ENDBRANCH   1   8
TORSDOF 6
ENDMDL
