MODEL 1
REMARK VINA RESULT:    -3.252      0.000      0.000
REMARK INTER + INTRA:          -3.922
REMARK INTER:                  -3.918
REMARK INTRA:                  -0.004
REMARK UNBOUND:                -0.004
REMARK SMILES OCC(O)CO
REMARK SMILES IDX 3 1 5 2 6 3 2 5 1 6 4 8
REMARK H PARENT 6 4 1 7 4 9
REMARK Flexibility Score: inf
ROOT
ATOM      1  C   UNL     1      30.762  12.693  25.777  1.00  0.00     0.165 C 
ENDROOT
BRANCH   1   2
ATOM      2  C   UNL     1      29.318  12.584  25.255  1.00  0.00     0.190 C 
BRANCH   2   3
ATOM      3  O   UNL     1      28.959  11.245  25.044  1.00  0.00    -0.394 OA
ATOM      4  H   UNL     1      28.831  11.136  24.066  1.00  0.00     0.210 HD
ENDBRANCH   2   3
ENDBRANCH   1   2
BRANCH   1   5
ATOM      5  C   UNL     1      30.865  13.607  27.007  1.00  0.00     0.190 C 
BRANCH   5   6
ATOM      6  O   UNL     1      31.319  12.894  28.127  1.00  0.00    -0.394 OA
ATOM      7  H   UNL     1      32.273  13.138  28.258  1.00  0.00     0.210 HD
ENDBRANCH   5   6
ENDBRANCH   1   5
BRANCH   1   8
ATOM      8  O   UNL     1      31.247  11.418  26.108  1.00  0.00    -0.388 OA
ATOM      9  H   UNL     1      30.907  11.208  27.016  1.00  0.00     0.211 HD
ENDBRANCH   1   8
TORSDOF 5
ENDMDL
MODEL 2
REMARK VINA RESULT:    -3.151      1.164      3.077
REMARK INTER + INTRA:          -3.800
REMARK INTER:                  -3.600
REMARK INTRA:                  -0.200
REMARK UNBOUND:                -0.004
REMARK SMILES OCC(O)CO
REMARK SMILES IDX 3 1 5 2 6 3 2 5 1 6 4 8
REMARK H PARENT 6 4 1 7 4 9
REMARK Flexibility Score: inf
ROOT
ATOM      1  C   UNL     1      30.824  13.664  26.397  1.00  0.00     0.165 C 
ENDROOT
BRANCH   1   2
ATOM      2  C   UNL     1      31.917  13.373  27.442  1.00  0.00     0.190 C 
BRANCH   2   3
ATOM      3  O   UNL     1      31.356  12.927  28.646  1.00  0.00    -0.394 OA
ATOM      4  H   UNL     1      30.561  13.497  28.817  1.00  0.00     0.210 HD
ENDBRANCH   2   3
ENDBRANCH   1   2
BRANCH   1   5
ATOM      5  C   UNL     1      30.387  12.397  25.647  1.00  0.00     0.190 C 
BRANCH   5   6
ATOM      6  O   UNL     1      31.184  11.299  26.008  1.00  0.00    -0.394 OA
ATOM      7  H   UNL     1      31.789  11.119  25.242  1.00  0.00     0.210 HD
ENDBRANCH   5   6
ENDBRANCH   1   5
BRANCH   1   8
ATOM      8  O   UNL     1      29.707  14.237  27.025  1.00  0.00    -0.388 OA
ATOM      9  H   UNL     1      29.346  14.921  26.402  1.00  0.00     0.211 HD
ENDBRANCH   1   8
TORSDOF 5
ENDMDL
MODEL 3
REMARK VINA RESULT:    -3.135      1.510      2.200
REMARK INTER + INTRA:          -3.781
REMARK INTER:                  -3.581
REMARK INTRA:                  -0.200
REMARK UNBOUND:                -0.004
REMARK SMILES OCC(O)CO
REMARK SMILES IDX 3 1 5 2 6 3 2 5 1 6 4 8
REMARK H PARENT 6 4 1 7 4 9
REMARK Flexibility Score: inf
ROOT
ATOM      1  C   UNL     1      31.564  13.259  27.250  1.00  0.00     0.165 C 
ENDROOT
BRANCH   1   2
ATOM      2  C   UNL     1      31.276  12.015  26.389  1.00  0.00     0.190 C 
BRANCH   2   3
ATOM      3  O   UNL     1      30.646  12.369  25.188  1.00  0.00    -0.394 OA
ATOM      4  H   UNL     1      29.739  11.965  25.213  1.00  0.00     0.210 HD
ENDBRANCH   2   3
ENDBRANCH   1   2
BRANCH   1   5
ATOM      5  C   UNL     1      30.668  14.447  26.868  1.00  0.00     0.190 C 
BRANCH   5   6
ATOM      6  O   UNL     1      29.313  14.083  26.891  1.00  0.00    -0.394 OA
ATOM      7  H   UNL     1      28.847  14.741  27.471  1.00  0.00     0.210 HD
ENDBRANCH   5   6
ENDBRANCH   1   5
BRANCH   1   8
ATOM      8  O   UNL     1      31.371  12.953  28.606  1.00  0.00    -0.388 OA
ATOM      9  H   UNL     1      30.744  12.184  28.642  1.00  0.00     0.211 HD
ENDBRANCH   1   8
TORSDOF 5
ENDMDL
MODEL 4
REMARK VINA RESULT:    -3.097     12.383     13.057
REMARK INTER + INTRA:          -3.735
REMARK INTER:                  -3.713
REMARK INTRA:                  -0.022
REMARK UNBOUND:                -0.004
REMARK SMILES OCC(O)CO
REMARK SMILES IDX 3 1 5 2 6 3 2 5 1 6 4 8
REMARK H PARENT 6 4 1 7 4 9
REMARK Flexibility Score: inf
ROOT
ATOM      1  C   UNL     1      30.908  25.101  25.377  1.00  0.00     0.165 C 
ENDROOT
BRANCH   1   2
ATOM      2  C   UNL     1      30.121  25.228  24.059  1.00  0.00     0.190 C 
BRANCH   2   3
ATOM      3  O   UNL     1      29.988  26.571  23.680  1.00  0.00    -0.394 OA
ATOM      4  H   UNL     1      29.962  27.102  24.518  1.00  0.00     0.210 HD
ENDBRANCH   2   3
ENDBRANCH   1   2
BRANCH   1   5
ATOM      5  C   UNL     1      32.125  24.175  25.236  1.00  0.00     0.190 C 
BRANCH   5   6
ATOM      6  O   UNL     1      32.076  23.459  24.030  1.00  0.00    -0.394 OA
ATOM      7  H   UNL     1      32.703  22.695  24.123  1.00  0.00     0.210 HD
ENDBRANCH   5   6
ENDBRANCH   1   5
BRANCH   1   8
ATOM      8  O   UNL     1      31.339  26.369  25.797  1.00  0.00    -0.388 OA
ATOM      9  H   UNL     1      31.550  26.888  24.978  1.00  0.00     0.211 HD
ENDBRANCH   1   8
TORSDOF 5
ENDMDL
MODEL 5
REMARK VINA RESULT:    -3.087      1.252      1.593
REMARK INTER + INTRA:          -3.723
REMARK INTER:                  -3.513
REMARK INTRA:                  -0.210
REMARK UNBOUND:                -0.004
REMARK SMILES OCC(O)CO
REMARK SMILES IDX 3 1 5 2 6 3 2 5 1 6 4 8
REMARK H PARENT 6 4 1 7 4 9
REMARK Flexibility Score: inf
ROOT
ATOM      1  C   UNL     1      31.235  12.795  26.048  1.00  0.00     0.165 C 
ENDROOT
BRANCH   1   2
ATOM      2  C   UNL     1      29.806  13.339  25.869  1.00  0.00     0.190 C 
BRANCH   2   3
ATOM      3  O   UNL     1      29.441  14.161  26.945  1.00  0.00    -0.394 OA
ATOM      4  H   UNL     1      29.007  13.573  27.617  1.00  0.00     0.210 HD
ENDBRANCH   2   3
ENDBRANCH   1   2
BRANCH   1   5
ATOM      5  C   UNL     1      31.913  13.354  27.308  1.00  0.00     0.190 C 
BRANCH   5   6
ATOM      6  O   UNL     1      31.356  12.796  28.468  1.00  0.00    -0.394 OA
ATOM      7  H   UNL     1      30.427  12.529  28.243  1.00  0.00     0.210 HD
ENDBRANCH   5   6
ENDBRANCH   1   5
BRANCH   1   8
ATOM      8  O   UNL     1      31.205  11.394  26.123  1.00  0.00    -0.388 OA
ATOM      9  H   UNL     1      31.282  11.054  25.194  1.00  0.00     0.211 HD
ENDBRANCH   1   8
TORSDOF 5
ENDMDL
MODEL 6
REMARK VINA RESULT:    -3.060      1.386      1.971
REMARK INTER + INTRA:          -3.690
REMARK INTER:                  -3.487
REMARK INTRA:                  -0.203
REMARK UNBOUND:                -0.004
REMARK SMILES OCC(O)CO
REMARK SMILES IDX 3 1 5 2 6 3 2 5 1 6 4 8
REMARK H PARENT 6 4 1 7 4 9
REMARK Flexibility Score: inf
ROOT
ATOM      1  C   UNL     1      30.398  13.722  26.662  1.00  0.00     0.165 C 
ENDROOT
BRANCH   1   2
ATOM      2  C   UNL     1      30.310  12.591  25.621  1.00  0.00     0.190 C 
BRANCH   2   3
ATOM      3  O   UNL     1      31.120  11.507  25.985  1.00  0.00    -0.394 OA
ATOM      4  H   UNL     1      30.784  10.720  25.482  1.00  0.00     0.210 HD
ENDBRANCH   2   3
ENDBRANCH   1   2
BRANCH   1   5
ATOM      5  C   UNL     1      31.661  13.613  27.530  1.00  0.00     0.190 C 
BRANCH   5   6
ATOM      6  O   UNL     1      31.392  12.927  28.724  1.00  0.00    -0.394 OA
ATOM      7  H   UNL     1      31.101  12.013  28.473  1.00  0.00     0.210 HD
ENDBRANCH   5   6
ENDBRANCH   1   5
BRANCH   1   8
ATOM      8  O   UNL     1      30.390  14.967  26.014  1.00  0.00    -0.388 OA
ATOM      9  H   UNL     1      29.461  15.314  26.068  1.00  0.00     0.211 HD
ENDBRANCH   1   8
TORSDOF 5
ENDMDL
MODEL 7
REMARK VINA RESULT:    -3.026     12.404     13.179
REMARK INTER + INTRA:          -3.649
REMARK INTER:                  -3.500
REMARK INTRA:                  -0.149
REMARK UNBOUND:                -0.004
REMARK SMILES OCC(O)CO
REMARK SMILES IDX 3 1 5 2 6 3 2 5 1 6 4 8
REMARK H PARENT 6 4 1 7 4 9
REMARK Flexibility Score: inf
ROOT
ATOM      1  C   UNL     1      30.524  24.962  24.258  1.00  0.00     0.165 C 
ENDROOT
BRANCH   1   2
ATOM      2  C   UNL     1      31.436  25.334  25.441  1.00  0.00     0.190 C 
BRANCH   2   3
ATOM      3  O   UNL     1      31.187  26.642  25.877  1.00  0.00    -0.394 OA
ATOM      4  H   UNL     1      31.744  27.241  25.313  1.00  0.00     0.210 HD
ENDBRANCH   2   3
ENDBRANCH   1   2
BRANCH   1   5
ATOM      5  C   UNL     1      29.384  24.023  24.680  1.00  0.00     0.190 C 
BRANCH   5   6
ATOM      6  O   UNL     1      28.983  24.279  26.000  1.00  0.00    -0.394 OA
ATOM      7  H   UNL     1      28.261  24.959  25.955  1.00  0.00     0.210 HD
ENDBRANCH   5   6
ENDBRANCH   1   5
BRANCH   1   8
ATOM      8  O   UNL     1      29.977  26.126  23.695  1.00  0.00    -0.388 OA
ATOM      9  H   UNL     1      29.521  25.853  22.857  1.00  0.00     0.211 HD
ENDBRANCH   1   8
TORSDOF 5
ENDMDL
MODEL 8
REMARK VINA RESULT:    -2.999      1.410      3.021
REMARK INTER + INTRA:          -3.617
REMARK INTER:                  -3.614
REMARK INTRA:                  -0.003
REMARK UNBOUND:                -0.004
REMARK SMILES OCC(O)CO
REMARK SMILES IDX 3 1 5 2 6 3 2 5 1 6 4 8
REMARK H PARENT 6 4 1 7 4 9
REMARK Flexibility Score: inf
ROOT
ATOM      1  C   UNL     1      30.707  12.862  26.325  1.00  0.00     0.165 C 
ENDROOT
BRANCH   1   2
ATOM      2  C   UNL     1      31.811  13.215  27.339  1.00  0.00     0.190 C 
BRANCH   2   3
ATOM      3  O   UNL     1      31.390  12.959  28.651  1.00  0.00    -0.394 OA
ATOM      4  H   UNL     1      31.819  13.644  29.226  1.00  0.00     0.210 HD
ENDBRANCH   2   3
ENDBRANCH   1   2
BRANCH   1   5
ATOM      5  C   UNL     1      30.641  13.870  25.168  1.00  0.00     0.190 C 
BRANCH   5   6
ATOM      6  O   UNL     1      30.850  13.233  23.935  1.00  0.00    -0.394 OA
ATOM      7  H   UNL     1      30.244  12.448  23.909  1.00  0.00     0.210 HD
ENDBRANCH   5   6
ENDBRANCH   1   5
BRANCH   1   8
ATOM      8  O   UNL     1      30.930  11.578  25.806  1.00  0.00    -0.388 OA
ATOM      9  H   UNL     1      30.305  11.463  25.044  1.00  0.00     0.211 HD
ENDBRANCH   1   8
TORSDOF 5
ENDMDL
MODEL 9
REMARK VINA RESULT:    -2.952      2.087      3.189
REMARK INTER + INTRA:          -3.560
REMARK INTER:                  -3.337
REMARK INTRA:                  -0.222
REMARK UNBOUND:                -0.004
REMARK SMILES OCC(O)CO
REMARK SMILES IDX 3 1 5 2 6 3 2 5 1 6 4 8
REMARK H PARENT 6 4 1 7 4 9
REMARK Flexibility Score: inf
ROOT
ATOM      1  C   UNL     1      31.847  13.577  26.524  1.00  0.00     0.165 C 
ENDROOT
BRANCH   1   2
ATOM      2  C   UNL     1      31.984  13.936  28.015  1.00  0.00     0.190 C 
BRANCH   2   3
ATOM      3  O   UNL     1      31.377  12.966  28.825  1.00  0.00    -0.394 OA
ATOM      4  H   UNL     1      31.268  12.155  28.263  1.00  0.00     0.210 HD
ENDBRANCH   2   3
ENDBRANCH   1   2
BRANCH   1   5
ATOM      5  C   UNL     1      30.389  13.304  26.126  1.00  0.00     0.190 C 
BRANCH   5   6
ATOM      6  O   UNL     1      29.503  14.060  26.910  1.00  0.00    -0.394 OA
ATOM      7  H   UNL     1      30.050  14.521  27.599  1.00  0.00     0.210 HD
ENDBRANCH   5   6
ENDBRANCH   1   5
BRANCH   1   8
ATOM      8  O   UNL     1      32.352  14.622  25.735  1.00  0.00    -0.388 OA
ATOM      9  H   UNL     1      33.271  14.811  26.060  1.00  0.00     0.211 HD
ENDBRANCH   1   8
TORSDOF 5
ENDMDL
