MODEL 1
REMARK VINA RESULT:    -5.924      0.000      0.000
REMARK INTER + INTRA:          -7.225
REMARK INTER:                  -6.963
REMARK INTRA:                  -0.263
REMARK UNBOUND:                -0.263
REMARK SMILES O=c1cc(-c2ccc(O)c(O)c2)oc2cc(O)cc(O)c12
REMARK SMILES IDX 4 1 3 2 2 3 1 4 21 5 19 6 18 7 16 8 15 9 14 10 13 11 5 12
REMARK SMILES IDX 6 13 7 14 8 15 12 16 10 17 9 18 11 20 20 22 17 24
REMARK H PARENT 9 19 11 21 20 23 17 25
REMARK Flexibility Score: inf
ROOT
ATOM      1  C   UNL     1      -6.857  -9.838   1.149  1.00  0.00     0.138 A 
ATOM      2  C   UNL     1      -6.204  -8.949   2.013  1.00  0.00     0.100 A 
ATOM      3  C   UNL     1      -6.748  -7.684   2.243  1.00  0.00     0.197 A 
ATOM      4  O   UNL     1      -6.172  -6.932   3.071  1.00  0.00    -0.289 OA
ATOM      5  C   UNL     1      -7.936  -7.298   1.579  1.00  0.00     0.107 A 
ATOM      6  C   UNL     1      -8.559  -6.020   1.704  1.00  0.00     0.134 A 
ATOM      7  C   UNL     1      -9.795  -5.792   1.089  1.00  0.00     0.093 A 
ATOM      8  C   UNL     1     -10.402  -6.773   0.303  1.00  0.00     0.123 A 
ATOM      9  C   UNL     1      -9.776  -8.007   0.129  1.00  0.00     0.094 A 
ATOM     10  C   UNL     1      -8.558  -8.277   0.759  1.00  0.00     0.146 A 
ATOM     11  O   UNL     1      -8.001  -9.470   0.579  1.00  0.00    -0.456 OA
ENDROOT
BRANCH   1  12
ATOM     12  C   UNL     1      -6.323 -11.194   0.868  1.00  0.00     0.021 A 
ATOM     13  C   UNL     1      -5.492 -11.447  -0.241  1.00  0.00     0.016 A 
ATOM     14  C   UNL     1      -5.012 -12.736  -0.486  1.00  0.00     0.051 A 
ATOM     15  C   UNL     1      -5.357 -13.794   0.362  1.00  0.00     0.157 A 
ATOM     16  C   UNL     1      -6.676 -12.265   1.708  1.00  0.00     0.062 A 
ATOM     17  C   UNL     1      -6.196 -13.557   1.464  1.00  0.00     0.158 A 
BRANCH  15  18
ATOM     18  O   UNL     1      -4.875 -15.078   0.114  1.00  0.00    -0.504 OA
ATOM     19  H   UNL     1      -4.758 -15.754   0.860  1.00  0.00     0.293 HD
ENDBRANCH  15  18
BRANCH  17  20
ATOM     20  O   UNL     1      -6.561 -14.590   2.327  1.00  0.00    -0.504 OA
ATOM     21  H   UNL     1      -5.876 -15.199   2.756  1.00  0.00     0.293 HD
ENDBRANCH  17  20
ENDBRANCH   1  12
BRANCH   6  22
ATOM     22  O   UNL     1      -7.998  -4.942   2.395  1.00  0.00    -0.507 OA
ATOM     23  H   UNL     1      -7.116  -4.509   2.169  1.00  0.00     0.293 HD
ENDBRANCH   6  22
BRANCH   8  24
ATOM     24  O   UNL     1     -11.626  -6.504  -0.307  1.00  0.00    -0.508 OA
ATOM     25  H   UNL     1     -12.470  -6.364   0.238  1.00  0.00     0.293 HD
ENDBRANCH   8  24
TORSDOF 5
ENDMDL
MODEL 2
REMARK VINA RESULT:    -5.306      1.278      2.745
REMARK INTER + INTRA:          -6.499
REMARK INTER:                  -6.235
REMARK INTRA:                  -0.264
REMARK UNBOUND:                -0.263
REMARK SMILES O=c1cc(-c2ccc(O)c(O)c2)oc2cc(O)cc(O)c12
REMARK SMILES IDX 4 1 3 2 2 3 1 4 21 5 19 6 18 7 16 8 15 9 14 10 13 11 5 12
REMARK SMILES IDX 6 13 7 14 8 15 12 16 10 17 9 18 11 20 20 22 17 24
REMARK H PARENT 9 19 11 21 20 23 17 25
REMARK Flexibility Score: inf
ROOT
ATOM      1  C   UNL     1      -7.289  -9.439   0.827  1.00  0.00     0.138 A 
ATOM      2  C   UNL     1      -8.590  -9.175   0.378  1.00  0.00     0.100 A 
ATOM      3  C   UNL     1      -9.151  -7.914   0.590  1.00  0.00     0.197 A 
ATOM      4  O   UNL     1     -10.296  -7.687   0.122  1.00  0.00    -0.289 OA
ATOM      5  C   UNL     1      -8.414  -6.924   1.283  1.00  0.00     0.107 A 
ATOM      6  C   UNL     1      -8.899  -5.618   1.593  1.00  0.00     0.134 A 
ATOM      7  C   UNL     1      -8.037  -4.684   2.181  1.00  0.00     0.093 A 
ATOM      8  C   UNL     1      -6.729  -5.026   2.526  1.00  0.00     0.123 A 
ATOM      9  C   UNL     1      -6.262  -6.317   2.277  1.00  0.00     0.094 A 
ATOM     10  C   UNL     1      -7.086  -7.261   1.660  1.00  0.00     0.146 A 
ATOM     11  O   UNL     1      -6.599  -8.475   1.427  1.00  0.00    -0.456 OA
ENDROOT
BRANCH   1  12
ATOM     12  C   UNL     1      -6.645 -10.763   0.629  1.00  0.00     0.021 A 
ATOM     13  C   UNL     1      -5.973 -11.086  -0.566  1.00  0.00     0.016 A 
ATOM     14  C   UNL     1      -5.385 -12.343  -0.729  1.00  0.00     0.051 A 
ATOM     15  C   UNL     1      -5.464 -13.300   0.289  1.00  0.00     0.157 A 
ATOM     16  C   UNL     1      -6.732 -11.734   1.641  1.00  0.00     0.062 A 
ATOM     17  C   UNL     1      -6.143 -12.994   1.480  1.00  0.00     0.158 A 
BRANCH  15  18
ATOM     18  O   UNL     1      -4.875 -14.552   0.123  1.00  0.00    -0.504 OA
ATOM     19  H   UNL     1      -5.009 -15.296   0.798  1.00  0.00     0.293 HD
ENDBRANCH  15  18
BRANCH  17  20
ATOM     20  O   UNL     1      -6.243 -13.925   2.513  1.00  0.00    -0.504 OA
ATOM     21  H   UNL     1      -5.683 -14.769   2.532  1.00  0.00     0.293 HD
ENDBRANCH  17  20
ENDBRANCH   1  12
BRANCH   6  22
ATOM     22  O   UNL     1     -10.214  -5.199   1.369  1.00  0.00    -0.507 OA
ATOM     23  H   UNL     1     -10.873  -4.958   2.093  1.00  0.00     0.293 HD
ENDBRANCH   6  22
BRANCH   8  24
ATOM     24  O   UNL     1      -5.906  -4.075   3.124  1.00  0.00    -0.508 OA
ATOM     25  H   UNL     1      -5.447  -3.354   2.578  1.00  0.00     0.293 HD
ENDBRANCH   8  24
TORSDOF 5
ENDMDL
MODEL 3
REMARK VINA RESULT:    -3.853      2.867      4.444
REMARK INTER + INTRA:          -4.791
REMARK INTER:                  -4.521
REMARK INTRA:                  -0.270
REMARK UNBOUND:                -0.263
REMARK SMILES O=c1cc(-c2ccc(O)c(O)c2)oc2cc(O)cc(O)c12
REMARK SMILES IDX 4 1 3 2 2 3 1 4 21 5 19 6 18 7 16 8 15 9 14 10 13 11 5 12
REMARK SMILES IDX 6 13 7 14 8 15 12 16 10 17 9 18 11 20 20 22 17 24
REMARK H PARENT 9 19 11 21 20 23 17 25
REMARK Flexibility Score: inf
ROOT
ATOM      1  C   UNL     1      -7.229  -5.860   1.597  1.00  0.00     0.138 A 
ATOM      2  C   UNL     1      -6.056  -5.120   1.799  1.00  0.00     0.100 A 
ATOM      3  C   UNL     1      -6.141  -3.789   2.212  1.00  0.00     0.197 A 
ATOM      4  O   UNL     1      -5.071  -3.170   2.445  1.00  0.00    -0.289 OA
ATOM      5  C   UNL     1      -7.410  -3.189   2.392  1.00  0.00     0.107 A 
ATOM      6  C   UNL     1      -7.618  -1.829   2.771  1.00  0.00     0.134 A 
ATOM      7  C   UNL     1      -8.918  -1.378   3.032  1.00  0.00     0.093 A 
ATOM      8  C   UNL     1     -10.020  -2.218   2.870  1.00  0.00     0.123 A 
ATOM      9  C   UNL     1      -9.831  -3.534   2.448  1.00  0.00     0.094 A 
ATOM     10  C   UNL     1      -8.545  -4.024   2.213  1.00  0.00     0.146 A 
ATOM     11  O   UNL     1      -8.407  -5.288   1.826  1.00  0.00    -0.456 OA
ENDROOT
BRANCH   1  12
ATOM     12  C   UNL     1      -7.196  -7.278   1.158  1.00  0.00     0.021 A 
ATOM     13  C   UNL     1      -7.958  -7.731   0.063  1.00  0.00     0.016 A 
ATOM     14  C   UNL     1      -7.915  -9.074  -0.321  1.00  0.00     0.051 A 
ATOM     15  C   UNL     1      -7.121  -9.987   0.381  1.00  0.00     0.157 A 
ATOM     16  C   UNL     1      -6.411  -8.204   1.866  1.00  0.00     0.062 A 
ATOM     17  C   UNL     1      -6.366  -9.549   1.483  1.00  0.00     0.158 A 
BRANCH  15  18
ATOM     18  O   UNL     1      -7.080 -11.325  -0.006  1.00  0.00    -0.504 OA
ATOM     19  H   UNL     1      -7.890 -11.789  -0.401  1.00  0.00     0.293 HD
ENDBRANCH  15  18
BRANCH  17  20
ATOM     20  O   UNL     1      -5.567 -10.434   2.206  1.00  0.00    -0.504 OA
ATOM     21  H   UNL     1      -5.942 -11.272   2.633  1.00  0.00     0.293 HD
ENDBRANCH  17  20
ENDBRANCH   1  12
BRANCH   6  22
ATOM     22  O   UNL     1      -6.596  -0.882   2.879  1.00  0.00    -0.507 OA
ATOM     23  H   UNL     1      -6.261  -0.306   2.121  1.00  0.00     0.293 HD
ENDBRANCH   6  22
BRANCH   8  24
ATOM     24  O   UNL     1     -11.299  -1.729   3.125  1.00  0.00    -0.508 OA
ATOM     25  H   UNL     1     -11.992  -1.650   2.389  1.00  0.00     0.293 HD
ENDBRANCH   8  24
TORSDOF 5
ENDMDL
MODEL 4
REMARK VINA RESULT:    -3.842     20.016     21.437
REMARK INTER + INTRA:          -4.778
REMARK INTER:                  -4.510
REMARK INTRA:                  -0.269
REMARK UNBOUND:                -0.263
REMARK SMILES O=c1cc(-c2ccc(O)c(O)c2)oc2cc(O)cc(O)c12
REMARK SMILES IDX 4 1 3 2 2 3 1 4 21 5 19 6 18 7 16 8 15 9 14 10 13 11 5 12
REMARK SMILES IDX 6 13 7 14 8 15 12 16 10 17 9 18 11 20 20 22 17 24
REMARK H PARENT 9 19 11 21 20 23 17 25
REMARK Flexibility Score: inf
ROOT
ATOM      1  C   UNL     1     -21.047  -5.912 -14.777  1.00  0.00     0.138 A 
ATOM      2  C   UNL     1     -20.749  -5.276 -15.990  1.00  0.00     0.100 A 
ATOM      3  C   UNL     1     -20.599  -3.888 -16.024  1.00  0.00     0.197 A 
ATOM      4  O   UNL     1     -20.271  -3.353 -17.114  1.00  0.00    -0.289 OA
ATOM      5  C   UNL     1     -20.781  -3.133 -14.841  1.00  0.00     0.107 A 
ATOM      6  C   UNL     1     -20.694  -1.710 -14.765  1.00  0.00     0.134 A 
ATOM      7  C   UNL     1     -20.778  -1.081 -13.517  1.00  0.00     0.093 A 
ATOM      8  C   UNL     1     -21.005  -1.814 -12.352  1.00  0.00     0.123 A 
ATOM      9  C   UNL     1     -21.145  -3.200 -12.423  1.00  0.00     0.094 A 
ATOM     10  C   UNL     1     -21.033  -3.861 -13.648  1.00  0.00     0.146 A 
ATOM     11  O   UNL     1     -21.158  -5.184 -13.671  1.00  0.00    -0.456 OA
ENDROOT
BRANCH   1  12
ATOM     12  C   UNL     1     -21.217  -7.384 -14.685  1.00  0.00     0.021 A 
ATOM     13  C   UNL     1     -20.439  -8.165 -13.808  1.00  0.00     0.016 A 
ATOM     14  C   UNL     1     -20.613  -9.550 -13.750  1.00  0.00     0.051 A 
ATOM     15  C   UNL     1     -21.557 -10.181 -14.568  1.00  0.00     0.157 A 
ATOM     16  C   UNL     1     -22.153  -8.026 -15.513  1.00  0.00     0.062 A 
ATOM     17  C   UNL     1     -22.330  -9.414 -15.456  1.00  0.00     0.158 A 
BRANCH  15  18
ATOM     18  O   UNL     1     -21.729 -11.562 -14.506  1.00  0.00    -0.504 OA
ATOM     19  H   UNL     1     -22.374 -12.045 -15.119  1.00  0.00     0.293 HD
ENDBRANCH  15  18
BRANCH  17  20
ATOM     20  O   UNL     1     -23.277 -10.011 -16.287  1.00  0.00    -0.504 OA
ATOM     21  H   UNL     1     -23.601 -10.959 -16.139  1.00  0.00     0.293 HD
ENDBRANCH  17  20
ENDBRANCH   1  12
BRANCH   6  22
ATOM     22  O   UNL     1     -20.553  -0.875 -15.877  1.00  0.00    -0.507 OA
ATOM     23  H   UNL     1     -21.231  -0.190 -16.173  1.00  0.00     0.293 HD
ENDBRANCH   6  22
BRANCH   8  24
ATOM     24  O   UNL     1     -21.098  -1.151 -11.130  1.00  0.00    -0.508 OA
ATOM     25  H   UNL     1     -21.640  -0.300 -11.029  1.00  0.00     0.293 HD
ENDBRANCH   8  24
TORSDOF 5
ENDMDL
MODEL 5
REMARK VINA RESULT:    -3.692     21.278     23.134
REMARK INTER + INTRA:          -4.603
REMARK INTER:                  -4.309
REMARK INTRA:                  -0.294
REMARK UNBOUND:                -0.263
REMARK SMILES O=c1cc(-c2ccc(O)c(O)c2)oc2cc(O)cc(O)c12
REMARK SMILES IDX 4 1 3 2 2 3 1 4 21 5 19 6 18 7 16 8 15 9 14 10 13 11 5 12
REMARK SMILES IDX 6 13 7 14 8 15 12 16 10 17 9 18 11 20 20 22 17 24
REMARK H PARENT 9 19 11 21 20 23 17 25
REMARK Flexibility Score: inf
ROOT
ATOM      1  C   UNL     1     -22.204  -6.883 -16.082  1.00  0.00     0.138 A 
ATOM      2  C   UNL     1     -20.923  -6.863 -15.513  1.00  0.00     0.100 A 
ATOM      3  C   UNL     1     -20.241  -5.651 -15.392  1.00  0.00     0.197 A 
ATOM      4  O   UNL     1     -19.120  -5.655 -14.822  1.00  0.00    -0.289 OA
ATOM      5  C   UNL     1     -20.834  -4.459 -15.871  1.00  0.00     0.107 A 
ATOM      6  C   UNL     1     -20.216  -3.173 -15.838  1.00  0.00     0.134 A 
ATOM      7  C   UNL     1     -20.946  -2.047 -16.236  1.00  0.00     0.093 A 
ATOM      8  C   UNL     1     -22.248  -2.165 -16.722  1.00  0.00     0.123 A 
ATOM      9  C   UNL     1     -22.843  -3.424 -16.809  1.00  0.00     0.094 A 
ATOM     10  C   UNL     1     -22.154  -4.563 -16.388  1.00  0.00     0.146 A 
ATOM     11  O   UNL     1     -22.761  -5.742 -16.474  1.00  0.00    -0.456 OA
ENDROOT
BRANCH   1  12
ATOM     12  C   UNL     1     -22.974  -8.144 -16.235  1.00  0.00     0.021 A 
ATOM     13  C   UNL     1     -24.191  -8.186 -16.942  1.00  0.00     0.016 A 
ATOM     14  C   UNL     1     -24.900  -9.385 -17.062  1.00  0.00     0.051 A 
ATOM     15  C   UNL     1     -24.412 -10.557 -16.473  1.00  0.00     0.157 A 
ATOM     16  C   UNL     1     -22.498  -9.323 -15.636  1.00  0.00     0.062 A 
ATOM     17  C   UNL     1     -23.205 -10.525 -15.754  1.00  0.00     0.158 A 
BRANCH  15  18
ATOM     18  O   UNL     1     -25.121 -11.751 -16.596  1.00  0.00    -0.504 OA
ATOM     19  H   UNL     1     -25.226 -12.217 -17.490  1.00  0.00     0.293 HD
ENDBRANCH  15  18
BRANCH  17  20
ATOM     20  O   UNL     1     -22.694 -11.675 -15.154  1.00  0.00    -0.504 OA
ATOM     21  H   UNL     1     -22.270 -11.658 -14.234  1.00  0.00     0.293 HD
ENDBRANCH  17  20
ENDBRANCH   1  12
BRANCH   6  22
ATOM     22  O   UNL     1     -18.891  -2.953 -15.451  1.00  0.00    -0.507 OA
ATOM     23  H   UNL     1     -18.120  -3.569 -15.660  1.00  0.00     0.293 HD
ENDBRANCH   6  22
BRANCH   8  24
ATOM     24  O   UNL     1     -22.938  -1.023 -17.123  1.00  0.00    -0.508 OA
ATOM     25  H   UNL     1     -22.496  -0.111 -17.126  1.00  0.00     0.293 HD
ENDBRANCH   8  24
TORSDOF 5
ENDMDL
MODEL 6
REMARK VINA RESULT:    -3.547     20.145     22.523
REMARK INTER + INTRA:          -4.432
REMARK INTER:                  -4.169
REMARK INTRA:                  -0.263
REMARK UNBOUND:                -0.263
REMARK SMILES O=c1cc(-c2ccc(O)c(O)c2)oc2cc(O)cc(O)c12
REMARK SMILES IDX 4 1 3 2 2 3 1 4 21 5 19 6 18 7 16 8 15 9 14 10 13 11 5 12
REMARK SMILES IDX 6 13 7 14 8 15 12 16 10 17 9 18 11 20 20 22 17 24
REMARK H PARENT 9 19 11 21 20 23 17 25
REMARK Flexibility Score: inf
ROOT
ATOM      1  C   UNL     1     -21.249  -6.517 -14.638  1.00  0.00     0.138 A 
ATOM      2  C   UNL     1     -20.372  -7.427 -14.032  1.00  0.00     0.100 A 
ATOM      3  C   UNL     1     -20.623  -8.797 -14.128  1.00  0.00     0.197 A 
ATOM      4  O   UNL     1     -19.786  -9.591 -13.627  1.00  0.00    -0.289 OA
ATOM      5  C   UNL     1     -21.777  -9.254 -14.808  1.00  0.00     0.107 A 
ATOM      6  C   UNL     1     -22.156 -10.625 -14.934  1.00  0.00     0.134 A 
ATOM      7  C   UNL     1     -23.257 -10.965 -15.729  1.00  0.00     0.093 A 
ATOM      8  C   UNL     1     -24.027  -9.983 -16.353  1.00  0.00     0.123 A 
ATOM      9  C   UNL     1     -23.697  -8.637 -16.193  1.00  0.00     0.094 A 
ATOM     10  C   UNL     1     -22.585  -8.267 -15.434  1.00  0.00     0.146 A 
ATOM     11  O   UNL     1     -22.295  -6.976 -15.317  1.00  0.00    -0.456 OA
ENDROOT
BRANCH   1  12
ATOM     12  C   UNL     1     -21.029  -5.051 -14.567  1.00  0.00     0.021 A 
ATOM     13  C   UNL     1     -21.876  -4.211 -13.817  1.00  0.00     0.016 A 
ATOM     14  C   UNL     1     -21.652  -2.833 -13.777  1.00  0.00     0.051 A 
ATOM     15  C   UNL     1     -20.587  -2.267 -14.487  1.00  0.00     0.157 A 
ATOM     16  C   UNL     1     -19.970  -4.473 -15.288  1.00  0.00     0.062 A 
ATOM     17  C   UNL     1     -19.743  -3.092 -15.249  1.00  0.00     0.158 A 
BRANCH  15  18
ATOM     18  O   UNL     1     -20.366  -0.892 -14.443  1.00  0.00    -0.504 OA
ATOM     19  H   UNL     1     -19.434  -0.507 -14.344  1.00  0.00     0.293 HD
ENDBRANCH  15  18
BRANCH  17  20
ATOM     20  O   UNL     1     -18.675  -2.560 -15.971  1.00  0.00    -0.504 OA
ATOM     21  H   UNL     1     -18.033  -1.890 -15.566  1.00  0.00     0.293 HD
ENDBRANCH  17  20
ENDBRANCH   1  12
BRANCH   6  22
ATOM     22  O   UNL     1     -21.507 -11.678 -14.283  1.00  0.00    -0.507 OA
ATOM     23  H   UNL     1     -21.391 -11.754 -13.284  1.00  0.00     0.293 HD
ENDBRANCH   6  22
BRANCH   8  24
ATOM     24  O   UNL     1     -25.125 -10.359 -17.125  1.00  0.00    -0.508 OA
ATOM     25  H   UNL     1     -25.011 -10.837 -18.011  1.00  0.00     0.293 HD
ENDBRANCH   8  24
TORSDOF 5
ENDMDL
MODEL 7
REMARK VINA RESULT:    -3.506     20.327     21.530
REMARK INTER + INTRA:          -4.383
REMARK INTER:                  -4.112
REMARK INTRA:                  -0.271
REMARK UNBOUND:                -0.263
REMARK SMILES O=c1cc(-c2ccc(O)c(O)c2)oc2cc(O)cc(O)c12
REMARK SMILES IDX 4 1 3 2 2 3 1 4 21 5 19 6 18 7 16 8 15 9 14 10 13 11 5 12
REMARK SMILES IDX 6 13 7 14 8 15 12 16 10 17 9 18 11 20 20 22 17 24
REMARK H PARENT 9 19 11 21 20 23 17 25
REMARK Flexibility Score: inf
ROOT
ATOM      1  C   UNL     1     -21.102  -5.898 -14.538  1.00  0.00     0.138 A 
ATOM      2  C   UNL     1     -19.970  -5.282 -15.089  1.00  0.00     0.100 A 
ATOM      3  C   UNL     1     -19.870  -3.889 -15.081  1.00  0.00     0.197 A 
ATOM      4  O   UNL     1     -18.816  -3.367 -15.527  1.00  0.00    -0.289 OA
ATOM      5  C   UNL     1     -20.924  -3.111 -14.545  1.00  0.00     0.107 A 
ATOM      6  C   UNL     1     -20.950  -1.684 -14.521  1.00  0.00     0.134 A 
ATOM      7  C   UNL     1     -21.993  -1.025 -13.860  1.00  0.00     0.093 A 
ATOM      8  C   UNL     1     -23.042  -1.737 -13.277  1.00  0.00     0.123 A 
ATOM      9  C   UNL     1     -23.055  -3.130 -13.342  1.00  0.00     0.094 A 
ATOM     10  C   UNL     1     -22.011  -3.819 -13.964  1.00  0.00     0.146 A 
ATOM     11  O   UNL     1     -22.053  -5.147 -13.992  1.00  0.00    -0.456 OA
ENDROOT
BRANCH   1  12
ATOM     12  C   UNL     1     -21.260  -7.375 -14.521  1.00  0.00     0.021 A 
ATOM     13  C   UNL     1     -20.464  -8.194 -13.696  1.00  0.00     0.016 A 
ATOM     14  C   UNL     1     -20.628  -9.582 -13.708  1.00  0.00     0.051 A 
ATOM     15  C   UNL     1     -21.578 -10.176 -14.546  1.00  0.00     0.157 A 
ATOM     16  C   UNL     1     -22.203  -7.980 -15.369  1.00  0.00     0.062 A 
ATOM     17  C   UNL     1     -22.369  -9.370 -15.383  1.00  0.00     0.158 A 
BRANCH  15  18
ATOM     18  O   UNL     1     -21.739 -11.560 -14.555  1.00  0.00    -0.504 OA
ATOM     19  H   UNL     1     -22.167 -12.050 -13.777  1.00  0.00     0.293 HD
ENDBRANCH  15  18
BRANCH  17  20
ATOM     20  O   UNL     1     -23.323  -9.930 -16.232  1.00  0.00    -0.504 OA
ATOM     21  H   UNL     1     -23.126 -10.747 -16.797  1.00  0.00     0.293 HD
ENDBRANCH  17  20
ENDBRANCH   1  12
BRANCH   6  22
ATOM     22  O   UNL     1     -19.997  -0.875 -15.146  1.00  0.00    -0.507 OA
ATOM     23  H   UNL     1     -19.079  -0.677 -14.779  1.00  0.00     0.293 HD
ENDBRANCH   6  22
BRANCH   8  24
ATOM     24  O   UNL     1     -24.071  -1.045 -12.641  1.00  0.00    -0.508 OA
ATOM     25  H   UNL     1     -24.936  -0.824 -13.122  1.00  0.00     0.293 HD
ENDBRANCH   8  24
TORSDOF 5
ENDMDL
MODEL 8
REMARK VINA RESULT:    -3.403     21.553     22.741
REMARK INTER + INTRA:          -4.262
REMARK INTER:                  -3.989
REMARK INTRA:                  -0.273
REMARK UNBOUND:                -0.263
REMARK SMILES O=c1cc(-c2ccc(O)c(O)c2)oc2cc(O)cc(O)c12
REMARK SMILES IDX 4 1 3 2 2 3 1 4 21 5 19 6 18 7 16 8 15 9 14 10 13 11 5 12
REMARK SMILES IDX 6 13 7 14 8 15 12 16 10 17 9 18 11 20 20 22 17 24
REMARK H PARENT 9 19 11 21 20 23 17 25
REMARK Flexibility Score: inf
ROOT
ATOM      1  C   UNL     1     -22.377  -6.892 -15.619  1.00  0.00     0.138 A 
ATOM      2  C   UNL     1     -21.004  -6.612 -15.609  1.00  0.00     0.100 A 
ATOM      3  C   UNL     1     -20.565  -5.322 -15.303  1.00  0.00     0.197 A 
ATOM      4  O   UNL     1     -19.325  -5.117 -15.241  1.00  0.00    -0.289 OA
ATOM      5  C   UNL     1     -21.509  -4.303 -15.035  1.00  0.00     0.107 A 
ATOM      6  C   UNL     1     -21.179  -2.944 -14.752  1.00  0.00     0.134 A 
ATOM      7  C   UNL     1     -22.193  -2.049 -14.389  1.00  0.00     0.093 A 
ATOM      8  C   UNL     1     -23.530  -2.448 -14.358  1.00  0.00     0.123 A 
ATOM      9  C   UNL     1     -23.869  -3.760 -14.686  1.00  0.00     0.094 A 
ATOM     10  C   UNL     1     -22.877  -4.686 -15.019  1.00  0.00     0.146 A 
ATOM     11  O   UNL     1     -23.241  -5.930 -15.311  1.00  0.00    -0.456 OA
ENDROOT
BRANCH   1  12
ATOM     12  C   UNL     1     -22.898  -8.246 -15.938  1.00  0.00     0.021 A 
ATOM     13  C   UNL     1     -23.954  -8.435 -16.851  1.00  0.00     0.016 A 
ATOM     14  C   UNL     1     -24.431  -9.720 -17.125  1.00  0.00     0.051 A 
ATOM     15  C   UNL     1     -23.872 -10.834 -16.488  1.00  0.00     0.157 A 
ATOM     16  C   UNL     1     -22.351  -9.368 -15.293  1.00  0.00     0.062 A 
ATOM     17  C   UNL     1     -22.828 -10.656 -15.566  1.00  0.00     0.158 A 
BRANCH  15  18
ATOM     18  O   UNL     1     -24.351 -12.113 -16.765  1.00  0.00    -0.504 OA
ATOM     19  H   UNL     1     -25.231 -12.258 -17.245  1.00  0.00     0.293 HD
ENDBRANCH  15  18
BRANCH  17  20
ATOM     20  O   UNL     1     -22.251 -11.745 -14.912  1.00  0.00    -0.504 OA
ATOM     21  H   UNL     1     -21.922 -11.685 -13.956  1.00  0.00     0.293 HD
ENDBRANCH  17  20
ENDBRANCH   1  12
BRANCH   6  22
ATOM     22  O   UNL     1     -19.886  -2.420 -14.837  1.00  0.00    -0.507 OA
ATOM     23  H   UNL     1     -19.107  -2.877 -15.286  1.00  0.00     0.293 HD
ENDBRANCH   6  22
BRANCH   8  24
ATOM     24  O   UNL     1     -24.513  -1.526 -14.006  1.00  0.00    -0.508 OA
ATOM     25  H   UNL     1     -25.464  -1.815 -13.806  1.00  0.00     0.293 HD
ENDBRANCH   8  24
TORSDOF 5
ENDMDL
MODEL 9
REMARK VINA RESULT:    -3.312     22.270     23.753
REMARK INTER + INTRA:          -4.155
REMARK INTER:                  -3.871
REMARK INTRA:                  -0.284
REMARK UNBOUND:                -0.263
REMARK SMILES O=c1cc(-c2ccc(O)c(O)c2)oc2cc(O)cc(O)c12
REMARK SMILES IDX 4 1 3 2 2 3 1 4 21 5 19 6 18 7 16 8 15 9 14 10 13 11 5 12
REMARK SMILES IDX 6 13 7 14 8 15 12 16 10 17 9 18 11 20 20 22 17 24
REMARK H PARENT 9 19 11 21 20 23 17 25
REMARK Flexibility Score: inf
ROOT
ATOM      1  C   UNL     1     -20.242 -19.118 -15.949  1.00  0.00     0.138 A 
ATOM      2  C   UNL     1     -20.864 -18.018 -16.556  1.00  0.00     0.100 A 
ATOM      3  C   UNL     1     -22.193 -17.721 -16.250  1.00  0.00     0.197 A 
ATOM      4  O   UNL     1     -22.704 -16.692 -16.763  1.00  0.00    -0.289 OA
ATOM      5  C   UNL     1     -22.911 -18.549 -15.355  1.00  0.00     0.107 A 
ATOM      6  C   UNL     1     -24.282 -18.367 -15.002  1.00  0.00     0.134 A 
ATOM      7  C   UNL     1     -24.854 -19.182 -14.017  1.00  0.00     0.093 A 
ATOM      8  C   UNL     1     -24.125 -20.209 -13.417  1.00  0.00     0.123 A 
ATOM      9  C   UNL     1     -22.800 -20.430 -13.795  1.00  0.00     0.094 A 
ATOM     10  C   UNL     1     -22.191 -19.613 -14.749  1.00  0.00     0.146 A 
ATOM     11  O   UNL     1     -20.923 -19.848 -15.071  1.00  0.00    -0.456 OA
ENDROOT
BRANCH   1  12
ATOM     12  C   UNL     1     -18.831 -19.479 -16.238  1.00  0.00     0.021 A 
ATOM     13  C   UNL     1     -18.386 -20.815 -16.197  1.00  0.00     0.016 A 
ATOM     14  C   UNL     1     -17.050 -21.125 -16.463  1.00  0.00     0.051 A 
ATOM     15  C   UNL     1     -16.135 -20.111 -16.767  1.00  0.00     0.157 A 
ATOM     16  C   UNL     1     -17.903 -18.465 -16.530  1.00  0.00     0.062 A 
ATOM     17  C   UNL     1     -16.564 -18.773 -16.798  1.00  0.00     0.158 A 
BRANCH  15  18
ATOM     18  O   UNL     1     -14.803 -20.424 -17.033  1.00  0.00    -0.504 OA
ATOM     19  H   UNL     1     -14.072 -19.725 -16.976  1.00  0.00     0.293 HD
ENDBRANCH  15  18
BRANCH  17  20
ATOM     20  O   UNL     1     -15.677 -17.739 -17.093  1.00  0.00    -0.504 OA
ATOM     21  H   UNL     1     -15.097 -17.308 -16.384  1.00  0.00     0.293 HD
ENDBRANCH  17  20
ENDBRANCH   1  12
BRANCH   6  22
ATOM     22  O   UNL     1     -25.125 -17.426 -15.600  1.00  0.00    -0.507 OA
ATOM     23  H   UNL     1     -24.903 -16.450 -15.724  1.00  0.00     0.293 HD
ENDBRANCH   6  22
BRANCH   8  24
ATOM     24  O   UNL     1     -24.733 -21.009 -12.452  1.00  0.00    -0.508 OA
ATOM     25  H   UNL     1     -25.565 -20.705 -11.960  1.00  0.00     0.293 HD
ENDBRANCH   8  24
TORSDOF 5
ENDMDL
