MODEL 1
REMARK VINA RESULT:    -3.133      0.000      0.000
REMARK INTER + INTRA:          -5.077
REMARK INTER:                  -4.781
REMARK INTRA:                  -0.296
REMARK UNBOUND:                -0.296
REMARK SMILES CC1=CCC[C@H](C)C(=O)C[C@@H](C(C)C)C(=O)C1
REMARK SMILES IDX 8 1 9 2 6 3 7 4 5 5 4 6 3 7 2 8 1 9 10 11 11 12 15 13 16 14
REMARK SMILES IDX 17 15 12 17 13 18 14 19
REMARK H PARENT
REMARK Flexibility Score: 70.00
ROOT
ATOM      1  C   UNL     1     160.440 163.728 196.782  1.00  0.00     0.136 C 
ATOM      2  O   UNL     1     161.534 164.274 196.752  1.00  0.00    -0.299 OA
ENDROOT
BRANCH   1   3
ATOM      3  C   UNL     1     160.407 162.204 196.740  1.00  0.00     0.053 C 
ATOM      4  C   UNL     1     160.987 161.565 195.465  1.00  0.00     0.016 C 
BRANCH   3   5
ATOM      5  C   UNL     1     160.982 161.555 198.032  1.00  0.00     0.015 C 
BRANCH   5   6
ATOM      6  C   UNL     1     159.993 161.356 199.198  1.00  0.00     0.028 C 
BRANCH   6   7
ATOM      7  C   UNL     1     158.673 160.786 198.738  1.00  0.00    -0.028 C 
ATOM      8  C   UNL     1     157.477 161.405 198.858  1.00  0.00    -0.070 CG0
ATOM      9  C   UNL     1     156.255 160.689 198.337  1.00  0.00     0.039 C 
ATOM     10  G   UNL     1     157.309 162.769 199.506  1.00  0.00     0.000 G0
ENDBRANCH   6   7
ENDBRANCH   5   6
ENDBRANCH   3   5
ENDBRANCH   1   3
BRANCH   1  11
ATOM     11  C   UNL     1     159.213 164.615 196.907  1.00  0.00     0.087 C 
BRANCH  11  12
ATOM     12  C   UNL     1     158.669 164.733 198.356  1.00  0.00     0.066 C 
BRANCH  12  13
ATOM     13  C   UNL     1     157.383 163.941 198.549  1.00  0.00     0.140 C 
ATOM     14  O   UNL     1     156.372 164.286 197.954  1.00  0.00    -0.299 OA
BRANCH  13  15
ATOM     15  C   UNL     1     157.289 162.769 199.502  1.00  0.00     0.106 CG0
ATOM     16  G   UNL     1     157.451 161.415 198.831  1.00  0.00     0.000 G0
ENDBRANCH  13  15
ENDBRANCH  12  13
BRANCH  12  17
ATOM     17  C   UNL     1     158.500 166.202 198.853  1.00  0.00    -0.006 C 
ATOM     18  C   UNL     1     158.819 167.273 197.795  1.00  0.00     0.008 C 
ATOM     19  C   UNL     1     159.315 166.469 200.129  1.00  0.00     0.008 C 
ENDBRANCH  12  17
ENDBRANCH  11  12
ENDBRANCH   1  11
TORSDOF 1
ENDMDL
MODEL 2
REMARK VINA RESULT:    -2.844      7.423      9.515
REMARK INTER + INTRA:          -4.636
REMARK INTER:                  -4.344
REMARK INTRA:                  -0.291
REMARK UNBOUND:                -0.296
REMARK SMILES CC1=CCC[C@H](C)C(=O)C[C@@H](C(C)C)C(=O)C1
REMARK SMILES IDX 8 1 9 2 6 3 7 4 5 5 4 6 3 7 2 8 1 9 10 11 11 12 15 13 16 14
REMARK SMILES IDX 17 15 12 17 13 18 14 19
REMARK H PARENT
REMARK Flexibility Score: 70.00
ROOT
ATOM      1  C   UNL     1     152.129 157.427 202.838  1.00  0.00     0.136 C 
ATOM      2  O   UNL     1     151.373 157.597 203.784  1.00  0.00    -0.299 OA
ENDROOT
BRANCH   1   3
ATOM      3  C   UNL     1     152.381 155.995 202.380  1.00  0.00     0.053 C 
ATOM      4  C   UNL     1     152.536 154.958 203.508  1.00  0.00     0.016 C 
BRANCH   3   5
ATOM      5  C   UNL     1     151.375 155.526 201.290  1.00  0.00     0.015 C 
BRANCH   5   6
ATOM      6  C   UNL     1     151.923 155.417 199.853  1.00  0.00     0.028 C 
BRANCH   6   7
ATOM      7  C   UNL     1     153.406 155.688 199.783  1.00  0.00    -0.028 C 
ATOM      8  C   UNL     1     153.966 156.820 199.299  1.00  0.00    -0.070 CG0
ATOM      9  C   UNL     1     155.470 156.926 199.310  1.00  0.00     0.039 C 
ATOM     10  G   UNL     1     153.152 157.971 198.732  1.00  0.00     0.000 G0
ENDBRANCH   6   7
ENDBRANCH   5   6
ENDBRANCH   3   5
ENDBRANCH   1   3
BRANCH   1  11
ATOM     11  C   UNL     1     152.712 158.662 202.171  1.00  0.00     0.087 C 
BRANCH  11  12
ATOM     12  C   UNL     1     151.990 159.065 200.858  1.00  0.00     0.066 C 
BRANCH  12  13
ATOM     13  C   UNL     1     152.949 159.132 199.677  1.00  0.00     0.140 C 
ATOM     14  O   UNL     1     153.558 160.169 199.457  1.00  0.00    -0.299 OA
BRANCH  13  15
ATOM     15  C   UNL     1     153.137 157.974 198.721  1.00  0.00     0.106 CG0
ATOM     16  G   UNL     1     153.949 156.825 199.296  1.00  0.00     0.000 G0
ENDBRANCH  13  15
ENDBRANCH  12  13
BRANCH  12  17
ATOM     17  C   UNL     1     151.152 160.377 200.972  1.00  0.00    -0.006 C 
ATOM     18  C   UNL     1     151.130 160.998 202.379  1.00  0.00     0.008 C 
ATOM     19  C   UNL     1     149.715 160.180 200.464  1.00  0.00     0.008 C 
ENDBRANCH  12  17
ENDBRANCH  11  12
ENDBRANCH   1  11
TORSDOF 1
ENDMDL
MODEL 3
REMARK VINA RESULT:    -2.843      5.956      9.082
REMARK INTER + INTRA:          -4.634
REMARK INTER:                  -4.371
REMARK INTRA:                  -0.263
REMARK UNBOUND:                -0.296
REMARK SMILES CC1=CCC[C@H](C)C(=O)C[C@@H](C(C)C)C(=O)C1
REMARK SMILES IDX 8 1 9 2 6 3 7 4 5 5 4 6 3 7 2 8 1 9 10 11 11 12 15 13 16 14
REMARK SMILES IDX 17 15 12 17 13 18 14 19
REMARK H PARENT
REMARK Flexibility Score: 70.00
ROOT
ATOM      1  C   UNL     1     150.852 160.194 200.272  1.00  0.00     0.136 C 
ATOM      2  O   UNL     1     149.629 160.202 200.286  1.00  0.00    -0.299 OA
ENDROOT
BRANCH   1   3
ATOM      3  C   UNL     1     151.576 160.205 201.613  1.00  0.00     0.053 C 
ATOM      4  C   UNL     1     151.093 161.268 202.617  1.00  0.00     0.016 C 
BRANCH   3   5
ATOM      5  C   UNL     1     151.668 158.792 202.258  1.00  0.00     0.015 C 
BRANCH   5   6
ATOM      6  C   UNL     1     152.910 157.954 201.897  1.00  0.00     0.028 C 
BRANCH   6   7
ATOM      7  C   UNL     1     154.090 158.812 201.515  1.00  0.00    -0.028 C 
ATOM      8  C   UNL     1     154.711 158.788 200.314  1.00  0.00    -0.070 CG0
ATOM      9  C   UNL     1     155.876 159.722 200.100  1.00  0.00     0.039 C 
ATOM     10  G   UNL     1     154.301 157.854 199.187  1.00  0.00     0.000 G0
ENDBRANCH   6   7
ENDBRANCH   5   6
ENDBRANCH   3   5
ENDBRANCH   1   3
BRANCH   1  11
ATOM     11  C   UNL     1     151.540 160.125 198.919  1.00  0.00     0.087 C 
BRANCH  11  12
ATOM     12  C   UNL     1     151.865 158.681 198.454  1.00  0.00     0.066 C 
BRANCH  12  13
ATOM     13  C   UNL     1     153.348 158.495 198.163  1.00  0.00     0.140 C 
ATOM     14  O   UNL     1     153.792 158.830 197.074  1.00  0.00    -0.299 OA
BRANCH  13  15
ATOM     15  C   UNL     1     154.293 157.853 199.155  1.00  0.00     0.106 CG0
ATOM     16  G   UNL     1     154.705 158.769 200.296  1.00  0.00     0.000 G0
ENDBRANCH  13  15
ENDBRANCH  12  13
BRANCH  12  17
ATOM     17  C   UNL     1     150.995 158.190 197.255  1.00  0.00    -0.006 C 
ATOM     18  C   UNL     1     149.518 158.616 197.323  1.00  0.00     0.008 C 
ATOM     19  C   UNL     1     151.092 156.668 197.067  1.00  0.00     0.008 C 
ENDBRANCH  12  17
ENDBRANCH  11  12
ENDBRANCH   1  11
TORSDOF 1
ENDMDL
MODEL 4
REMARK VINA RESULT:    -2.794      2.169      4.212
REMARK INTER + INTRA:          -4.561
REMARK INTER:                  -4.226
REMARK INTRA:                  -0.335
REMARK UNBOUND:                -0.296
REMARK SMILES CC1=CCC[C@H](C)C(=O)C[C@@H](C(C)C)C(=O)C1
REMARK SMILES IDX 8 1 9 2 6 3 7 4 5 5 4 6 3 7 2 8 1 9 10 11 11 12 15 13 16 14
REMARK SMILES IDX 17 15 12 17 13 18 14 19
REMARK H PARENT
REMARK Flexibility Score: 70.00
ROOT
ATOM      1  C   UNL     1     158.242 164.495 196.763  1.00  0.00     0.136 C 
ATOM      2  O   UNL     1     159.438 164.547 196.517  1.00  0.00    -0.299 OA
ENDROOT
BRANCH   1   3
ATOM      3  C   UNL     1     157.725 165.301 197.949  1.00  0.00     0.053 C 
ATOM      4  C   UNL     1     156.193 165.366 198.087  1.00  0.00     0.016 C 
BRANCH   3   5
ATOM      5  C   UNL     1     158.416 164.911 199.288  1.00  0.00     0.015 C 
BRANCH   5   6
ATOM      6  C   UNL     1     158.094 163.510 199.843  1.00  0.00     0.028 C 
BRANCH   6   7
ATOM      7  C   UNL     1     159.254 162.556 199.701  1.00  0.00    -0.028 C 
ATOM      8  C   UNL     1     159.229 161.401 198.998  1.00  0.00    -0.070 CG0
ATOM      9  C   UNL     1     160.487 160.570 198.958  1.00  0.00     0.039 C 
ATOM     10  G   UNL     1     157.993 160.901 198.270  1.00  0.00     0.000 G0
ENDBRANCH   6   7
ENDBRANCH   5   6
ENDBRANCH   3   5
ENDBRANCH   1   3
BRANCH   1  11
ATOM     11  C   UNL     1     157.368 163.667 195.835  1.00  0.00     0.087 C 
BRANCH  11  12
ATOM     12  C   UNL     1     156.746 162.415 196.510  1.00  0.00     0.066 C 
BRANCH  12  13
ATOM     13  C   UNL     1     157.802 161.378 196.868  1.00  0.00     0.140 C 
ATOM     14  O   UNL     1     158.495 160.898 195.983  1.00  0.00    -0.299 OA
BRANCH  13  15
ATOM     15  C   UNL     1     157.988 160.867 198.281  1.00  0.00     0.106 CG0
ATOM     16  G   UNL     1     159.224 161.415 198.976  1.00  0.00     0.000 G0
ENDBRANCH  13  15
ENDBRANCH  12  13
BRANCH  12  17
ATOM     17  C   UNL     1     155.581 161.770 195.698  1.00  0.00    -0.006 C 
ATOM     18  C   UNL     1     154.658 162.781 194.995  1.00  0.00     0.008 C 
ATOM     19  C   UNL     1     154.746 160.813 196.563  1.00  0.00     0.008 C 
ENDBRANCH  12  17
ENDBRANCH  11  12
ENDBRANCH   1  11
TORSDOF 1
ENDMDL
MODEL 5
REMARK VINA RESULT:    -2.729      7.448      8.828
REMARK INTER + INTRA:          -4.461
REMARK INTER:                  -4.351
REMARK INTRA:                  -0.110
REMARK UNBOUND:                -0.296
REMARK SMILES CC1=CCC[C@H](C)C(=O)C[C@@H](C(C)C)C(=O)C1
REMARK SMILES IDX 8 1 9 2 6 3 7 4 5 5 4 6 3 7 2 8 1 9 10 11 11 12 15 13 16 14
REMARK SMILES IDX 17 15 12 17 13 18 14 19
REMARK H PARENT
REMARK Flexibility Score: 70.00
ROOT
ATOM      1  C   UNL     1     150.796 157.854 197.599  1.00  0.00     0.136 C 
ATOM      2  O   UNL     1     149.744 157.657 197.007  1.00  0.00    -0.299 OA
ENDROOT
BRANCH   1   3
ATOM      3  C   UNL     1     152.093 157.663 196.821  1.00  0.00     0.053 C 
ATOM      4  C   UNL     1     152.698 158.945 196.222  1.00  0.00     0.016 C 
BRANCH   3   5
ATOM      5  C   UNL     1     153.147 156.831 197.606  1.00  0.00     0.015 C 
BRANCH   5   6
ATOM      6  C   UNL     1     154.188 157.630 198.415  1.00  0.00     0.028 C 
BRANCH   6   7
ATOM      7  C   UNL     1     154.068 157.390 199.899  1.00  0.00    -0.028 C 
ATOM      8  C   UNL     1     153.708 158.322 200.810  1.00  0.00    -0.070 CG0
ATOM      9  C   UNL     1     153.633 157.906 202.257  1.00  0.00     0.039 C 
ATOM     10  G   UNL     1     153.396 159.764 200.442  1.00  0.00     0.000 G0
ENDBRANCH   6   7
ENDBRANCH   5   6
ENDBRANCH   3   5
ENDBRANCH   1   3
BRANCH   1  11
ATOM     11  C   UNL     1     150.715 158.316 199.044  1.00  0.00     0.087 C 
BRANCH  11  12
ATOM     12  C   UNL     1     151.005 159.829 199.235  1.00  0.00     0.066 C 
BRANCH  12  13
ATOM     13  C   UNL     1     151.897 160.091 200.441  1.00  0.00     0.140 C 
ATOM     14  O   UNL     1     151.421 160.621 201.435  1.00  0.00    -0.299 OA
BRANCH  13  15
ATOM     15  C   UNL     1     153.376 159.771 200.439  1.00  0.00     0.106 CG0
ATOM     16  G   UNL     1     153.696 158.331 200.805  1.00  0.00     0.000 G0
ENDBRANCH  13  15
ENDBRANCH  12  13
BRANCH  12  17
ATOM     17  C   UNL     1     149.725 160.719 199.284  1.00  0.00    -0.006 C 
ATOM     18  C   UNL     1     148.545 160.097 200.051  1.00  0.00     0.008 C 
ATOM     19  C   UNL     1     149.271 161.140 197.877  1.00  0.00     0.008 C 
ENDBRANCH  12  17
ENDBRANCH  11  12
ENDBRANCH   1  11
TORSDOF 1
ENDMDL
MODEL 6
REMARK VINA RESULT:    -2.694      2.846      5.017
REMARK INTER + INTRA:          -4.407
REMARK INTER:                  -4.417
REMARK INTRA:                   0.010
REMARK UNBOUND:                -0.296
REMARK SMILES CC1=CCC[C@H](C)C(=O)C[C@@H](C(C)C)C(=O)C1
REMARK SMILES IDX 8 1 9 2 6 3 7 4 5 5 4 6 3 7 2 8 1 9 10 11 11 12 15 13 16 14
REMARK SMILES IDX 17 15 12 17 13 18 14 19
REMARK H PARENT
REMARK Flexibility Score: 70.00
ROOT
ATOM      1  C   UNL     1     158.085 163.833 199.469  1.00  0.00     0.136 C 
ATOM      2  O   UNL     1     159.099 163.740 200.146  1.00  0.00    -0.299 OA
ENDROOT
BRANCH   1   3
ATOM      3  C   UNL     1     157.534 165.230 199.204  1.00  0.00     0.053 C 
ATOM      4  C   UNL     1     158.580 166.290 198.815  1.00  0.00     0.016 C 
BRANCH   3   5
ATOM      5  C   UNL     1     156.320 165.222 198.231  1.00  0.00     0.015 C 
BRANCH   5   6
ATOM      6  C   UNL     1     156.586 165.728 196.799  1.00  0.00     0.028 C 
BRANCH   6   7
ATOM      7  C   UNL     1     155.591 165.182 195.805  1.00  0.00    -0.028 C 
ATOM      8  C   UNL     1     155.731 164.023 195.123  1.00  0.00    -0.070 CG0
ATOM      9  C   UNL     1     154.632 163.626 194.170  1.00  0.00     0.039 C 
ATOM     10  G   UNL     1     156.945 163.120 195.263  1.00  0.00     0.000 G0
ENDBRANCH   6   7
ENDBRANCH   5   6
ENDBRANCH   3   5
ENDBRANCH   1   3
BRANCH   1  11
ATOM     11  C   UNL     1     157.490 162.550 198.912  1.00  0.00     0.087 C 
BRANCH  11  12
ATOM     12  C   UNL     1     158.024 162.171 197.505  1.00  0.00     0.066 C 
BRANCH  12  13
ATOM     13  C   UNL     1     156.922 162.181 196.454  1.00  0.00     0.140 C 
ATOM     14  O   UNL     1     156.006 161.376 196.540  1.00  0.00    -0.299 OA
BRANCH  13  15
ATOM     15  C   UNL     1     156.946 163.116 195.265  1.00  0.00     0.106 CG0
ATOM     16  G   UNL     1     155.713 163.996 195.148  1.00  0.00     0.000 G0
ENDBRANCH  13  15
ENDBRANCH  12  13
BRANCH  12  17
ATOM     17  C   UNL     1     158.819 160.828 197.469  1.00  0.00    -0.006 C 
ATOM     18  C   UNL     1     159.719 160.588 198.694  1.00  0.00     0.008 C 
ATOM     19  C   UNL     1     159.642 160.689 196.179  1.00  0.00     0.008 C 
ENDBRANCH  12  17
ENDBRANCH  11  12
ENDBRANCH   1  11
TORSDOF 1
ENDMDL
MODEL 7
REMARK VINA RESULT:    -2.668      6.528      8.234
REMARK INTER + INTRA:          -4.368
REMARK INTER:                  -4.259
REMARK INTRA:                  -0.109
REMARK UNBOUND:                -0.296
REMARK SMILES CC1=CCC[C@H](C)C(=O)C[C@@H](C(C)C)C(=O)C1
REMARK SMILES IDX 8 1 9 2 6 3 7 4 5 5 4 6 3 7 2 8 1 9 10 11 11 12 15 13 16 14
REMARK SMILES IDX 17 15 12 17 13 18 14 19
REMARK H PARENT
REMARK Flexibility Score: 70.00
ROOT
ATOM      1  C   UNL     1     154.398 159.497 199.509  1.00  0.00     0.136 C 
ATOM      2  O   UNL     1     155.031 160.515 199.751  1.00  0.00    -0.299 OA
ENDROOT
BRANCH   1   3
ATOM      3  C   UNL     1     155.185 158.212 199.276  1.00  0.00     0.053 C 
ATOM      4  C   UNL     1     155.925 158.125 197.929  1.00  0.00     0.016 C 
BRANCH   3   5
ATOM      5  C   UNL     1     156.107 157.847 200.475  1.00  0.00     0.015 C 
BRANCH   5   6
ATOM      6  C   UNL     1     155.403 157.479 201.795  1.00  0.00     0.028 C 
BRANCH   6   7
ATOM      7  C   UNL     1     154.785 156.103 201.751  1.00  0.00    -0.028 C 
ATOM      8  C   UNL     1     153.467 155.838 201.901  1.00  0.00    -0.070 CG0
ATOM      9  C   UNL     1     153.021 154.400 201.822  1.00  0.00     0.039 C 
ATOM     10  G   UNL     1     152.429 156.917 202.161  1.00  0.00     0.000 G0
ENDBRANCH   6   7
ENDBRANCH   5   6
ENDBRANCH   3   5
ENDBRANCH   1   3
BRANCH   1  11
ATOM     11  C   UNL     1     152.882 159.594 199.509  1.00  0.00     0.087 C 
BRANCH  11  12
ATOM     12  C   UNL     1     152.229 159.197 200.860  1.00  0.00     0.066 C 
BRANCH  12  13
ATOM     13  C   UNL     1     151.994 157.696 200.961  1.00  0.00     0.140 C 
ATOM     14  O   UNL     1     151.410 157.119 200.055  1.00  0.00    -0.299 OA
BRANCH  13  15
ATOM     15  C   UNL     1     152.405 156.892 202.175  1.00  0.00     0.106 CG0
ATOM     16  G   UNL     1     153.465 155.841 201.888  1.00  0.00     0.000 G0
ENDBRANCH  13  15
ENDBRANCH  12  13
BRANCH  12  17
ATOM     17  C   UNL     1     150.926 159.990 201.192  1.00  0.00    -0.006 C 
ATOM     18  C   UNL     1     150.169 160.515 199.960  1.00  0.00     0.008 C 
ATOM     19  C   UNL     1     151.196 161.143 202.171  1.00  0.00     0.008 C 
ENDBRANCH  12  17
ENDBRANCH  11  12
ENDBRANCH   1  11
TORSDOF 1
ENDMDL
MODEL 8
REMARK VINA RESULT:    -2.614      6.835      8.572
REMARK INTER + INTRA:          -4.286
REMARK INTER:                  -3.931
REMARK INTRA:                  -0.355
REMARK UNBOUND:                -0.296
REMARK SMILES CC1=CCC[C@H](C)C(=O)C[C@@H](C(C)C)C(=O)C1
REMARK SMILES IDX 8 1 9 2 6 3 7 4 5 5 4 6 3 7 2 8 1 9 10 11 11 12 15 13 16 14
REMARK SMILES IDX 17 15 12 17 13 18 14 19
REMARK H PARENT
REMARK Flexibility Score: 70.00
ROOT
ATOM      1  C   UNL     1     150.755 159.172 198.128  1.00  0.00     0.136 C 
ATOM      2  O   UNL     1     149.897 159.890 197.633  1.00  0.00    -0.299 OA
ENDROOT
BRANCH   1   3
ATOM      3  C   UNL     1     152.002 158.884 197.301  1.00  0.00     0.053 C 
ATOM      4  C   UNL     1     151.746 158.294 195.902  1.00  0.00     0.016 C 
BRANCH   3   5
ATOM      5  C   UNL     1     152.985 160.090 197.256  1.00  0.00     0.015 C 
BRANCH   5   6
ATOM      6  C   UNL     1     154.103 160.102 198.317  1.00  0.00     0.028 C 
BRANCH   6   7
ATOM      7  C   UNL     1     154.619 158.718 198.621  1.00  0.00    -0.028 C 
ATOM      8  C   UNL     1     154.538 158.106 199.825  1.00  0.00    -0.070 CG0
ATOM      9  C   UNL     1     155.102 156.713 199.950  1.00  0.00     0.039 C 
ATOM     10  G   UNL     1     153.924 158.764 201.049  1.00  0.00     0.000 G0
ENDBRANCH   6   7
ENDBRANCH   5   6
ENDBRANCH   3   5
ENDBRANCH   1   3
BRANCH   1  11
ATOM     11  C   UNL     1     150.522 158.671 199.544  1.00  0.00     0.087 C 
BRANCH  11  12
ATOM     12  C   UNL     1     151.373 159.401 200.616  1.00  0.00     0.066 C 
BRANCH  12  13
ATOM     13  C   UNL     1     152.431 158.490 201.223  1.00  0.00     0.140 C 
ATOM     14  O   UNL     1     152.081 157.536 201.903  1.00  0.00    -0.299 OA
BRANCH  13  15
ATOM     15  C   UNL     1     153.912 158.753 201.067  1.00  0.00     0.106 CG0
ATOM     16  G   UNL     1     154.526 158.110 199.833  1.00  0.00     0.000 G0
ENDBRANCH  13  15
ENDBRANCH  12  13
BRANCH  12  17
ATOM     17  C   UNL     1     150.530 160.098 201.729  1.00  0.00    -0.006 C 
ATOM     18  C   UNL     1     149.152 160.601 201.263  1.00  0.00     0.008 C 
ATOM     19  C   UNL     1     151.306 161.242 202.399  1.00  0.00     0.008 C 
ENDBRANCH  12  17
ENDBRANCH  11  12
ENDBRANCH   1  11
TORSDOF 1
ENDMDL
MODEL 9
REMARK VINA RESULT:    -2.485      2.810      3.484
REMARK INTER + INTRA:          -4.089
REMARK INTER:                  -3.826
REMARK INTRA:                  -0.263
REMARK UNBOUND:                -0.296
REMARK SMILES CC1=CCC[C@H](C)C(=O)C[C@@H](C(C)C)C(=O)C1
REMARK SMILES IDX 8 1 9 2 6 3 7 4 5 5 4 6 3 7 2 8 1 9 10 11 11 12 15 13 16 14
REMARK SMILES IDX 17 15 12 17 13 18 14 19
REMARK H PARENT
REMARK Flexibility Score: 70.00
ROOT
ATOM      1  C   UNL     1     160.145 163.891 196.453  1.00  0.00     0.136 C 
ATOM      2  O   UNL     1     161.167 164.207 197.046  1.00  0.00    -0.299 OA
ENDROOT
BRANCH   1   3
ATOM      3  C   UNL     1     160.226 162.731 195.468  1.00  0.00     0.053 C 
ATOM      4  C   UNL     1     160.161 161.326 196.094  1.00  0.00     0.016 C 
BRANCH   3   5
ATOM      5  C   UNL     1     159.239 162.886 194.275  1.00  0.00     0.015 C 
BRANCH   5   6
ATOM      6  C   UNL     1     158.103 161.848 194.186  1.00  0.00     0.028 C 
BRANCH   6   7
ATOM      7  C   UNL     1     156.821 162.446 193.664  1.00  0.00    -0.028 C 
ATOM      8  C   UNL     1     155.788 162.862 194.432  1.00  0.00    -0.070 CG0
ATOM      9  C   UNL     1     154.580 163.443 193.740  1.00  0.00     0.039 C 
ATOM     10  G   UNL     1     155.786 162.753 195.948  1.00  0.00     0.000 G0
ENDBRANCH   6   7
ENDBRANCH   5   6
ENDBRANCH   3   5
ENDBRANCH   1   3
BRANCH   1  11
ATOM     11  C   UNL     1     158.873 164.652 196.788  1.00  0.00     0.087 C 
BRANCH  11  12
ATOM     12  C   UNL     1     157.760 163.770 197.413  1.00  0.00     0.066 C 
BRANCH  12  13
ATOM     13  C   UNL     1     156.437 163.911 196.673  1.00  0.00     0.140 C 
ATOM     14  O   UNL     1     155.849 164.983 196.696  1.00  0.00    -0.299 OA
BRANCH  13  15
ATOM     15  C   UNL     1     155.784 162.751 195.954  1.00  0.00     0.106 CG0
ATOM     16  G   UNL     1     155.798 162.879 194.439  1.00  0.00     0.000 G0
ENDBRANCH  13  15
ENDBRANCH  12  13
BRANCH  12  17
ATOM     17  C   UNL     1     157.568 163.983 198.947  1.00  0.00    -0.006 C 
ATOM     18  C   UNL     1     158.117 165.320 199.478  1.00  0.00     0.008 C 
ATOM     19  C   UNL     1     158.152 162.818 199.761  1.00  0.00     0.008 C 
ENDBRANCH  12  17
ENDBRANCH  11  12
ENDBRANCH   1  11
TORSDOF 1
ENDMDL
