MODEL 1
REMARK VINA RESULT:    -8.796      0.000      0.000
REMARK INTER + INTRA:          -9.091
REMARK INTER:                  -9.567
REMARK INTRA:                   0.476
REMARK UNBOUND:                 0.476
REMARK SMILES C[C@@H]1[C@@H](C)CC[C@]2(C(=O)[O-])CC[C@]3(C)C(=CC[C@@H]4[C@]5(C)CC[C@H](O)C(C)(C)[C@@H]5CC[C@@]43C)[C@@H]12
REMARK SMILES IDX 7 1 6 2 11 3 33 4 5 5 12 6 15 7 2 8 3 9 13 10 16 11 1 12
REMARK SMILES IDX 4 13 14 14 31 15 17 16 18 17 30 18 32 19 19 20 29 21 28 22
REMARK SMILES IDX 21 23 20 24 25 25 22 26 23 27 26 28 27 29 8 30 9 31 10 32
REMARK SMILES IDX 24 33
REMARK H PARENT 24 34
REMARK Flexibility Score: inf
ROOT
ATOM      1  C   UNL     1      39.986  59.183   6.777  1.00  0.00     0.017 C 
ATOM      2  C   UNL     1      40.446  59.454   8.243  1.00  0.00     0.014 C 
ATOM      3  C   UNL     1      40.142  57.649   6.481  1.00  0.00     0.014 C 
ATOM      4  C   UNL     1      40.929  60.019   5.847  1.00  0.00     0.030 C 
ATOM      5  C   UNL     1      40.442  60.952   8.611  1.00  0.00     0.004 C 
ATOM      6  C   UNL     1      40.205  57.245   4.972  1.00  0.00     0.013 C 
ATOM      7  C   UNL     1      40.760  59.549   4.400  1.00  0.00    -0.063 C 
ATOM      8  C   UNL     1      40.847  61.550   6.130  1.00  0.00    -0.003 C 
ATOM      9  C   UNL     1      41.240  61.827   7.618  1.00  0.00    -0.011 C 
ATOM     10  C   UNL     1      41.190  58.112   4.098  1.00  0.00    -0.006 C 
ATOM     11  C   UNL     1      39.822  60.131   3.630  1.00  0.00    -0.027 C 
ATOM     12  C   UNL     1      41.791  62.325   5.180  1.00  0.00     0.008 C 
ATOM     13  C   UNL     1      41.061  63.312   8.003  1.00  0.00     0.008 C 
ATOM     14  C   UNL     1      42.638  57.845   4.645  1.00  0.00     0.017 C 
ATOM     15  C   UNL     1      41.166  57.804   2.487  1.00  0.00    -0.020 C 
ATOM     16  C   UNL     1      39.075  59.347   2.596  1.00  0.00     0.032 C 
ATOM     17  C   UNL     1      40.026  58.588   1.655  1.00  0.00     0.006 C 
ATOM     18  C   UNL     1      41.110  56.264   2.264  1.00  0.00     0.008 C 
ATOM     19  C   UNL     1      42.515  58.275   1.847  1.00  0.00     0.012 C 
ATOM     20  C   UNL     1      39.305  57.830   0.394  1.00  0.00    -0.025 C 
ATOM     21  C   UNL     1      39.725  55.767   1.874  1.00  0.00     0.005 C 
ATOM     22  C   UNL     1      39.433  56.234   0.431  1.00  0.00     0.003 C 
ATOM     23  C   UNL     1      37.793  58.246   0.324  1.00  0.00     0.010 C 
ATOM     24  C   UNL     1      39.984  58.358  -0.928  1.00  0.00     0.012 C 
ATOM     25  C   UNL     1      38.328  55.359  -0.356  1.00  0.00    -0.006 C 
ATOM     26  C   UNL     1      36.969  57.480  -0.700  1.00  0.00     0.033 C 
ATOM     27  C   UNL     1      36.916  56.003  -0.327  1.00  0.00     0.120 C 
ATOM     28  C   UNL     1      38.197  53.907   0.194  1.00  0.00     0.014 C 
ATOM     29  C   UNL     1      38.757  55.167  -1.846  1.00  0.00     0.014 C 
ENDROOT
BRANCH   1  30
ATOM     30  C   UNL     1      38.495  59.538   6.616  1.00  0.00     0.048 C 
ATOM     31  O   UNL     1      38.140  60.624   6.084  1.00  0.00    -0.550 OA
ATOM     32  O   UNL     1      37.508  58.739   7.164  1.00  0.00    -0.550 OA
ENDBRANCH   1  30
BRANCH  27  33
ATOM     33  O   UNL     1      36.325  55.872   0.948  1.00  0.00    -0.393 OA
ATOM     34  H   UNL     1      35.486  56.402   0.944  1.00  0.00     0.210 HD
ENDBRANCH  27  33
TORSDOF 2
ENDMDL
MODEL 2
REMARK VINA RESULT:    -8.592      1.283      7.639
REMARK INTER + INTRA:          -8.870
REMARK INTER:                  -9.175
REMARK INTRA:                   0.305
REMARK UNBOUND:                 0.476
REMARK SMILES C[C@@H]1[C@@H](C)CC[C@]2(C(=O)[O-])CC[C@]3(C)C(=CC[C@@H]4[C@]5(C)CC[C@H](O)C(C)(C)[C@@H]5CC[C@@]43C)[C@@H]12
REMARK SMILES IDX 7 1 6 2 11 3 33 4 5 5 12 6 15 7 2 8 3 9 13 10 16 11 1 12
REMARK SMILES IDX 4 13 14 14 31 15 17 16 18 17 30 18 32 19 19 20 29 21 28 22
REMARK SMILES IDX 21 23 20 24 25 25 22 26 23 27 26 28 27 29 8 30 9 31 10 32
REMARK SMILES IDX 24 33
REMARK H PARENT 24 34
REMARK Flexibility Score: inf
ROOT
ATOM      1  C   UNL     1      38.009  57.560   0.223  1.00  0.00     0.017 C 
ATOM      2  C   UNL     1      37.488  57.392  -1.239  1.00  0.00     0.014 C 
ATOM      3  C   UNL     1      37.950  59.082   0.602  1.00  0.00     0.014 C 
ATOM      4  C   UNL     1      39.491  57.051   0.234  1.00  0.00     0.030 C 
ATOM      5  C   UNL     1      37.607  55.945  -1.760  1.00  0.00     0.004 C 
ATOM      6  C   UNL     1      38.853  59.528   1.797  1.00  0.00     0.013 C 
ATOM      7  C   UNL     1      40.167  57.491   1.534  1.00  0.00    -0.063 C 
ATOM      8  C   UNL     1      39.612  55.552  -0.179  1.00  0.00    -0.003 C 
ATOM      9  C   UNL     1      39.029  55.359  -1.618  1.00  0.00    -0.011 C 
ATOM     10  C   UNL     1      40.337  58.998   1.735  1.00  0.00    -0.006 C 
ATOM     11  C   UNL     1      40.097  56.688   2.612  1.00  0.00    -0.027 C 
ATOM     12  C   UNL     1      41.093  55.102  -0.143  1.00  0.00     0.008 C 
ATOM     13  C   UNL     1      39.004  53.875  -2.043  1.00  0.00     0.008 C 
ATOM     14  C   UNL     1      40.999  59.651   0.469  1.00  0.00     0.017 C 
ATOM     15  C   UNL     1      41.263  59.330   3.048  1.00  0.00    -0.020 C 
ATOM     16  C   UNL     1      40.013  57.255   3.995  1.00  0.00     0.032 C 
ATOM     17  C   UNL     1      41.130  58.277   4.265  1.00  0.00     0.006 C 
ATOM     18  C   UNL     1      40.999  60.795   3.501  1.00  0.00     0.008 C 
ATOM     19  C   UNL     1      42.775  59.277   2.645  1.00  0.00     0.012 C 
ATOM     20  C   UNL     1      41.214  58.832   5.804  1.00  0.00    -0.025 C 
ATOM     21  C   UNL     1      40.104  60.889   4.729  1.00  0.00     0.005 C 
ATOM     22  C   UNL     1      40.909  60.397   5.951  1.00  0.00     0.003 C 
ATOM     23  C   UNL     1      40.239  58.006   6.716  1.00  0.00     0.010 C 
ATOM     24  C   UNL     1      42.675  58.552   6.330  1.00  0.00     0.012 C 
ATOM     25  C   UNL     1      40.383  60.943   7.376  1.00  0.00    -0.006 C 
ATOM     26  C   UNL     1      40.096  58.533   8.136  1.00  0.00     0.033 C 
ATOM     27  C   UNL     1      39.472  59.925   8.114  1.00  0.00     0.120 C 
ATOM     28  C   UNL     1      39.597  62.283   7.261  1.00  0.00     0.014 C 
ATOM     29  C   UNL     1      41.595  61.288   8.300  1.00  0.00     0.014 C 
ENDROOT
BRANCH   1  30
ATOM     30  C   UNL     1      37.093  56.801   1.202  1.00  0.00     0.048 C 
ATOM     31  O   UNL     1      36.251  57.414   1.912  1.00  0.00    -0.550 OA
ATOM     32  O   UNL     1      37.256  55.446   1.428  1.00  0.00    -0.550 OA
ENDBRANCH   1  30
BRANCH  27  33
ATOM     33  O   UNL     1      38.200  59.850   7.507  1.00  0.00    -0.393 OA
ATOM     34  H   UNL     1      37.656  59.208   8.034  1.00  0.00     0.210 HD
ENDBRANCH  27  33
TORSDOF 2
ENDMDL
MODEL 3
REMARK VINA RESULT:    -8.501      1.725      7.657
REMARK INTER + INTRA:          -8.770
REMARK INTER:                  -9.097
REMARK INTRA:                   0.327
REMARK UNBOUND:                 0.476
REMARK SMILES C[C@@H]1[C@@H](C)CC[C@]2(C(=O)[O-])CC[C@]3(C)C(=CC[C@@H]4[C@]5(C)CC[C@H](O)C(C)(C)[C@@H]5CC[C@@]43C)[C@@H]12
REMARK SMILES IDX 7 1 6 2 11 3 33 4 5 5 12 6 15 7 2 8 3 9 13 10 16 11 1 12
REMARK SMILES IDX 4 13 14 14 31 15 17 16 18 17 30 18 32 19 19 20 29 21 28 22
REMARK SMILES IDX 21 23 20 24 25 25 22 26 23 27 26 28 27 29 8 30 9 31 10 32
REMARK SMILES IDX 24 33
REMARK H PARENT 24 34
REMARK Flexibility Score: inf
ROOT
ATOM      1  C   UNL     1      37.502  57.261   0.517  1.00  0.00     0.017 C 
ATOM      2  C   UNL     1      37.081  56.792  -0.911  1.00  0.00     0.014 C 
ATOM      3  C   UNL     1      38.883  58.000   0.412  1.00  0.00     0.014 C 
ATOM      4  C   UNL     1      37.638  55.969   1.392  1.00  0.00     0.030 C 
ATOM      5  C   UNL     1      35.787  55.953  -0.914  1.00  0.00     0.004 C 
ATOM      6  C   UNL     1      39.703  58.114   1.739  1.00  0.00     0.013 C 
ATOM      7  C   UNL     1      38.365  56.313   2.694  1.00  0.00    -0.063 C 
ATOM      8  C   UNL     1      36.302  55.170   1.494  1.00  0.00    -0.003 C 
ATOM      9  C   UNL     1      35.833  54.755   0.061  1.00  0.00    -0.011 C 
ATOM     10  C   UNL     1      39.818  56.773   2.559  1.00  0.00    -0.006 C 
ATOM     11  C   UNL     1      37.645  56.713   3.759  1.00  0.00    -0.027 C 
ATOM     12  C   UNL     1      36.493  53.912   2.374  1.00  0.00     0.008 C 
ATOM     13  C   UNL     1      34.451  54.067   0.075  1.00  0.00     0.008 C 
ATOM     14  C   UNL     1      40.633  55.765   1.671  1.00  0.00     0.017 C 
ATOM     15  C   UNL     1      40.548  56.898   4.024  1.00  0.00    -0.020 C 
ATOM     16  C   UNL     1      38.183  57.728   4.719  1.00  0.00     0.032 C 
ATOM     17  C   UNL     1      39.580  57.345   5.236  1.00  0.00     0.006 C 
ATOM     18  C   UNL     1      41.797  57.818   3.892  1.00  0.00     0.008 C 
ATOM     19  C   UNL     1      41.097  55.497   4.453  1.00  0.00     0.012 C 
ATOM     20  C   UNL     1      40.181  58.314   6.412  1.00  0.00    -0.025 C 
ATOM     21  C   UNL     1      41.568  59.218   4.443  1.00  0.00     0.005 C 
ATOM     22  C   UNL     1      41.493  59.126   5.982  1.00  0.00     0.003 C 
ATOM     23  C   UNL     1      39.068  59.309   6.896  1.00  0.00     0.010 C 
ATOM     24  C   UNL     1      40.538  57.398   7.646  1.00  0.00     0.012 C 
ATOM     25  C   UNL     1      41.834  60.497   6.764  1.00  0.00    -0.006 C 
ATOM     26  C   UNL     1      39.546  60.377   7.867  1.00  0.00     0.033 C 
ATOM     27  C   UNL     1      40.563  61.285   7.183  1.00  0.00     0.120 C 
ATOM     28  C   UNL     1      42.735  61.461   5.935  1.00  0.00     0.014 C 
ATOM     29  C   UNL     1      42.676  60.191   8.043  1.00  0.00     0.014 C 
ENDROOT
BRANCH   1  30
ATOM     30  C   UNL     1      36.476  58.269   1.069  1.00  0.00     0.048 C 
ATOM     31  O   UNL     1      36.767  59.489   1.195  1.00  0.00    -0.550 OA
ATOM     32  O   UNL     1      35.255  57.847   1.562  1.00  0.00    -0.550 OA
ENDBRANCH   1  30
BRANCH  27  33
ATOM     33  O   UNL     1      39.956  61.899   6.068  1.00  0.00    -0.393 OA
ATOM     34  H   UNL     1      40.633  61.936   5.342  1.00  0.00     0.210 HD
ENDBRANCH  27  33
TORSDOF 2
ENDMDL
MODEL 4
REMARK VINA RESULT:    -8.376      1.040      1.118
REMARK INTER + INTRA:          -8.634
REMARK INTER:                  -8.968
REMARK INTRA:                   0.334
REMARK UNBOUND:                 0.476
REMARK SMILES C[C@@H]1[C@@H](C)CC[C@]2(C(=O)[O-])CC[C@]3(C)C(=CC[C@@H]4[C@]5(C)CC[C@H](O)C(C)(C)[C@@H]5CC[C@@]43C)[C@@H]12
REMARK SMILES IDX 7 1 6 2 11 3 33 4 5 5 12 6 15 7 2 8 3 9 13 10 16 11 1 12
REMARK SMILES IDX 4 13 14 14 31 15 17 16 18 17 30 18 32 19 19 20 29 21 28 22
REMARK SMILES IDX 21 23 20 24 25 25 22 26 23 27 26 28 27 29 8 30 9 31 10 32
REMARK SMILES IDX 24 33
REMARK H PARENT 24 34
REMARK Flexibility Score: inf
ROOT
ATOM      1  C   UNL     1      40.641  60.184   6.948  1.00  0.00     0.017 C 
ATOM      2  C   UNL     1      41.092  60.690   8.354  1.00  0.00     0.014 C 
ATOM      3  C   UNL     1      40.970  58.653   6.840  1.00  0.00     0.014 C 
ATOM      4  C   UNL     1      41.464  60.997   5.892  1.00  0.00     0.030 C 
ATOM      5  C   UNL     1      40.919  62.212   8.533  1.00  0.00     0.004 C 
ATOM      6  C   UNL     1      41.054  58.070   5.392  1.00  0.00     0.013 C 
ATOM      7  C   UNL     1      41.325  60.331   4.521  1.00  0.00    -0.063 C 
ATOM      8  C   UNL     1      41.208  62.532   5.985  1.00  0.00    -0.003 C 
ATOM      9  C   UNL     1      41.592  63.039   7.415  1.00  0.00    -0.011 C 
ATOM     10  C   UNL     1      41.915  58.926   4.386  1.00  0.00    -0.006 C 
ATOM     11  C   UNL     1      40.313  60.700   3.715  1.00  0.00    -0.027 C 
ATOM     12  C   UNL     1      42.038  63.283   4.917  1.00  0.00     0.008 C 
ATOM     13  C   UNL     1      41.247  64.530   7.618  1.00  0.00     0.008 C 
ATOM     14  C   UNL     1      43.394  58.897   4.915  1.00  0.00     0.017 C 
ATOM     15  C   UNL     1      41.900  58.415   2.827  1.00  0.00    -0.020 C 
ATOM     16  C   UNL     1      39.645  59.711   2.811  1.00  0.00     0.032 C 
ATOM     17  C   UNL     1      40.662  58.952   1.941  1.00  0.00     0.006 C 
ATOM     18  C   UNL     1      42.020  56.863   2.799  1.00  0.00     0.008 C 
ATOM     19  C   UNL     1      43.173  58.952   2.091  1.00  0.00     0.012 C 
ATOM     20  C   UNL     1      40.012  57.963   0.807  1.00  0.00    -0.025 C 
ATOM     21  C   UNL     1      40.696  56.166   2.518  1.00  0.00     0.005 C 
ATOM     22  C   UNL     1      40.327  56.409   1.038  1.00  0.00     0.003 C 
ATOM     23  C   UNL     1      38.461  58.192   0.735  1.00  0.00     0.010 C 
ATOM     24  C   UNL     1      40.601  58.393  -0.591  1.00  0.00     0.012 C 
ATOM     25  C   UNL     1      39.318  55.322   0.401  1.00  0.00    -0.006 C 
ATOM     26  C   UNL     1      37.714  57.214  -0.160  1.00  0.00     0.033 C 
ATOM     27  C   UNL     1      37.841  55.799   0.396  1.00  0.00     0.120 C 
ATOM     28  C   UNL     1      39.368  53.946   1.131  1.00  0.00     0.014 C 
ATOM     29  C   UNL     1      39.741  54.993  -1.066  1.00  0.00     0.014 C 
ENDROOT
BRANCH   1  30
ATOM     30  C   UNL     1      39.117  60.344   6.792  1.00  0.00     0.048 C 
ATOM     31  O   UNL     1      38.610  61.445   6.448  1.00  0.00    -0.550 OA
ATOM     32  O   UNL     1      38.252  59.324   7.149  1.00  0.00    -0.550 OA
ENDBRANCH   1  30
BRANCH  27  33
ATOM     33  O   UNL     1      37.292  55.765   1.695  1.00  0.00    -0.393 OA
ATOM     34  H   UNL     1      37.995  55.422   2.307  1.00  0.00     0.210 HD
ENDBRANCH  27  33
TORSDOF 2
ENDMDL
MODEL 5
REMARK VINA RESULT:    -8.261      6.258      9.916
REMARK INTER + INTRA:          -8.509
REMARK INTER:                  -8.919
REMARK INTRA:                   0.410
REMARK UNBOUND:                 0.476
REMARK SMILES C[C@@H]1[C@@H](C)CC[C@]2(C(=O)[O-])CC[C@]3(C)C(=CC[C@@H]4[C@]5(C)CC[C@H](O)C(C)(C)[C@@H]5CC[C@@]43C)[C@@H]12
REMARK SMILES IDX 7 1 6 2 11 3 33 4 5 5 12 6 15 7 2 8 3 9 13 10 16 11 1 12
REMARK SMILES IDX 4 13 14 14 31 15 17 16 18 17 30 18 32 19 19 20 29 21 28 22
REMARK SMILES IDX 21 23 20 24 25 25 22 26 23 27 26 28 27 29 8 30 9 31 10 32
REMARK SMILES IDX 24 33
REMARK H PARENT 24 34
REMARK Flexibility Score: inf
ROOT
ATOM      1  C   UNL     1      35.071  56.372  -0.697  1.00  0.00     0.017 C 
ATOM      2  C   UNL     1      36.429  56.179  -1.442  1.00  0.00     0.014 C 
ATOM      3  C   UNL     1      33.919  56.418  -1.763  1.00  0.00     0.014 C 
ATOM      4  C   UNL     1      35.166  57.738   0.064  1.00  0.00     0.030 C 
ATOM      5  C   UNL     1      37.648  56.232  -0.500  1.00  0.00     0.004 C 
ATOM      6  C   UNL     1      32.579  57.075  -1.297  1.00  0.00     0.013 C 
ATOM      7  C   UNL     1      33.771  58.152   0.537  1.00  0.00    -0.063 C 
ATOM      8  C   UNL     1      36.325  57.764   1.107  1.00  0.00    -0.003 C 
ATOM      9  C   UNL     1      37.686  57.502   0.381  1.00  0.00    -0.011 C 
ATOM     10  C   UNL     1      32.746  58.457  -0.558  1.00  0.00    -0.006 C 
ATOM     11  C   UNL     1      33.340  57.742   1.745  1.00  0.00    -0.027 C 
ATOM     12  C   UNL     1      36.367  59.130   1.832  1.00  0.00     0.008 C 
ATOM     13  C   UNL     1      38.864  57.390   1.371  1.00  0.00     0.008 C 
ATOM     14  C   UNL     1      33.343  59.464  -1.605  1.00  0.00     0.017 C 
ATOM     15  C   UNL     1      31.370  59.097   0.068  1.00  0.00    -0.020 C 
ATOM     16  C   UNL     1      31.899  57.417   1.983  1.00  0.00     0.032 C 
ATOM     17  C   UNL     1      30.973  58.563   1.539  1.00  0.00     0.006 C 
ATOM     18  C   UNL     1      30.214  58.920  -0.959  1.00  0.00     0.008 C 
ATOM     19  C   UNL     1      31.548  60.642   0.244  1.00  0.00     0.012 C 
ATOM     20  C   UNL     1      29.388  58.364   1.907  1.00  0.00    -0.025 C 
ATOM     21  C   UNL     1      29.261  57.790  -0.598  1.00  0.00     0.005 C 
ATOM     22  C   UNL     1      28.433  58.230   0.629  1.00  0.00     0.003 C 
ATOM     23  C   UNL     1      29.217  57.114   2.840  1.00  0.00     0.010 C 
ATOM     24  C   UNL     1      28.935  59.622   2.744  1.00  0.00     0.012 C 
ATOM     25  C   UNL     1      27.021  57.467   0.806  1.00  0.00    -0.006 C 
ATOM     26  C   UNL     1      27.774  56.719   3.117  1.00  0.00     0.033 C 
ATOM     27  C   UNL     1      27.092  56.294   1.821  1.00  0.00     0.120 C 
ATOM     28  C   UNL     1      26.465  56.899  -0.534  1.00  0.00     0.014 C 
ATOM     29  C   UNL     1      25.924  58.471   1.282  1.00  0.00     0.014 C 
ENDROOT
BRANCH   1  30
ATOM     30  C   UNL     1      34.799  55.172   0.230  1.00  0.00     0.048 C 
ATOM     31  O   UNL     1      33.743  54.493   0.122  1.00  0.00    -0.550 OA
ATOM     32  O   UNL     1      35.641  54.883   1.289  1.00  0.00    -0.550 OA
ENDBRANCH   1  30
BRANCH  27  33
ATOM     33  O   UNL     1      27.787  55.193   1.276  1.00  0.00    -0.393 OA
ATOM     34  H   UNL     1      28.325  55.529   0.512  1.00  0.00     0.210 HD
ENDBRANCH  27  33
TORSDOF 2
ENDMDL
MODEL 6
REMARK VINA RESULT:    -8.203      2.032      7.848
REMARK INTER + INTRA:          -8.446
REMARK INTER:                  -8.787
REMARK INTRA:                   0.341
REMARK UNBOUND:                 0.476
REMARK SMILES C[C@@H]1[C@@H](C)CC[C@]2(C(=O)[O-])CC[C@]3(C)C(=CC[C@@H]4[C@]5(C)CC[C@H](O)C(C)(C)[C@@H]5CC[C@@]43C)[C@@H]12
REMARK SMILES IDX 7 1 6 2 11 3 33 4 5 5 12 6 15 7 2 8 3 9 13 10 16 11 1 12
REMARK SMILES IDX 4 13 14 14 31 15 17 16 18 17 30 18 32 19 19 20 29 21 28 22
REMARK SMILES IDX 21 23 20 24 25 25 22 26 23 27 26 28 27 29 8 30 9 31 10 32
REMARK SMILES IDX 24 33
REMARK H PARENT 24 34
REMARK Flexibility Score: inf
ROOT
ATOM      1  C   UNL     1      39.520  58.480   1.970  1.00  0.00     0.017 C 
ATOM      2  C   UNL     1      39.497  57.432   0.813  1.00  0.00     0.014 C 
ATOM      3  C   UNL     1      40.642  59.535   1.665  1.00  0.00     0.014 C 
ATOM      4  C   UNL     1      39.853  57.693   3.283  1.00  0.00     0.030 C 
ATOM      5  C   UNL     1      38.505  56.278   1.063  1.00  0.00     0.004 C 
ATOM      6  C   UNL     1      41.156  60.362   2.887  1.00  0.00     0.013 C 
ATOM      7  C   UNL     1      40.221  58.685   4.389  1.00  0.00    -0.063 C 
ATOM      8  C   UNL     1      38.791  56.598   3.611  1.00  0.00    -0.003 C 
ATOM      9  C   UNL     1      38.709  55.580   2.426  1.00  0.00    -0.011 C 
ATOM     10  C   UNL     1      41.492  59.506   4.168  1.00  0.00    -0.006 C 
ATOM     11  C   UNL     1      39.246  59.180   5.174  1.00  0.00    -0.027 C 
ATOM     12  C   UNL     1      39.165  55.860   4.919  1.00  0.00     0.008 C 
ATOM     13  C   UNL     1      37.589  54.538   2.628  1.00  0.00     0.008 C 
ATOM     14  C   UNL     1      42.693  58.569   3.785  1.00  0.00     0.017 C 
ATOM     15  C   UNL     1      41.895  60.363   5.508  1.00  0.00    -0.020 C 
ATOM     16  C   UNL     1      39.310  60.582   5.695  1.00  0.00     0.032 C 
ATOM     17  C   UNL     1      40.647  60.872   6.397  1.00  0.00     0.006 C 
ATOM     18  C   UNL     1      42.846  61.526   5.101  1.00  0.00     0.008 C 
ATOM     19  C   UNL     1      42.725  59.456   6.476  1.00  0.00     0.012 C 
ATOM     20  C   UNL     1      40.746  62.330   7.139  1.00  0.00    -0.025 C 
ATOM     21  C   UNL     1      42.150  62.879   5.053  1.00  0.00     0.005 C 
ATOM     22  C   UNL     1      41.838  63.314   6.502  1.00  0.00     0.003 C 
ATOM     23  C   UNL     1      39.336  63.019   7.137  1.00  0.00     0.010 C 
ATOM     24  C   UNL     1      41.123  62.070   8.648  1.00  0.00     0.012 C 
ATOM     25  C   UNL     1      41.649  64.903   6.710  1.00  0.00    -0.006 C 
ATOM     26  C   UNL     1      39.327  64.453   7.644  1.00  0.00     0.033 C 
ATOM     27  C   UNL     1      40.158  65.337   6.721  1.00  0.00     0.120 C 
ATOM     28  C   UNL     1      42.379  65.749   5.624  1.00  0.00     0.014 C 
ATOM     29  C   UNL     1      42.308  65.352   8.053  1.00  0.00     0.014 C 
ENDROOT
BRANCH   1  30
ATOM     30  C   UNL     1      38.178  59.233   2.030  1.00  0.00     0.048 C 
ATOM     31  O   UNL     1      38.107  60.459   1.748  1.00  0.00    -0.550 OA
ATOM     32  O   UNL     1      37.037  58.621   2.520  1.00  0.00    -0.550 OA
ENDBRANCH   1  30
BRANCH  27  33
ATOM     33  O   UNL     1      39.607  65.293   5.422  1.00  0.00    -0.393 OA
ATOM     34  H   UNL     1      39.086  64.451   5.349  1.00  0.00     0.210 HD
ENDBRANCH  27  33
TORSDOF 2
ENDMDL
MODEL 7
REMARK VINA RESULT:    -8.057      1.845      3.063
REMARK INTER + INTRA:          -8.287
REMARK INTER:                  -8.791
REMARK INTRA:                   0.503
REMARK UNBOUND:                 0.476
REMARK SMILES C[C@@H]1[C@@H](C)CC[C@]2(C(=O)[O-])CC[C@]3(C)C(=CC[C@@H]4[C@]5(C)CC[C@H](O)C(C)(C)[C@@H]5CC[C@@]43C)[C@@H]12
REMARK SMILES IDX 7 1 6 2 11 3 33 4 5 5 12 6 15 7 2 8 3 9 13 10 16 11 1 12
REMARK SMILES IDX 4 13 14 14 31 15 17 16 18 17 30 18 32 19 19 20 29 21 28 22
REMARK SMILES IDX 21 23 20 24 25 25 22 26 23 27 26 28 27 29 8 30 9 31 10 32
REMARK SMILES IDX 24 33
REMARK H PARENT 24 34
REMARK Flexibility Score: inf
ROOT
ATOM      1  C   UNL     1      40.766  62.356   7.431  1.00  0.00     0.017 C 
ATOM      2  C   UNL     1      41.263  63.302   8.568  1.00  0.00     0.014 C 
ATOM      3  C   UNL     1      40.615  60.907   8.017  1.00  0.00     0.014 C 
ATOM      4  C   UNL     1      41.863  62.381   6.312  1.00  0.00     0.030 C 
ATOM      5  C   UNL     1      41.555  64.734   8.077  1.00  0.00     0.004 C 
ATOM      6  C   UNL     1      40.605  59.742   6.975  1.00  0.00     0.013 C 
ATOM      7  C   UNL     1      41.611  61.235   5.330  1.00  0.00    -0.063 C 
ATOM      8  C   UNL     1      42.085  63.808   5.724  1.00  0.00    -0.003 C 
ATOM      9  C   UNL     1      42.518  64.782   6.869  1.00  0.00    -0.011 C 
ATOM     10  C   UNL     1      41.748  59.818   5.892  1.00  0.00    -0.006 C 
ATOM     11  C   UNL     1      40.812  61.447   4.268  1.00  0.00    -0.027 C 
ATOM     12  C   UNL     1      43.171  63.772   4.621  1.00  0.00     0.008 C 
ATOM     13  C   UNL     1      42.636  66.242   6.380  1.00  0.00     0.008 C 
ATOM     14  C   UNL     1      43.110  59.658   6.657  1.00  0.00     0.017 C 
ATOM     15  C   UNL     1      41.672  58.690   4.702  1.00  0.00    -0.020 C 
ATOM     16  C   UNL     1      39.930  60.362   3.735  1.00  0.00     0.032 C 
ATOM     17  C   UNL     1      40.716  59.069   3.458  1.00  0.00     0.006 C 
ATOM     18  C   UNL     1      41.311  57.312   5.330  1.00  0.00     0.008 C 
ATOM     19  C   UNL     1      43.092  58.508   4.067  1.00  0.00     0.012 C 
ATOM     20  C   UNL     1      39.865  57.877   2.722  1.00  0.00    -0.025 C 
ATOM     21  C   UNL     1      39.857  56.918   5.110  1.00  0.00     0.005 C 
ATOM     22  C   UNL     1      39.673  56.564   3.619  1.00  0.00     0.003 C 
ATOM     23  C   UNL     1      38.467  58.429   2.270  1.00  0.00     0.010 C 
ATOM     24  C   UNL     1      40.643  57.480   1.409  1.00  0.00     0.012 C 
ATOM     25  C   UNL     1      38.420  55.597   3.299  1.00  0.00    -0.006 C 
ATOM     26  C   UNL     1      37.513  57.377   1.726  1.00  0.00     0.033 C 
ATOM     27  C   UNL     1      37.164  56.374   2.821  1.00  0.00     0.120 C 
ATOM     28  C   UNL     1      37.999  54.724   4.519  1.00  0.00     0.014 C 
ATOM     29  C   UNL     1      38.810  54.557   2.201  1.00  0.00     0.014 C 
ENDROOT
BRANCH   1  30
ATOM     30  C   UNL     1      39.377  62.804   6.937  1.00  0.00     0.048 C 
ATOM     31  O   UNL     1      39.019  64.010   7.010  1.00  0.00    -0.550 OA
ATOM     32  O   UNL     1      38.435  61.881   6.521  1.00  0.00    -0.550 OA
ENDBRANCH   1  30
BRANCH  27  33
ATOM     33  O   UNL     1      36.552  57.058   3.893  1.00  0.00    -0.393 OA
ATOM     34  H   UNL     1      36.341  56.386   4.593  1.00  0.00     0.210 HD
ENDBRANCH  27  33
TORSDOF 2
ENDMDL
MODEL 8
REMARK VINA RESULT:    -8.032      1.822      2.759
REMARK INTER + INTRA:          -8.261
REMARK INTER:                  -8.756
REMARK INTRA:                   0.496
REMARK UNBOUND:                 0.476
REMARK SMILES C[C@@H]1[C@@H](C)CC[C@]2(C(=O)[O-])CC[C@]3(C)C(=CC[C@@H]4[C@]5(C)CC[C@H](O)C(C)(C)[C@@H]5CC[C@@]43C)[C@@H]12
REMARK SMILES IDX 7 1 6 2 11 3 33 4 5 5 12 6 15 7 2 8 3 9 13 10 16 11 1 12
REMARK SMILES IDX 4 13 14 14 31 15 17 16 18 17 30 18 32 19 19 20 29 21 28 22
REMARK SMILES IDX 21 23 20 24 25 25 22 26 23 27 26 28 27 29 8 30 9 31 10 32
REMARK SMILES IDX 24 33
REMARK H PARENT 24 34
REMARK Flexibility Score: inf
ROOT
ATOM      1  C   UNL     1      39.351  58.742   6.276  1.00  0.00     0.017 C 
ATOM      2  C   UNL     1      39.953  58.799   7.715  1.00  0.00     0.014 C 
ATOM      3  C   UNL     1      38.228  57.645   6.248  1.00  0.00     0.014 C 
ATOM      4  C   UNL     1      40.523  58.350   5.314  1.00  0.00     0.030 C 
ATOM      5  C   UNL     1      41.146  59.768   7.833  1.00  0.00     0.004 C 
ATOM      6  C   UNL     1      37.844  57.092   4.837  1.00  0.00     0.013 C 
ATOM      7  C   UNL     1      39.948  57.950   3.953  1.00  0.00    -0.063 C 
ATOM      8  C   UNL     1      41.688  59.386   5.336  1.00  0.00    -0.003 C 
ATOM      9  C   UNL     1      42.255  59.503   6.789  1.00  0.00    -0.011 C 
ATOM     10  C   UNL     1      39.070  56.697   3.928  1.00  0.00    -0.006 C 
ATOM     11  C   UNL     1      39.767  58.899   3.015  1.00  0.00    -0.027 C 
ATOM     12  C   UNL     1      42.812  58.953   4.363  1.00  0.00     0.008 C 
ATOM     13  C   UNL     1      43.331  60.603   6.910  1.00  0.00     0.008 C 
ATOM     14  C   UNL     1      39.798  55.502   4.642  1.00  0.00     0.017 C 
ATOM     15  C   UNL     1      38.700  56.252   2.393  1.00  0.00    -0.020 C 
ATOM     16  C   UNL     1      38.618  58.831   2.058  1.00  0.00     0.032 C 
ATOM     17  C   UNL     1      38.547  57.470   1.344  1.00  0.00     0.006 C 
ATOM     18  C   UNL     1      37.446  55.331   2.418  1.00  0.00     0.008 C 
ATOM     19  C   UNL     1      39.859  55.375   1.812  1.00  0.00     0.012 C 
ATOM     20  C   UNL     1      37.419  57.359   0.161  1.00  0.00    -0.025 C 
ATOM     21  C   UNL     1      36.172  56.043   1.988  1.00  0.00     0.005 C 
ATOM     22  C   UNL     1      36.253  56.303   0.468  1.00  0.00     0.003 C 
ATOM     23  C   UNL     1      36.801  58.775  -0.114  1.00  0.00     0.010 C 
ATOM     24  C   UNL     1      38.158  56.920  -1.161  1.00  0.00     0.012 C 
ATOM     25  C   UNL     1      34.829  56.502  -0.265  1.00  0.00    -0.006 C 
ATOM     26  C   UNL     1      35.620  58.780  -1.072  1.00  0.00     0.033 C 
ATOM     27  C   UNL     1      34.459  57.996  -0.470  1.00  0.00     0.120 C 
ATOM     28  C   UNL     1      33.652  55.824   0.498  1.00  0.00     0.014 C 
ATOM     29  C   UNL     1      34.839  55.796  -1.658  1.00  0.00     0.014 C 
ENDROOT
BRANCH   1  30
ATOM     30  C   UNL     1      38.693  60.090   5.923  1.00  0.00     0.048 C 
ATOM     31  O   UNL     1      37.574  60.135   5.345  1.00  0.00    -0.550 OA
ATOM     32  O   UNL     1      39.366  61.284   6.111  1.00  0.00    -0.550 OA
ENDBRANCH   1  30
BRANCH  27  33
ATOM     33  O   UNL     1      34.080  58.596   0.750  1.00  0.00    -0.393 OA
ATOM     34  H   UNL     1      34.483  58.061   1.483  1.00  0.00     0.210 HD
ENDBRANCH  27  33
TORSDOF 2
ENDMDL
MODEL 9
REMARK VINA RESULT:    -7.807      3.472      7.525
REMARK INTER + INTRA:          -8.015
REMARK INTER:                  -8.337
REMARK INTRA:                   0.322
REMARK UNBOUND:                 0.476
REMARK SMILES C[C@@H]1[C@@H](C)CC[C@]2(C(=O)[O-])CC[C@]3(C)C(=CC[C@@H]4[C@]5(C)CC[C@H](O)C(C)(C)[C@@H]5CC[C@@]43C)[C@@H]12
REMARK SMILES IDX 7 1 6 2 11 3 33 4 5 5 12 6 15 7 2 8 3 9 13 10 16 11 1 12
REMARK SMILES IDX 4 13 14 14 31 15 17 16 18 17 30 18 32 19 19 20 29 21 28 22
REMARK SMILES IDX 21 23 20 24 25 25 22 26 23 27 26 28 27 29 8 30 9 31 10 32
REMARK SMILES IDX 24 33
REMARK H PARENT 24 34
REMARK Flexibility Score: inf
ROOT
ATOM      1  C   UNL     1      37.805  55.327  -0.713  1.00  0.00     0.017 C 
ATOM      2  C   UNL     1      36.641  54.462  -1.292  1.00  0.00     0.014 C 
ATOM      3  C   UNL     1      39.120  54.470  -0.731  1.00  0.00     0.014 C 
ATOM      4  C   UNL     1      37.407  55.688   0.759  1.00  0.00     0.030 C 
ATOM      5  C   UNL     1      35.271  55.166  -1.219  1.00  0.00     0.004 C 
ATOM      6  C   UNL     1      40.262  54.945   0.225  1.00  0.00     0.013 C 
ATOM      7  C   UNL     1      38.631  56.241   1.492  1.00  0.00    -0.063 C 
ATOM      8  C   UNL     1      36.081  56.504   0.838  1.00  0.00    -0.003 C 
ATOM      9  C   UNL     1      34.919  55.674   0.197  1.00  0.00    -0.011 C 
ATOM     10  C   UNL     1      39.797  55.271   1.696  1.00  0.00    -0.006 C 
ATOM     11  C   UNL     1      38.877  57.564   1.449  1.00  0.00    -0.027 C 
ATOM     12  C   UNL     1      35.742  56.839   2.311  1.00  0.00     0.008 C 
ATOM     13  C   UNL     1      33.600  56.472   0.130  1.00  0.00     0.008 C 
ATOM     14  C   UNL     1      39.287  53.923   2.321  1.00  0.00     0.017 C 
ATOM     15  C   UNL     1      40.946  55.910   2.678  1.00  0.00    -0.020 C 
ATOM     16  C   UNL     1      40.277  58.090   1.427  1.00  0.00     0.032 C 
ATOM     17  C   UNL     1      41.126  57.511   2.572  1.00  0.00     0.006 C 
ATOM     18  C   UNL     1      42.285  55.147   2.456  1.00  0.00     0.008 C 
ATOM     19  C   UNL     1      40.555  55.654   4.172  1.00  0.00     0.012 C 
ATOM     20  C   UNL     1      42.626  58.150   2.725  1.00  0.00    -0.025 C 
ATOM     21  C   UNL     1      43.284  55.925   1.611  1.00  0.00     0.005 C 
ATOM     22  C   UNL     1      43.812  57.107   2.453  1.00  0.00     0.003 C 
ATOM     23  C   UNL     1      42.772  59.388   1.771  1.00  0.00     0.010 C 
ATOM     24  C   UNL     1      42.763  58.694   4.199  1.00  0.00     0.012 C 
ATOM     25  C   UNL     1      45.247  57.684   1.991  1.00  0.00    -0.006 C 
ATOM     26  C   UNL     1      44.175  59.970   1.691  1.00  0.00     0.033 C 
ATOM     27  C   UNL     1      45.130  58.944   1.091  1.00  0.00     0.120 C 
ATOM     28  C   UNL     1      46.106  56.634   1.225  1.00  0.00     0.014 C 
ATOM     29  C   UNL     1      46.109  58.044   3.243  1.00  0.00     0.014 C 
ENDROOT
BRANCH   1  30
ATOM     30  C   UNL     1      38.042  56.561  -1.604  1.00  0.00     0.048 C 
ATOM     31  O   UNL     1      38.937  56.560  -2.491  1.00  0.00    -0.550 OA
ATOM     32  O   UNL     1      37.371  57.748  -1.372  1.00  0.00    -0.550 OA
ENDBRANCH   1  30
BRANCH  27  33
ATOM     33  O   UNL     1      44.686  58.602  -0.204  1.00  0.00    -0.393 OA
ATOM     34  H   UNL     1      44.174  59.376  -0.557  1.00  0.00     0.210 HD
ENDBRANCH  27  33
TORSDOF 2
ENDMDL
