MODEL 1
REMARK VINA RESULT:    -7.034      0.000      0.000
REMARK INTER + INTRA:          -8.563
REMARK INTER:                  -8.267
REMARK INTRA:                  -0.296
REMARK UNBOUND:                -0.296
REMARK SMILES O=c1cc(-c2ccc(O)c(O)c2)oc2cc(O)cc(O)c12
REMARK SMILES IDX 4 1 3 2 2 3 1 4 21 5 19 6 18 7 16 8 15 9 14 10 13 11 5 12
REMARK SMILES IDX 6 13 7 14 8 15 12 16 10 17 9 18 11 20 20 22 17 24
REMARK H PARENT 9 19 11 21 20 23 17 25
REMARK Flexibility Score: inf
ROOT
ATOM      1  C   UNL     1      13.985 -21.959  19.816  1.00  0.00     0.138 A 
ATOM      2  C   UNL     1      15.347 -21.674  19.657  1.00  0.00     0.100 A 
ATOM      3  C   UNL     1      16.301 -22.504  20.247  1.00  0.00     0.197 A 
ATOM      4  O   UNL     1      17.514 -22.189  20.132  1.00  0.00    -0.289 OA
ATOM      5  C   UNL     1      15.887 -23.647  20.972  1.00  0.00     0.107 A 
ATOM      6  C   UNL     1      16.770 -24.584  21.589  1.00  0.00     0.134 A 
ATOM      7  C   UNL     1      16.240 -25.624  22.365  1.00  0.00     0.093 A 
ATOM      8  C   UNL     1      14.860 -25.793  22.497  1.00  0.00     0.123 A 
ATOM      9  C   UNL     1      13.990 -24.914  21.858  1.00  0.00     0.094 A 
ATOM     10  C   UNL     1      14.487 -23.847  21.106  1.00  0.00     0.146 A 
ATOM     11  O   UNL     1      13.621 -23.021  20.529  1.00  0.00    -0.456 OA
ENDROOT
BRANCH   1  12
ATOM     12  C   UNL     1      12.928 -21.112  19.208  1.00  0.00     0.021 A 
ATOM     13  C   UNL     1      11.579 -21.365  19.512  1.00  0.00     0.016 A 
ATOM     14  C   UNL     1      10.566 -20.580  18.957  1.00  0.00     0.051 A 
ATOM     15  C   UNL     1      10.883 -19.521  18.098  1.00  0.00     0.157 A 
ATOM     16  C   UNL     1      13.241 -20.037  18.352  1.00  0.00     0.062 A 
ATOM     17  C   UNL     1      12.223 -19.247  17.798  1.00  0.00     0.158 A 
BRANCH  15  18
ATOM     18  O   UNL     1       9.875 -18.735  17.543  1.00  0.00    -0.504 OA
ATOM     19  H   UNL     1      10.075 -18.052  16.820  1.00  0.00     0.293 HD
ENDBRANCH  15  18
BRANCH  17  20
ATOM     20  O   UNL     1      12.536 -18.185  16.951  1.00  0.00    -0.504 OA
ATOM     21  H   UNL     1      13.189 -18.293  16.184  1.00  0.00     0.293 HD
ENDBRANCH  17  20
ENDBRANCH   1  12
BRANCH   6  22
ATOM     22  O   UNL     1      18.162 -24.555  21.456  1.00  0.00    -0.507 OA
ATOM     23  H   UNL     1      18.659 -24.483  20.582  1.00  0.00     0.293 HD
ENDBRANCH   6  22
BRANCH   8  24
ATOM     24  O   UNL     1      14.343 -26.841  23.258  1.00  0.00    -0.508 OA
ATOM     25  H   UNL     1      13.408 -26.801  23.647  1.00  0.00     0.293 HD
ENDBRANCH   8  24
TORSDOF 5
ENDMDL
MODEL 2
REMARK VINA RESULT:    -6.861      2.453      7.318
REMARK INTER + INTRA:          -8.361
REMARK INTER:                  -8.062
REMARK INTRA:                  -0.299
REMARK UNBOUND:                -0.296
REMARK SMILES O=c1cc(-c2ccc(O)c(O)c2)oc2cc(O)cc(O)c12
REMARK SMILES IDX 4 1 3 2 2 3 1 4 21 5 19 6 18 7 16 8 15 9 14 10 13 11 5 12
REMARK SMILES IDX 6 13 7 14 8 15 12 16 10 17 9 18 11 20 20 22 17 24
REMARK H PARENT 9 19 11 21 20 23 17 25
REMARK Flexibility Score: inf
ROOT
ATOM      1  C   UNL     1      14.387 -22.849  21.898  1.00  0.00     0.138 A 
ATOM      2  C   UNL     1      13.628 -23.278  20.801  1.00  0.00     0.100 A 
ATOM      3  C   UNL     1      13.272 -22.364  19.807  1.00  0.00     0.197 A 
ATOM      4  O   UNL     1      12.544 -22.768  18.865  1.00  0.00    -0.289 OA
ATOM      5  C   UNL     1      13.709 -21.021  19.897  1.00  0.00     0.107 A 
ATOM      6  C   UNL     1      13.435 -20.008  18.928  1.00  0.00     0.134 A 
ATOM      7  C   UNL     1      13.837 -18.689  19.175  1.00  0.00     0.093 A 
ATOM      8  C   UNL     1      14.553 -18.358  20.328  1.00  0.00     0.123 A 
ATOM      9  C   UNL     1      14.868 -19.348  21.256  1.00  0.00     0.094 A 
ATOM     10  C   UNL     1      14.451 -20.666  21.055  1.00  0.00     0.146 A 
ATOM     11  O   UNL     1      14.758 -21.574  21.975  1.00  0.00    -0.456 OA
ENDROOT
BRANCH   1  12
ATOM     12  C   UNL     1      14.797 -23.777  22.981  1.00  0.00     0.021 A 
ATOM     13  C   UNL     1      15.174 -25.093  22.658  1.00  0.00     0.016 A 
ATOM     14  C   UNL     1      15.570 -25.984  23.658  1.00  0.00     0.051 A 
ATOM     15  C   UNL     1      15.607 -25.575  24.995  1.00  0.00     0.157 A 
ATOM     16  C   UNL     1      14.849 -23.368  24.328  1.00  0.00     0.062 A 
ATOM     17  C   UNL     1      15.250 -24.263  25.331  1.00  0.00     0.158 A 
BRANCH  15  18
ATOM     18  O   UNL     1      16.002 -26.461  25.996  1.00  0.00    -0.504 OA
ATOM     19  H   UNL     1      16.980 -26.663  26.168  1.00  0.00     0.293 HD
ENDBRANCH  15  18
BRANCH  17  20
ATOM     20  O   UNL     1      15.299 -23.855  26.663  1.00  0.00    -0.504 OA
ATOM     21  H   UNL     1      15.854 -23.059  26.954  1.00  0.00     0.293 HD
ENDBRANCH  17  20
ENDBRANCH   1  12
BRANCH   6  22
ATOM     22  O   UNL     1      12.797 -20.245  17.706  1.00  0.00    -0.507 OA
ATOM     23  H   UNL     1      13.244 -20.613  16.881  1.00  0.00     0.293 HD
ENDBRANCH   6  22
BRANCH   8  24
ATOM     24  O   UNL     1      14.963 -17.046  20.557  1.00  0.00    -0.508 OA
ATOM     25  H   UNL     1      15.581 -16.564  19.914  1.00  0.00     0.293 HD
ENDBRANCH   8  24
TORSDOF 5
ENDMDL
MODEL 3
REMARK VINA RESULT:    -6.848      2.626      7.291
REMARK INTER + INTRA:          -8.345
REMARK INTER:                  -8.036
REMARK INTRA:                  -0.309
REMARK UNBOUND:                -0.296
REMARK SMILES O=c1cc(-c2ccc(O)c(O)c2)oc2cc(O)cc(O)c12
REMARK SMILES IDX 4 1 3 2 2 3 1 4 21 5 19 6 18 7 16 8 15 9 14 10 13 11 5 12
REMARK SMILES IDX 6 13 7 14 8 15 12 16 10 17 9 18 11 20 20 22 17 24
REMARK H PARENT 9 19 11 21 20 23 17 25
REMARK Flexibility Score: inf
ROOT
ATOM      1  C   UNL     1      14.948 -23.514  22.115  1.00  0.00     0.138 A 
ATOM      2  C   UNL     1      14.590 -24.391  21.083  1.00  0.00     0.100 A 
ATOM      3  C   UNL     1      14.102 -23.880  19.879  1.00  0.00     0.197 A 
ATOM      4  O   UNL     1      13.738 -24.695  18.994  1.00  0.00    -0.289 OA
ATOM      5  C   UNL     1      14.006 -22.479  19.697  1.00  0.00     0.107 A 
ATOM      6  C   UNL     1      13.555 -21.842  18.501  1.00  0.00     0.134 A 
ATOM      7  C   UNL     1      13.409 -20.449  18.474  1.00  0.00     0.093 A 
ATOM      8  C   UNL     1      13.753 -19.667  19.579  1.00  0.00     0.123 A 
ATOM      9  C   UNL     1      14.241 -20.275  20.733  1.00  0.00     0.094 A 
ATOM     10  C   UNL     1      14.366 -21.664  20.804  1.00  0.00     0.146 A 
ATOM     11  O   UNL     1      14.818 -22.203  21.930  1.00  0.00    -0.456 OA
ENDROOT
BRANCH   1  12
ATOM     12  C   UNL     1      15.475 -24.002  23.414  1.00  0.00     0.021 A 
ATOM     13  C   UNL     1      16.143 -25.238  23.468  1.00  0.00     0.016 A 
ATOM     14  C   UNL     1      16.654 -25.717  24.677  1.00  0.00     0.051 A 
ATOM     15  C   UNL     1      16.518 -24.965  25.849  1.00  0.00     0.157 A 
ATOM     16  C   UNL     1      15.353 -23.244  24.596  1.00  0.00     0.062 A 
ATOM     17  C   UNL     1      15.869 -23.725  25.808  1.00  0.00     0.158 A 
BRANCH  15  18
ATOM     18  O   UNL     1      17.026 -25.439  27.057  1.00  0.00    -0.504 OA
ATOM     19  H   UNL     1      17.043 -24.860  27.888  1.00  0.00     0.293 HD
ENDBRANCH  15  18
BRANCH  17  20
ATOM     20  O   UNL     1      15.744 -22.973  26.975  1.00  0.00    -0.504 OA
ATOM     21  H   UNL     1      14.890 -22.476  27.198  1.00  0.00     0.293 HD
ENDBRANCH  17  20
ENDBRANCH   1  12
BRANCH   6  22
ATOM     22  O   UNL     1      13.260 -22.521  17.315  1.00  0.00    -0.507 OA
ATOM     23  H   UNL     1      12.397 -23.006  17.124  1.00  0.00     0.293 HD
ENDBRANCH   6  22
BRANCH   8  24
ATOM     24  O   UNL     1      13.619 -18.280  19.536  1.00  0.00    -0.508 OA
ATOM     25  H   UNL     1      13.587 -17.778  18.657  1.00  0.00     0.293 HD
ENDBRANCH   8  24
TORSDOF 5
ENDMDL
MODEL 4
REMARK VINA RESULT:    -6.683      2.470      3.134
REMARK INTER + INTRA:          -8.152
REMARK INTER:                  -7.838
REMARK INTRA:                  -0.314
REMARK UNBOUND:                -0.296
REMARK SMILES O=c1cc(-c2ccc(O)c(O)c2)oc2cc(O)cc(O)c12
REMARK SMILES IDX 4 1 3 2 2 3 1 4 21 5 19 6 18 7 16 8 15 9 14 10 13 11 5 12
REMARK SMILES IDX 6 13 7 14 8 15 12 16 10 17 9 18 11 20 20 22 17 24
REMARK H PARENT 9 19 11 21 20 23 17 25
REMARK Flexibility Score: inf
ROOT
ATOM      1  C   UNL     1      14.668 -22.203  21.207  1.00  0.00     0.138 A 
ATOM      2  C   UNL     1      14.871 -23.457  20.616  1.00  0.00     0.100 A 
ATOM      3  C   UNL     1      15.181 -24.557  21.417  1.00  0.00     0.197 A 
ATOM      4  O   UNL     1      15.411 -25.656  20.851  1.00  0.00    -0.289 OA
ATOM      5  C   UNL     1      15.253 -24.406  22.823  1.00  0.00     0.107 A 
ATOM      6  C   UNL     1      15.528 -25.462  23.743  1.00  0.00     0.134 A 
ATOM      7  C   UNL     1      15.672 -25.170  25.106  1.00  0.00     0.093 A 
ATOM      8  C   UNL     1      15.494 -23.872  25.588  1.00  0.00     0.123 A 
ATOM      9  C   UNL     1      15.176 -22.843  24.704  1.00  0.00     0.094 A 
ATOM     10  C   UNL     1      15.059 -23.095  23.335  1.00  0.00     0.146 A 
ATOM     11  O   UNL     1      14.773 -22.080  22.527  1.00  0.00    -0.456 OA
ENDROOT
BRANCH   1  12
ATOM     12  C   UNL     1      14.333 -21.001  20.404  1.00  0.00     0.021 A 
ATOM     13  C   UNL     1      13.844 -21.158  19.094  1.00  0.00     0.016 A 
ATOM     14  C   UNL     1      13.515 -20.043  18.320  1.00  0.00     0.051 A 
ATOM     15  C   UNL     1      13.658 -18.753  18.843  1.00  0.00     0.157 A 
ATOM     16  C   UNL     1      14.462 -19.699  20.928  1.00  0.00     0.062 A 
ATOM     17  C   UNL     1      14.129 -18.580  20.150  1.00  0.00     0.158 A 
BRANCH  15  18
ATOM     18  O   UNL     1      13.331 -17.638  18.073  1.00  0.00    -0.504 OA
ATOM     19  H   UNL     1      12.708 -17.708  17.278  1.00  0.00     0.293 HD
ENDBRANCH  15  18
BRANCH  17  20
ATOM     20  O   UNL     1      14.259 -17.294  20.672  1.00  0.00    -0.504 OA
ATOM     21  H   UNL     1      13.845 -17.038  21.561  1.00  0.00     0.293 HD
ENDBRANCH  17  20
ENDBRANCH   1  12
BRANCH   6  22
ATOM     22  O   UNL     1      15.647 -26.807  23.379  1.00  0.00    -0.507 OA
ATOM     23  H   UNL     1      14.956 -27.331  22.864  1.00  0.00     0.293 HD
ENDBRANCH   6  22
BRANCH   8  24
ATOM     24  O   UNL     1      15.623 -23.595  26.948  1.00  0.00    -0.508 OA
ATOM     25  H   UNL     1      14.953 -23.012  27.435  1.00  0.00     0.293 HD
ENDBRANCH   8  24
TORSDOF 5
ENDMDL
MODEL 5
REMARK VINA RESULT:    -6.590      1.899      7.102
REMARK INTER + INTRA:          -8.042
REMARK INTER:                  -7.775
REMARK INTRA:                  -0.267
REMARK UNBOUND:                -0.296
REMARK SMILES O=c1cc(-c2ccc(O)c(O)c2)oc2cc(O)cc(O)c12
REMARK SMILES IDX 4 1 3 2 2 3 1 4 21 5 19 6 18 7 16 8 15 9 14 10 13 11 5 12
REMARK SMILES IDX 6 13 7 14 8 15 12 16 10 17 9 18 11 20 20 22 17 24
REMARK H PARENT 9 19 11 21 20 23 17 25
REMARK Flexibility Score: inf
ROOT
ATOM      1  C   UNL     1      13.921 -22.925  20.706  1.00  0.00     0.138 A 
ATOM      2  C   UNL     1      12.859 -22.973  19.794  1.00  0.00     0.100 A 
ATOM      3  C   UNL     1      12.436 -21.803  19.162  1.00  0.00     0.197 A 
ATOM      4  O   UNL     1      11.445 -21.870  18.391  1.00  0.00    -0.289 OA
ATOM      5  C   UNL     1      13.106 -20.582  19.420  1.00  0.00     0.107 A 
ATOM      6  C   UNL     1      12.786 -19.332  18.809  1.00  0.00     0.134 A 
ATOM      7  C   UNL     1      13.457 -18.172  19.219  1.00  0.00     0.093 A 
ATOM      8  C   UNL     1      14.474 -18.227  20.174  1.00  0.00     0.123 A 
ATOM      9  C   UNL     1      14.828 -19.450  20.739  1.00  0.00     0.094 A 
ATOM     10  C   UNL     1      14.155 -20.619  20.378  1.00  0.00     0.146 A 
ATOM     11  O   UNL     1      14.513 -21.761  20.955  1.00  0.00    -0.456 OA
ENDROOT
BRANCH   1  12
ATOM     12  C   UNL     1      14.413 -24.139  21.404  1.00  0.00     0.021 A 
ATOM     13  C   UNL     1      13.702 -24.637  22.510  1.00  0.00     0.016 A 
ATOM     14  C   UNL     1      14.141 -25.781  23.180  1.00  0.00     0.051 A 
ATOM     15  C   UNL     1      15.291 -26.454  22.751  1.00  0.00     0.157 A 
ATOM     16  C   UNL     1      15.562 -24.829  20.969  1.00  0.00     0.062 A 
ATOM     17  C   UNL     1      16.001 -25.980  21.642  1.00  0.00     0.158 A 
BRANCH  15  18
ATOM     18  O   UNL     1      15.732 -27.596  23.417  1.00  0.00    -0.504 OA
ATOM     19  H   UNL     1      15.590 -27.716  24.413  1.00  0.00     0.293 HD
ENDBRANCH  15  18
BRANCH  17  20
ATOM     20  O   UNL     1      17.139 -26.658  21.209  1.00  0.00    -0.504 OA
ATOM     21  H   UNL     1      17.103 -27.321  20.444  1.00  0.00     0.293 HD
ENDBRANCH  17  20
ENDBRANCH   1  12
BRANCH   6  22
ATOM     22  O   UNL     1      11.843 -19.177  17.789  1.00  0.00    -0.507 OA
ATOM     23  H   UNL     1      11.744 -18.357  17.211  1.00  0.00     0.293 HD
ENDBRANCH   6  22
BRANCH   8  24
ATOM     24  O   UNL     1      15.146 -17.070  20.564  1.00  0.00    -0.508 OA
ATOM     25  H   UNL     1      14.994 -16.185  20.093  1.00  0.00     0.293 HD
ENDBRANCH   8  24
TORSDOF 5
ENDMDL
MODEL 6
REMARK VINA RESULT:    -6.576      2.868      3.929
REMARK INTER + INTRA:          -8.026
REMARK INTER:                  -7.729
REMARK INTRA:                  -0.297
REMARK UNBOUND:                -0.296
REMARK SMILES O=c1cc(-c2ccc(O)c(O)c2)oc2cc(O)cc(O)c12
REMARK SMILES IDX 4 1 3 2 2 3 1 4 21 5 19 6 18 7 16 8 15 9 14 10 13 11 5 12
REMARK SMILES IDX 6 13 7 14 8 15 12 16 10 17 9 18 11 20 20 22 17 24
REMARK H PARENT 9 19 11 21 20 23 17 25
REMARK Flexibility Score: inf
ROOT
ATOM      1  C   UNL     1      14.859 -23.103  21.905  1.00  0.00     0.138 A 
ATOM      2  C   UNL     1      15.037 -24.486  21.773  1.00  0.00     0.100 A 
ATOM      3  C   UNL     1      15.493 -25.231  22.862  1.00  0.00     0.197 A 
ATOM      4  O   UNL     1      15.695 -26.461  22.696  1.00  0.00    -0.289 OA
ATOM      5  C   UNL     1      15.738 -24.590  24.100  1.00  0.00     0.107 A 
ATOM      6  C   UNL     1      16.173 -25.251  25.289  1.00  0.00     0.134 A 
ATOM      7  C   UNL     1      16.478 -24.495  26.428  1.00  0.00     0.093 A 
ATOM      8  C   UNL     1      16.308 -23.108  26.439  1.00  0.00     0.123 A 
ATOM      9  C   UNL     1      15.837 -22.459  25.300  1.00  0.00     0.094 A 
ATOM     10  C   UNL     1      15.557 -23.181  24.138  1.00  0.00     0.146 A 
ATOM     11  O   UNL     1      15.127 -22.519  23.069  1.00  0.00    -0.456 OA
ENDROOT
BRANCH   1  12
ATOM     12  C   UNL     1      14.374 -22.263  20.781  1.00  0.00     0.021 A 
ATOM     13  C   UNL     1      14.271 -20.871  20.953  1.00  0.00     0.016 A 
ATOM     14  C   UNL     1      13.823 -20.057  19.909  1.00  0.00     0.051 A 
ATOM     15  C   UNL     1      13.480 -20.618  18.674  1.00  0.00     0.157 A 
ATOM     16  C   UNL     1      14.039 -22.819  19.531  1.00  0.00     0.062 A 
ATOM     17  C   UNL     1      13.591 -22.001  18.483  1.00  0.00     0.158 A 
BRANCH  15  18
ATOM     18  O   UNL     1      13.031 -19.810  17.630  1.00  0.00    -0.504 OA
ATOM     19  H   UNL     1      13.541 -19.743  16.757  1.00  0.00     0.293 HD
ENDBRANCH  15  18
BRANCH  17  20
ATOM     20  O   UNL     1      13.260 -22.555  17.247  1.00  0.00    -0.504 OA
ATOM     21  H   UNL     1      13.956 -22.698  16.526  1.00  0.00     0.293 HD
ENDBRANCH  17  20
ENDBRANCH   1  12
BRANCH   6  22
ATOM     22  O   UNL     1      16.300 -26.638  25.411  1.00  0.00    -0.507 OA
ATOM     23  H   UNL     1      16.551 -27.125  26.258  1.00  0.00     0.293 HD
ENDBRANCH   6  22
BRANCH   8  24
ATOM     24  O   UNL     1      16.599 -22.366  27.583  1.00  0.00    -0.508 OA
ATOM     25  H   UNL     1      16.951 -21.418  27.523  1.00  0.00     0.293 HD
ENDBRANCH   8  24
TORSDOF 5
ENDMDL
MODEL 7
REMARK VINA RESULT:    -6.567      1.514      6.846
REMARK INTER + INTRA:          -8.015
REMARK INTER:                  -7.710
REMARK INTRA:                  -0.305
REMARK UNBOUND:                -0.296
REMARK SMILES O=c1cc(-c2ccc(O)c(O)c2)oc2cc(O)cc(O)c12
REMARK SMILES IDX 4 1 3 2 2 3 1 4 21 5 19 6 18 7 16 8 15 9 14 10 13 11 5 12
REMARK SMILES IDX 6 13 7 14 8 15 12 16 10 17 9 18 11 20 20 22 17 24
REMARK H PARENT 9 19 11 21 20 23 17 25
REMARK Flexibility Score: inf
ROOT
ATOM      1  C   UNL     1      14.393 -22.932  20.465  1.00  0.00     0.138 A 
ATOM      2  C   UNL     1      15.477 -22.142  20.061  1.00  0.00     0.100 A 
ATOM      3  C   UNL     1      15.248 -20.963  19.351  1.00  0.00     0.197 A 
ATOM      4  O   UNL     1      16.244 -20.306  18.955  1.00  0.00    -0.289 OA
ATOM      5  C   UNL     1      13.920 -20.555  19.075  1.00  0.00     0.107 A 
ATOM      6  C   UNL     1      13.563 -19.355  18.389  1.00  0.00     0.134 A 
ATOM      7  C   UNL     1      12.217 -19.107  18.087  1.00  0.00     0.093 A 
ATOM      8  C   UNL     1      11.213 -19.986  18.499  1.00  0.00     0.123 A 
ATOM      9  C   UNL     1      11.547 -21.134  19.213  1.00  0.00     0.094 A 
ATOM     10  C   UNL     1      12.882 -21.428  19.499  1.00  0.00     0.146 A 
ATOM     11  O   UNL     1      13.157 -22.543  20.166  1.00  0.00    -0.456 OA
ENDROOT
BRANCH   1  12
ATOM     12  C   UNL     1      14.579 -24.193  21.225  1.00  0.00     0.021 A 
ATOM     13  C   UNL     1      15.749 -24.950  21.033  1.00  0.00     0.016 A 
ATOM     14  C   UNL     1      15.951 -26.138  21.741  1.00  0.00     0.051 A 
ATOM     15  C   UNL     1      14.994 -26.584  22.660  1.00  0.00     0.157 A 
ATOM     16  C   UNL     1      13.626 -24.642  22.161  1.00  0.00     0.062 A 
ATOM     17  C   UNL     1      13.832 -25.833  22.873  1.00  0.00     0.158 A 
BRANCH  15  18
ATOM     18  O   UNL     1      15.192 -27.768  23.368  1.00  0.00    -0.504 OA
ATOM     19  H   UNL     1      14.722 -27.942  24.249  1.00  0.00     0.293 HD
ENDBRANCH  15  18
BRANCH  17  20
ATOM     20  O   UNL     1      12.886 -26.274  23.798  1.00  0.00    -0.504 OA
ATOM     21  H   UNL     1      12.699 -25.761  24.651  1.00  0.00     0.293 HD
ENDBRANCH  17  20
ENDBRANCH   1  12
BRANCH   6  22
ATOM     22  O   UNL     1      14.478 -18.371  18.002  1.00  0.00    -0.507 OA
ATOM     23  H   UNL     1      15.465 -18.385  18.207  1.00  0.00     0.293 HD
ENDBRANCH   6  22
BRANCH   8  24
ATOM     24  O   UNL     1       9.875 -19.722  18.208  1.00  0.00    -0.508 OA
ATOM     25  H   UNL     1       9.464 -19.986  17.320  1.00  0.00     0.293 HD
ENDBRANCH   8  24
TORSDOF 5
ENDMDL
MODEL 8
REMARK VINA RESULT:    -6.525      3.052      7.086
REMARK INTER + INTRA:          -7.966
REMARK INTER:                  -7.688
REMARK INTRA:                  -0.277
REMARK UNBOUND:                -0.296
REMARK SMILES O=c1cc(-c2ccc(O)c(O)c2)oc2cc(O)cc(O)c12
REMARK SMILES IDX 4 1 3 2 2 3 1 4 21 5 19 6 18 7 16 8 15 9 14 10 13 11 5 12
REMARK SMILES IDX 6 13 7 14 8 15 12 16 10 17 9 18 11 20 20 22 17 24
REMARK H PARENT 9 19 11 21 20 23 17 25
REMARK Flexibility Score: inf
ROOT
ATOM      1  C   UNL     1      15.227 -22.764  22.622  1.00  0.00     0.138 A 
ATOM      2  C   UNL     1      15.345 -21.391  22.370  1.00  0.00     0.100 A 
ATOM      3  C   UNL     1      14.800 -20.853  21.203  1.00  0.00     0.197 A 
ATOM      4  O   UNL     1      14.972 -19.627  20.979  1.00  0.00    -0.289 OA
ATOM      5  C   UNL     1      14.101 -21.692  20.301  1.00  0.00     0.107 A 
ATOM      6  C   UNL     1      13.474 -21.249  19.096  1.00  0.00     0.134 A 
ATOM      7  C   UNL     1      12.897 -22.190  18.234  1.00  0.00     0.093 A 
ATOM      8  C   UNL     1      12.872 -23.548  18.560  1.00  0.00     0.123 A 
ATOM      9  C   UNL     1      13.437 -23.983  19.757  1.00  0.00     0.094 A 
ATOM     10  C   UNL     1      14.051 -23.075  20.622  1.00  0.00     0.146 A 
ATOM     11  O   UNL     1      14.593 -23.536  21.744  1.00  0.00    -0.456 OA
ENDROOT
BRANCH   1  12
ATOM     12  C   UNL     1      15.784 -23.389  23.848  1.00  0.00     0.021 A 
ATOM     13  C   UNL     1      16.526 -24.579  23.742  1.00  0.00     0.016 A 
ATOM     14  C   UNL     1      17.066 -25.183  24.879  1.00  0.00     0.051 A 
ATOM     15  C   UNL     1      16.885 -24.604  26.141  1.00  0.00     0.157 A 
ATOM     16  C   UNL     1      15.617 -22.804  25.119  1.00  0.00     0.062 A 
ATOM     17  C   UNL     1      16.162 -23.411  26.261  1.00  0.00     0.158 A 
BRANCH  15  18
ATOM     18  O   UNL     1      17.422 -25.204  27.278  1.00  0.00    -0.504 OA
ATOM     19  H   UNL     1      17.156 -24.905  28.209  1.00  0.00     0.293 HD
ENDBRANCH  15  18
BRANCH  17  20
ATOM     20  O   UNL     1      15.994 -22.830  27.516  1.00  0.00    -0.504 OA
ATOM     21  H   UNL     1      16.438 -21.953  27.760  1.00  0.00     0.293 HD
ENDBRANCH  17  20
ENDBRANCH   1  12
BRANCH   6  22
ATOM     22  O   UNL     1      13.372 -19.909  18.713  1.00  0.00    -0.507 OA
ATOM     23  H   UNL     1      12.635 -19.280  18.994  1.00  0.00     0.293 HD
ENDBRANCH   6  22
BRANCH   8  24
ATOM     24  O   UNL     1      12.280 -24.474  17.703  1.00  0.00    -0.508 OA
ATOM     25  H   UNL     1      12.167 -25.445  17.969  1.00  0.00     0.293 HD
ENDBRANCH   8  24
TORSDOF 5
ENDMDL
MODEL 9
REMARK VINA RESULT:    -6.489      3.931      5.512
REMARK INTER + INTRA:          -7.923
REMARK INTER:                  -7.637
REMARK INTRA:                  -0.286
REMARK UNBOUND:                -0.296
REMARK SMILES O=c1cc(-c2ccc(O)c(O)c2)oc2cc(O)cc(O)c12
REMARK SMILES IDX 4 1 3 2 2 3 1 4 21 5 19 6 18 7 16 8 15 9 14 10 13 11 5 12
REMARK SMILES IDX 6 13 7 14 8 15 12 16 10 17 9 18 11 20 20 22 17 24
REMARK H PARENT 9 19 11 21 20 23 17 25
REMARK Flexibility Score: inf
ROOT
ATOM      1  C   UNL     1      14.326 -19.187  20.626  1.00  0.00     0.138 A 
ATOM      2  C   UNL     1      13.076 -19.066  20.005  1.00  0.00     0.100 A 
ATOM      3  C   UNL     1      12.418 -20.209  19.546  1.00  0.00     0.197 A 
ATOM      4  O   UNL     1      11.324 -20.061  18.943  1.00  0.00    -0.289 OA
ATOM      5  C   UNL     1      13.002 -21.484  19.743  1.00  0.00     0.107 A 
ATOM      6  C   UNL     1      12.409 -22.721  19.348  1.00  0.00     0.134 A 
ATOM      7  C   UNL     1      13.129 -23.913  19.507  1.00  0.00     0.093 A 
ATOM      8  C   UNL     1      14.393 -23.918  20.100  1.00  0.00     0.123 A 
ATOM      9  C   UNL     1      14.959 -22.721  20.535  1.00  0.00     0.094 A 
ATOM     10  C   UNL     1      14.282 -21.512  20.358  1.00  0.00     0.146 A 
ATOM     11  O   UNL     1      14.867 -20.393  20.771  1.00  0.00    -0.456 OA
ENDROOT
BRANCH   1  12
ATOM     12  C   UNL     1      15.067 -18.007  21.136  1.00  0.00     0.021 A 
ATOM     13  C   UNL     1      16.473 -18.012  21.115  1.00  0.00     0.016 A 
ATOM     14  C   UNL     1      17.194 -16.911  21.584  1.00  0.00     0.051 A 
ATOM     15  C   UNL     1      16.524 -15.782  22.070  1.00  0.00     0.157 A 
ATOM     16  C   UNL     1      14.399 -16.862  21.615  1.00  0.00     0.062 A 
ATOM     17  C   UNL     1      15.125 -15.756  22.082  1.00  0.00     0.158 A 
BRANCH  15  18
ATOM     18  O   UNL     1      17.240 -14.682  22.539  1.00  0.00    -0.504 OA
ATOM     19  H   UNL     1      17.286 -13.817  22.012  1.00  0.00     0.293 HD
ENDBRANCH  15  18
BRANCH  17  20
ATOM     20  O   UNL     1      14.460 -14.626  22.556  1.00  0.00    -0.504 OA
ATOM     21  H   UNL     1      14.377 -14.436  23.548  1.00  0.00     0.293 HD
ENDBRANCH  17  20
ENDBRANCH   1  12
BRANCH   6  22
ATOM     22  O   UNL     1      11.120 -22.839  18.819  1.00  0.00    -0.507 OA
ATOM     23  H   UNL     1      10.458 -23.560  19.061  1.00  0.00     0.293 HD
ENDBRANCH   6  22
BRANCH   8  24
ATOM     24  O   UNL     1      15.094 -25.111  20.270  1.00  0.00    -0.508 OA
ATOM     25  H   UNL     1      15.197 -25.776  19.512  1.00  0.00     0.293 HD
ENDBRANCH   8  24
TORSDOF 5
ENDMDL
