MODEL 1
REMARK VINA RESULT:    -4.087      0.000      0.000
REMARK INTER + INTRA:         -11.230
REMARK INTER:                  -8.866
REMARK INTRA:                  -2.364
REMARK UNBOUND:                -2.364
REMARK SMILES CCCCCCCCCCCCCCCCCCCCCC(=O)[O-]
REMARK SMILES IDX 12 1 11 2 10 3 9 4 8 5 7 6 6 7 5 8 4 9 3 10 2 11 1 12 13 13
REMARK SMILES IDX 14 14 15 15 16 16 17 17 18 18 19 19 20 20 21 21 22 22 23 23
REMARK SMILES IDX 24 24
REMARK H PARENT
REMARK Flexibility Score: inf
ROOT
ATOM      1  C   UNL     1      16.167 -12.903  12.332  1.00  0.00     0.000 C 
ENDROOT
BRANCH   1   2
ATOM      2  C   UNL     1      14.769 -13.464  12.632  1.00  0.00     0.000 C 
BRANCH   2   3
ATOM      3  C   UNL     1      13.679 -12.596  11.986  1.00  0.00     0.000 C 
BRANCH   3   4
ATOM      4  C   UNL     1      12.934 -11.714  13.004  1.00  0.00    -0.000 C 
BRANCH   4   5
ATOM      5  C   UNL     1      11.909 -10.738  12.393  1.00  0.00    -0.000 C 
BRANCH   5   6
ATOM      6  C   UNL     1      12.449  -9.324  12.099  1.00  0.00    -0.000 C 
BRANCH   6   7
ATOM      7  C   UNL     1      13.787  -8.986  12.789  1.00  0.00    -0.000 C 
BRANCH   7   8
ATOM      8  C   UNL     1      14.285  -7.543  12.575  1.00  0.00    -0.000 C 
BRANCH   8   9
ATOM      9  C   UNL     1      13.569  -6.470  13.416  1.00  0.00    -0.000 C 
BRANCH   9  10
ATOM     10  C   UNL     1      13.701  -5.058  12.821  1.00  0.00    -0.000 C 
BRANCH  10  11
ATOM     11  C   UNL     1      13.872  -3.978  13.902  1.00  0.00    -0.003 C 
ATOM     12  C   UNL     1      13.139  -4.317  15.200  1.00  0.00     0.004 C 
ENDBRANCH  10  11
ENDBRANCH   9  10
ENDBRANCH   8   9
ENDBRANCH   7   8
ENDBRANCH   6   7
ENDBRANCH   5   6
ENDBRANCH   4   5
ENDBRANCH   3   4
ENDBRANCH   2   3
ENDBRANCH   1   2
BRANCH   1  13
ATOM     13  C   UNL     1      16.156 -11.392  12.037  1.00  0.00     0.000 C 
BRANCH  13  14
ATOM     14  C   UNL     1      17.237 -10.577  12.769  1.00  0.00     0.000 C 
BRANCH  14  15
ATOM     15  C   UNL     1      17.393  -9.154  12.208  1.00  0.00     0.000 C 
BRANCH  15  16
ATOM     16  C   UNL     1      18.400  -8.305  13.005  1.00  0.00     0.000 C 
BRANCH  16  17
ATOM     17  C   UNL     1      18.428  -6.808  12.634  1.00  0.00     0.000 C 
BRANCH  17  18
ATOM     18  C   UNL     1      17.332  -5.972  13.331  1.00  0.00     0.000 C 
BRANCH  18  19
ATOM     19  C   UNL     1      17.578  -5.775  14.838  1.00  0.00     0.000 C 
BRANCH  19  20
ATOM     20  C   UNL     1      16.310  -6.007  15.673  1.00  0.00     0.006 C 
BRANCH  20  21
ATOM     21  C   UNL     1      16.666  -6.425  17.103  1.00  0.00     0.053 C 
BRANCH  21  22
ATOM     22  C   UNL     1      16.395  -5.307  18.059  1.00  0.00     0.041 C 
ATOM     23  O   UNL     1      15.264  -4.752  18.079  1.00  0.00    -0.550 OA
ATOM     24  O   UNL     1      17.373  -4.910  18.960  1.00  0.00    -0.550 OA
ENDBRANCH  21  22
ENDBRANCH  20  21
ENDBRANCH  19  20
ENDBRANCH  18  19
ENDBRANCH  17  18
ENDBRANCH  16  17
ENDBRANCH  15  16
ENDBRANCH  14  15
ENDBRANCH  13  14
ENDBRANCH   1  13
TORSDOF 20
ENDMDL
MODEL 2
REMARK VINA RESULT:    -3.581      2.480      6.539
REMARK INTER + INTRA:         -10.132
REMARK INTER:                  -7.902
REMARK INTRA:                  -2.231
REMARK UNBOUND:                -2.364
REMARK SMILES CCCCCCCCCCCCCCCCCCCCCC(=O)[O-]
REMARK SMILES IDX 12 1 11 2 10 3 9 4 8 5 7 6 6 7 5 8 4 9 3 10 2 11 1 12 13 13
REMARK SMILES IDX 14 14 15 15 16 16 17 17 18 18 19 19 20 20 21 21 22 22 23 23
REMARK SMILES IDX 24 24
REMARK H PARENT
REMARK Flexibility Score: inf
ROOT
ATOM      1  C   UNL     1      14.013  -4.665  15.876  1.00  0.00     0.000 C 
ENDROOT
BRANCH   1   2
ATOM      2  C   UNL     1      12.936  -3.875  15.119  1.00  0.00     0.000 C 
BRANCH   2   3
ATOM      3  C   UNL     1      12.903  -4.276  13.636  1.00  0.00     0.000 C 
BRANCH   3   4
ATOM      4  C   UNL     1      14.279  -4.710  13.101  1.00  0.00    -0.000 C 
BRANCH   4   5
ATOM      5  C   UNL     1      14.303  -6.082  12.398  1.00  0.00    -0.000 C 
BRANCH   5   6
ATOM      6  C   UNL     1      13.802  -7.262  13.254  1.00  0.00    -0.000 C 
BRANCH   6   7
ATOM      7  C   UNL     1      13.671  -8.600  12.499  1.00  0.00    -0.000 C 
BRANCH   7   8
ATOM      8  C   UNL     1      12.540  -9.523  12.997  1.00  0.00    -0.000 C 
BRANCH   8   9
ATOM      9  C   UNL     1      12.741 -11.021  12.707  1.00  0.00    -0.000 C 
BRANCH   9  10
ATOM     10  C   UNL     1      14.012 -11.307  11.889  1.00  0.00    -0.000 C 
BRANCH  10  11
ATOM     11  C   UNL     1      14.516 -12.748  12.070  1.00  0.00    -0.003 C 
ATOM     12  C   UNL     1      13.588 -13.596  12.939  1.00  0.00     0.004 C 
ENDBRANCH  10  11
ENDBRANCH   9  10
ENDBRANCH   8   9
ENDBRANCH   7   8
ENDBRANCH   6   7
ENDBRANCH   5   6
ENDBRANCH   4   5
ENDBRANCH   3   4
ENDBRANCH   2   3
ENDBRANCH   1   2
BRANCH   1  13
ATOM     13  C   UNL     1      14.181  -4.204  17.335  1.00  0.00     0.000 C 
BRANCH  13  14
ATOM     14  C   UNL     1      15.376  -4.824  18.081  1.00  0.00     0.000 C 
BRANCH  14  15
ATOM     15  C   UNL     1      15.823  -6.168  17.479  1.00  0.00     0.000 C 
BRANCH  15  16
ATOM     16  C   UNL     1      17.302  -6.170  17.056  1.00  0.00     0.000 C 
BRANCH  16  17
ATOM     17  C   UNL     1      17.612  -6.968  15.773  1.00  0.00     0.000 C 
BRANCH  17  18
ATOM     18  C   UNL     1      17.016  -6.345  14.491  1.00  0.00     0.000 C 
BRANCH  18  19
ATOM     19  C   UNL     1      18.075  -6.012  13.423  1.00  0.00     0.000 C 
BRANCH  19  20
ATOM     20  C   UNL     1      18.483  -7.244  12.601  1.00  0.00     0.006 C 
BRANCH  20  21
ATOM     21  C   UNL     1      17.318  -8.232  12.482  1.00  0.00     0.053 C 
BRANCH  21  22
ATOM     22  C   UNL     1      17.728  -9.586  12.965  1.00  0.00     0.041 C 
ATOM     23  O   UNL     1      18.319  -9.713  14.070  1.00  0.00    -0.550 OA
ATOM     24  O   UNL     1      17.416 -10.715  12.219  1.00  0.00    -0.550 OA
ENDBRANCH  21  22
ENDBRANCH  20  21
ENDBRANCH  19  20
ENDBRANCH  18  19
ENDBRANCH  17  18
ENDBRANCH  16  17
ENDBRANCH  15  16
ENDBRANCH  14  15
ENDBRANCH  13  14
ENDBRANCH   1  13
TORSDOF 20
ENDMDL
MODEL 3
REMARK VINA RESULT:    -3.167      1.119      4.945
REMARK INTER + INTRA:          -9.234
REMARK INTER:                  -7.887
REMARK INTRA:                  -1.347
REMARK UNBOUND:                -2.364
REMARK SMILES CCCCCCCCCCCCCCCCCCCCCC(=O)[O-]
REMARK SMILES IDX 12 1 11 2 10 3 9 4 8 5 7 6 6 7 5 8 4 9 3 10 2 11 1 12 13 13
REMARK SMILES IDX 14 14 15 15 16 16 17 17 18 18 19 19 20 20 21 21 22 22 23 23
REMARK SMILES IDX 24 24
REMARK H PARENT
REMARK Flexibility Score: inf
ROOT
ATOM      1  C   UNL     1      16.487  -7.074  12.671  1.00  0.00     0.000 C 
ENDROOT
BRANCH   1   2
ATOM      2  C   UNL     1      17.072  -7.868  13.848  1.00  0.00     0.000 C 
BRANCH   2   3
ATOM      3  C   UNL     1      18.186  -8.813  13.372  1.00  0.00     0.000 C 
BRANCH   3   4
ATOM      4  C   UNL     1      17.696  -9.847  12.342  1.00  0.00    -0.000 C 
BRANCH   4   5
ATOM      5  C   UNL     1      16.607 -10.812  12.853  1.00  0.00    -0.000 C 
BRANCH   5   6
ATOM      6  C   UNL     1      16.254 -11.964  11.892  1.00  0.00    -0.000 C 
BRANCH   6   7
ATOM      7  C   UNL     1      15.656 -13.213  12.571  1.00  0.00    -0.000 C 
BRANCH   7   8
ATOM      8  C   UNL     1      14.116 -13.276  12.584  1.00  0.00    -0.000 C 
BRANCH   8   9
ATOM      9  C   UNL     1      13.404 -12.040  12.004  1.00  0.00    -0.000 C 
BRANCH   9  10
ATOM     10  C   UNL     1      12.223 -11.570  12.871  1.00  0.00    -0.000 C 
BRANCH  10  11
ATOM     11  C   UNL     1      12.148 -10.038  12.979  1.00  0.00    -0.003 C 
ATOM     12  C   UNL     1      13.125  -9.328  12.042  1.00  0.00     0.004 C 
ENDBRANCH  10  11
ENDBRANCH   9  10
ENDBRANCH   8   9
ENDBRANCH   7   8
ENDBRANCH   6   7
ENDBRANCH   5   6
ENDBRANCH   4   5
ENDBRANCH   3   4
ENDBRANCH   2   3
ENDBRANCH   1   2
BRANCH   1  13
ATOM     13  C   UNL     1      16.745  -5.561  12.781  1.00  0.00     0.000 C 
BRANCH  13  14
ATOM     14  C   UNL     1      15.748  -4.673  12.014  1.00  0.00     0.000 C 
BRANCH  14  15
ATOM     15  C   UNL     1      14.358  -5.317  11.878  1.00  0.00     0.000 C 
BRANCH  15  16
ATOM     16  C   UNL     1      13.901  -6.029  13.163  1.00  0.00     0.000 C 
BRANCH  16  17
ATOM     17  C   UNL     1      12.891  -5.239  14.021  1.00  0.00     0.000 C 
BRANCH  17  18
ATOM     18  C   UNL     1      13.535  -4.129  14.881  1.00  0.00     0.000 C 
BRANCH  18  19
ATOM     19  C   UNL     1      14.149  -4.650  16.193  1.00  0.00     0.000 C 
BRANCH  19  20
ATOM     20  C   UNL     1      15.212  -5.732  15.952  1.00  0.00     0.006 C 
BRANCH  20  21
ATOM     21  C   UNL     1      16.514  -5.392  16.684  1.00  0.00     0.053 C 
BRANCH  21  22
ATOM     22  C   UNL     1      16.356  -5.598  18.156  1.00  0.00     0.041 C 
ATOM     23  O   UNL     1      15.964  -6.709  18.602  1.00  0.00    -0.550 OA
ATOM     24  O   UNL     1      16.690  -4.582  19.041  1.00  0.00    -0.550 OA
ENDBRANCH  21  22
ENDBRANCH  20  21
ENDBRANCH  19  20
ENDBRANCH  18  19
ENDBRANCH  17  18
ENDBRANCH  16  17
ENDBRANCH  15  16
ENDBRANCH  14  15
ENDBRANCH  13  14
ENDBRANCH   1  13
TORSDOF 20
ENDMDL
MODEL 4
REMARK VINA RESULT:    -2.965      3.201      7.377
REMARK INTER + INTRA:          -8.797
REMARK INTER:                  -6.628
REMARK INTRA:                  -2.169
REMARK UNBOUND:                -2.364
REMARK SMILES CCCCCCCCCCCCCCCCCCCCCC(=O)[O-]
REMARK SMILES IDX 12 1 11 2 10 3 9 4 8 5 7 6 6 7 5 8 4 9 3 10 2 11 1 12 13 13
REMARK SMILES IDX 14 14 15 15 16 16 17 17 18 18 19 19 20 20 21 21 22 22 23 23
REMARK SMILES IDX 24 24
REMARK H PARENT
REMARK Flexibility Score: inf
ROOT
ATOM      1  C   UNL     1      14.646  -4.980  16.246  1.00  0.00     0.000 C 
ENDROOT
BRANCH   1   2
ATOM      2  C   UNL     1      14.743  -4.835  17.771  1.00  0.00     0.000 C 
BRANCH   2   3
ATOM      3  C   UNL     1      16.128  -5.268  18.276  1.00  0.00     0.000 C 
BRANCH   3   4
ATOM      4  C   UNL     1      17.136  -5.499  17.136  1.00  0.00    -0.000 C 
BRANCH   4   5
ATOM      5  C   UNL     1      17.375  -6.977  16.767  1.00  0.00    -0.000 C 
BRANCH   5   6
ATOM      6  C   UNL     1      17.476  -7.263  15.255  1.00  0.00    -0.000 C 
BRANCH   6   7
ATOM      7  C   UNL     1      17.564  -6.009  14.363  1.00  0.00    -0.000 C 
BRANCH   7   8
ATOM      8  C   UNL     1      18.171  -6.243  12.965  1.00  0.00    -0.000 C 
BRANCH   8   9
ATOM      9  C   UNL     1      18.506  -7.708  12.631  1.00  0.00    -0.000 C 
BRANCH   9  10
ATOM     10  C   UNL     1      17.371  -8.424  11.880  1.00  0.00    -0.000 C 
BRANCH  10  11
ATOM     11  C   UNL     1      16.758  -9.573  12.698  1.00  0.00    -0.003 C 
ATOM     12  C   UNL     1      17.164 -10.953  12.180  1.00  0.00     0.004 C 
ENDBRANCH  10  11
ENDBRANCH   9  10
ENDBRANCH   8   9
ENDBRANCH   7   8
ENDBRANCH   6   7
ENDBRANCH   5   6
ENDBRANCH   4   5
ENDBRANCH   3   4
ENDBRANCH   2   3
ENDBRANCH   1   2
BRANCH   1  13
ATOM     13  C   UNL     1      13.625  -4.016  15.615  1.00  0.00     0.000 C 
BRANCH  13  14
ATOM     14  C   UNL     1      12.698  -4.647  14.561  1.00  0.00     0.000 C 
BRANCH  14  15
ATOM     15  C   UNL     1      13.117  -4.310  13.120  1.00  0.00     0.000 C 
BRANCH  15  16
ATOM     16  C   UNL     1      14.469  -4.933  12.730  1.00  0.00     0.000 C 
BRANCH  16  17
ATOM     17  C   UNL     1      14.373  -6.237  11.912  1.00  0.00     0.000 C 
BRANCH  17  18
ATOM     18  C   UNL     1      14.376  -7.518  12.775  1.00  0.00     0.000 C 
BRANCH  18  19
ATOM     19  C   UNL     1      12.978  -8.138  12.956  1.00  0.00     0.000 C 
BRANCH  19  20
ATOM     20  C   UNL     1      12.797  -9.422  12.133  1.00  0.00     0.006 C 
BRANCH  20  21
ATOM     21  C   UNL     1      13.408 -10.625  12.857  1.00  0.00     0.053 C 
BRANCH  21  22
ATOM     22  C   UNL     1      12.479 -11.796  12.803  1.00  0.00     0.041 C 
ATOM     23  O   UNL     1      11.371 -11.699  12.212  1.00  0.00    -0.550 OA
ATOM     24  O   UNL     1      12.856 -13.010  13.361  1.00  0.00    -0.550 OA
ENDBRANCH  21  22
ENDBRANCH  20  21
ENDBRANCH  19  20
ENDBRANCH  18  19
ENDBRANCH  17  18
ENDBRANCH  16  17
ENDBRANCH  15  16
ENDBRANCH  14  15
ENDBRANCH  13  14
ENDBRANCH   1  13
TORSDOF 20
ENDMDL
MODEL 5
REMARK VINA RESULT:    -2.776      1.250      5.058
REMARK INTER + INTRA:          -8.385
REMARK INTER:                  -7.691
REMARK INTRA:                  -0.694
REMARK UNBOUND:                -2.364
REMARK SMILES CCCCCCCCCCCCCCCCCCCCCC(=O)[O-]
REMARK SMILES IDX 12 1 11 2 10 3 9 4 8 5 7 6 6 7 5 8 4 9 3 10 2 11 1 12 13 13
REMARK SMILES IDX 14 14 15 15 16 16 17 17 18 18 19 19 20 20 21 21 22 22 23 23
REMARK SMILES IDX 24 24
REMARK H PARENT
REMARK Flexibility Score: inf
ROOT
ATOM      1  C   UNL     1      16.430  -5.518  11.906  1.00  0.00     0.000 C 
ENDROOT
BRANCH   1   2
ATOM      2  C   UNL     1      15.224  -4.673  12.342  1.00  0.00     0.000 C 
BRANCH   2   3
ATOM      3  C   UNL     1      14.605  -5.227  13.635  1.00  0.00     0.000 C 
BRANCH   3   4
ATOM      4  C   UNL     1      13.660  -6.417  13.385  1.00  0.00    -0.000 C 
BRANCH   4   5
ATOM      5  C   UNL     1      14.010  -7.281  12.157  1.00  0.00    -0.000 C 
BRANCH   5   6
ATOM      6  C   UNL     1      14.929  -8.485  12.448  1.00  0.00    -0.000 C 
BRANCH   6   7
ATOM      7  C   UNL     1      14.241  -9.862  12.353  1.00  0.00    -0.000 C 
BRANCH   7   8
ATOM      8  C   UNL     1      12.701  -9.829  12.417  1.00  0.00    -0.000 C 
BRANCH   8   9
ATOM      9  C   UNL     1      12.007 -11.186  12.201  1.00  0.00    -0.000 C 
BRANCH   9  10
ATOM     10  C   UNL     1      12.673 -12.330  12.985  1.00  0.00    -0.000 C 
BRANCH  10  11
ATOM     11  C   UNL     1      13.464 -13.283  12.075  1.00  0.00    -0.003 C 
ATOM     12  C   UNL     1      14.882 -13.547  12.582  1.00  0.00     0.004 C 
ENDBRANCH  10  11
ENDBRANCH   9  10
ENDBRANCH   8   9
ENDBRANCH   7   8
ENDBRANCH   6   7
ENDBRANCH   5   6
ENDBRANCH   4   5
ENDBRANCH   3   4
ENDBRANCH   2   3
ENDBRANCH   1   2
BRANCH   1  13
ATOM     13  C   UNL     1      17.777  -4.820  12.166  1.00  0.00     0.000 C 
BRANCH  13  14
ATOM     14  C   UNL     1      18.924  -5.755  12.589  1.00  0.00     0.000 C 
BRANCH  14  15
ATOM     15  C   UNL     1      18.857  -7.131  11.904  1.00  0.00     0.000 C 
BRANCH  15  16
ATOM     16  C   UNL     1      17.817  -8.066  12.546  1.00  0.00     0.000 C 
BRANCH  16  17
ATOM     17  C   UNL     1      18.284  -8.770  13.837  1.00  0.00     0.000 C 
BRANCH  17  18
ATOM     18  C   UNL     1      18.341  -7.840  15.070  1.00  0.00     0.000 C 
BRANCH  18  19
ATOM     19  C   UNL     1      17.056  -7.017  15.276  1.00  0.00     0.000 C 
BRANCH  19  20
ATOM     20  C   UNL     1      17.228  -5.919  16.336  1.00  0.00     0.006 C 
BRANCH  20  21
ATOM     21  C   UNL     1      15.913  -5.666  17.079  1.00  0.00     0.053 C 
BRANCH  21  22
ATOM     22  C   UNL     1      16.171  -4.987  18.386  1.00  0.00     0.041 C 
ATOM     23  O   UNL     1      15.274  -4.282  18.921  1.00  0.00    -0.550 OA
ATOM     24  O   UNL     1      17.383  -5.169  19.038  1.00  0.00    -0.550 OA
ENDBRANCH  21  22
ENDBRANCH  20  21
ENDBRANCH  19  20
ENDBRANCH  18  19
ENDBRANCH  17  18
ENDBRANCH  16  17
ENDBRANCH  15  16
ENDBRANCH  14  15
ENDBRANCH  13  14
ENDBRANCH   1  13
TORSDOF 20
ENDMDL
MODEL 6
REMARK VINA RESULT:    -2.577      3.154      7.398
REMARK INTER + INTRA:          -7.954
REMARK INTER:                  -6.201
REMARK INTRA:                  -1.753
REMARK UNBOUND:                -2.364
REMARK SMILES CCCCCCCCCCCCCCCCCCCCCC(=O)[O-]
REMARK SMILES IDX 12 1 11 2 10 3 9 4 8 5 7 6 6 7 5 8 4 9 3 10 2 11 1 12 13 13
REMARK SMILES IDX 14 14 15 15 16 16 17 17 18 18 19 19 20 20 21 21 22 22 23 23
REMARK SMILES IDX 24 24
REMARK H PARENT
REMARK Flexibility Score: inf
ROOT
ATOM      1  C   UNL     1      14.726  -5.587  16.621  1.00  0.00     0.000 C 
ENDROOT
BRANCH   1   2
ATOM      2  C   UNL     1      16.225  -5.314  16.808  1.00  0.00     0.000 C 
BRANCH   2   3
ATOM      3  C   UNL     1      17.051  -6.582  16.540  1.00  0.00     0.000 C 
BRANCH   3   4
ATOM      4  C   UNL     1      17.388  -6.774  15.050  1.00  0.00    -0.000 C 
BRANCH   4   5
ATOM      5  C   UNL     1      17.443  -5.476  14.221  1.00  0.00    -0.000 C 
BRANCH   5   6
ATOM      6  C   UNL     1      18.512  -5.456  13.110  1.00  0.00    -0.000 C 
BRANCH   6   7
ATOM      7  C   UNL     1      18.391  -6.592  12.075  1.00  0.00    -0.000 C 
BRANCH   7   8
ATOM      8  C   UNL     1      16.969  -7.155  11.885  1.00  0.00    -0.000 C 
BRANCH   8   9
ATOM      9  C   UNL     1      16.867  -8.691  11.875  1.00  0.00    -0.000 C 
BRANCH   9  10
ATOM     10  C   UNL     1      18.078  -9.375  12.532  1.00  0.00    -0.000 C 
BRANCH  10  11
ATOM     11  C   UNL     1      17.681 -10.245  13.735  1.00  0.00    -0.003 C 
ATOM     12  C   UNL     1      18.413  -9.852  15.019  1.00  0.00     0.004 C 
ENDBRANCH  10  11
ENDBRANCH   9  10
ENDBRANCH   8   9
ENDBRANCH   7   8
ENDBRANCH   6   7
ENDBRANCH   5   6
ENDBRANCH   4   5
ENDBRANCH   3   4
ENDBRANCH   2   3
ENDBRANCH   1   2
BRANCH   1  13
ATOM     13  C   UNL     1      13.980  -4.415  15.960  1.00  0.00     0.000 C 
BRANCH  13  14
ATOM     14  C   UNL     1      13.241  -4.766  14.655  1.00  0.00     0.000 C 
BRANCH  14  15
ATOM     15  C   UNL     1      14.089  -5.625  13.702  1.00  0.00     0.000 C 
BRANCH  15  16
ATOM     16  C   UNL     1      13.290  -6.776  13.066  1.00  0.00     0.000 C 
BRANCH  16  17
ATOM     17  C   UNL     1      14.040  -8.121  12.982  1.00  0.00     0.000 C 
BRANCH  17  18
ATOM     18  C   UNL     1      13.330  -9.179  12.109  1.00  0.00     0.000 C 
BRANCH  18  19
ATOM     19  C   UNL     1      12.221  -9.943  12.854  1.00  0.00     0.000 C 
BRANCH  19  20
ATOM     20  C   UNL     1      12.063 -11.385  12.348  1.00  0.00     0.006 C 
BRANCH  20  21
ATOM     21  C   UNL     1      12.695 -12.380  13.327  1.00  0.00     0.053 C 
BRANCH  21  22
ATOM     22  C   UNL     1      13.949 -12.956  12.751  1.00  0.00     0.041 C 
ATOM     23  O   UNL     1      14.914 -12.203  12.454  1.00  0.00    -0.550 OA
ATOM     24  O   UNL     1      14.073 -14.329  12.587  1.00  0.00    -0.550 OA
ENDBRANCH  21  22
ENDBRANCH  20  21
ENDBRANCH  19  20
ENDBRANCH  18  19
ENDBRANCH  17  18
ENDBRANCH  16  17
ENDBRANCH  15  16
ENDBRANCH  14  15
ENDBRANCH  13  14
ENDBRANCH   1  13
TORSDOF 20
ENDMDL
MODEL 7
REMARK VINA RESULT:    -2.327      2.476      6.865
REMARK INTER + INTRA:          -7.411
REMARK INTER:                  -5.277
REMARK INTRA:                  -2.134
REMARK UNBOUND:                -2.364
REMARK SMILES CCCCCCCCCCCCCCCCCCCCCC(=O)[O-]
REMARK SMILES IDX 12 1 11 2 10 3 9 4 8 5 7 6 6 7 5 8 4 9 3 10 2 11 1 12 13 13
REMARK SMILES IDX 14 14 15 15 16 16 17 17 18 18 19 19 20 20 21 21 22 22 23 23
REMARK SMILES IDX 24 24
REMARK H PARENT
REMARK Flexibility Score: inf
ROOT
ATOM      1  C   UNL     1      17.731  -5.735  14.582  1.00  0.00     0.000 C 
ENDROOT
BRANCH   1   2
ATOM      2  C   UNL     1      17.533  -4.780  13.396  1.00  0.00     0.000 C 
BRANCH   2   3
ATOM      3  C   UNL     1      18.171  -5.352  12.120  1.00  0.00     0.000 C 
BRANCH   3   4
ATOM      4  C   UNL     1      19.151  -6.505  12.404  1.00  0.00    -0.000 C 
BRANCH   4   5
ATOM      5  C   UNL     1      18.707  -7.883  11.875  1.00  0.00    -0.000 C 
BRANCH   5   6
ATOM      6  C   UNL     1      17.402  -8.428  12.490  1.00  0.00    -0.000 C 
BRANCH   6   7
ATOM      7  C   UNL     1      17.472  -9.895  12.962  1.00  0.00    -0.000 C 
BRANCH   7   8
ATOM      8  C   UNL     1      16.924 -10.930  11.959  1.00  0.00    -0.000 C 
BRANCH   8   9
ATOM      9  C   UNL     1      16.455 -12.259  12.579  1.00  0.00    -0.000 C 
BRANCH   9  10
ATOM     10  C   UNL     1      15.161 -12.793  11.941  1.00  0.00    -0.000 C 
BRANCH  10  11
ATOM     11  C   UNL     1      14.249 -13.494  12.960  1.00  0.00    -0.003 C 
ATOM     12  C   UNL     1      12.781 -13.092  12.817  1.00  0.00     0.004 C 
ENDBRANCH  10  11
ENDBRANCH   9  10
ENDBRANCH   8   9
ENDBRANCH   7   8
ENDBRANCH   6   7
ENDBRANCH   5   6
ENDBRANCH   4   5
ENDBRANCH   3   4
ENDBRANCH   2   3
ENDBRANCH   1   2
BRANCH   1  13
ATOM     13  C   UNL     1      16.428  -6.427  15.020  1.00  0.00     0.000 C 
BRANCH  13  14
ATOM     14  C   UNL     1      15.954  -6.086  16.444  1.00  0.00     0.000 C 
BRANCH  14  15
ATOM     15  C   UNL     1      15.063  -4.833  16.492  1.00  0.00     0.000 C 
BRANCH  15  16
ATOM     16  C   UNL     1      13.708  -5.038  15.792  1.00  0.00     0.000 C 
BRANCH  16  17
ATOM     17  C   UNL     1      13.422  -4.065  14.630  1.00  0.00     0.000 C 
BRANCH  17  18
ATOM     18  C   UNL     1      13.032  -4.766  13.309  1.00  0.00     0.000 C 
BRANCH  18  19
ATOM     19  C   UNL     1      14.244  -5.182  12.456  1.00  0.00     0.000 C 
BRANCH  19  20
ATOM     20  C   UNL     1      14.378  -6.708  12.336  1.00  0.00     0.006 C 
BRANCH  20  21
ATOM     21  C   UNL     1      13.282  -7.417  13.138  1.00  0.00     0.053 C 
BRANCH  21  22
ATOM     22  C   UNL     1      13.144  -8.838  12.694  1.00  0.00     0.041 C 
ATOM     23  O   UNL     1      12.153  -9.192  12.002  1.00  0.00    -0.550 OA
ATOM     24  O   UNL     1      14.134  -9.763  13.001  1.00  0.00    -0.550 OA
ENDBRANCH  21  22
ENDBRANCH  20  21
ENDBRANCH  19  20
ENDBRANCH  18  19
ENDBRANCH  17  18
ENDBRANCH  16  17
ENDBRANCH  15  16
ENDBRANCH  14  15
ENDBRANCH  13  14
ENDBRANCH   1  13
TORSDOF 20
ENDMDL
MODEL 8
REMARK VINA RESULT:    -2.210      3.250      7.068
REMARK INTER + INTRA:          -7.158
REMARK INTER:                  -5.624
REMARK INTRA:                  -1.534
REMARK UNBOUND:                -2.364
REMARK SMILES CCCCCCCCCCCCCCCCCCCCCC(=O)[O-]
REMARK SMILES IDX 12 1 11 2 10 3 9 4 8 5 7 6 6 7 5 8 4 9 3 10 2 11 1 12 13 13
REMARK SMILES IDX 14 14 15 15 16 16 17 17 18 18 19 19 20 20 21 21 22 22 23 23
REMARK SMILES IDX 24 24
REMARK H PARENT
REMARK Flexibility Score: inf
ROOT
ATOM      1  C   UNL     1      15.350  -5.780  18.028  1.00  0.00     0.000 C 
ENDROOT
BRANCH   1   2
ATOM      2  C   UNL     1      16.750  -6.362  17.786  1.00  0.00     0.000 C 
BRANCH   2   3
ATOM      3  C   UNL     1      17.385  -5.757  16.525  1.00  0.00     0.000 C 
BRANCH   3   4
ATOM      4  C   UNL     1      17.705  -6.812  15.449  1.00  0.00    -0.000 C 
BRANCH   4   5
ATOM      5  C   UNL     1      17.752  -8.267  15.957  1.00  0.00    -0.000 C 
BRANCH   5   6
ATOM      6  C   UNL     1      18.675  -9.207  15.156  1.00  0.00    -0.000 C 
BRANCH   6   7
ATOM      7  C   UNL     1      18.126  -9.637  13.781  1.00  0.00    -0.000 C 
BRANCH   7   8
ATOM      8  C   UNL     1      17.153  -8.638  13.124  1.00  0.00    -0.000 C 
BRANCH   8   9
ATOM      9  C   UNL     1      17.696  -7.919  11.875  1.00  0.00    -0.000 C 
BRANCH   9  10
ATOM     10  C   UNL     1      18.751  -6.851  12.212  1.00  0.00    -0.000 C 
BRANCH  10  11
ATOM     11  C   UNL     1      18.128  -5.465  12.449  1.00  0.00    -0.003 C 
ATOM     12  C   UNL     1      19.158  -4.336  12.400  1.00  0.00     0.004 C 
ENDBRANCH  10  11
ENDBRANCH   9  10
ENDBRANCH   8   9
ENDBRANCH   7   8
ENDBRANCH   6   7
ENDBRANCH   5   6
ENDBRANCH   4   5
ENDBRANCH   3   4
ENDBRANCH   2   3
ENDBRANCH   1   2
BRANCH   1  13
ATOM     13  C   UNL     1      15.002  -4.633  17.063  1.00  0.00     0.000 C 
BRANCH  13  14
ATOM     14  C   UNL     1      13.941  -4.974  16.001  1.00  0.00     0.000 C 
BRANCH  14  15
ATOM     15  C   UNL     1      14.486  -5.874  14.880  1.00  0.00     0.000 C 
BRANCH  15  16
ATOM     16  C   UNL     1      13.941  -5.496  13.492  1.00  0.00     0.000 C 
BRANCH  16  17
ATOM     17  C   UNL     1      14.071  -6.596  12.419  1.00  0.00     0.000 C 
BRANCH  17  18
ATOM     18  C   UNL     1      14.040  -8.031  12.988  1.00  0.00     0.000 C 
BRANCH  18  19
ATOM     19  C   UNL     1      13.187  -9.003  12.153  1.00  0.00     0.000 C 
BRANCH  19  20
ATOM     20  C   UNL     1      13.399 -10.468  12.562  1.00  0.00     0.006 C 
BRANCH  20  21
ATOM     21  C   UNL     1      14.736 -10.995  12.031  1.00  0.00     0.053 C 
BRANCH  21  22
ATOM     22  C   UNL     1      14.860 -12.463  12.287  1.00  0.00     0.041 C 
ATOM     23  O   UNL     1      15.978 -12.963  12.581  1.00  0.00    -0.550 OA
ATOM     24  O   UNL     1      13.733 -13.274  12.251  1.00  0.00    -0.550 OA
ENDBRANCH  21  22
ENDBRANCH  20  21
ENDBRANCH  19  20
ENDBRANCH  18  19
ENDBRANCH  17  18
ENDBRANCH  16  17
ENDBRANCH  15  16
ENDBRANCH  14  15
ENDBRANCH  13  14
ENDBRANCH   1  13
TORSDOF 20
ENDMDL
