MODEL 1
REMARK VINA RESULT:     6.189      0.000      0.000
REMARK INTER + INTRA:           7.070
REMARK INTER:                   7.093
REMARK INTRA:                  -0.024
REMARK UNBOUND:                -0.024
REMARK SMILES O=C([O-])C=Cc1ccc(O)cc1
REMARK SMILES IDX 6 1 7 2 12 3 8 4 11 5 9 6 5 7 4 8 2 9 1 10 3 11 10 12
REMARK H PARENT 10 13
REMARK Flexibility Score: inf
ROOT
ATOM      1  C   UNL     1      14.666  53.173  61.605  1.00  0.00    -0.025 A 
ATOM      2  C   UNL     1      15.439  53.360  60.451  1.00  0.00     0.012 A 
ATOM      3  C   UNL     1      14.467  51.869  62.096  1.00  0.00     0.012 A 
ATOM      4  C   UNL     1      16.051  52.269  59.825  1.00  0.00     0.047 A 
ATOM      5  C   UNL     1      15.078  50.780  61.469  1.00  0.00     0.047 A 
ATOM      6  C   UNL     1      15.875  50.978  60.333  1.00  0.00     0.115 A 
ENDROOT
BRANCH   1   7
ATOM      7  C   UNL     1      13.987  54.333  62.218  1.00  0.00     0.010 C 
ATOM      8  C   UNL     1      14.507  55.125  63.168  1.00  0.00     0.025 C 
BRANCH   8   9
ATOM      9  C   UNL     1      15.907  55.100  63.630  1.00  0.00     0.064 C 
ATOM     10  O   UNL     1      16.148  55.123  64.865  1.00  0.00    -0.545 OA
ATOM     11  O   UNL     1      16.969  55.125  62.733  1.00  0.00    -0.545 OA
ENDBRANCH   8   9
ENDBRANCH   1   7
BRANCH   6  12
ATOM     12  O   UNL     1      16.491  49.900  59.701  1.00  0.00    -0.508 OA
ATOM     13  H   UNL     1      17.358  49.507  60.047  1.00  0.00     0.293 HD
ENDBRANCH   6  12
TORSDOF 3
ENDMDL
MODEL 2
REMARK VINA RESULT:     6.393      0.158      1.406
REMARK INTER + INTRA:           7.303
REMARK INTER:                   7.454
REMARK INTRA:                  -0.150
REMARK UNBOUND:                -0.024
REMARK SMILES O=C([O-])C=Cc1ccc(O)cc1
REMARK SMILES IDX 6 1 7 2 12 3 8 4 11 5 9 6 5 7 4 8 2 9 1 10 3 11 10 12
REMARK H PARENT 10 13
REMARK Flexibility Score: inf
ROOT
ATOM      1  C   UNL     1      14.629  53.236  61.408  1.00  0.00    -0.025 A 
ATOM      2  C   UNL     1      14.517  51.978  62.014  1.00  0.00     0.012 A 
ATOM      3  C   UNL     1      15.436  53.379  60.264  1.00  0.00     0.012 A 
ATOM      4  C   UNL     1      15.156  50.865  61.458  1.00  0.00     0.047 A 
ATOM      5  C   UNL     1      16.075  52.268  59.710  1.00  0.00     0.047 A 
ATOM      6  C   UNL     1      15.934  51.006  60.303  1.00  0.00     0.115 A 
ENDROOT
BRANCH   1   7
ATOM      7  C   UNL     1      13.988  54.406  62.043  1.00  0.00     0.010 C 
ATOM      8  C   UNL     1      14.506  55.124  63.051  1.00  0.00     0.025 C 
BRANCH   8   9
ATOM      9  C   UNL     1      15.880  54.998  63.572  1.00  0.00     0.064 C 
ATOM     10  O   UNL     1      16.057  54.837  64.808  1.00  0.00    -0.545 OA
ATOM     11  O   UNL     1      16.987  55.125  62.742  1.00  0.00    -0.545 OA
ENDBRANCH   8   9
ENDBRANCH   1   7
BRANCH   6  12
ATOM     12  O   UNL     1      16.565  49.890  59.759  1.00  0.00    -0.508 OA
ATOM     13  H   UNL     1      16.109  49.309  59.065  1.00  0.00     0.293 HD
ENDBRANCH   6  12
TORSDOF 3
ENDMDL
MODEL 3
REMARK VINA RESULT:     6.608      1.435      4.624
REMARK INTER + INTRA:           7.550
REMARK INTER:                   7.519
REMARK INTRA:                   0.031
REMARK UNBOUND:                -0.024
REMARK SMILES O=C([O-])C=Cc1ccc(O)cc1
REMARK SMILES IDX 6 1 7 2 12 3 8 4 11 5 9 6 5 7 4 8 2 9 1 10 3 11 10 12
REMARK H PARENT 10 13
REMARK Flexibility Score: inf
ROOT
ATOM      1  C   UNL     1      15.278  54.345  61.212  1.00  0.00    -0.025 A 
ATOM      2  C   UNL     1      16.475  54.052  61.880  1.00  0.00     0.012 A 
ATOM      3  C   UNL     1      14.192  54.860  61.943  1.00  0.00     0.012 A 
ATOM      4  C   UNL     1      16.606  54.318  63.246  1.00  0.00     0.047 A 
ATOM      5  C   UNL     1      14.324  55.125  63.308  1.00  0.00     0.047 A 
ATOM      6  C   UNL     1      15.533  54.858  63.964  1.00  0.00     0.115 A 
ENDROOT
BRANCH   1   7
ATOM      7  C   UNL     1      15.145  54.006  59.781  1.00  0.00     0.010 C 
ATOM      8  C   UNL     1      15.422  52.811  59.236  1.00  0.00     0.025 C 
BRANCH   8   9
ATOM      9  C   UNL     1      15.720  51.578  59.987  1.00  0.00     0.064 C 
ATOM     10  O   UNL     1      14.792  50.993  60.604  1.00  0.00    -0.545 OA
ATOM     11  O   UNL     1      17.016  51.085  60.090  1.00  0.00    -0.545 OA
ENDBRANCH   8   9
ENDBRANCH   1   7
BRANCH   6  12
ATOM     12  O   UNL     1      15.678  55.120  65.325  1.00  0.00    -0.508 OA
ATOM     13  H   UNL     1      16.369  54.638  65.886  1.00  0.00     0.293 HD
ENDBRANCH   6  12
TORSDOF 3
ENDMDL
MODEL 4
REMARK VINA RESULT:     8.341      1.571      2.135
REMARK INTER + INTRA:           9.536
REMARK INTER:                   8.684
REMARK INTRA:                   0.852
REMARK UNBOUND:                -0.024
REMARK SMILES O=C([O-])C=Cc1ccc(O)cc1
REMARK SMILES IDX 6 1 7 2 12 3 8 4 11 5 9 6 5 7 4 8 2 9 1 10 3 11 10 12
REMARK H PARENT 10 13
REMARK Flexibility Score: inf
ROOT
ATOM      1  C   UNL     1      15.334  51.925  61.678  1.00  0.00    -0.025 A 
ATOM      2  C   UNL     1      16.539  52.547  62.034  1.00  0.00     0.012 A 
ATOM      3  C   UNL     1      15.307  51.068  60.562  1.00  0.00     0.012 A 
ATOM      4  C   UNL     1      17.712  52.277  61.322  1.00  0.00     0.047 A 
ATOM      5  C   UNL     1      16.479  50.800  59.851  1.00  0.00     0.047 A 
ATOM      6  C   UNL     1      17.686  51.401  60.231  1.00  0.00     0.115 A 
ENDROOT
BRANCH   1   7
ATOM      7  C   UNL     1      14.098  52.266  62.411  1.00  0.00     0.010 C 
ATOM      8  C   UNL     1      13.880  53.411  63.076  1.00  0.00     0.025 C 
BRANCH   8   9
ATOM      9  C   UNL     1      14.747  54.603  63.034  1.00  0.00     0.064 C 
ATOM     10  O   UNL     1      15.022  55.125  61.922  1.00  0.00    -0.545 OA
ATOM     11  O   UNL     1      15.327  55.121  64.186  1.00  0.00    -0.545 OA
ENDBRANCH   8   9
ENDBRANCH   1   7
BRANCH   6  12
ATOM     12  O   UNL     1      18.862  51.140  59.531  1.00  0.00    -0.508 OA
ATOM     13  H   UNL     1      18.897  51.184  58.519  1.00  0.00     0.293 HD
ENDBRANCH   6  12
TORSDOF 3
ENDMDL
