MODEL 1
REMARK VINA RESULT:    -4.118      0.000      0.000
REMARK INTER + INTRA:          -4.456
REMARK INTER:                  -4.359
REMARK INTRA:                  -0.097
REMARK UNBOUND:                -0.097
REMARK SMILES C=C(C)[C@H]1CC=C(C)C(=O)C1
REMARK SMILES IDX 8 1 7 2 6 3 5 4 4 5 11 6 9 7 10 8 2 9 1 10 3 11
REMARK H PARENT
REMARK Flexibility Score: inf
ROOT
ATOM      1  C   UNL     1      28.065  36.558  21.320  1.00  0.00     0.048 C 
ATOM      2  C   UNL     1      28.154  35.169  21.889  1.00  0.00    -0.012 C 
ATOM      3  C   UNL     1      28.771  34.199  21.193  1.00  0.00    -0.019 C 
ATOM      4  C   UNL     1      28.872  32.788  21.708  1.00  0.00     0.036 C 
ATOM      5  C   UNL     1      28.970  32.765  23.246  1.00  0.00     0.025 C 
ATOM      6  C   UNL     1      27.786  33.528  23.867  1.00  0.00     0.089 C 
ATOM      7  C   UNL     1      27.670  34.903  23.268  1.00  0.00     0.158 C 
ATOM      8  O   UNL     1      27.124  35.820  23.936  1.00  0.00    -0.295 OA
ENDROOT
BRANCH   5   9
ATOM      9  C   UNL     1      29.063  31.341  23.781  1.00  0.00    -0.077 C 
ATOM     10  C   UNL     1      29.092  31.091  25.101  1.00  0.00     0.008 C 
ATOM     11  C   UNL     1      29.125  30.177  22.826  1.00  0.00     0.039 C 
ENDBRANCH   5   9
TORSDOF 1
ENDMDL
MODEL 2
REMARK VINA RESULT:    -4.100      1.859      5.153
REMARK INTER + INTRA:          -4.436
REMARK INTER:                  -4.348
REMARK INTRA:                  -0.088
REMARK UNBOUND:                -0.097
REMARK SMILES C=C(C)[C@H]1CC=C(C)C(=O)C1
REMARK SMILES IDX 8 1 7 2 6 3 5 4 4 5 11 6 9 7 10 8 2 9 1 10 3 11
REMARK H PARENT
REMARK Flexibility Score: inf
ROOT
ATOM      1  C   UNL     1      28.930  32.405  23.569  1.00  0.00     0.048 C 
ATOM      2  C   UNL     1      28.363  33.670  22.986  1.00  0.00    -0.012 C 
ATOM      3  C   UNL     1      27.843  34.606  23.798  1.00  0.00    -0.019 C 
ATOM      4  C   UNL     1      27.247  35.882  23.264  1.00  0.00     0.036 C 
ATOM      5  C   UNL     1      27.970  36.340  21.984  1.00  0.00     0.025 C 
ATOM      6  C   UNL     1      27.965  35.212  20.936  1.00  0.00     0.089 C 
ATOM      7  C   UNL     1      28.492  33.935  21.531  1.00  0.00     0.158 C 
ATOM      8  O   UNL     1      29.012  33.073  20.773  1.00  0.00    -0.295 OA
ENDROOT
BRANCH   5   9
ATOM      9  C   UNL     1      27.370  37.625  21.428  1.00  0.00    -0.077 C 
ATOM     10  C   UNL     1      28.044  38.787  21.470  1.00  0.00     0.008 C 
ATOM     11  C   UNL     1      25.994  37.613  20.815  1.00  0.00     0.039 C 
ENDBRANCH   5   9
TORSDOF 1
ENDMDL
MODEL 3
REMARK VINA RESULT:    -3.950      2.454      3.916
REMARK INTER + INTRA:          -4.278
REMARK INTER:                  -4.182
REMARK INTRA:                  -0.096
REMARK UNBOUND:                -0.097
REMARK SMILES C=C(C)[C@H]1CC=C(C)C(=O)C1
REMARK SMILES IDX 8 1 7 2 6 3 5 4 4 5 11 6 9 7 10 8 2 9 1 10 3 11
REMARK H PARENT
REMARK Flexibility Score: inf
ROOT
ATOM      1  C   UNL     1      27.311  39.341  18.849  1.00  0.00     0.048 C 
ATOM      2  C   UNL     1      27.366  38.099  19.695  1.00  0.00    -0.012 C 
ATOM      3  C   UNL     1      28.407  37.257  19.580  1.00  0.00    -0.019 C 
ATOM      4  C   UNL     1      28.501  35.992  20.390  1.00  0.00     0.036 C 
ATOM      5  C   UNL     1      27.850  36.169  21.775  1.00  0.00     0.025 C 
ATOM      6  C   UNL     1      26.397  36.655  21.623  1.00  0.00     0.089 C 
ATOM      7  C   UNL     1      26.336  37.873  20.741  1.00  0.00     0.158 C 
ATOM      8  O   UNL     1      25.380  38.681  20.875  1.00  0.00    -0.295 OA
ENDROOT
BRANCH   5   9
ATOM      9  C   UNL     1      27.931  34.892  22.602  1.00  0.00    -0.077 C 
ATOM     10  C   UNL     1      27.404  34.823  23.836  1.00  0.00     0.008 C 
ATOM     11  C   UNL     1      28.611  33.670  22.041  1.00  0.00     0.039 C 
ENDBRANCH   5   9
TORSDOF 1
ENDMDL
MODEL 4
REMARK VINA RESULT:    -3.943      1.517      4.962
REMARK INTER + INTRA:          -4.270
REMARK INTER:                  -4.176
REMARK INTRA:                  -0.095
REMARK UNBOUND:                -0.097
REMARK SMILES C=C(C)[C@H]1CC=C(C)C(=O)C1
REMARK SMILES IDX 8 1 7 2 6 3 5 4 4 5 11 6 9 7 10 8 2 9 1 10 3 11
REMARK H PARENT
REMARK Flexibility Score: inf
ROOT
ATOM      1  C   UNL     1      28.259  32.996  23.677  1.00  0.00     0.048 C 
ATOM      2  C   UNL     1      28.239  34.182  22.752  1.00  0.00    -0.012 C 
ATOM      3  C   UNL     1      28.570  34.028  21.458  1.00  0.00    -0.019 C 
ATOM      4  C   UNL     1      28.582  35.185  20.495  1.00  0.00     0.036 C 
ATOM      5  C   UNL     1      27.502  36.221  20.858  1.00  0.00     0.025 C 
ATOM      6  C   UNL     1      27.670  36.678  22.318  1.00  0.00     0.089 C 
ATOM      7  C   UNL     1      27.734  35.491  23.240  1.00  0.00     0.158 C 
ATOM      8  O   UNL     1      27.389  35.628  24.444  1.00  0.00    -0.295 OA
ENDROOT
BRANCH   5   9
ATOM      9  C   UNL     1      27.511  37.403  19.896  1.00  0.00    -0.077 C 
ATOM     10  C   UNL     1      26.496  38.282  19.859  1.00  0.00     0.008 C 
ATOM     11  C   UNL     1      28.674  37.606  18.959  1.00  0.00     0.039 C 
ENDBRANCH   5   9
TORSDOF 1
ENDMDL
MODEL 5
REMARK VINA RESULT:    -3.778      3.903      7.513
REMARK INTER + INTRA:          -4.096
REMARK INTER:                  -4.002
REMARK INTRA:                  -0.093
REMARK UNBOUND:                -0.097
REMARK SMILES C=C(C)[C@H]1CC=C(C)C(=O)C1
REMARK SMILES IDX 8 1 7 2 6 3 5 4 4 5 11 6 9 7 10 8 2 9 1 10 3 11
REMARK H PARENT
REMARK Flexibility Score: inf
ROOT
ATOM      1  C   UNL     1      27.640  35.583  20.962  1.00  0.00     0.048 C 
ATOM      2  C   UNL     1      27.368  37.061  21.013  1.00  0.00    -0.012 C 
ATOM      3  C   UNL     1      28.386  37.923  21.184  1.00  0.00    -0.019 C 
ATOM      4  C   UNL     1      28.167  39.410  21.260  1.00  0.00     0.036 C 
ATOM      5  C   UNL     1      26.979  39.842  20.379  1.00  0.00     0.025 C 
ATOM      6  C   UNL     1      25.716  39.048  20.759  1.00  0.00     0.089 C 
ATOM      7  C   UNL     1      25.998  37.570  20.750  1.00  0.00     0.158 C 
ATOM      8  O   UNL     1      25.050  36.765  20.554  1.00  0.00    -0.295 OA
ENDROOT
BRANCH   5   9
ATOM      9  C   UNL     1      26.741  41.345  20.454  1.00  0.00    -0.077 C 
ATOM     10  C   UNL     1      26.113  41.902  21.504  1.00  0.00     0.008 C 
ATOM     11  C   UNL     1      27.212  42.242  19.338  1.00  0.00     0.039 C 
ENDBRANCH   5   9
TORSDOF 1
ENDMDL
MODEL 6
REMARK VINA RESULT:    -3.763      1.481      2.300
REMARK INTER + INTRA:          -4.079
REMARK INTER:                  -3.982
REMARK INTRA:                  -0.097
REMARK UNBOUND:                -0.097
REMARK SMILES C=C(C)[C@H]1CC=C(C)C(=O)C1
REMARK SMILES IDX 8 1 7 2 6 3 5 4 4 5 11 6 9 7 10 8 2 9 1 10 3 11
REMARK H PARENT
REMARK Flexibility Score: inf
ROOT
ATOM      1  C   UNL     1      28.013  36.234  22.566  1.00  0.00     0.048 C 
ATOM      2  C   UNL     1      28.415  34.812  22.842  1.00  0.00    -0.012 C 
ATOM      3  C   UNL     1      28.671  34.421  24.102  1.00  0.00    -0.019 C 
ATOM      4  C   UNL     1      29.094  33.014  24.430  1.00  0.00     0.036 C 
ATOM      5  C   UNL     1      28.453  32.001  23.463  1.00  0.00     0.025 C 
ATOM      6  C   UNL     1      28.771  32.380  22.006  1.00  0.00     0.089 C 
ATOM      7  C   UNL     1      28.409  33.816  21.740  1.00  0.00     0.158 C 
ATOM      8  O   UNL     1      28.134  34.173  20.564  1.00  0.00    -0.295 OA
ENDROOT
BRANCH   5   9
ATOM      9  C   UNL     1      28.881  30.573  23.779  1.00  0.00    -0.077 C 
ATOM     10  C   UNL     1      29.125  29.684  22.801  1.00  0.00     0.008 C 
ATOM     11  C   UNL     1      29.041  30.132  25.211  1.00  0.00     0.039 C 
ENDBRANCH   5   9
TORSDOF 1
ENDMDL
MODEL 7
REMARK VINA RESULT:    -3.762      3.621      6.511
REMARK INTER + INTRA:          -4.079
REMARK INTER:                  -3.982
REMARK INTRA:                  -0.096
REMARK UNBOUND:                -0.097
REMARK SMILES C=C(C)[C@H]1CC=C(C)C(=O)C1
REMARK SMILES IDX 8 1 7 2 6 3 5 4 4 5 11 6 9 7 10 8 2 9 1 10 3 11
REMARK H PARENT
REMARK Flexibility Score: inf
ROOT
ATOM      1  C   UNL     1      27.654  27.285  28.662  1.00  0.00     0.048 C 
ATOM      2  C   UNL     1      28.082  28.102  27.474  1.00  0.00    -0.012 C 
ATOM      3  C   UNL     1      27.894  27.625  26.232  1.00  0.00    -0.019 C 
ATOM      4  C   UNL     1      28.320  28.394  25.010  1.00  0.00     0.036 C 
ATOM      5  C   UNL     1      28.200  29.912  25.239  1.00  0.00     0.025 C 
ATOM      6  C   UNL     1      28.991  30.326  26.493  1.00  0.00     0.089 C 
ATOM      7  C   UNL     1      28.595  29.481  27.673  1.00  0.00     0.158 C 
ATOM      8  O   UNL     1      28.738  29.943  28.836  1.00  0.00    -0.295 OA
ENDROOT
BRANCH   5   9
ATOM      9  C   UNL     1      28.637  30.703  24.013  1.00  0.00    -0.077 C 
ATOM     10  C   UNL     1      28.600  32.046  23.996  1.00  0.00     0.008 C 
ATOM     11  C   UNL     1      29.125  29.981  22.783  1.00  0.00     0.039 C 
ENDBRANCH   5   9
TORSDOF 1
ENDMDL
MODEL 8
REMARK VINA RESULT:    -3.731      2.708      4.306
REMARK INTER + INTRA:          -4.045
REMARK INTER:                  -3.951
REMARK INTRA:                  -0.095
REMARK UNBOUND:                -0.097
REMARK SMILES C=C(C)[C@H]1CC=C(C)C(=O)C1
REMARK SMILES IDX 8 1 7 2 6 3 5 4 4 5 11 6 9 7 10 8 2 9 1 10 3 11
REMARK H PARENT
REMARK Flexibility Score: inf
ROOT
ATOM      1  C   UNL     1      26.718  39.325  19.322  1.00  0.00     0.048 C 
ATOM      2  C   UNL     1      27.272  38.173  20.115  1.00  0.00    -0.012 C 
ATOM      3  C   UNL     1      26.686  37.813  21.270  1.00  0.00    -0.019 C 
ATOM      4  C   UNL     1      27.210  36.679  22.111  1.00  0.00     0.036 C 
ATOM      5  C   UNL     1      27.837  35.580  21.232  1.00  0.00     0.025 C 
ATOM      6  C   UNL     1      28.924  36.181  20.322  1.00  0.00     0.089 C 
ATOM      7  C   UNL     1      28.384  37.361  19.560  1.00  0.00     0.158 C 
ATOM      8  O   UNL     1      28.910  37.675  18.460  1.00  0.00    -0.295 OA
ENDROOT
BRANCH   5   9
ATOM      9  C   UNL     1      28.381  34.431  22.072  1.00  0.00    -0.077 C 
ATOM     10  C   UNL     1      28.778  33.278  21.506  1.00  0.00     0.008 C 
ATOM     11  C   UNL     1      28.483  34.571  23.569  1.00  0.00     0.039 C 
ENDBRANCH   5   9
TORSDOF 1
ENDMDL
