MODEL 1
REMARK VINA RESULT:    -4.608      0.000      0.000
REMARK INTER + INTRA:          -7.327
REMARK INTER:                  -6.763
REMARK INTRA:                  -0.564
REMARK UNBOUND:                -0.564
REMARK SMILES CCCOC(=O)c1ccccc1C(=O)OCCC
REMARK SMILES IDX 7 1 8 2 9 3 10 4 11 5 12 6 5 7 6 8 4 9 3 10 2 11 1 12 13 13
REMARK SMILES IDX 14 14 15 15 16 16 17 17 18 18
REMARK H PARENT
REMARK Flexibility Score: inf
ROOT
ATOM      1  C   UNL     1     -20.632  21.770  40.993  1.00  0.00     0.074 A 
ATOM      2  C   UNL     1     -20.476  20.529  41.636  1.00  0.00     0.016 A 
ATOM      3  C   UNL     1     -19.209  20.055  41.976  1.00  0.00     0.001 A 
ATOM      4  C   UNL     1     -18.078  20.812  41.681  1.00  0.00     0.001 A 
ATOM      5  C   UNL     1     -18.207  22.035  41.022  1.00  0.00     0.016 A 
ATOM      6  C   UNL     1     -19.472  22.522  40.649  1.00  0.00     0.074 A 
ENDROOT
BRANCH   1   7
ATOM      7  C   UNL     1     -22.010  22.262  40.764  1.00  0.00     0.339 C 
ATOM      8  O   UNL     1     -22.528  23.096  41.557  1.00  0.00    -0.246 OA
BRANCH   7   9
ATOM      9  O   UNL     1     -22.754  21.753  39.695  1.00  0.00    -0.462 OA
BRANCH   9  10
ATOM     10  C   UNL     1     -22.201  21.551  38.399  1.00  0.00     0.233 C 
BRANCH  10  11
ATOM     11  C   UNL     1     -23.255  20.926  37.489  1.00  0.00     0.038 C 
ATOM     12  C   UNL     1     -22.900  21.116  36.017  1.00  0.00     0.007 C 
ENDBRANCH  10  11
ENDBRANCH   9  10
ENDBRANCH   7   9
ENDBRANCH   1   7
BRANCH   6  13
ATOM     13  C   UNL     1     -19.527  23.769  39.854  1.00  0.00     0.339 C 
ATOM     14  O   UNL     1     -19.974  23.755  38.674  1.00  0.00    -0.246 OA
BRANCH  13  15
ATOM     15  O   UNL     1     -19.022  24.955  40.398  1.00  0.00    -0.462 OA
BRANCH  15  16
ATOM     16  C   UNL     1     -19.859  25.967  40.947  1.00  0.00     0.233 C 
BRANCH  16  17
ATOM     17  C   UNL     1     -20.354  25.523  42.322  1.00  0.00     0.038 C 
ATOM     18  C   UNL     1     -21.525  26.382  42.793  1.00  0.00     0.007 C 
ENDBRANCH  16  17
ENDBRANCH  15  16
ENDBRANCH  13  15
ENDBRANCH   6  13
TORSDOF 8
ENDMDL
MODEL 2
REMARK VINA RESULT:    -4.594     16.227     18.598
REMARK INTER + INTRA:          -7.306
REMARK INTER:                  -6.100
REMARK INTRA:                  -1.206
REMARK UNBOUND:                -0.564
REMARK SMILES CCCOC(=O)c1ccccc1C(=O)OCCC
REMARK SMILES IDX 7 1 8 2 9 3 10 4 11 5 12 6 5 7 6 8 4 9 3 10 2 11 1 12 13 13
REMARK SMILES IDX 14 14 15 15 16 16 17 17 18 18
REMARK H PARENT
REMARK Flexibility Score: inf
ROOT
ATOM      1  C   UNL     1      -4.997  31.741  47.084  1.00  0.00     0.074 A 
ATOM      2  C   UNL     1      -3.882  32.455  47.560  1.00  0.00     0.016 A 
ATOM      3  C   UNL     1      -4.046  33.557  48.399  1.00  0.00     0.001 A 
ATOM      4  C   UNL     1      -5.323  33.963  48.778  1.00  0.00     0.001 A 
ATOM      5  C   UNL     1      -6.444  33.284  48.299  1.00  0.00     0.016 A 
ATOM      6  C   UNL     1      -6.304  32.185  47.433  1.00  0.00     0.074 A 
ENDROOT
BRANCH   1   7
ATOM      7  C   UNL     1      -4.746  30.515  46.291  1.00  0.00     0.339 C 
ATOM      8  O   UNL     1      -4.519  30.594  45.052  1.00  0.00    -0.246 OA
BRANCH   7   9
ATOM      9  O   UNL     1      -4.820  29.265  46.914  1.00  0.00    -0.462 OA
BRANCH   9  10
ATOM     10  C   UNL     1      -4.860  28.044  46.185  1.00  0.00     0.233 C 
BRANCH  10  11
ATOM     11  C   UNL     1      -6.290  27.510  46.168  1.00  0.00     0.038 C 
ATOM     12  C   UNL     1      -6.323  26.005  46.417  1.00  0.00     0.007 C 
ENDBRANCH  10  11
ENDBRANCH   9  10
ENDBRANCH   7   9
ENDBRANCH   1   7
BRANCH   6  13
ATOM     13  C   UNL     1      -7.535  31.583  46.874  1.00  0.00     0.339 C 
ATOM     14  O   UNL     1      -7.956  30.474  47.305  1.00  0.00    -0.246 OA
BRANCH  13  15
ATOM     15  O   UNL     1      -8.198  32.223  45.821  1.00  0.00    -0.462 OA
BRANCH  15  16
ATOM     16  C   UNL     1      -7.557  32.544  44.591  1.00  0.00     0.233 C 
BRANCH  16  17
ATOM     17  C   UNL     1      -7.333  34.052  44.515  1.00  0.00     0.038 C 
ATOM     18  C   UNL     1      -5.847  34.395  44.562  1.00  0.00     0.007 C 
ENDBRANCH  16  17
ENDBRANCH  15  16
ENDBRANCH  13  15
ENDBRANCH   6  13
TORSDOF 8
ENDMDL
MODEL 3
REMARK VINA RESULT:    -4.565     16.256     18.702
REMARK INTER + INTRA:          -7.264
REMARK INTER:                  -6.054
REMARK INTRA:                  -1.210
REMARK UNBOUND:                -0.564
REMARK SMILES CCCOC(=O)c1ccccc1C(=O)OCCC
REMARK SMILES IDX 7 1 8 2 9 3 10 4 11 5 12 6 5 7 6 8 4 9 3 10 2 11 1 12 13 13
REMARK SMILES IDX 14 14 15 15 16 16 17 17 18 18
REMARK H PARENT
REMARK Flexibility Score: inf
ROOT
ATOM      1  C   UNL     1      -6.337  32.220  47.404  1.00  0.00     0.074 A 
ATOM      2  C   UNL     1      -6.507  33.313  48.275  1.00  0.00     0.016 A 
ATOM      3  C   UNL     1      -5.406  34.004  48.777  1.00  0.00     0.001 A 
ATOM      4  C   UNL     1      -4.116  33.619  48.418  1.00  0.00     0.001 A 
ATOM      5  C   UNL     1      -3.922  32.524  47.575  1.00  0.00     0.016 A 
ATOM      6  C   UNL     1      -5.018  31.797  47.076  1.00  0.00     0.074 A 
ENDROOT
BRANCH   1   7
ATOM      7  C   UNL     1      -7.551  31.605  46.820  1.00  0.00     0.339 C 
ATOM      8  O   UNL     1      -7.973  30.496  47.250  1.00  0.00    -0.246 OA
BRANCH   7   9
ATOM      9  O   UNL     1      -8.193  32.233  45.748  1.00  0.00    -0.462 OA
BRANCH   9  10
ATOM     10  C   UNL     1      -7.506  32.632  44.567  1.00  0.00     0.233 C 
BRANCH  10  11
ATOM     11  C   UNL     1      -7.369  34.152  44.549  1.00  0.00     0.038 C 
ATOM     12  C   UNL     1      -5.909  34.578  44.665  1.00  0.00     0.007 C 
ENDBRANCH  10  11
ENDBRANCH   9  10
ENDBRANCH   7   9
ENDBRANCH   1   7
BRANCH   6  13
ATOM     13  C   UNL     1      -4.736  30.581  46.280  1.00  0.00     0.339 C 
ATOM     14  O   UNL     1      -4.526  30.666  45.038  1.00  0.00    -0.246 OA
BRANCH  13  15
ATOM     15  O   UNL     1      -4.764  29.329  46.903  1.00  0.00    -0.462 OA
BRANCH  15  16
ATOM     16  C   UNL     1      -4.789  28.107  46.174  1.00  0.00     0.233 C 
BRANCH  16  17
ATOM     17  C   UNL     1      -6.224  27.592  46.097  1.00  0.00     0.038 C 
ATOM     18  C   UNL     1      -6.292  26.095  46.386  1.00  0.00     0.007 C 
ENDBRANCH  16  17
ENDBRANCH  15  16
ENDBRANCH  13  15
ENDBRANCH   6  13
TORSDOF 8
ENDMDL
MODEL 4
REMARK VINA RESULT:    -4.517     15.670     18.092
REMARK INTER + INTRA:          -7.193
REMARK INTER:                  -6.193
REMARK INTRA:                  -1.000
REMARK UNBOUND:                -0.564
REMARK SMILES CCCOC(=O)c1ccccc1C(=O)OCCC
REMARK SMILES IDX 7 1 8 2 9 3 10 4 11 5 12 6 5 7 6 8 4 9 3 10 2 11 1 12 13 13
REMARK SMILES IDX 14 14 15 15 16 16 17 17 18 18
REMARK H PARENT
REMARK Flexibility Score: inf
ROOT
ATOM      1  C   UNL     1      -6.239  32.057  47.268  1.00  0.00     0.074 A 
ATOM      2  C   UNL     1      -6.556  33.141  48.106  1.00  0.00     0.016 A 
ATOM      3  C   UNL     1      -5.551  33.938  48.654  1.00  0.00     0.001 A 
ATOM      4  C   UNL     1      -4.214  33.667  48.372  1.00  0.00     0.001 A 
ATOM      5  C   UNL     1      -3.875  32.583  47.562  1.00  0.00     0.016 A 
ATOM      6  C   UNL     1      -4.871  31.751  47.019  1.00  0.00     0.074 A 
ENDROOT
BRANCH   1   7
ATOM      7  C   UNL     1      -7.358  31.325  46.632  1.00  0.00     0.339 C 
ATOM      8  O   UNL     1      -8.017  30.473  47.289  1.00  0.00    -0.246 OA
BRANCH   7   9
ATOM      9  O   UNL     1      -7.642  31.541  45.279  1.00  0.00    -0.462 OA
BRANCH   9  10
ATOM     10  C   UNL     1      -7.493  30.528  44.291  1.00  0.00     0.233 C 
BRANCH  10  11
ATOM     11  C   UNL     1      -8.871  30.027  43.867  1.00  0.00     0.038 C 
ATOM     12  C   UNL     1      -9.145  28.628  44.413  1.00  0.00     0.007 C 
ENDBRANCH  10  11
ENDBRANCH   9  10
ENDBRANCH   7   9
ENDBRANCH   1   7
BRANCH   6  13
ATOM     13  C   UNL     1      -4.437  30.555  46.263  1.00  0.00     0.339 C 
ATOM     14  O   UNL     1      -4.064  30.660  45.062  1.00  0.00    -0.246 OA
BRANCH  13  15
ATOM     15  O   UNL     1      -4.500  29.296  46.871  1.00  0.00    -0.462 OA
BRANCH  15  16
ATOM     16  C   UNL     1      -4.691  28.094  46.133  1.00  0.00     0.233 C 
BRANCH  16  17
ATOM     17  C   UNL     1      -6.145  27.647  46.261  1.00  0.00     0.038 C 
ATOM     18  C   UNL     1      -6.251  26.127  46.352  1.00  0.00     0.007 C 
ENDBRANCH  16  17
ENDBRANCH  15  16
ENDBRANCH  13  15
ENDBRANCH   6  13
TORSDOF 8
ENDMDL
MODEL 5
REMARK VINA RESULT:    -4.343     15.682     18.285
REMARK INTER + INTRA:          -6.937
REMARK INTER:                  -5.995
REMARK INTRA:                  -0.942
REMARK UNBOUND:                -0.564
REMARK SMILES CCCOC(=O)c1ccccc1C(=O)OCCC
REMARK SMILES IDX 7 1 8 2 9 3 10 4 11 5 12 6 5 7 6 8 4 9 3 10 2 11 1 12 13 13
REMARK SMILES IDX 14 14 15 15 16 16 17 17 18 18
REMARK H PARENT
REMARK Flexibility Score: inf
ROOT
ATOM      1  C   UNL     1      -5.021  32.025  46.778  1.00  0.00     0.074 A 
ATOM      2  C   UNL     1      -3.906  32.627  47.389  1.00  0.00     0.016 A 
ATOM      3  C   UNL     1      -4.069  33.552  48.420  1.00  0.00     0.001 A 
ATOM      4  C   UNL     1      -5.347  33.891  48.858  1.00  0.00     0.001 A 
ATOM      5  C   UNL     1      -6.468  33.324  48.251  1.00  0.00     0.016 A 
ATOM      6  C   UNL     1      -6.328  32.407  47.194  1.00  0.00     0.074 A 
ENDROOT
BRANCH   1   7
ATOM      7  C   UNL     1      -4.772  30.969  45.770  1.00  0.00     0.339 C 
ATOM      8  O   UNL     1      -5.061  31.165  44.557  1.00  0.00    -0.246 OA
BRANCH   7   9
ATOM      9  O   UNL     1      -4.268  29.731  46.181  1.00  0.00    -0.462 OA
BRANCH   9  10
ATOM     10  C   UNL     1      -5.088  28.719  46.755  1.00  0.00     0.233 C 
BRANCH  10  11
ATOM     11  C   UNL     1      -5.030  27.465  45.885  1.00  0.00     0.038 C 
ATOM     12  C   UNL     1      -6.114  26.466  46.279  1.00  0.00     0.007 C 
ENDBRANCH  10  11
ENDBRANCH   9  10
ENDBRANCH   7   9
ENDBRANCH   1   7
BRANCH   6  13
ATOM     13  C   UNL     1      -7.559  31.932  46.523  1.00  0.00     0.339 C 
ATOM     14  O   UNL     1      -8.238  32.718  45.806  1.00  0.00    -0.246 OA
BRANCH  13  15
ATOM     15  O   UNL     1      -7.998  30.621  46.737  1.00  0.00    -0.462 OA
BRANCH  15  16
ATOM     16  C   UNL     1      -8.895  29.957  45.854  1.00  0.00     0.233 C 
BRANCH  16  17
ATOM     17  C   UNL     1      -8.102  29.284  44.736  1.00  0.00     0.038 C 
ATOM     18  C   UNL     1      -8.815  28.037  44.223  1.00  0.00     0.007 C 
ENDBRANCH  16  17
ENDBRANCH  15  16
ENDBRANCH  13  15
ENDBRANCH   6  13
TORSDOF 8
ENDMDL
MODEL 6
REMARK VINA RESULT:    -4.299     15.064     17.051
REMARK INTER + INTRA:          -6.873
REMARK INTER:                  -5.692
REMARK INTRA:                  -1.181
REMARK UNBOUND:                -0.564
REMARK SMILES CCCOC(=O)c1ccccc1C(=O)OCCC
REMARK SMILES IDX 7 1 8 2 9 3 10 4 11 5 12 6 5 7 6 8 4 9 3 10 2 11 1 12 13 13
REMARK SMILES IDX 14 14 15 15 16 16 17 17 18 18
REMARK H PARENT
REMARK Flexibility Score: inf
ROOT
ATOM      1  C   UNL     1      -7.191  28.965  45.538  1.00  0.00     0.074 A 
ATOM      2  C   UNL     1      -7.552  27.643  45.216  1.00  0.00     0.016 A 
ATOM      3  C   UNL     1      -6.787  26.565  45.662  1.00  0.00     0.001 A 
ATOM      4  C   UNL     1      -5.651  26.788  46.435  1.00  0.00     0.001 A 
ATOM      5  C   UNL     1      -5.261  28.091  46.747  1.00  0.00     0.016 A 
ATOM      6  C   UNL     1      -6.003  29.194  46.288  1.00  0.00     0.074 A 
ENDROOT
BRANCH   1   7
ATOM      7  C   UNL     1      -8.109  30.052  45.128  1.00  0.00     0.339 C 
ATOM      8  O   UNL     1      -9.195  30.234  45.745  1.00  0.00    -0.246 OA
BRANCH   7   9
ATOM      9  O   UNL     1      -7.793  30.837  44.015  1.00  0.00    -0.462 OA
BRANCH   9  10
ATOM     10  C   UNL     1      -7.347  30.282  42.783  1.00  0.00     0.233 C 
BRANCH  10  11
ATOM     11  C   UNL     1      -5.882  30.649  42.562  1.00  0.00     0.038 C 
ATOM     12  C   UNL     1      -4.984  29.418  42.639  1.00  0.00     0.007 C 
ENDBRANCH  10  11
ENDBRANCH   9  10
ENDBRANCH   7   9
ENDBRANCH   1   7
BRANCH   6  13
ATOM     13  C   UNL     1      -5.470  30.547  46.560  1.00  0.00     0.339 C 
ATOM     14  O   UNL     1      -4.610  31.060  45.791  1.00  0.00    -0.246 OA
BRANCH  13  15
ATOM     15  O   UNL     1      -5.881  31.232  47.709  1.00  0.00    -0.462 OA
BRANCH  15  16
ATOM     16  C   UNL     1      -6.563  32.480  47.657  1.00  0.00     0.233 C 
BRANCH  16  17
ATOM     17  C   UNL     1      -5.705  33.554  48.322  1.00  0.00     0.038 C 
ATOM     18  C   UNL     1      -6.034  33.686  49.806  1.00  0.00     0.007 C 
ENDBRANCH  16  17
ENDBRANCH  15  16
ENDBRANCH  13  15
ENDBRANCH   6  13
TORSDOF 8
ENDMDL
MODEL 7
REMARK VINA RESULT:    -4.296     15.307     17.937
REMARK INTER + INTRA:          -6.869
REMARK INTER:                  -5.746
REMARK INTRA:                  -1.123
REMARK UNBOUND:                -0.564
REMARK SMILES CCCOC(=O)c1ccccc1C(=O)OCCC
REMARK SMILES IDX 7 1 8 2 9 3 10 4 11 5 12 6 5 7 6 8 4 9 3 10 2 11 1 12 13 13
REMARK SMILES IDX 14 14 15 15 16 16 17 17 18 18
REMARK H PARENT
REMARK Flexibility Score: inf
ROOT
ATOM      1  C   UNL     1      -5.945  29.547  46.433  1.00  0.00     0.074 A 
ATOM      2  C   UNL     1      -5.269  28.376  46.822  1.00  0.00     0.016 A 
ATOM      3  C   UNL     1      -5.715  27.122  46.406  1.00  0.00     0.001 A 
ATOM      4  C   UNL     1      -6.841  27.015  45.594  1.00  0.00     0.001 A 
ATOM      5  C   UNL     1      -7.541  28.161  45.214  1.00  0.00     0.016 A 
ATOM      6  C   UNL     1      -7.123  29.434  45.641  1.00  0.00     0.074 A 
ENDROOT
BRANCH   1   7
ATOM      7  C   UNL     1      -5.351  30.848  46.816  1.00  0.00     0.339 C 
ATOM      8  O   UNL     1      -4.335  31.288  46.210  1.00  0.00    -0.246 OA
BRANCH   7   9
ATOM      9  O   UNL     1      -5.889  31.559  47.893  1.00  0.00    -0.462 OA
BRANCH   9  10
ATOM     10  C   UNL     1      -6.299  32.918  47.790  1.00  0.00     0.233 C 
BRANCH  10  11
ATOM     11  C   UNL     1      -5.436  33.780  48.708  1.00  0.00     0.038 C 
ATOM     12  C   UNL     1      -5.901  33.684  50.158  1.00  0.00     0.007 C 
ENDBRANCH  10  11
ENDBRANCH   9  10
ENDBRANCH   7   9
ENDBRANCH   1   7
BRANCH   6  13
ATOM     13  C   UNL     1      -7.975  30.594  45.296  1.00  0.00     0.339 C 
ATOM     14  O   UNL     1      -9.165  30.658  45.712  1.00  0.00    -0.246 OA
BRANCH  13  15
ATOM     15  O   UNL     1      -7.472  31.591  44.453  1.00  0.00    -0.462 OA
BRANCH  15  16
ATOM     16  C   UNL     1      -7.110  31.343  43.099  1.00  0.00     0.233 C 
BRANCH  16  17
ATOM     17  C   UNL     1      -5.603  31.526  42.937  1.00  0.00     0.038 C 
ATOM     18  C   UNL     1      -4.886  30.180  42.865  1.00  0.00     0.007 C 
ENDBRANCH  16  17
ENDBRANCH  15  16
ENDBRANCH  13  15
ENDBRANCH   6  13
TORSDOF 8
ENDMDL
MODEL 8
REMARK VINA RESULT:    -4.262     13.832     15.771
REMARK INTER + INTRA:          -6.819
REMARK INTER:                  -5.488
REMARK INTRA:                  -1.331
REMARK UNBOUND:                -0.564
REMARK SMILES CCCOC(=O)c1ccccc1C(=O)OCCC
REMARK SMILES IDX 7 1 8 2 9 3 10 4 11 5 12 6 5 7 6 8 4 9 3 10 2 11 1 12 13 13
REMARK SMILES IDX 14 14 15 15 16 16 17 17 18 18
REMARK H PARENT
REMARK Flexibility Score: inf
ROOT
ATOM      1  C   UNL     1      -6.804  28.403  45.954  1.00  0.00     0.074 A 
ATOM      2  C   UNL     1      -6.045  29.129  46.890  1.00  0.00     0.016 A 
ATOM      3  C   UNL     1      -6.443  30.401  47.299  1.00  0.00     0.001 A 
ATOM      4  C   UNL     1      -7.606  30.968  46.784  1.00  0.00     0.001 A 
ATOM      5  C   UNL     1      -8.362  30.276  45.838  1.00  0.00     0.016 A 
ATOM      6  C   UNL     1      -7.967  29.002  45.392  1.00  0.00     0.074 A 
ENDROOT
BRANCH   1   7
ATOM      7  C   UNL     1      -6.385  27.015  45.650  1.00  0.00     0.339 C 
ATOM      8  O   UNL     1      -6.703  26.070  46.424  1.00  0.00    -0.246 OA
BRANCH   7   9
ATOM      9  O   UNL     1      -5.583  26.768  44.532  1.00  0.00    -0.462 OA
BRANCH   9  10
ATOM     10  C   UNL     1      -5.567  25.514  43.858  1.00  0.00     0.233 C 
BRANCH  10  11
ATOM     11  C   UNL     1      -6.629  25.514  42.761  1.00  0.00     0.038 C 
ATOM     12  C   UNL     1      -6.478  24.305  41.843  1.00  0.00     0.007 C 
ENDBRANCH  10  11
ENDBRANCH   9  10
ENDBRANCH   7   9
ENDBRANCH   1   7
BRANCH   6  13
ATOM     13  C   UNL     1      -8.752  28.375  44.306  1.00  0.00     0.339 C 
ATOM     14  O   UNL     1      -9.776  27.688  44.574  1.00  0.00    -0.246 OA
BRANCH  13  15
ATOM     15  O   UNL     1      -8.316  28.498  42.982  1.00  0.00    -0.462 OA
BRANCH  15  16
ATOM     16  C   UNL     1      -7.616  29.642  42.506  1.00  0.00     0.233 C 
BRANCH  16  17
ATOM     17  C   UNL     1      -6.160  29.269  42.236  1.00  0.00     0.038 C 
ATOM     18  C   UNL     1      -5.207  30.104  43.087  1.00  0.00     0.007 C 
ENDBRANCH  16  17
ENDBRANCH  15  16
ENDBRANCH  13  15
ENDBRANCH   6  13
TORSDOF 8
ENDMDL
MODEL 9
REMARK VINA RESULT:    -4.237     13.556     15.981
REMARK INTER + INTRA:          -6.782
REMARK INTER:                  -5.234
REMARK INTRA:                  -1.548
REMARK UNBOUND:                -0.564
REMARK SMILES CCCOC(=O)c1ccccc1C(=O)OCCC
REMARK SMILES IDX 7 1 8 2 9 3 10 4 11 5 12 6 5 7 6 8 4 9 3 10 2 11 1 12 13 13
REMARK SMILES IDX 14 14 15 15 16 16 17 17 18 18
REMARK H PARENT
REMARK Flexibility Score: inf
ROOT
ATOM      1  C   UNL     1      -6.825  28.351  45.903  1.00  0.00     0.074 A 
ATOM      2  C   UNL     1      -6.083  29.060  46.865  1.00  0.00     0.016 A 
ATOM      3  C   UNL     1      -6.514  30.305  47.323  1.00  0.00     0.001 A 
ATOM      4  C   UNL     1      -7.692  30.861  46.831  1.00  0.00     0.001 A 
ATOM      5  C   UNL     1      -8.432  30.186  45.860  1.00  0.00     0.016 A 
ATOM      6  C   UNL     1      -8.005  28.941  45.366  1.00  0.00     0.074 A 
ENDROOT
BRANCH   1   7
ATOM      7  C   UNL     1      -6.371  26.987  45.546  1.00  0.00     0.339 C 
ATOM      8  O   UNL     1      -6.494  26.039  46.369  1.00  0.00    -0.246 OA
BRANCH   7   9
ATOM      9  O   UNL     1      -5.749  26.770  44.312  1.00  0.00    -0.462 OA
BRANCH   9  10
ATOM     10  C   UNL     1      -4.523  27.395  43.948  1.00  0.00     0.233 C 
BRANCH  10  11
ATOM     11  C   UNL     1      -4.795  28.483  42.913  1.00  0.00     0.038 C 
ATOM     12  C   UNL     1      -4.541  29.873  43.489  1.00  0.00     0.007 C 
ENDBRANCH  10  11
ENDBRANCH   9  10
ENDBRANCH   7   9
ENDBRANCH   1   7
BRANCH   6  13
ATOM     13  C   UNL     1      -8.776  28.335  44.257  1.00  0.00     0.339 C 
ATOM     14  O   UNL     1      -9.789  27.622  44.499  1.00  0.00    -0.246 OA
BRANCH  13  15
ATOM     15  O   UNL     1      -8.338  28.508  42.939  1.00  0.00    -0.462 OA
BRANCH  15  16
ATOM     16  C   UNL     1      -9.126  29.156  41.946  1.00  0.00     0.233 C 
BRANCH  16  17
ATOM     17  C   UNL     1      -9.179  30.653  42.239  1.00  0.00     0.038 C 
ATOM     18  C   UNL     1      -7.787  31.276  42.197  1.00  0.00     0.007 C 
ENDBRANCH  16  17
ENDBRANCH  15  16
ENDBRANCH  13  15
ENDBRANCH   6  13
TORSDOF 8
ENDMDL
