MODEL 1
REMARK VINA RESULT:    -4.909      0.000      0.000
REMARK INTER + INTRA:          -7.716
REMARK INTER:                  -7.492
REMARK INTRA:                  -0.224
REMARK UNBOUND:                -0.224
REMARK SMILES CC1=CCC[C@H](C)C(=O)C[C@H](C(C)C)C(=O)C1
REMARK SMILES IDX 8 1 9 2 6 3 7 4 5 5 4 6 3 7 2 8 1 9 10 11 11 12 15 13 16 14
REMARK SMILES IDX 17 15 12 17 13 18 14 19
REMARK H PARENT
REMARK Flexibility Score: 70.00
ROOT
ATOM      1  C   UNL     1     -13.963 -34.139  31.216  1.00  0.00     0.136 C 
ATOM      2  O   UNL     1     -14.268 -35.163  31.809  1.00  0.00    -0.299 OA
ENDROOT
BRANCH   1   3
ATOM      3  C   UNL     1     -13.730 -32.871  32.022  1.00  0.00     0.053 C 
ATOM      4  C   UNL     1     -15.057 -32.363  32.601  1.00  0.00     0.016 C 
BRANCH   3   5
ATOM      5  C   UNL     1     -12.675 -33.066  33.137  1.00  0.00     0.015 C 
BRANCH   5   6
ATOM      6  C   UNL     1     -11.207 -33.000  32.661  1.00  0.00     0.028 C 
BRANCH   6   7
ATOM      7  C   UNL     1     -10.680 -34.256  32.007  1.00  0.00    -0.028 C 
ATOM      8  C   UNL     1     -10.339 -34.391  30.705  1.00  0.00    -0.070 CG0
ATOM      9  C   UNL     1      -9.875 -35.748  30.232  1.00  0.00     0.039 C 
ATOM     10  G   UNL     1     -10.421 -33.258  29.701  1.00  0.00     0.000 G0
ENDBRANCH   6   7
ENDBRANCH   5   6
ENDBRANCH   3   5
ENDBRANCH   1   3
BRANCH   1  11
ATOM     11  C   UNL     1     -13.770 -34.203  29.716  1.00  0.00     0.087 C 
BRANCH  11  12
ATOM     12  C   UNL     1     -13.007 -32.965  29.169  1.00  0.00     0.066 C 
BRANCH  12  13
ATOM     13  C   UNL     1     -11.601 -33.393  28.767  1.00  0.00     0.140 C 
ATOM     14  O   UNL     1     -11.404 -33.790  27.627  1.00  0.00    -0.299 OA
BRANCH  13  15
ATOM     15  C   UNL     1     -10.418 -33.257  29.694  1.00  0.00     0.106 CG0
ATOM     16  G   UNL     1     -10.319 -34.388  30.699  1.00  0.00     0.000 G0
ENDBRANCH  13  15
ENDBRANCH  12  13
BRANCH  12  17
ATOM     17  C   UNL     1     -13.738 -32.284  27.966  1.00  0.00    -0.006 C 
ATOM     18  C   UNL     1     -14.721 -31.200  28.455  1.00  0.00     0.008 C 
ATOM     19  C   UNL     1     -14.516 -33.297  27.104  1.00  0.00     0.008 C 
ENDBRANCH  12  17
ENDBRANCH  11  12
ENDBRANCH   1  11
TORSDOF 1
ENDMDL
MODEL 2
REMARK VINA RESULT:    -4.755      2.003      4.359
REMARK INTER + INTRA:          -7.481
REMARK INTER:                  -7.716
REMARK INTRA:                   0.235
REMARK UNBOUND:                -0.224
REMARK SMILES CC1=CCC[C@H](C)C(=O)C[C@H](C(C)C)C(=O)C1
REMARK SMILES IDX 8 1 9 2 6 3 7 4 5 5 4 6 3 7 2 8 1 9 10 11 11 12 15 13 16 14
REMARK SMILES IDX 17 15 12 17 13 18 14 19
REMARK H PARENT
REMARK Flexibility Score: 70.00
ROOT
ATOM      1  C   UNL     1     -13.204 -34.089  27.623  1.00  0.00     0.136 C 
ATOM      2  O   UNL     1     -13.468 -32.964  27.224  1.00  0.00    -0.299 OA
ENDROOT
BRANCH   1   3
ATOM      3  C   UNL     1     -11.927 -34.753  27.137  1.00  0.00     0.053 C 
ATOM      4  C   UNL     1     -11.547 -34.216  25.750  1.00  0.00     0.016 C 
BRANCH   3   5
ATOM      5  C   UNL     1     -10.757 -34.587  28.136  1.00  0.00     0.015 C 
BRANCH   5   6
ATOM      6  C   UNL     1     -10.711 -33.225  28.861  1.00  0.00     0.028 C 
BRANCH   6   7
ATOM      7  C   UNL     1     -10.392 -33.286  30.337  1.00  0.00    -0.028 C 
ATOM      8  C   UNL     1     -11.292 -33.251  31.347  1.00  0.00    -0.070 CG0
ATOM      9  C   UNL     1     -10.769 -33.275  32.762  1.00  0.00     0.039 C 
ATOM     10  G   UNL     1     -12.789 -33.165  31.124  1.00  0.00     0.000 G0
ENDBRANCH   6   7
ENDBRANCH   5   6
ENDBRANCH   3   5
ENDBRANCH   1   3
BRANCH   1  11
ATOM     11  C   UNL     1     -14.131 -34.734  28.631  1.00  0.00     0.087 C 
BRANCH  11  12
ATOM     12  C   UNL     1     -13.354 -35.399  29.801  1.00  0.00     0.066 C 
BRANCH  12  13
ATOM     13  C   UNL     1     -13.471 -34.514  31.034  1.00  0.00     0.140 C 
ATOM     14  O   UNL     1     -14.064 -34.938  32.016  1.00  0.00    -0.299 OA
BRANCH  13  15
ATOM     15  C   UNL     1     -12.799 -33.166  31.129  1.00  0.00     0.106 CG0
ATOM     16  G   UNL     1     -11.301 -33.263  31.340  1.00  0.00     0.000 G0
ENDBRANCH  13  15
ENDBRANCH  12  13
BRANCH  12  17
ATOM     17  C   UNL     1     -13.854 -36.847  30.115  1.00  0.00    -0.006 C 
ATOM     18  C   UNL     1     -12.797 -37.641  30.910  1.00  0.00     0.008 C 
ATOM     19  C   UNL     1     -14.201 -37.637  28.838  1.00  0.00     0.008 C 
ENDBRANCH  12  17
ENDBRANCH  11  12
ENDBRANCH   1  11
TORSDOF 1
ENDMDL
MODEL 3
REMARK VINA RESULT:    -4.624      2.082      3.446
REMARK INTER + INTRA:          -7.281
REMARK INTER:                  -7.743
REMARK INTRA:                   0.462
REMARK UNBOUND:                -0.224
REMARK SMILES CC1=CCC[C@H](C)C(=O)C[C@H](C(C)C)C(=O)C1
REMARK SMILES IDX 8 1 9 2 6 3 7 4 5 5 4 6 3 7 2 8 1 9 10 11 11 12 15 13 16 14
REMARK SMILES IDX 17 15 12 17 13 18 14 19
REMARK H PARENT
REMARK Flexibility Score: 70.00
ROOT
ATOM      1  C   UNL     1     -12.937 -35.746  28.475  1.00  0.00     0.136 C 
ATOM      2  O   UNL     1     -11.756 -36.028  28.333  1.00  0.00    -0.299 OA
ENDROOT
BRANCH   1   3
ATOM      3  C   UNL     1     -13.819 -36.685  29.281  1.00  0.00     0.053 C 
ATOM      4  C   UNL     1     -14.515 -37.687  28.349  1.00  0.00     0.016 C 
BRANCH   3   5
ATOM      5  C   UNL     1     -13.037 -37.417  30.398  1.00  0.00     0.015 C 
BRANCH   5   6
ATOM      6  C   UNL     1     -12.614 -36.525  31.585  1.00  0.00     0.028 C 
BRANCH   6   7
ATOM      7  C   UNL     1     -13.586 -35.425  31.948  1.00  0.00    -0.028 C 
ATOM      8  C   UNL     1     -13.379 -34.097  31.790  1.00  0.00    -0.070 CG0
ATOM      9  C   UNL     1     -14.458 -33.153  32.261  1.00  0.00     0.039 C 
ATOM     10  G   UNL     1     -12.114 -33.518  31.188  1.00  0.00     0.000 G0
ENDBRANCH   6   7
ENDBRANCH   5   6
ENDBRANCH   3   5
ENDBRANCH   1   3
BRANCH   1  11
ATOM     11  C   UNL     1     -13.444 -34.444  27.893  1.00  0.00     0.087 C 
BRANCH  11  12
ATOM     12  C   UNL     1     -13.588 -33.336  28.972  1.00  0.00     0.066 C 
BRANCH  12  13
ATOM     13  C   UNL     1     -12.263 -33.192  29.708  1.00  0.00     0.140 C 
ATOM     14  O   UNL     1     -11.298 -32.736  29.110  1.00  0.00    -0.299 OA
BRANCH  13  15
ATOM     15  C   UNL     1     -12.117 -33.500  31.178  1.00  0.00     0.106 CG0
ATOM     16  G   UNL     1     -13.367 -34.106  31.785  1.00  0.00     0.000 G0
ENDBRANCH  13  15
ENDBRANCH  12  13
BRANCH  12  17
ATOM     17  C   UNL     1     -14.037 -31.962  28.374  1.00  0.00    -0.006 C 
ATOM     18  C   UNL     1     -14.968 -31.209  29.347  1.00  0.00     0.008 C 
ATOM     19  C   UNL     1     -14.764 -32.120  27.025  1.00  0.00     0.008 C 
ENDBRANCH  12  17
ENDBRANCH  11  12
ENDBRANCH   1  11
TORSDOF 1
ENDMDL
MODEL 4
REMARK VINA RESULT:    -4.577      2.186      3.182
REMARK INTER + INTRA:          -7.208
REMARK INTER:                  -7.264
REMARK INTRA:                   0.055
REMARK UNBOUND:                -0.224
REMARK SMILES CC1=CCC[C@H](C)C(=O)C[C@H](C(C)C)C(=O)C1
REMARK SMILES IDX 8 1 9 2 6 3 7 4 5 5 4 6 3 7 2 8 1 9 10 11 11 12 15 13 16 14
REMARK SMILES IDX 17 15 12 17 13 18 14 19
REMARK H PARENT
REMARK Flexibility Score: 70.00
ROOT
ATOM      1  C   UNL     1     -12.907 -33.490  31.775  1.00  0.00     0.136 C 
ATOM      2  O   UNL     1     -13.229 -32.874  32.781  1.00  0.00    -0.299 OA
ENDROOT
BRANCH   1   3
ATOM      3  C   UNL     1     -11.455 -33.908  31.610  1.00  0.00     0.053 C 
ATOM      4  C   UNL     1     -10.571 -33.151  32.610  1.00  0.00     0.016 C 
BRANCH   3   5
ATOM      5  C   UNL     1     -11.262 -35.437  31.743  1.00  0.00     0.015 C 
BRANCH   5   6
ATOM      6  C   UNL     1     -11.019 -36.179  30.411  1.00  0.00     0.028 C 
BRANCH   6   7
ATOM      7  C   UNL     1     -12.212 -36.925  29.858  1.00  0.00    -0.028 C 
ATOM      8  C   UNL     1     -13.003 -36.516  28.840  1.00  0.00    -0.070 CG0
ATOM      9  C   UNL     1     -14.179 -37.385  28.465  1.00  0.00     0.039 C 
ATOM     10  G   UNL     1     -12.779 -35.224  28.079  1.00  0.00     0.000 G0
ENDBRANCH   6   7
ENDBRANCH   5   6
ENDBRANCH   3   5
ENDBRANCH   1   3
BRANCH   1  11
ATOM     11  C   UNL     1     -13.985 -33.860  30.778  1.00  0.00     0.087 C 
BRANCH  11  12
ATOM     12  C   UNL     1     -13.785 -33.153  29.409  1.00  0.00     0.066 C 
BRANCH  12  13
ATOM     13  C   UNL     1     -13.867 -34.196  28.301  1.00  0.00     0.140 C 
ATOM     14  O   UNL     1     -14.807 -34.158  27.519  1.00  0.00    -0.299 OA
BRANCH  13  15
ATOM     15  C   UNL     1     -12.782 -35.218  28.070  1.00  0.00     0.106 CG0
ATOM     16  G   UNL     1     -13.002 -36.503  28.844  1.00  0.00     0.000 G0
ENDBRANCH  13  15
ENDBRANCH  12  13
BRANCH  12  17
ATOM     17  C   UNL     1     -14.818 -32.006  29.162  1.00  0.00    -0.006 C 
ATOM     18  C   UNL     1     -14.313 -31.023  28.086  1.00  0.00     0.008 C 
ATOM     19  C   UNL     1     -15.127 -31.210  30.445  1.00  0.00     0.008 C 
ENDBRANCH  12  17
ENDBRANCH  11  12
ENDBRANCH   1  11
TORSDOF 1
ENDMDL
MODEL 5
REMARK VINA RESULT:    -4.488      2.224      4.607
REMARK INTER + INTRA:          -7.073
REMARK INTER:                  -7.727
REMARK INTRA:                   0.654
REMARK UNBOUND:                -0.224
REMARK SMILES CC1=CCC[C@H](C)C(=O)C[C@H](C(C)C)C(=O)C1
REMARK SMILES IDX 8 1 9 2 6 3 7 4 5 5 4 6 3 7 2 8 1 9 10 11 11 12 15 13 16 14
REMARK SMILES IDX 17 15 12 17 13 18 14 19
REMARK H PARENT
REMARK Flexibility Score: 70.00
ROOT
ATOM      1  C   UNL     1     -12.104 -35.484  31.347  1.00  0.00     0.136 C 
ATOM      2  O   UNL     1     -11.110 -34.991  31.859  1.00  0.00    -0.299 OA
ENDROOT
BRANCH   1   3
ATOM      3  C   UNL     1     -11.936 -36.695  30.445  1.00  0.00     0.053 C 
ATOM      4  C   UNL     1     -12.595 -37.925  31.084  1.00  0.00     0.016 C 
BRANCH   3   5
ATOM      5  C   UNL     1     -12.482 -36.451  29.018  1.00  0.00     0.015 C 
BRANCH   5   6
ATOM      6  C   UNL     1     -13.990 -36.125  28.948  1.00  0.00     0.028 C 
BRANCH   6   7
ATOM      7  C   UNL     1     -14.374 -35.047  27.960  1.00  0.00    -0.028 C 
ATOM      8  C   UNL     1     -14.003 -33.748  28.016  1.00  0.00    -0.070 CG0
ATOM      9  C   UNL     1     -14.533 -32.814  26.956  1.00  0.00     0.039 C 
ATOM     10  G   UNL     1     -13.105 -33.185  29.101  1.00  0.00     0.000 G0
ENDBRANCH   6   7
ENDBRANCH   5   6
ENDBRANCH   3   5
ENDBRANCH   1   3
BRANCH   1  11
ATOM     11  C   UNL     1     -13.458 -34.899  31.689  1.00  0.00     0.087 C 
BRANCH  11  12
ATOM     12  C   UNL     1     -13.432 -33.347  31.736  1.00  0.00     0.066 C 
BRANCH  12  13
ATOM     13  C   UNL     1     -13.842 -32.806  30.373  1.00  0.00     0.140 C 
ATOM     14  O   UNL     1     -14.758 -31.998  30.305  1.00  0.00    -0.299 OA
BRANCH  13  15
ATOM     15  C   UNL     1     -13.099 -33.155  29.108  1.00  0.00     0.106 CG0
ATOM     16  G   UNL     1     -13.996 -33.737  28.033  1.00  0.00     0.000 G0
ENDBRANCH  13  15
ENDBRANCH  12  13
BRANCH  12  17
ATOM     17  C   UNL     1     -14.349 -32.759  32.859  1.00  0.00    -0.006 C 
ATOM     18  C   UNL     1     -13.522 -32.345  34.093  1.00  0.00     0.008 C 
ATOM     19  C   UNL     1     -15.435 -33.756  33.309  1.00  0.00     0.008 C 
ENDBRANCH  12  17
ENDBRANCH  11  12
ENDBRANCH   1  11
TORSDOF 1
ENDMDL
MODEL 6
REMARK VINA RESULT:    -4.486      1.999      3.223
REMARK INTER + INTRA:          -7.070
REMARK INTER:                  -7.030
REMARK INTRA:                  -0.040
REMARK UNBOUND:                -0.224
REMARK SMILES CC1=CCC[C@H](C)C(=O)C[C@H](C(C)C)C(=O)C1
REMARK SMILES IDX 8 1 9 2 6 3 7 4 5 5 4 6 3 7 2 8 1 9 10 11 11 12 15 13 16 14
REMARK SMILES IDX 17 15 12 17 13 18 14 19
REMARK H PARENT
REMARK Flexibility Score: 70.00
ROOT
ATOM      1  C   UNL     1     -12.617 -33.794  31.846  1.00  0.00     0.136 C 
ATOM      2  O   UNL     1     -12.688 -32.954  32.731  1.00  0.00    -0.299 OA
ENDROOT
BRANCH   1   3
ATOM      3  C   UNL     1     -11.342 -34.610  31.716  1.00  0.00     0.053 C 
ATOM      4  C   UNL     1     -11.681 -36.071  31.388  1.00  0.00     0.016 C 
BRANCH   3   5
ATOM      5  C   UNL     1     -10.365 -34.019  30.673  1.00  0.00     0.015 C 
BRANCH   5   6
ATOM      6  C   UNL     1      -9.944 -34.995  29.552  1.00  0.00     0.028 C 
BRANCH   6   7
ATOM      7  C   UNL     1     -10.286 -34.554  28.147  1.00  0.00    -0.028 C 
ATOM      8  C   UNL     1     -11.486 -34.698  27.538  1.00  0.00    -0.070 CG0
ATOM      9  C   UNL     1     -11.613 -34.234  26.108  1.00  0.00     0.039 C 
ATOM     10  G   UNL     1     -12.692 -35.321  28.213  1.00  0.00     0.000 G0
ENDBRANCH   6   7
ENDBRANCH   5   6
ENDBRANCH   3   5
ENDBRANCH   1   3
BRANCH   1  11
ATOM     11  C   UNL     1     -13.827 -34.019  30.965  1.00  0.00     0.087 C 
BRANCH  11  12
ATOM     12  C   UNL     1     -13.704 -33.289  29.600  1.00  0.00     0.066 C 
BRANCH  12  13
ATOM     13  C   UNL     1     -13.802 -34.318  28.481  1.00  0.00     0.140 C 
ATOM     14  O   UNL     1     -14.764 -34.285  27.727  1.00  0.00    -0.299 OA
BRANCH  13  15
ATOM     15  C   UNL     1     -12.707 -35.319  28.205  1.00  0.00     0.106 CG0
ATOM     16  G   UNL     1     -11.497 -34.704  27.530  1.00  0.00     0.000 G0
ENDBRANCH  13  15
ENDBRANCH  12  13
BRANCH  12  17
ATOM     17  C   UNL     1     -14.780 -32.169  29.412  1.00  0.00    -0.006 C 
ATOM     18  C   UNL     1     -14.332 -31.139  28.355  1.00  0.00     0.008 C 
ATOM     19  C   UNL     1     -15.083 -31.422  30.725  1.00  0.00     0.008 C 
ENDBRANCH  12  17
ENDBRANCH  11  12
ENDBRANCH   1  11
TORSDOF 1
ENDMDL
MODEL 7
REMARK VINA RESULT:    -4.476      2.014      4.342
REMARK INTER + INTRA:          -7.056
REMARK INTER:                  -7.044
REMARK INTRA:                  -0.012
REMARK UNBOUND:                -0.224
REMARK SMILES CC1=CCC[C@H](C)C(=O)C[C@H](C(C)C)C(=O)C1
REMARK SMILES IDX 8 1 9 2 6 3 7 4 5 5 4 6 3 7 2 8 1 9 10 11 11 12 15 13 16 14
REMARK SMILES IDX 17 15 12 17 13 18 14 19
REMARK H PARENT
REMARK Flexibility Score: 70.00
ROOT
ATOM      1  C   UNL     1     -13.962 -32.479  29.154  1.00  0.00     0.136 C 
ATOM      2  O   UNL     1     -14.594 -31.433  29.196  1.00  0.00    -0.299 OA
ENDROOT
BRANCH   1   3
ATOM      3  C   UNL     1     -13.931 -33.261  27.852  1.00  0.00     0.053 C 
ATOM      4  C   UNL     1     -14.953 -32.681  26.864  1.00  0.00     0.016 C 
BRANCH   3   5
ATOM      5  C   UNL     1     -12.518 -33.308  27.224  1.00  0.00     0.015 C 
BRANCH   5   6
ATOM      6  C   UNL     1     -11.633 -34.478  27.706  1.00  0.00     0.028 C 
BRANCH   6   7
ATOM      7  C   UNL     1     -12.365 -35.768  27.995  1.00  0.00    -0.028 C 
ATOM      8  C   UNL     1     -12.627 -36.275  29.222  1.00  0.00    -0.070 CG0
ATOM      9  C   UNL     1     -13.332 -37.608  29.301  1.00  0.00     0.039 C 
ATOM     10  G   UNL     1     -12.229 -35.583  30.511  1.00  0.00     0.000 G0
ENDBRANCH   6   7
ENDBRANCH   5   6
ENDBRANCH   3   5
ENDBRANCH   1   3
BRANCH   1  11
ATOM     11  C   UNL     1     -13.191 -32.906  30.385  1.00  0.00     0.087 C 
BRANCH  11  12
ATOM     12  C   UNL     1     -14.042 -33.797  31.331  1.00  0.00     0.066 C 
BRANCH  12  13
ATOM     13  C   UNL     1     -13.434 -35.192  31.372  1.00  0.00     0.140 C 
ATOM     14  O   UNL     1     -13.975 -36.056  32.049  1.00  0.00    -0.299 OA
BRANCH  13  15
ATOM     15  C   UNL     1     -12.243 -35.581  30.531  1.00  0.00     0.106 CG0
ATOM     16  G   UNL     1     -12.629 -36.265  29.235  1.00  0.00     0.000 G0
ENDBRANCH  13  15
ENDBRANCH  12  13
BRANCH  12  17
ATOM     17  C   UNL     1     -14.161 -33.207  32.775  1.00  0.00    -0.006 C 
ATOM     18  C   UNL     1     -15.117 -31.997  32.805  1.00  0.00     0.008 C 
ATOM     19  C   UNL     1     -12.797 -32.766  33.341  1.00  0.00     0.008 C 
ENDBRANCH  12  17
ENDBRANCH  11  12
ENDBRANCH   1  11
TORSDOF 1
ENDMDL
MODEL 8
REMARK VINA RESULT:    -4.350      2.019      3.768
REMARK INTER + INTRA:          -6.862
REMARK INTER:                  -6.607
REMARK INTRA:                  -0.255
REMARK UNBOUND:                -0.224
REMARK SMILES CC1=CCC[C@H](C)C(=O)C[C@H](C(C)C)C(=O)C1
REMARK SMILES IDX 8 1 9 2 6 3 7 4 5 5 4 6 3 7 2 8 1 9 10 11 11 12 15 13 16 14
REMARK SMILES IDX 17 15 12 17 13 18 14 19
REMARK H PARENT
REMARK Flexibility Score: 70.00
ROOT
ATOM      1  C   UNL     1     -12.915 -33.523  32.368  1.00  0.00     0.136 C 
ATOM      2  O   UNL     1     -12.530 -32.744  33.228  1.00  0.00    -0.299 OA
ENDROOT
BRANCH   1   3
ATOM      3  C   UNL     1     -14.362 -33.446  31.909  1.00  0.00     0.053 C 
ATOM      4  C   UNL     1     -15.299 -33.881  33.044  1.00  0.00     0.016 C 
BRANCH   3   5
ATOM      5  C   UNL     1     -14.740 -32.041  31.383  1.00  0.00     0.015 C 
BRANCH   5   6
ATOM      6  C   UNL     1     -14.113 -31.666  30.023  1.00  0.00     0.028 C 
BRANCH   6   7
ATOM      7  C   UNL     1     -14.429 -32.606  28.882  1.00  0.00    -0.028 C 
ATOM      8  C   UNL     1     -13.530 -33.327  28.174  1.00  0.00    -0.070 CG0
ATOM      9  C   UNL     1     -14.042 -34.175  27.036  1.00  0.00     0.039 C 
ATOM     10  G   UNL     1     -12.040 -33.304  28.453  1.00  0.00     0.000 G0
ENDBRANCH   6   7
ENDBRANCH   5   6
ENDBRANCH   3   5
ENDBRANCH   1   3
BRANCH   1  11
ATOM     11  C   UNL     1     -11.913 -34.481  31.760  1.00  0.00     0.087 C 
BRANCH  11  12
ATOM     12  C   UNL     1     -12.408 -35.069  30.410  1.00  0.00     0.066 C 
BRANCH  12  13
ATOM     13  C   UNL     1     -11.567 -34.486  29.282  1.00  0.00     0.140 C 
ATOM     14  O   UNL     1     -10.515 -35.034  28.981  1.00  0.00    -0.299 OA
BRANCH  13  15
ATOM     15  C   UNL     1     -12.027 -33.313  28.453  1.00  0.00     0.106 CG0
ATOM     16  G   UNL     1     -13.517 -33.331  28.174  1.00  0.00     0.000 G0
ENDBRANCH  13  15
ENDBRANCH  12  13
BRANCH  12  17
ATOM     17  C   UNL     1     -12.364 -36.632  30.377  1.00  0.00    -0.006 C 
ATOM     18  C   UNL     1     -13.519 -37.204  29.530  1.00  0.00     0.008 C 
ATOM     19  C   UNL     1     -12.438 -37.250  31.787  1.00  0.00     0.008 C 
ENDBRANCH  12  17
ENDBRANCH  11  12
ENDBRANCH   1  11
TORSDOF 1
ENDMDL
MODEL 9
REMARK VINA RESULT:    -4.308      1.715      2.217
REMARK INTER + INTRA:          -6.799
REMARK INTER:                  -6.972
REMARK INTRA:                   0.173
REMARK UNBOUND:                -0.224
REMARK SMILES CC1=CCC[C@H](C)C(=O)C[C@H](C(C)C)C(=O)C1
REMARK SMILES IDX 8 1 9 2 6 3 7 4 5 5 4 6 3 7 2 8 1 9 10 11 11 12 15 13 16 14
REMARK SMILES IDX 17 15 12 17 13 18 14 19
REMARK H PARENT
REMARK Flexibility Score: 70.00
ROOT
ATOM      1  C   UNL     1     -13.663 -36.030  29.712  1.00  0.00     0.136 C 
ATOM      2  O   UNL     1     -13.956 -37.217  29.705  1.00  0.00    -0.299 OA
ENDROOT
BRANCH   1   3
ATOM      3  C   UNL     1     -13.050 -35.439  30.971  1.00  0.00     0.053 C 
ATOM      4  C   UNL     1     -14.128 -35.254  32.047  1.00  0.00     0.016 C 
BRANCH   3   5
ATOM      5  C   UNL     1     -11.870 -36.284  31.506  1.00  0.00     0.015 C 
BRANCH   5   6
ATOM      6  C   UNL     1     -10.478 -35.850  30.998  1.00  0.00     0.028 C 
BRANCH   6   7
ATOM      7  C   UNL     1     -10.307 -34.367  30.761  1.00  0.00    -0.028 C 
ATOM      8  C   UNL     1     -10.208 -33.761  29.555  1.00  0.00    -0.070 CG0
ATOM      9  C   UNL     1      -9.993 -32.267  29.530  1.00  0.00     0.039 C 
ATOM     10  G   UNL     1     -10.279 -34.510  28.239  1.00  0.00     0.000 G0
ENDBRANCH   6   7
ENDBRANCH   5   6
ENDBRANCH   3   5
ENDBRANCH   1   3
BRANCH   1  11
ATOM     11  C   UNL     1     -13.869 -35.227  28.445  1.00  0.00     0.087 C 
BRANCH  11  12
ATOM     12  C   UNL     1     -12.902 -34.014  28.357  1.00  0.00     0.066 C 
BRANCH  12  13
ATOM     13  C   UNL     1     -11.658 -34.432  27.584  1.00  0.00     0.140 C 
ATOM     14  O   UNL     1     -11.746 -34.631  26.380  1.00  0.00    -0.299 OA
BRANCH  13  15
ATOM     15  C   UNL     1     -10.297 -34.517  28.228  1.00  0.00     0.106 CG0
ATOM     16  G   UNL     1     -10.213 -33.766  29.542  1.00  0.00     0.000 G0
ENDBRANCH  13  15
ENDBRANCH  12  13
BRANCH  12  17
ATOM     17  C   UNL     1     -13.563 -32.759  27.698  1.00  0.00    -0.006 C 
ATOM     18  C   UNL     1     -14.276 -31.887  28.752  1.00  0.00     0.008 C 
ATOM     19  C   UNL     1     -14.582 -33.139  26.607  1.00  0.00     0.008 C 
ENDBRANCH  12  17
ENDBRANCH  11  12
ENDBRANCH   1  11
TORSDOF 1
ENDMDL
