MODEL 1
REMARK VINA RESULT:    -1.962      0.000      0.000
REMARK INTER + INTRA:          -4.780
REMARK INTER:                  -3.339
REMARK INTRA:                  -1.441
REMARK UNBOUND:                -1.441
REMARK SMILES CCCCCCCCCCCCCC(=O)[O-]
REMARK SMILES IDX 8 1 9 2 10 3 11 4 12 5 13 6 14 7 15 8 16 9 7 10 6 11 5 12
REMARK SMILES IDX 4 13 3 14 2 15 1 16
REMARK H PARENT
REMARK Flexibility Score: inf
ROOT
ATOM      1  C   UNL     1     116.407  13.944  25.417  1.00  0.00     0.000 C 
ENDROOT
BRANCH   1   2
ATOM      2  C   UNL     1     115.212  14.449  26.247  1.00  0.00     0.000 C 
BRANCH   2   3
ATOM      3  C   UNL     1     115.439  14.309  27.761  1.00  0.00     0.000 C 
BRANCH   3   4
ATOM      4  C   UNL     1     116.929  14.249  28.142  1.00  0.00     0.000 C 
BRANCH   4   5
ATOM      5  C   UNL     1     117.483  15.500  28.851  1.00  0.00     0.006 C 
BRANCH   5   6
ATOM      6  C   UNL     1     118.730  16.105  28.178  1.00  0.00     0.053 C 
BRANCH   6   7
ATOM      7  C   UNL     1     118.439  16.661  26.816  1.00  0.00     0.041 C 
ATOM      8  O   UNL     1     117.425  17.384  26.628  1.00  0.00    -0.550 OA
ATOM      9  O   UNL     1     119.310  16.415  25.763  1.00  0.00    -0.550 OA
ENDBRANCH   6   7
ENDBRANCH   5   6
ENDBRANCH   4   5
ENDBRANCH   3   4
ENDBRANCH   2   3
ENDBRANCH   1   2
BRANCH   1  10
ATOM     10  C   UNL     1     116.218  12.554  24.778  1.00  0.00     0.000 C 
BRANCH  10  11
ATOM     11  C   UNL     1     115.079  12.456  23.742  1.00  0.00    -0.000 C 
BRANCH  11  12
ATOM     12  C   UNL     1     115.519  12.059  22.321  1.00  0.00    -0.000 C 
BRANCH  12  13
ATOM     13  C   UNL     1     117.028  12.243  22.089  1.00  0.00    -0.000 C 
BRANCH  13  14
ATOM     14  C   UNL     1     117.347  13.356  21.074  1.00  0.00    -0.000 C 
BRANCH  14  15
ATOM     15  C   UNL     1     117.126  14.790  21.588  1.00  0.00    -0.003 C 
ATOM     16  C   UNL     1     118.299  15.320  22.412  1.00  0.00     0.004 C 
ENDBRANCH  14  15
ENDBRANCH  13  14
ENDBRANCH  12  13
ENDBRANCH  11  12
ENDBRANCH  10  11
ENDBRANCH   1  10
TORSDOF 12
ENDMDL
MODEL 2
REMARK VINA RESULT:    -1.947      2.047      3.905
REMARK INTER + INTRA:          -4.754
REMARK INTER:                  -3.223
REMARK INTRA:                  -1.531
REMARK UNBOUND:                -1.441
REMARK SMILES CCCCCCCCCCCCCC(=O)[O-]
REMARK SMILES IDX 8 1 9 2 10 3 11 4 12 5 13 6 14 7 15 8 16 9 7 10 6 11 5 12
REMARK SMILES IDX 4 13 3 14 2 15 1 16
REMARK H PARENT
REMARK Flexibility Score: inf
ROOT
ATOM      1  C   UNL     1     116.164  13.245  22.849  1.00  0.00     0.000 C 
ENDROOT
BRANCH   1   2
ATOM      2  C   UNL     1     116.390  12.349  24.080  1.00  0.00     0.000 C 
BRANCH   2   3
ATOM      3  C   UNL     1     115.841  12.969  25.376  1.00  0.00     0.000 C 
BRANCH   3   4
ATOM      4  C   UNL     1     115.306  14.398  25.178  1.00  0.00     0.000 C 
BRANCH   4   5
ATOM      5  C   UNL     1     115.890  15.462  26.128  1.00  0.00     0.006 C 
BRANCH   5   6
ATOM      6  C   UNL     1     117.117  14.986  26.928  1.00  0.00     0.053 C 
BRANCH   6   7
ATOM      7  C   UNL     1     116.809  14.759  28.378  1.00  0.00     0.041 C 
ATOM      8  O   UNL     1     117.137  13.679  28.936  1.00  0.00    -0.550 OA
ATOM      9  O   UNL     1     116.198  15.758  29.125  1.00  0.00    -0.550 OA
ENDBRANCH   6   7
ENDBRANCH   5   6
ENDBRANCH   4   5
ENDBRANCH   3   4
ENDBRANCH   2   3
ENDBRANCH   1   2
BRANCH   1  10
ATOM     10  C   UNL     1     117.448  13.741  22.155  1.00  0.00     0.000 C 
BRANCH  10  11
ATOM     11  C   UNL     1     117.824  15.209  22.440  1.00  0.00    -0.000 C 
BRANCH  11  12
ATOM     12  C   UNL     1     119.251  15.612  22.027  1.00  0.00    -0.000 C 
BRANCH  12  13
ATOM     13  C   UNL     1     119.957  16.478  23.085  1.00  0.00    -0.000 C 
BRANCH  13  14
ATOM     14  C   UNL     1     119.203  16.519  24.427  1.00  0.00    -0.000 C 
BRANCH  14  15
ATOM     15  C   UNL     1     118.786  17.924  24.897  1.00  0.00    -0.003 C 
ATOM     16  C   UNL     1     117.451  18.381  24.309  1.00  0.00     0.004 C 
ENDBRANCH  14  15
ENDBRANCH  13  14
ENDBRANCH  12  13
ENDBRANCH  11  12
ENDBRANCH  10  11
ENDBRANCH   1  10
TORSDOF 12
ENDMDL
MODEL 3
REMARK VINA RESULT:    -1.945      2.380      4.425
REMARK INTER + INTRA:          -4.751
REMARK INTER:                  -3.074
REMARK INTRA:                  -1.677
REMARK UNBOUND:                -1.441
REMARK SMILES CCCCCCCCCCCCCC(=O)[O-]
REMARK SMILES IDX 8 1 9 2 10 3 11 4 12 5 13 6 14 7 15 8 16 9 7 10 6 11 5 12
REMARK SMILES IDX 4 13 3 14 2 15 1 16
REMARK H PARENT
REMARK Flexibility Score: inf
ROOT
ATOM      1  C   UNL     1     118.830  16.239  27.955  1.00  0.00     0.000 C 
ENDROOT
BRANCH   1   2
ATOM      2  C   UNL     1     117.838  15.619  28.956  1.00  0.00     0.000 C 
BRANCH   2   3
ATOM      3  C   UNL     1     116.984  14.502  28.334  1.00  0.00     0.000 C 
BRANCH   3   4
ATOM      4  C   UNL     1     115.609  14.995  27.851  1.00  0.00     0.000 C 
BRANCH   4   5
ATOM      5  C   UNL     1     115.425  15.053  26.322  1.00  0.00     0.006 C 
BRANCH   5   6
ATOM      6  C   UNL     1     116.501  14.288  25.529  1.00  0.00     0.053 C 
BRANCH   6   7
ATOM      7  C   UNL     1     116.009  12.969  25.012  1.00  0.00     0.041 C 
ATOM      8  O   UNL     1     115.260  12.248  25.721  1.00  0.00    -0.550 OA
ATOM      9  O   UNL     1     116.344  12.555  23.729  1.00  0.00    -0.550 OA
ENDBRANCH   6   7
ENDBRANCH   5   6
ENDBRANCH   4   5
ENDBRANCH   3   4
ENDBRANCH   2   3
ENDBRANCH   1   2
BRANCH   1  10
ATOM     10  C   UNL     1     118.365  17.558  27.305  1.00  0.00     0.000 C 
BRANCH  10  11
ATOM     11  C   UNL     1     118.203  17.514  25.772  1.00  0.00    -0.000 C 
BRANCH  11  12
ATOM     12  C   UNL     1     119.296  16.731  25.021  1.00  0.00    -0.000 C 
BRANCH  12  13
ATOM     13  C   UNL     1     119.336  17.055  23.518  1.00  0.00    -0.000 C 
BRANCH  13  14
ATOM     14  C   UNL     1     119.283  15.797  22.632  1.00  0.00    -0.000 C 
BRANCH  14  15
ATOM     15  C   UNL     1     117.870  15.365  22.197  1.00  0.00    -0.003 C 
ATOM     16  C   UNL     1     116.843  16.493  22.293  1.00  0.00     0.004 C 
ENDBRANCH  14  15
ENDBRANCH  13  14
ENDBRANCH  12  13
ENDBRANCH  11  12
ENDBRANCH  10  11
ENDBRANCH   1  10
TORSDOF 12
ENDMDL
MODEL 4
REMARK VINA RESULT:    -1.909      2.522      5.827
REMARK INTER + INTRA:          -4.689
REMARK INTER:                  -2.697
REMARK INTRA:                  -1.992
REMARK UNBOUND:                -1.441
REMARK SMILES CCCCCCCCCCCCCC(=O)[O-]
REMARK SMILES IDX 8 1 9 2 10 3 11 4 12 5 13 6 14 7 15 8 16 9 7 10 6 11 5 12
REMARK SMILES IDX 4 13 3 14 2 15 1 16
REMARK H PARENT
REMARK Flexibility Score: inf
ROOT
ATOM      1  C   UNL     1     117.056  18.275  26.266  1.00  0.00     0.000 C 
ENDROOT
BRANCH   1   2
ATOM      2  C   UNL     1     115.637  17.678  26.292  1.00  0.00     0.000 C 
BRANCH   2   3
ATOM      3  C   UNL     1     115.375  16.713  25.123  1.00  0.00     0.000 C 
BRANCH   3   4
ATOM      4  C   UNL     1     114.515  15.503  25.525  1.00  0.00     0.000 C 
BRANCH   4   5
ATOM      5  C   UNL     1     115.103  14.124  25.168  1.00  0.00     0.006 C 
BRANCH   5   6
ATOM      6  C   UNL     1     116.470  14.186  24.461  1.00  0.00     0.053 C 
BRANCH   6   7
ATOM      7  C   UNL     1     116.683  13.043  23.513  1.00  0.00     0.041 C 
ATOM      8  O   UNL     1     116.346  11.875  23.841  1.00  0.00    -0.550 OA
ATOM      9  O   UNL     1     117.214  13.274  22.251  1.00  0.00    -0.550 OA
ENDBRANCH   6   7
ENDBRANCH   5   6
ENDBRANCH   4   5
ENDBRANCH   3   4
ENDBRANCH   2   3
ENDBRANCH   1   2
BRANCH   1  10
ATOM     10  C   UNL     1     118.127  17.387  25.601  1.00  0.00     0.000 C 
BRANCH  10  11
ATOM     11  C   UNL     1     118.798  16.357  26.533  1.00  0.00    -0.000 C 
BRANCH  11  12
ATOM     12  C   UNL     1     118.854  16.757  28.018  1.00  0.00    -0.000 C 
BRANCH  12  13
ATOM     13  C   UNL     1     118.164  15.736  28.938  1.00  0.00    -0.000 C 
BRANCH  13  14
ATOM     14  C   UNL     1     117.282  14.735  28.168  1.00  0.00    -0.000 C 
BRANCH  14  15
ATOM     15  C   UNL     1     115.922  14.429  28.820  1.00  0.00    -0.003 C 
ATOM     16  C   UNL     1     115.492  12.972  28.657  1.00  0.00     0.004 C 
ENDBRANCH  14  15
ENDBRANCH  13  14
ENDBRANCH  12  13
ENDBRANCH  11  12
ENDBRANCH  10  11
ENDBRANCH   1  10
TORSDOF 12
ENDMDL
MODEL 5
REMARK VINA RESULT:    -1.867      2.012      3.669
REMARK INTER + INTRA:          -4.619
REMARK INTER:                  -2.559
REMARK INTRA:                  -2.060
REMARK UNBOUND:                -1.441
REMARK SMILES CCCCCCCCCCCCCC(=O)[O-]
REMARK SMILES IDX 8 1 9 2 10 3 11 4 12 5 13 6 14 7 15 8 16 9 7 10 6 11 5 12
REMARK SMILES IDX 4 13 3 14 2 15 1 16
REMARK H PARENT
REMARK Flexibility Score: inf
ROOT
ATOM      1  C   UNL     1     116.232  16.229  22.084  1.00  0.00     0.000 C 
ENDROOT
BRANCH   1   2
ATOM      2  C   UNL     1     116.544  16.179  23.591  1.00  0.00     0.000 C 
BRANCH   2   3
ATOM      3  C   UNL     1     115.277  16.199  24.462  1.00  0.00     0.000 C 
BRANCH   3   4
ATOM      4  C   UNL     1     115.289  15.123  25.562  1.00  0.00     0.000 C 
BRANCH   4   5
ATOM      5  C   UNL     1     116.678  14.567  25.932  1.00  0.00     0.006 C 
BRANCH   5   6
ATOM      6  C   UNL     1     117.230  15.093  27.271  1.00  0.00     0.053 C 
BRANCH   6   7
ATOM      7  C   UNL     1     116.560  14.468  28.458  1.00  0.00     0.041 C 
ATOM      8  O   UNL     1     116.935  13.343  28.879  1.00  0.00    -0.550 OA
ATOM      9  O   UNL     1     115.549  15.148  29.125  1.00  0.00    -0.550 OA
ENDBRANCH   6   7
ENDBRANCH   5   6
ENDBRANCH   4   5
ENDBRANCH   3   4
ENDBRANCH   2   3
ENDBRANCH   1   2
BRANCH   1  10
ATOM     10  C   UNL     1     116.911  15.133  21.239  1.00  0.00     0.000 C 
BRANCH  10  11
ATOM     11  C   UNL     1     117.673  14.060  22.044  1.00  0.00    -0.000 C 
BRANCH  11  12
ATOM     12  C   UNL     1     117.126  12.628  21.907  1.00  0.00    -0.000 C 
BRANCH  12  13
ATOM     13  C   UNL     1     116.723  12.011  23.258  1.00  0.00    -0.000 C 
BRANCH  13  14
ATOM     14  C   UNL     1     115.209  12.094  23.526  1.00  0.00    -0.000 C 
BRANCH  14  15
ATOM     15  C   UNL     1     114.351  12.473  22.306  1.00  0.00    -0.003 C 
ATOM     16  C   UNL     1     113.423  13.658  22.570  1.00  0.00     0.004 C 
ENDBRANCH  14  15
ENDBRANCH  13  14
ENDBRANCH  12  13
ENDBRANCH  11  12
ENDBRANCH  10  11
ENDBRANCH   1  10
TORSDOF 12
ENDMDL
MODEL 6
REMARK VINA RESULT:    -1.845      2.296      3.825
REMARK INTER + INTRA:          -4.581
REMARK INTER:                  -2.469
REMARK INTRA:                  -2.111
REMARK UNBOUND:                -1.441
REMARK SMILES CCCCCCCCCCCCCC(=O)[O-]
REMARK SMILES IDX 8 1 9 2 10 3 11 4 12 5 13 6 14 7 15 8 16 9 7 10 6 11 5 12
REMARK SMILES IDX 4 13 3 14 2 15 1 16
REMARK H PARENT
REMARK Flexibility Score: inf
ROOT
ATOM      1  C   UNL     1     116.746  16.919  24.472  1.00  0.00     0.000 C 
ENDROOT
BRANCH   1   2
ATOM      2  C   UNL     1     115.232  16.961  24.197  1.00  0.00     0.000 C 
BRANCH   2   3
ATOM      3  C   UNL     1     114.391  16.920  25.484  1.00  0.00     0.000 C 
BRANCH   3   4
ATOM      4  C   UNL     1     115.235  17.099  26.758  1.00  0.00     0.000 C 
BRANCH   4   5
ATOM      5  C   UNL     1     115.081  15.989  27.816  1.00  0.00     0.006 C 
BRANCH   5   6
ATOM      6  C   UNL     1     116.193  15.977  28.883  1.00  0.00     0.053 C 
BRANCH   6   7
ATOM      7  C   UNL     1     117.360  15.120  28.492  1.00  0.00     0.041 C 
ATOM      8  O   UNL     1     117.364  13.891  28.763  1.00  0.00    -0.550 OA
ATOM      9  O   UNL     1     118.424  15.671  27.790  1.00  0.00    -0.550 OA
ENDBRANCH   6   7
ENDBRANCH   5   6
ENDBRANCH   4   5
ENDBRANCH   3   4
ENDBRANCH   2   3
ENDBRANCH   1   2
BRANCH   1  10
ATOM     10  C   UNL     1     117.447  15.606  24.070  1.00  0.00     0.000 C 
BRANCH  10  11
ATOM     11  C   UNL     1     116.602  14.648  23.206  1.00  0.00    -0.000 C 
BRANCH  11  12
ATOM     12  C   UNL     1     116.297  13.283  23.849  1.00  0.00    -0.000 C 
BRANCH  12  13
ATOM     13  C   UNL     1     116.231  13.348  25.385  1.00  0.00    -0.000 C 
BRANCH  13  14
ATOM     14  C   UNL     1     114.914  12.788  25.953  1.00  0.00    -0.000 C 
BRANCH  14  15
ATOM     15  C   UNL     1     113.635  13.344  25.301  1.00  0.00    -0.003 C 
ATOM     16  C   UNL     1     112.539  13.672  26.315  1.00  0.00     0.004 C 
ENDBRANCH  14  15
ENDBRANCH  13  14
ENDBRANCH  12  13
ENDBRANCH  11  12
ENDBRANCH  10  11
ENDBRANCH   1  10
TORSDOF 12
ENDMDL
MODEL 7
REMARK VINA RESULT:    -1.845      2.670      4.824
REMARK INTER + INTRA:          -4.581
REMARK INTER:                  -2.726
REMARK INTRA:                  -1.855
REMARK UNBOUND:                -1.441
REMARK SMILES CCCCCCCCCCCCCC(=O)[O-]
REMARK SMILES IDX 8 1 9 2 10 3 11 4 12 5 13 6 14 7 15 8 16 9 7 10 6 11 5 12
REMARK SMILES IDX 4 13 3 14 2 15 1 16
REMARK H PARENT
REMARK Flexibility Score: inf
ROOT
ATOM      1  C   UNL     1     117.191  14.481  28.492  1.00  0.00     0.000 C 
ENDROOT
BRANCH   1   2
ATOM      2  C   UNL     1     116.031  13.495  28.264  1.00  0.00     0.000 C 
BRANCH   2   3
ATOM      3  C   UNL     1     115.015  14.001  27.226  1.00  0.00     0.000 C 
BRANCH   3   4
ATOM      4  C   UNL     1     114.992  13.150  25.945  1.00  0.00     0.000 C 
BRANCH   4   5
ATOM      5  C   UNL     1     116.291  13.164  25.115  1.00  0.00     0.006 C 
BRANCH   5   6
ATOM      6  C   UNL     1     116.368  12.057  24.046  1.00  0.00     0.053 C 
BRANCH   6   7
ATOM      7  C   UNL     1     116.260  12.594  22.650  1.00  0.00     0.041 C 
ATOM      8  O   UNL     1     115.177  12.499  22.016  1.00  0.00    -0.550 OA
ATOM      9  O   UNL     1     117.343  13.237  22.066  1.00  0.00    -0.550 OA
ENDBRANCH   6   7
ENDBRANCH   5   6
ENDBRANCH   4   5
ENDBRANCH   3   4
ENDBRANCH   2   3
ENDBRANCH   1   2
BRANCH   1  10
ATOM     10  C   UNL     1     117.040  15.843  27.787  1.00  0.00     0.000 C 
BRANCH  10  11
ATOM     11  C   UNL     1     118.073  16.128  26.678  1.00  0.00    -0.000 C 
BRANCH  11  12
ATOM     12  C   UNL     1     117.707  17.277  25.721  1.00  0.00    -0.000 C 
BRANCH  12  13
ATOM     13  C   UNL     1     116.382  17.036  24.979  1.00  0.00    -0.000 C 
BRANCH  13  14
ATOM     14  C   UNL     1     116.581  16.414  23.584  1.00  0.00    -0.000 C 
BRANCH  14  15
ATOM     15  C   UNL     1     115.284  16.146  22.799  1.00  0.00    -0.003 C 
ATOM     16  C   UNL     1     114.079  15.886  23.703  1.00  0.00     0.004 C 
ENDBRANCH  14  15
ENDBRANCH  13  14
ENDBRANCH  12  13
ENDBRANCH  11  12
ENDBRANCH  10  11
ENDBRANCH   1  10
TORSDOF 12
ENDMDL
MODEL 8
REMARK VINA RESULT:    -1.835      2.800      5.128
REMARK INTER + INTRA:          -4.563
REMARK INTER:                  -2.565
REMARK INTRA:                  -1.998
REMARK UNBOUND:                -1.441
REMARK SMILES CCCCCCCCCCCCCC(=O)[O-]
REMARK SMILES IDX 8 1 9 2 10 3 11 4 12 5 13 6 14 7 15 8 16 9 7 10 6 11 5 12
REMARK SMILES IDX 4 13 3 14 2 15 1 16
REMARK H PARENT
REMARK Flexibility Score: inf
ROOT
ATOM      1  C   UNL     1     118.821  17.693  27.418  1.00  0.00     0.000 C 
ENDROOT
BRANCH   1   2
ATOM      2  C   UNL     1     118.875  16.303  28.078  1.00  0.00     0.000 C 
BRANCH   2   3
ATOM      3  C   UNL     1     117.543  15.905  28.736  1.00  0.00     0.000 C 
BRANCH   3   4
ATOM      4  C   UNL     1     117.090  14.483  28.362  1.00  0.00     0.000 C 
BRANCH   4   5
ATOM      5  C   UNL     1     115.911  14.402  27.372  1.00  0.00     0.006 C 
BRANCH   5   6
ATOM      6  C   UNL     1     115.436  12.967  27.075  1.00  0.00     0.053 C 
BRANCH   6   7
ATOM      7  C   UNL     1     115.319  12.690  25.606  1.00  0.00     0.041 C 
ATOM      8  O   UNL     1     114.210  12.363  25.107  1.00  0.00    -0.550 OA
ATOM      9  O   UNL     1     116.426  12.835  24.779  1.00  0.00    -0.550 OA
ENDBRANCH   6   7
ENDBRANCH   5   6
ENDBRANCH   4   5
ENDBRANCH   3   4
ENDBRANCH   2   3
ENDBRANCH   1   2
BRANCH   1  10
ATOM     10  C   UNL     1     118.849  17.686  25.877  1.00  0.00     0.000 C 
BRANCH  10  11
ATOM     11  C   UNL     1     118.463  16.346  25.218  1.00  0.00    -0.000 C 
BRANCH  11  12
ATOM     12  C   UNL     1     117.151  16.366  24.414  1.00  0.00    -0.000 C 
BRANCH  12  13
ATOM     13  C   UNL     1     116.335  17.651  24.633  1.00  0.00    -0.000 C 
BRANCH  13  14
ATOM     14  C   UNL     1     115.078  17.424  25.492  1.00  0.00    -0.000 C 
BRANCH  14  15
ATOM     15  C   UNL     1     115.150  18.001  26.917  1.00  0.00    -0.003 C 
ATOM     16  C   UNL     1     115.595  19.463  26.951  1.00  0.00     0.004 C 
ENDBRANCH  14  15
ENDBRANCH  13  14
ENDBRANCH  12  13
ENDBRANCH  11  12
ENDBRANCH  10  11
ENDBRANCH   1  10
TORSDOF 12
ENDMDL
MODEL 9
REMARK VINA RESULT:    -1.825      2.739      4.873
REMARK INTER + INTRA:          -4.546
REMARK INTER:                  -2.745
REMARK INTRA:                  -1.801
REMARK UNBOUND:                -1.441
REMARK SMILES CCCCCCCCCCCCCC(=O)[O-]
REMARK SMILES IDX 8 1 9 2 10 3 11 4 12 5 13 6 14 7 15 8 16 9 7 10 6 11 5 12
REMARK SMILES IDX 4 13 3 14 2 15 1 16
REMARK H PARENT
REMARK Flexibility Score: inf
ROOT
ATOM      1  C   UNL     1     116.413  15.366  22.848  1.00  0.00     0.000 C 
ENDROOT
BRANCH   1   2
ATOM      2  C   UNL     1     117.001  16.497  23.711  1.00  0.00     0.000 C 
BRANCH   2   3
ATOM      3  C   UNL     1     118.195  16.035  24.563  1.00  0.00     0.000 C 
BRANCH   3   4
ATOM      4  C   UNL     1     119.460  16.879  24.331  1.00  0.00     0.000 C 
BRANCH   4   5
ATOM      5  C   UNL     1     120.430  16.340  23.261  1.00  0.00     0.006 C 
BRANCH   5   6
ATOM      6  C   UNL     1     120.372  17.097  21.920  1.00  0.00     0.053 C 
BRANCH   6   7
ATOM      7  C   UNL     1     119.786  16.270  20.815  1.00  0.00     0.041 C 
ATOM      8  O   UNL     1     120.348  15.203  20.453  1.00  0.00    -0.550 OA
ATOM      9  O   UNL     1     118.595  16.655  20.213  1.00  0.00    -0.550 OA
ENDBRANCH   6   7
ENDBRANCH   5   6
ENDBRANCH   4   5
ENDBRANCH   3   4
ENDBRANCH   2   3
ENDBRANCH   1   2
BRANCH   1  10
ATOM     10  C   UNL     1     117.372  14.192  22.566  1.00  0.00     0.000 C 
BRANCH  10  11
ATOM     11  C   UNL     1     116.717  12.796  22.560  1.00  0.00    -0.000 C 
BRANCH  11  12
ATOM     12  C   UNL     1     116.625  12.109  23.934  1.00  0.00    -0.000 C 
BRANCH  12  13
ATOM     13  C   UNL     1     115.174  11.888  24.395  1.00  0.00    -0.000 C 
BRANCH  13  14
ATOM     14  C   UNL     1     114.804  12.726  25.633  1.00  0.00    -0.000 C 
BRANCH  14  15
ATOM     15  C   UNL     1     115.934  13.617  26.179  1.00  0.00    -0.003 C 
ATOM     16  C   UNL     1     115.431  14.940  26.754  1.00  0.00     0.004 C 
ENDBRANCH  14  15
ENDBRANCH  13  14
ENDBRANCH  12  13
ENDBRANCH  11  12
ENDBRANCH  10  11
ENDBRANCH   1  10
TORSDOF 12
ENDMDL
