MODEL 1
REMARK VINA RESULT:    -3.053      0.000      0.000
REMARK INTER + INTRA:          -5.087
REMARK INTER:                  -4.660
REMARK INTRA:                  -0.427
REMARK UNBOUND:                -0.427
REMARK SMILES CC1=CCC[C@H](C)C(=O)C[C@@H](C(C)C)C(=O)C1
REMARK SMILES IDX 8 1 9 2 6 3 7 4 5 5 4 6 3 7 2 8 1 9 10 11 11 12 15 13 16 14
REMARK SMILES IDX 17 15 12 17 13 18 14 19
REMARK H PARENT
REMARK Flexibility Score: 70.00
ROOT
ATOM      1  C   UNL     1      17.078  52.826  35.648  1.00  0.00     0.136 C 
ATOM      2  O   UNL     1      17.349  53.732  36.424  1.00  0.00    -0.299 OA
ENDROOT
BRANCH   1   3
ATOM      3  C   UNL     1      15.728  52.134  35.801  1.00  0.00     0.053 C 
ATOM      4  C   UNL     1      15.275  52.098  37.265  1.00  0.00     0.016 C 
BRANCH   3   5
ATOM      5  C   UNL     1      14.629  52.728  34.889  1.00  0.00     0.015 C 
BRANCH   5   6
ATOM      6  C   UNL     1      14.243  51.784  33.734  1.00  0.00     0.028 C 
BRANCH   6   7
ATOM      7  C   UNL     1      14.376  52.409  32.371  1.00  0.00    -0.028 C 
ATOM      8  C   UNL     1      15.410  52.245  31.506  1.00  0.00    -0.070 CG0
ATOM      9  C   UNL     1      15.239  52.839  30.127  1.00  0.00     0.039 C 
ATOM     10  G   UNL     1      16.783  51.674  31.857  1.00  0.00     0.000 G0
ENDBRANCH   6   7
ENDBRANCH   5   6
ENDBRANCH   3   5
ENDBRANCH   1   3
BRANCH   1  11
ATOM     11  C   UNL     1      18.096  52.487  34.577  1.00  0.00     0.087 C 
BRANCH  11  12
ATOM     12  C   UNL     1      18.084  53.404  33.327  1.00  0.00     0.066 C 
BRANCH  12  13
ATOM     13  C   UNL     1      17.920  52.642  32.012  1.00  0.00     0.140 C 
ATOM     14  O   UNL     1      18.636  52.904  31.058  1.00  0.00    -0.299 OA
BRANCH  13  15
ATOM     15  C   UNL     1      16.780  51.661  31.844  1.00  0.00     0.106 CG0
ATOM     16  G   UNL     1      15.407  52.241  31.507  1.00  0.00     0.000 G0
ENDBRANCH  13  15
ENDBRANCH  12  13
BRANCH  12  17
ATOM     17  C   UNL     1      19.330  54.346  33.314  1.00  0.00    -0.006 C 
ATOM     18  C   UNL     1      20.527  53.718  34.046  1.00  0.00     0.008 C 
ATOM     19  C   UNL     1      19.056  55.753  33.877  1.00  0.00     0.008 C 
ENDBRANCH  12  17
ENDBRANCH  11  12
ENDBRANCH   1  11
TORSDOF 1
ENDMDL
MODEL 2
REMARK VINA RESULT:    -3.028      1.738      2.301
REMARK INTER + INTRA:          -5.048
REMARK INTER:                  -4.593
REMARK INTRA:                  -0.455
REMARK UNBOUND:                -0.427
REMARK SMILES CC1=CCC[C@H](C)C(=O)C[C@@H](C(C)C)C(=O)C1
REMARK SMILES IDX 8 1 9 2 6 3 7 4 5 5 4 6 3 7 2 8 1 9 10 11 11 12 15 13 16 14
REMARK SMILES IDX 17 15 12 17 13 18 14 19
REMARK H PARENT
REMARK Flexibility Score: 70.00
ROOT
ATOM      1  C   UNL     1      16.520  52.950  36.051  1.00  0.00     0.136 C 
ATOM      2  O   UNL     1      17.310  53.630  36.691  1.00  0.00    -0.299 OA
ENDROOT
BRANCH   1   3
ATOM      3  C   UNL     1      15.132  52.725  36.638  1.00  0.00     0.053 C 
ATOM      4  C   UNL     1      15.195  51.933  37.949  1.00  0.00     0.016 C 
BRANCH   3   5
ATOM      5  C   UNL     1      14.322  54.032  36.813  1.00  0.00     0.015 C 
BRANCH   5   6
ATOM      6  C   UNL     1      14.262  54.869  35.519  1.00  0.00     0.028 C 
BRANCH   6   7
ATOM      7  C   UNL     1      13.361  54.285  34.464  1.00  0.00    -0.028 C 
ATOM      8  C   UNL     1      13.718  53.935  33.201  1.00  0.00    -0.070 CG0
ATOM      9  C   UNL     1      12.677  53.211  32.380  1.00  0.00     0.039 C 
ATOM     10  G   UNL     1      15.001  54.360  32.490  1.00  0.00     0.000 G0
ENDBRANCH   6   7
ENDBRANCH   5   6
ENDBRANCH   3   5
ENDBRANCH   1   3
BRANCH   1  11
ATOM     11  C   UNL     1      16.978  52.410  34.710  1.00  0.00     0.087 C 
BRANCH  11  12
ATOM     12  C   UNL     1      17.194  53.471  33.599  1.00  0.00     0.066 C 
BRANCH  12  13
ATOM     13  C   UNL     1      16.162  53.397  32.475  1.00  0.00     0.140 C 
ATOM     14  O   UNL     1      16.338  52.645  31.529  1.00  0.00    -0.299 OA
BRANCH  13  15
ATOM     15  C   UNL     1      14.991  54.355  32.459  1.00  0.00     0.106 CG0
ATOM     16  G   UNL     1      13.727  53.922  33.200  1.00  0.00     0.000 G0
ENDBRANCH  13  15
ENDBRANCH  12  13
BRANCH  12  17
ATOM     17  C   UNL     1      18.660  53.427  33.062  1.00  0.00    -0.006 C 
ATOM     18  C   UNL     1      19.245  52.007  33.122  1.00  0.00     0.008 C 
ATOM     19  C   UNL     1      19.613  54.413  33.764  1.00  0.00     0.008 C 
ENDBRANCH  12  17
ENDBRANCH  11  12
ENDBRANCH   1  11
TORSDOF 1
ENDMDL
MODEL 3
REMARK VINA RESULT:    -3.027      1.849      4.237
REMARK INTER + INTRA:          -5.046
REMARK INTER:                  -5.020
REMARK INTRA:                  -0.027
REMARK UNBOUND:                -0.427
REMARK SMILES CC1=CCC[C@H](C)C(=O)C[C@@H](C(C)C)C(=O)C1
REMARK SMILES IDX 8 1 9 2 6 3 7 4 5 5 4 6 3 7 2 8 1 9 10 11 11 12 15 13 16 14
REMARK SMILES IDX 17 15 12 17 13 18 14 19
REMARK H PARENT
REMARK Flexibility Score: 70.00
ROOT
ATOM      1  C   UNL     1      15.274  52.295  34.308  1.00  0.00     0.136 C 
ATOM      2  O   UNL     1      14.158  51.794  34.312  1.00  0.00    -0.299 OA
ENDROOT
BRANCH   1   3
ATOM      3  C   UNL     1      15.950  52.541  35.652  1.00  0.00     0.053 C 
ATOM      4  C   UNL     1      15.251  51.780  36.784  1.00  0.00     0.016 C 
BRANCH   3   5
ATOM      5  C   UNL     1      17.469  52.248  35.635  1.00  0.00     0.015 C 
BRANCH   5   6
ATOM      6  C   UNL     1      18.321  53.529  35.728  1.00  0.00     0.028 C 
BRANCH   6   7
ATOM      7  C   UNL     1      19.625  53.443  34.981  1.00  0.00    -0.028 C 
ATOM      8  C   UNL     1      19.789  53.500  33.634  1.00  0.00    -0.070 CG0
ATOM      9  C   UNL     1      21.211  53.564  33.128  1.00  0.00     0.039 C 
ATOM     10  G   UNL     1      18.682  53.329  32.595  1.00  0.00     0.000 G0
ENDBRANCH   6   7
ENDBRANCH   5   6
ENDBRANCH   3   5
ENDBRANCH   1   3
BRANCH   1  11
ATOM     11  C   UNL     1      15.904  52.603  32.964  1.00  0.00     0.087 C 
BRANCH  11  12
ATOM     12  C   UNL     1      16.808  51.487  32.377  1.00  0.00     0.066 C 
BRANCH  12  13
ATOM     13  C   UNL     1      18.273  51.898  32.238  1.00  0.00     0.140 C 
ATOM     14  O   UNL     1      19.123  51.062  31.971  1.00  0.00    -0.299 OA
BRANCH  13  15
ATOM     15  C   UNL     1      18.697  53.313  32.567  1.00  0.00     0.106 CG0
ATOM     16  G   UNL     1      19.789  53.485  33.622  1.00  0.00     0.000 G0
ENDBRANCH  13  15
ENDBRANCH  12  13
BRANCH  12  17
ATOM     17  C   UNL     1      16.218  50.937  31.040  1.00  0.00    -0.006 C 
ATOM     18  C   UNL     1      16.124  52.031  29.965  1.00  0.00     0.008 C 
ATOM     19  C   UNL     1      14.851  50.245  31.198  1.00  0.00     0.008 C 
ENDBRANCH  12  17
ENDBRANCH  11  12
ENDBRANCH   1  11
TORSDOF 1
ENDMDL
MODEL 4
REMARK VINA RESULT:    -3.021     12.699     15.043
REMARK INTER + INTRA:          -5.038
REMARK INTER:                  -5.263
REMARK INTRA:                   0.225
REMARK UNBOUND:                -0.427
REMARK SMILES CC1=CCC[C@H](C)C(=O)C[C@@H](C(C)C)C(=O)C1
REMARK SMILES IDX 8 1 9 2 6 3 7 4 5 5 4 6 3 7 2 8 1 9 10 11 11 12 15 13 16 14
REMARK SMILES IDX 17 15 12 17 13 18 14 19
REMARK H PARENT
REMARK Flexibility Score: 70.00
ROOT
ATOM      1  C   UNL     1      15.882  61.314  20.965  1.00  0.00     0.136 C 
ATOM      2  O   UNL     1      16.217  61.113  19.805  1.00  0.00    -0.299 OA
ENDROOT
BRANCH   1   3
ATOM      3  C   UNL     1      16.042  60.172  21.962  1.00  0.00     0.053 C 
ATOM      4  C   UNL     1      16.179  58.819  21.254  1.00  0.00     0.016 C 
BRANCH   3   5
ATOM      5  C   UNL     1      17.196  60.396  22.968  1.00  0.00     0.015 C 
BRANCH   5   6
ATOM      6  C   UNL     1      16.705  60.459  24.428  1.00  0.00     0.028 C 
BRANCH   6   7
ATOM      7  C   UNL     1      16.290  61.837  24.868  1.00  0.00    -0.028 C 
ATOM      8  C   UNL     1      15.050  62.380  24.760  1.00  0.00    -0.070 CG0
ATOM      9  C   UNL     1      14.836  63.719  25.427  1.00  0.00     0.039 C 
ATOM     10  G   UNL     1      13.917  61.845  23.885  1.00  0.00     0.000 G0
ENDBRANCH   6   7
ENDBRANCH   5   6
ENDBRANCH   3   5
ENDBRANCH   1   3
BRANCH   1  11
ATOM     11  C   UNL     1      15.363  62.693  21.321  1.00  0.00     0.087 C 
BRANCH  11  12
ATOM     12  C   UNL     1      13.821  62.821  21.424  1.00  0.00     0.066 C 
BRANCH  12  13
ATOM     13  C   UNL     1      13.301  62.800  22.861  1.00  0.00     0.140 C 
ATOM     14  O   UNL     1      12.484  63.630  23.231  1.00  0.00    -0.299 OA
BRANCH  13  15
ATOM     15  C   UNL     1      13.899  61.841  23.867  1.00  0.00     0.106 CG0
ATOM     16  G   UNL     1      15.038  62.367  24.739  1.00  0.00     0.000 G0
ENDBRANCH  13  15
ENDBRANCH  12  13
BRANCH  12  17
ATOM     17  C   UNL     1      13.111  61.763  20.521  1.00  0.00    -0.006 C 
ATOM     18  C   UNL     1      12.426  62.415  19.309  1.00  0.00     0.008 C 
ATOM     19  C   UNL     1      12.101  60.876  21.273  1.00  0.00     0.008 C 
ENDBRANCH  12  17
ENDBRANCH  11  12
ENDBRANCH   1  11
TORSDOF 1
ENDMDL
MODEL 5
REMARK VINA RESULT:    -3.000      2.662      4.952
REMARK INTER + INTRA:          -5.006
REMARK INTER:                  -4.560
REMARK INTRA:                  -0.445
REMARK UNBOUND:                -0.427
REMARK SMILES CC1=CCC[C@H](C)C(=O)C[C@@H](C(C)C)C(=O)C1
REMARK SMILES IDX 8 1 9 2 6 3 7 4 5 5 4 6 3 7 2 8 1 9 10 11 11 12 15 13 16 14
REMARK SMILES IDX 17 15 12 17 13 18 14 19
REMARK H PARENT
REMARK Flexibility Score: 70.00
ROOT
ATOM      1  C   UNL     1      15.978  52.721  36.348  1.00  0.00     0.136 C 
ATOM      2  O   UNL     1      15.525  53.194  37.381  1.00  0.00    -0.299 OA
ENDROOT
BRANCH   1   3
ATOM      3  C   UNL     1      17.486  52.782  36.135  1.00  0.00     0.053 C 
ATOM      4  C   UNL     1      17.901  52.088  34.833  1.00  0.00     0.016 C 
BRANCH   3   5
ATOM      5  C   UNL     1      18.057  54.217  36.211  1.00  0.00     0.015 C 
BRANCH   5   6
ATOM      6  C   UNL     1      17.836  55.013  34.910  1.00  0.00     0.028 C 
BRANCH   6   7
ATOM      7  C   UNL     1      16.966  56.229  35.085  1.00  0.00    -0.028 C 
ATOM      8  C   UNL     1      15.672  56.359  34.694  1.00  0.00    -0.070 CG0
ATOM      9  C   UNL     1      14.955  57.615  35.131  1.00  0.00     0.039 C 
ATOM     10  G   UNL     1      14.942  55.440  33.715  1.00  0.00     0.000 G0
ENDBRANCH   6   7
ENDBRANCH   5   6
ENDBRANCH   3   5
ENDBRANCH   1   3
BRANCH   1  11
ATOM     11  C   UNL     1      15.002  52.085  35.377  1.00  0.00     0.087 C 
BRANCH  11  12
ATOM     12  C   UNL     1      14.783  52.854  34.048  1.00  0.00     0.066 C 
BRANCH  12  13
ATOM     13  C   UNL     1      14.199  54.252  34.241  1.00  0.00     0.140 C 
ATOM     14  O   UNL     1      13.090  54.392  34.733  1.00  0.00    -0.299 OA
BRANCH  13  15
ATOM     15  C   UNL     1      14.931  55.460  33.696  1.00  0.00     0.106 CG0
ATOM     16  G   UNL     1      15.670  56.339  34.704  1.00  0.00     0.000 G0
ENDBRANCH  13  15
ENDBRANCH  12  13
BRANCH  12  17
ATOM     17  C   UNL     1      13.952  51.999  33.039  1.00  0.00    -0.006 C 
ATOM     18  C   UNL     1      13.048  50.986  33.760  1.00  0.00     0.008 C 
ATOM     19  C   UNL     1      14.806  51.273  31.982  1.00  0.00     0.008 C 
ENDBRANCH  12  17
ENDBRANCH  11  12
ENDBRANCH   1  11
TORSDOF 1
ENDMDL
MODEL 6
REMARK VINA RESULT:    -2.976      3.363      4.989
REMARK INTER + INTRA:          -4.969
REMARK INTER:                  -4.599
REMARK INTRA:                  -0.370
REMARK UNBOUND:                -0.427
REMARK SMILES CC1=CCC[C@H](C)C(=O)C[C@@H](C(C)C)C(=O)C1
REMARK SMILES IDX 8 1 9 2 6 3 7 4 5 5 4 6 3 7 2 8 1 9 10 11 11 12 15 13 16 14
REMARK SMILES IDX 17 15 12 17 13 18 14 19
REMARK H PARENT
REMARK Flexibility Score: 70.00
ROOT
ATOM      1  C   UNL     1      17.225  54.780  35.484  1.00  0.00     0.136 C 
ATOM      2  O   UNL     1      16.004  54.694  35.461  1.00  0.00    -0.299 OA
ENDROOT
BRANCH   1   3
ATOM      3  C   UNL     1      18.026  53.505  35.715  1.00  0.00     0.053 C 
ATOM      4  C   UNL     1      17.349  52.288  35.074  1.00  0.00     0.016 C 
BRANCH   3   5
ATOM      5  C   UNL     1      19.504  53.622  35.272  1.00  0.00     0.015 C 
BRANCH   5   6
ATOM      6  C   UNL     1      19.739  53.082  33.847  1.00  0.00     0.028 C 
BRANCH   6   7
ATOM      7  C   UNL     1      20.978  53.630  33.191  1.00  0.00    -0.028 C 
ATOM      8  C   UNL     1      21.119  54.858  32.627  1.00  0.00    -0.070 CG0
ATOM      9  C   UNL     1      22.510  55.244  32.183  1.00  0.00     0.039 C 
ATOM     10  G   UNL     1      19.976  55.798  32.249  1.00  0.00     0.000 G0
ENDBRANCH   6   7
ENDBRANCH   5   6
ENDBRANCH   3   5
ENDBRANCH   1   3
BRANCH   1  11
ATOM     11  C   UNL     1      17.840  56.146  35.250  1.00  0.00     0.087 C 
BRANCH  11  12
ATOM     12  C   UNL     1      17.978  56.573  33.765  1.00  0.00     0.066 C 
BRANCH  12  13
ATOM     13  C   UNL     1      19.427  56.728  33.307  1.00  0.00     0.140 C 
ATOM     14  O   UNL     1      20.106  57.655  33.720  1.00  0.00    -0.299 OA
BRANCH  13  15
ATOM     15  C   UNL     1      19.982  55.818  32.233  1.00  0.00     0.106 CG0
ATOM     16  G   UNL     1      21.105  54.865  32.641  1.00  0.00     0.000 G0
ENDBRANCH  13  15
ENDBRANCH  12  13
BRANCH  12  17
ATOM     17  C   UNL     1      17.123  57.846  33.469  1.00  0.00    -0.006 C 
ATOM     18  C   UNL     1      16.642  58.523  34.763  1.00  0.00     0.008 C 
ATOM     19  C   UNL     1      15.922  57.591  32.539  1.00  0.00     0.008 C 
ENDBRANCH  12  17
ENDBRANCH  11  12
ENDBRANCH   1  11
TORSDOF 1
ENDMDL
MODEL 7
REMARK VINA RESULT:    -2.957      1.775      4.305
REMARK INTER + INTRA:          -4.941
REMARK INTER:                  -4.533
REMARK INTRA:                  -0.407
REMARK UNBOUND:                -0.427
REMARK SMILES CC1=CCC[C@H](C)C(=O)C[C@@H](C(C)C)C(=O)C1
REMARK SMILES IDX 8 1 9 2 6 3 7 4 5 5 4 6 3 7 2 8 1 9 10 11 11 12 15 13 16 14
REMARK SMILES IDX 17 15 12 17 13 18 14 19
REMARK H PARENT
REMARK Flexibility Score: 70.00
ROOT
ATOM      1  C   UNL     1      14.118  51.795  33.954  1.00  0.00     0.136 C 
ATOM      2  O   UNL     1      13.221  52.624  34.026  1.00  0.00    -0.299 OA
ENDROOT
BRANCH   1   3
ATOM      3  C   UNL     1      14.217  50.959  32.683  1.00  0.00     0.053 C 
ATOM      4  C   UNL     1      12.832  50.573  32.153  1.00  0.00     0.016 C 
BRANCH   3   5
ATOM      5  C   UNL     1      15.074  51.623  31.580  1.00  0.00     0.015 C 
BRANCH   5   6
ATOM      6  C   UNL     1      16.566  51.251  31.684  1.00  0.00     0.028 C 
BRANCH   6   7
ATOM      7  C   UNL     1      17.472  52.436  31.886  1.00  0.00    -0.028 C 
ATOM      8  C   UNL     1      18.177  52.731  33.009  1.00  0.00    -0.070 CG0
ATOM      9  C   UNL     1      19.150  53.883  32.914  1.00  0.00     0.039 C 
ATOM     10  G   UNL     1      17.946  52.121  34.390  1.00  0.00     0.000 G0
ENDBRANCH   6   7
ENDBRANCH   5   6
ENDBRANCH   3   5
ENDBRANCH   1   3
BRANCH   1  11
ATOM     11  C   UNL     1      15.077  51.689  35.124  1.00  0.00     0.087 C 
BRANCH  11  12
ATOM     12  C   UNL     1      15.750  53.016  35.561  1.00  0.00     0.066 C 
BRANCH  12  13
ATOM     13  C   UNL     1      17.274  52.993  35.451  1.00  0.00     0.140 C 
ATOM     14  O   UNL     1      17.950  53.754  36.127  1.00  0.00    -0.299 OA
BRANCH  13  15
ATOM     15  C   UNL     1      17.944  52.129  34.405  1.00  0.00     0.106 CG0
ATOM     16  G   UNL     1      18.163  52.749  33.026  1.00  0.00     0.000 G0
ENDBRANCH  13  15
ENDBRANCH  12  13
BRANCH  12  17
ATOM     17  C   UNL     1      15.265  53.447  36.982  1.00  0.00    -0.006 C 
ATOM     18  C   UNL     1      14.993  52.232  37.883  1.00  0.00     0.008 C 
ATOM     19  C   UNL     1      14.033  54.371  36.969  1.00  0.00     0.008 C 
ENDBRANCH  12  17
ENDBRANCH  11  12
ENDBRANCH   1  11
TORSDOF 1
ENDMDL
MODEL 8
REMARK VINA RESULT:    -2.914      3.035      4.525
REMARK INTER + INTRA:          -4.875
REMARK INTER:                  -4.666
REMARK INTRA:                  -0.210
REMARK UNBOUND:                -0.427
REMARK SMILES CC1=CCC[C@H](C)C(=O)C[C@@H](C(C)C)C(=O)C1
REMARK SMILES IDX 8 1 9 2 6 3 7 4 5 5 4 6 3 7 2 8 1 9 10 11 11 12 15 13 16 14
REMARK SMILES IDX 17 15 12 17 13 18 14 19
REMARK H PARENT
REMARK Flexibility Score: 70.00
ROOT
ATOM      1  C   UNL     1      15.330  54.124  35.729  1.00  0.00     0.136 C 
ATOM      2  O   UNL     1      14.135  53.939  35.541  1.00  0.00    -0.299 OA
ENDROOT
BRANCH   1   3
ATOM      3  C   UNL     1      16.140  52.991  36.347  1.00  0.00     0.053 C 
ATOM      4  C   UNL     1      15.250  51.801  36.724  1.00  0.00     0.016 C 
BRANCH   3   5
ATOM      5  C   UNL     1      17.332  52.541  35.470  1.00  0.00     0.015 C 
BRANCH   5   6
ATOM      6  C   UNL     1      18.659  53.205  35.888  1.00  0.00     0.028 C 
BRANCH   6   7
ATOM      7  C   UNL     1      19.562  53.534  34.729  1.00  0.00    -0.028 C 
ATOM      8  C   UNL     1      19.628  54.719  34.068  1.00  0.00    -0.070 CG0
ATOM      9  C   UNL     1      20.733  54.864  33.049  1.00  0.00     0.039 C 
ATOM     10  G   UNL     1      18.589  55.837  34.140  1.00  0.00     0.000 G0
ENDBRANCH   6   7
ENDBRANCH   5   6
ENDBRANCH   3   5
ENDBRANCH   1   3
BRANCH   1  11
ATOM     11  C   UNL     1      15.912  55.457  35.301  1.00  0.00     0.087 C 
BRANCH  11  12
ATOM     12  C   UNL     1      15.962  55.707  33.772  1.00  0.00     0.066 C 
BRANCH  12  13
ATOM     13  C   UNL     1      17.379  55.727  33.201  1.00  0.00     0.140 C 
ATOM     14  O   UNL     1      17.564  55.542  32.008  1.00  0.00    -0.299 OA
BRANCH  13  15
ATOM     15  C   UNL     1      18.568  55.835  34.132  1.00  0.00     0.106 CG0
ATOM     16  G   UNL     1      19.622  54.732  34.046  1.00  0.00     0.000 G0
ENDBRANCH  13  15
ENDBRANCH  12  13
BRANCH  12  17
ATOM     17  C   UNL     1      15.152  56.986  33.388  1.00  0.00    -0.006 C 
ATOM     18  C   UNL     1      14.671  57.750  34.633  1.00  0.00     0.008 C 
ATOM     19  C   UNL     1      13.959  56.714  32.453  1.00  0.00     0.008 C 
ENDBRANCH  12  17
ENDBRANCH  11  12
ENDBRANCH   1  11
TORSDOF 1
ENDMDL
MODEL 9
REMARK VINA RESULT:    -2.758      1.800      3.332
REMARK INTER + INTRA:          -4.636
REMARK INTER:                  -4.228
REMARK INTRA:                  -0.408
REMARK UNBOUND:                -0.427
REMARK SMILES CC1=CCC[C@H](C)C(=O)C[C@@H](C(C)C)C(=O)C1
REMARK SMILES IDX 8 1 9 2 6 3 7 4 5 5 4 6 3 7 2 8 1 9 10 11 11 12 15 13 16 14
REMARK SMILES IDX 17 15 12 17 13 18 14 19
REMARK H PARENT
REMARK Flexibility Score: 70.00
ROOT
ATOM      1  C   UNL     1      19.370  52.642  33.661  1.00  0.00     0.136 C 
ATOM      2  O   UNL     1      20.448  53.077  33.280  1.00  0.00    -0.299 OA
ENDROOT
BRANCH   1   3
ATOM      3  C   UNL     1      18.851  53.107  35.017  1.00  0.00     0.053 C 
ATOM      4  C   UNL     1      18.512  54.602  35.009  1.00  0.00     0.016 C 
BRANCH   3   5
ATOM      5  C   UNL     1      17.662  52.267  35.539  1.00  0.00     0.015 C 
BRANCH   5   6
ATOM      6  C   UNL     1      16.326  53.033  35.486  1.00  0.00     0.028 C 
BRANCH   6   7
ATOM      7  C   UNL     1      15.240  52.304  34.741  1.00  0.00    -0.028 C 
ATOM      8  C   UNL     1      15.102  52.220  33.392  1.00  0.00    -0.070 CG0
ATOM      9  C   UNL     1      14.029  51.290  32.878  1.00  0.00     0.039 C 
ATOM     10  G   UNL     1      15.811  53.106  32.369  1.00  0.00     0.000 G0
ENDBRANCH   6   7
ENDBRANCH   5   6
ENDBRANCH   3   5
ENDBRANCH   1   3
BRANCH   1  11
ATOM     11  C   UNL     1      18.624  51.697  32.739  1.00  0.00     0.087 C 
BRANCH  11  12
ATOM     12  C   UNL     1      18.141  52.312  31.399  1.00  0.00     0.066 C 
BRANCH  12  13
ATOM     13  C   UNL     1      16.621  52.416  31.288  1.00  0.00     0.140 C 
ATOM     14  O   UNL     1      16.053  52.045  30.272  1.00  0.00    -0.299 OA
BRANCH  13  15
ATOM     15  C   UNL     1      15.828  53.107  32.376  1.00  0.00     0.106 CG0
ATOM     16  G   UNL     1      15.108  52.215  33.386  1.00  0.00     0.000 G0
ENDBRANCH  13  15
ENDBRANCH  12  13
BRANCH  12  17
ATOM     17  C   UNL     1      18.774  51.564  30.183  1.00  0.00    -0.006 C 
ATOM     18  C   UNL     1      18.839  50.047  30.417  1.00  0.00     0.008 C 
ATOM     19  C   UNL     1      20.166  52.089  29.782  1.00  0.00     0.008 C 
ENDBRANCH  12  17
ENDBRANCH  11  12
ENDBRANCH   1  11
TORSDOF 1
ENDMDL
