MODEL 1
REMARK VINA RESULT:    -7.981      0.000      0.000
REMARK INTER + INTRA:         -12.320
REMARK INTER:                 -10.781
REMARK INTRA:                  -1.540
REMARK UNBOUND:                -1.540
REMARK SMILES CC[C@@H](CC[C@@H](C)[C@H]1CC[C@H]2[C@H]3CC(=O)C4=CC(=O)CC[C@@]4(C)[C@@H]3CC[C@]12C)C(C)C
REMARK SMILES IDX 4 1 3 2 2 3 1 4 29 5 30 6 31 7 5 8 6 9 7 10 8 11 9 12 27 13
REMARK SMILES IDX 10 14 11 15 26 16 28 17 12 18 25 19 24 20 13 21 22 22 14 23
REMARK SMILES IDX 16 24 21 25 23 26 15 27 17 28 20 29 18 30 19 31
REMARK H PARENT
REMARK Flexibility Score: inf
ROOT
ATOM      1  C   UNL     1      12.008 -11.381  61.002  1.00  0.00     0.004 C 
ENDROOT
BRANCH   1   2
ATOM      2  C   UNL     1      12.019 -10.185  60.008  1.00  0.00    -0.009 C 
BRANCH   2   3
ATOM      3  C   UNL     1      13.136 -10.375  58.943  1.00  0.00     0.000 C 
ATOM      4  C   UNL     1      13.484 -11.843  58.680  1.00  0.00     0.004 C 
ENDBRANCH   2   3
BRANCH   2   5
ATOM      5  C   UNL     1      12.119  -8.805  60.744  1.00  0.00    -0.014 C 
ATOM      6  C   UNL     1      10.899  -7.894  60.526  1.00  0.00     0.007 C 
ATOM      7  C   UNL     1      13.410  -8.053  60.382  1.00  0.00     0.007 C 
ENDBRANCH   2   5
ENDBRANCH   1   2
BRANCH   1   8
ATOM      8  C   UNL     1      12.571 -11.088  62.413  1.00  0.00     0.004 C 
BRANCH   8   9
ATOM      9  C   UNL     1      13.598 -12.142  62.921  1.00  0.00    -0.011 C 
ATOM     10  C   UNL     1      13.576 -13.421  62.046  1.00  0.00     0.008 C 
BRANCH   9  11
ATOM     11  C   UNL     1      15.029 -11.548  63.231  1.00  0.00    -0.002 C 
ATOM     12  C   UNL     1      15.069  -9.993  63.207  1.00  0.00     0.005 C 
ATOM     13  C   UNL     1      15.849 -11.958  64.510  1.00  0.00    -0.026 C 
ATOM     14  C   UNL     1      16.162  -9.550  64.188  1.00  0.00     0.005 C 
ATOM     15  C   UNL     1      16.901 -10.835  64.519  1.00  0.00    -0.001 C 
ATOM     16  C   UNL     1      16.618 -13.325  64.409  1.00  0.00     0.007 C 
ATOM     17  C   UNL     1      14.933 -11.937  65.765  1.00  0.00     0.012 C 
ATOM     18  C   UNL     1      17.936 -10.858  65.679  1.00  0.00     0.004 C 
ATOM     19  C   UNL     1      18.066 -13.316  64.992  1.00  0.00     0.005 C 
ATOM     20  C   UNL     1      18.231 -12.312  66.163  1.00  0.00     0.003 C 
ATOM     21  C   UNL     1      17.629  -9.969  66.887  1.00  0.00     0.085 C 
ATOM     22  C   UNL     1      19.575 -12.388  66.976  1.00  0.00    -0.000 C 
ATOM     23  C   UNL     1      18.749 -10.052  67.891  1.00  0.00     0.159 C 
ATOM     24  C   UNL     1      19.546 -11.307  68.076  1.00  0.00     0.005 C 
ATOM     25  C   UNL     1      19.696 -13.794  67.650  1.00  0.00     0.020 C 
ATOM     26  C   UNL     1      20.813 -12.155  66.068  1.00  0.00     0.017 C 
ATOM     27  O   UNL     1      18.962  -9.053  68.631  1.00  0.00    -0.295 OA
ATOM     28  C   UNL     1      20.258 -11.463  69.208  1.00  0.00     0.055 C 
ATOM     29  C   UNL     1      20.882 -13.904  68.621  1.00  0.00     0.081 C 
ATOM     30  C   UNL     1      20.972 -12.711  69.520  1.00  0.00     0.156 C 
ATOM     31  O   UNL     1      21.682 -12.772  70.559  1.00  0.00    -0.295 OA
ENDBRANCH   9  11
ENDBRANCH   8   9
ENDBRANCH   1   8
TORSDOF 6
ENDMDL
MODEL 2
REMARK VINA RESULT:    -7.839      3.605      8.896
REMARK INTER + INTRA:         -12.128
REMARK INTER:                 -10.471
REMARK INTRA:                  -1.658
REMARK UNBOUND:                -1.540
REMARK SMILES CC[C@@H](CC[C@@H](C)[C@H]1CC[C@H]2[C@H]3CC(=O)C4=CC(=O)CC[C@@]4(C)[C@@H]3CC[C@]12C)C(C)C
REMARK SMILES IDX 4 1 3 2 2 3 1 4 29 5 30 6 31 7 5 8 6 9 7 10 8 11 9 12 27 13
REMARK SMILES IDX 10 14 11 15 26 16 28 17 12 18 25 19 24 20 13 21 22 22 14 23
REMARK SMILES IDX 16 24 21 25 23 26 15 27 17 28 20 29 18 30 19 31
REMARK H PARENT
REMARK Flexibility Score: inf
ROOT
ATOM      1  C   UNL     1      20.361 -12.207  66.684  1.00  0.00     0.004 C 
ENDROOT
BRANCH   1   2
ATOM      2  C   UNL     1      21.167 -11.598  65.501  1.00  0.00    -0.009 C 
BRANCH   2   3
ATOM      3  C   UNL     1      22.670 -11.977  65.619  1.00  0.00     0.000 C 
ATOM      4  C   UNL     1      23.581 -10.780  65.906  1.00  0.00     0.004 C 
ENDBRANCH   2   3
BRANCH   2   5
ATOM      5  C   UNL     1      20.947 -10.052  65.370  1.00  0.00    -0.014 C 
ATOM      6  C   UNL     1      20.100  -9.447  66.503  1.00  0.00     0.007 C 
ATOM      7  C   UNL     1      20.352  -9.670  64.005  1.00  0.00     0.007 C 
ENDBRANCH   2   5
ENDBRANCH   1   2
BRANCH   1   8
ATOM      8  C   UNL     1      19.294 -13.259  66.300  1.00  0.00     0.004 C 
BRANCH   8   9
ATOM      9  C   UNL     1      17.869 -12.670  66.078  1.00  0.00    -0.011 C 
ATOM     10  C   UNL     1      17.451 -11.745  67.249  1.00  0.00     0.008 C 
BRANCH   9  11
ATOM     11  C   UNL     1      17.631 -12.091  64.627  1.00  0.00    -0.002 C 
ATOM     12  C   UNL     1      17.546 -13.192  63.530  1.00  0.00     0.005 C 
ATOM     13  C   UNL     1      16.455 -11.098  64.302  1.00  0.00    -0.026 C 
ATOM     14  C   UNL     1      16.625 -12.662  62.424  1.00  0.00     0.005 C 
ATOM     15  C   UNL     1      16.448 -11.193  62.766  1.00  0.00    -0.001 C 
ATOM     16  C   UNL     1      16.716  -9.596  64.682  1.00  0.00     0.007 C 
ATOM     17  C   UNL     1      15.133 -11.603  64.943  1.00  0.00     0.012 C 
ATOM     18  C   UNL     1      15.378 -10.346  62.020  1.00  0.00     0.004 C 
ATOM     19  C   UNL     1      16.250  -8.552  63.619  1.00  0.00     0.005 C 
ATOM     20  C   UNL     1      15.026  -9.041  62.800  1.00  0.00     0.003 C 
ATOM     21  C   UNL     1      14.089 -11.069  61.623  1.00  0.00     0.085 C 
ATOM     22  C   UNL     1      14.331  -7.981  61.868  1.00  0.00    -0.000 C 
ATOM     23  C   UNL     1      13.186 -10.137  60.858  1.00  0.00     0.159 C 
ATOM     24  C   UNL     1      13.157  -8.666  61.138  1.00  0.00     0.005 C 
ATOM     25  C   UNL     1      13.772  -6.810  62.739  1.00  0.00     0.020 C 
ATOM     26  C   UNL     1      15.315  -7.404  60.815  1.00  0.00     0.017 C 
ATOM     27  O   UNL     1      12.395 -10.635  60.011  1.00  0.00    -0.295 OA
ATOM     28  C   UNL     1      12.099  -7.946  60.719  1.00  0.00     0.055 C 
ATOM     29  C   UNL     1      12.909  -5.818  61.946  1.00  0.00     0.081 C 
ATOM     30  C   UNL     1      11.936  -6.522  61.053  1.00  0.00     0.156 C 
ATOM     31  O   UNL     1      10.964  -5.882  60.571  1.00  0.00    -0.295 OA
ENDBRANCH   9  11
ENDBRANCH   8   9
ENDBRANCH   1   8
TORSDOF 6
ENDMDL
MODEL 3
REMARK VINA RESULT:    -7.701      3.543      9.075
REMARK INTER + INTRA:         -11.942
REMARK INTER:                 -10.880
REMARK INTRA:                  -1.062
REMARK UNBOUND:                -1.540
REMARK SMILES CC[C@@H](CC[C@@H](C)[C@H]1CC[C@H]2[C@H]3CC(=O)C4=CC(=O)CC[C@@]4(C)[C@@H]3CC[C@]12C)C(C)C
REMARK SMILES IDX 4 1 3 2 2 3 1 4 29 5 30 6 31 7 5 8 6 9 7 10 8 11 9 12 27 13
REMARK SMILES IDX 10 14 11 15 26 16 28 17 12 18 25 19 24 20 13 21 22 22 14 23
REMARK SMILES IDX 16 24 21 25 23 26 15 27 17 28 20 29 18 30 19 31
REMARK H PARENT
REMARK Flexibility Score: inf
ROOT
ATOM      1  C   UNL     1      18.602 -10.781  67.237  1.00  0.00     0.004 C 
ENDROOT
BRANCH   1   2
ATOM      2  C   UNL     1      20.087 -11.246  67.230  1.00  0.00    -0.009 C 
BRANCH   2   3
ATOM      3  C   UNL     1      20.561 -11.567  68.675  1.00  0.00     0.000 C 
ATOM      4  C   UNL     1      20.741 -13.065  68.940  1.00  0.00     0.004 C 
ENDBRANCH   2   3
BRANCH   2   5
ATOM      5  C   UNL     1      21.024 -10.221  66.504  1.00  0.00    -0.014 C 
ATOM      6  C   UNL     1      20.454  -9.690  65.178  1.00  0.00     0.007 C 
ATOM      7  C   UNL     1      22.435 -10.788  66.282  1.00  0.00     0.007 C 
ENDBRANCH   2   5
ENDBRANCH   1   2
BRANCH   1   8
ATOM      8  C   UNL     1      17.588 -11.759  66.600  1.00  0.00     0.004 C 
BRANCH   8   9
ATOM      9  C   UNL     1      18.130 -12.519  65.354  1.00  0.00    -0.011 C 
ATOM     10  C   UNL     1      18.073 -14.054  65.558  1.00  0.00     0.008 C 
BRANCH   9  11
ATOM     11  C   UNL     1      17.561 -11.988  63.979  1.00  0.00    -0.002 C 
ATOM     12  C   UNL     1      17.210 -13.126  62.977  1.00  0.00     0.005 C 
ATOM     13  C   UNL     1      16.349 -10.988  63.902  1.00  0.00    -0.026 C 
ATOM     14  C   UNL     1      16.058 -12.621  62.099  1.00  0.00     0.005 C 
ATOM     15  C   UNL     1      15.978 -11.138  62.416  1.00  0.00    -0.001 C 
ATOM     16  C   UNL     1      16.703  -9.477  64.151  1.00  0.00     0.007 C 
ATOM     17  C   UNL     1      15.212 -11.447  64.857  1.00  0.00     0.012 C 
ATOM     18  C   UNL     1      14.768 -10.300  61.911  1.00  0.00     0.004 C 
ATOM     19  C   UNL     1      16.007  -8.465  63.188  1.00  0.00     0.005 C 
ATOM     20  C   UNL     1      14.621  -8.962  62.701  1.00  0.00     0.003 C 
ATOM     21  C   UNL     1      13.416 -11.015  61.858  1.00  0.00     0.085 C 
ATOM     22  C   UNL     1      13.733  -7.925  61.919  1.00  0.00    -0.000 C 
ATOM     23  C   UNL     1      12.365 -10.097  61.292  1.00  0.00     0.159 C 
ATOM     24  C   UNL     1      12.414  -8.616  61.514  1.00  0.00     0.005 C 
ATOM     25  C   UNL     1      13.405  -6.714  62.851  1.00  0.00     0.020 C 
ATOM     26  C   UNL     1      14.444  -7.402  60.642  1.00  0.00     0.017 C 
ATOM     27  O   UNL     1      11.392 -10.611  60.676  1.00  0.00    -0.295 OA
ATOM     28  C   UNL     1      11.293  -7.894  61.328  1.00  0.00     0.055 C 
ATOM     29  C   UNL     1      12.387  -5.737  62.246  1.00  0.00     0.081 C 
ATOM     30  C   UNL     1      11.224  -6.457  61.637  1.00  0.00     0.156 C 
ATOM     31  O   UNL     1      10.171  -5.818  61.373  1.00  0.00    -0.295 OA
ENDBRANCH   9  11
ENDBRANCH   8   9
ENDBRANCH   1   8
TORSDOF 6
ENDMDL
MODEL 4
REMARK VINA RESULT:    -7.567      2.890      5.632
REMARK INTER + INTRA:         -11.761
REMARK INTER:                 -10.251
REMARK INTRA:                  -1.509
REMARK UNBOUND:                -1.540
REMARK SMILES CC[C@@H](CC[C@@H](C)[C@H]1CC[C@H]2[C@H]3CC(=O)C4=CC(=O)CC[C@@]4(C)[C@@H]3CC[C@]12C)C(C)C
REMARK SMILES IDX 4 1 3 2 2 3 1 4 29 5 30 6 31 7 5 8 6 9 7 10 8 11 9 12 27 13
REMARK SMILES IDX 10 14 11 15 26 16 28 17 12 18 25 19 24 20 13 21 22 22 14 23
REMARK SMILES IDX 16 24 21 25 23 26 15 27 17 28 20 29 18 30 19 31
REMARK H PARENT
REMARK Flexibility Score: inf
ROOT
ATOM      1  C   UNL     1      12.454  -6.786  56.705  1.00  0.00     0.004 C 
ENDROOT
BRANCH   1   2
ATOM      2  C   UNL     1      13.171  -7.649  55.628  1.00  0.00    -0.009 C 
BRANCH   2   3
ATOM      3  C   UNL     1      12.662  -9.117  55.684  1.00  0.00     0.000 C 
ATOM      4  C   UNL     1      11.657  -9.457  54.579  1.00  0.00     0.004 C 
ENDBRANCH   2   3
BRANCH   2   5
ATOM      5  C   UNL     1      14.732  -7.551  55.733  1.00  0.00    -0.014 C 
ATOM      6  C   UNL     1      15.471  -8.030  54.472  1.00  0.00     0.007 C 
ATOM      7  C   UNL     1      15.272  -8.284  56.972  1.00  0.00     0.007 C 
ENDBRANCH   2   5
ENDBRANCH   1   2
BRANCH   1   8
ATOM      8  C   UNL     1      11.730  -7.570  57.823  1.00  0.00     0.004 C 
BRANCH   8   9
ATOM      9  C   UNL     1      12.342  -7.372  59.241  1.00  0.00    -0.011 C 
ATOM     10  C   UNL     1      11.682  -6.181  59.981  1.00  0.00     0.008 C 
BRANCH   9  11
ATOM     11  C   UNL     1      12.478  -8.707  60.075  1.00  0.00    -0.002 C 
ATOM     12  C   UNL     1      12.386  -9.992  59.201  1.00  0.00     0.005 C 
ATOM     13  C   UNL     1      13.680  -8.966  61.057  1.00  0.00    -0.026 C 
ATOM     14  C   UNL     1      13.230 -11.072  59.889  1.00  0.00     0.005 C 
ATOM     15  C   UNL     1      13.534 -10.485  61.256  1.00  0.00    -0.001 C 
ATOM     16  C   UNL     1      13.555  -8.289  62.470  1.00  0.00     0.007 C 
ATOM     17  C   UNL     1      15.022  -8.573  60.378  1.00  0.00     0.012 C 
ATOM     18  C   UNL     1      14.581 -11.171  62.180  1.00  0.00     0.004 C 
ATOM     19  C   UNL     1      13.985  -9.184  63.674  1.00  0.00     0.005 C 
ATOM     20  C   UNL     1      15.090 -10.204  63.295  1.00  0.00     0.003 C 
ATOM     21  C   UNL     1      15.776 -11.829  61.488  1.00  0.00     0.085 C 
ATOM     22  C   UNL     1      15.761 -10.992  64.479  1.00  0.00    -0.000 C 
ATOM     23  C   UNL     1      16.662 -12.500  62.506  1.00  0.00     0.159 C 
ATOM     24  C   UNL     1      16.813 -11.956  63.893  1.00  0.00     0.005 C 
ATOM     25  C   UNL     1      16.476  -9.983  65.436  1.00  0.00     0.020 C 
ATOM     26  C   UNL     1      14.721 -11.810  65.292  1.00  0.00     0.017 C 
ATOM     27  O   UNL     1      17.334 -13.503  62.143  1.00  0.00    -0.295 OA
ATOM     28  C   UNL     1      17.871 -12.345  64.631  1.00  0.00     0.055 C 
ATOM     29  C   UNL     1      17.322 -10.667  66.521  1.00  0.00     0.081 C 
ATOM     30  C   UNL     1      18.158 -11.772  65.955  1.00  0.00     0.156 C 
ATOM     31  O   UNL     1      19.118 -12.228  66.630  1.00  0.00    -0.295 OA
ENDBRANCH   9  11
ENDBRANCH   8   9
ENDBRANCH   1   8
TORSDOF 6
ENDMDL
MODEL 5
REMARK VINA RESULT:    -7.535      3.769      6.734
REMARK INTER + INTRA:         -11.718
REMARK INTER:                  -9.505
REMARK INTRA:                  -2.213
REMARK UNBOUND:                -1.540
REMARK SMILES CC[C@@H](CC[C@@H](C)[C@H]1CC[C@H]2[C@H]3CC(=O)C4=CC(=O)CC[C@@]4(C)[C@@H]3CC[C@]12C)C(C)C
REMARK SMILES IDX 4 1 3 2 2 3 1 4 29 5 30 6 31 7 5 8 6 9 7 10 8 11 9 12 27 13
REMARK SMILES IDX 10 14 11 15 26 16 28 17 12 18 25 19 24 20 13 21 22 22 14 23
REMARK SMILES IDX 16 24 21 25 23 26 15 27 17 28 20 29 18 30 19 31
REMARK H PARENT
REMARK Flexibility Score: inf
ROOT
ATOM      1  C   UNL     1       9.672  -8.112  55.454  1.00  0.00     0.004 C 
ENDROOT
BRANCH   1   2
ATOM      2  C   UNL     1       9.636  -7.619  56.929  1.00  0.00    -0.009 C 
BRANCH   2   3
ATOM      3  C   UNL     1       8.167  -7.495  57.423  1.00  0.00     0.000 C 
ATOM      4  C   UNL     1       7.636  -8.770  58.084  1.00  0.00     0.004 C 
ENDBRANCH   2   3
BRANCH   2   5
ATOM      5  C   UNL     1      10.450  -6.295  57.130  1.00  0.00    -0.014 C 
ATOM      6  C   UNL     1      11.600  -6.115  56.124  1.00  0.00     0.007 C 
ATOM      7  C   UNL     1      10.979  -6.156  58.567  1.00  0.00     0.007 C 
ENDBRANCH   2   5
ENDBRANCH   1   2
BRANCH   1   8
ATOM      8  C   UNL     1      10.424  -9.441  55.208  1.00  0.00     0.004 C 
BRANCH   8   9
ATOM      9  C   UNL     1      10.521 -10.361  56.461  1.00  0.00    -0.011 C 
ATOM     10  C   UNL     1       9.807 -11.716  56.224  1.00  0.00     0.008 C 
BRANCH   9  11
ATOM     11  C   UNL     1      11.971 -10.449  57.083  1.00  0.00    -0.002 C 
ATOM     12  C   UNL     1      12.897  -9.272  56.658  1.00  0.00     0.005 C 
ATOM     13  C   UNL     1      12.213 -10.623  58.627  1.00  0.00    -0.026 C 
ATOM     14  C   UNL     1      13.889  -9.038  57.804  1.00  0.00     0.005 C 
ATOM     15  C   UNL     1      13.703 -10.246  58.704  1.00  0.00    -0.001 C 
ATOM     16  C   UNL     1      12.067 -12.090  59.173  1.00  0.00     0.007 C 
ATOM     17  C   UNL     1      11.303  -9.649  59.427  1.00  0.00     0.012 C 
ATOM     18  C   UNL     1      14.357 -10.271  60.115  1.00  0.00     0.004 C 
ATOM     19  C   UNL     1      13.156 -12.526  60.202  1.00  0.00     0.005 C 
ATOM     20  C   UNL     1      13.693 -11.337  61.042  1.00  0.00     0.003 C 
ATOM     21  C   UNL     1      14.442  -8.933  60.853  1.00  0.00     0.085 C 
ATOM     22  C   UNL     1      14.617 -11.695  62.264  1.00  0.00    -0.000 C 
ATOM     23  C   UNL     1      15.153  -9.110  62.170  1.00  0.00     0.159 C 
ATOM     24  C   UNL     1      15.052 -10.384  62.951  1.00  0.00     0.005 C 
ATOM     25  C   UNL     1      13.813 -12.562  63.287  1.00  0.00     0.020 C 
ATOM     26  C   UNL     1      15.882 -12.480  61.821  1.00  0.00     0.017 C 
ATOM     27  O   UNL     1      15.788  -8.128  62.641  1.00  0.00    -0.295 OA
ATOM     28  C   UNL     1      15.373 -10.371  64.259  1.00  0.00     0.055 C 
ATOM     29  C   UNL     1      14.566 -12.805  64.603  1.00  0.00     0.081 C 
ATOM     30  C   UNL     1      15.191 -11.547  65.123  1.00  0.00     0.156 C 
ATOM     31  O   UNL     1      15.578 -11.499  66.321  1.00  0.00    -0.295 OA
ENDBRANCH   9  11
ENDBRANCH   8   9
ENDBRANCH   1   8
TORSDOF 6
ENDMDL
MODEL 6
REMARK VINA RESULT:    -7.478      4.342      8.041
REMARK INTER + INTRA:         -11.641
REMARK INTER:                  -9.794
REMARK INTRA:                  -1.847
REMARK UNBOUND:                -1.540
REMARK SMILES CC[C@@H](CC[C@@H](C)[C@H]1CC[C@H]2[C@H]3CC(=O)C4=CC(=O)CC[C@@]4(C)[C@@H]3CC[C@]12C)C(C)C
REMARK SMILES IDX 4 1 3 2 2 3 1 4 29 5 30 6 31 7 5 8 6 9 7 10 8 11 9 12 27 13
REMARK SMILES IDX 10 14 11 15 26 16 28 17 12 18 25 19 24 20 13 21 22 22 14 23
REMARK SMILES IDX 16 24 21 25 23 26 15 27 17 28 20 29 18 30 19 31
REMARK H PARENT
REMARK Flexibility Score: inf
ROOT
ATOM      1  C   UNL     1       7.917  -9.169  56.243  1.00  0.00     0.004 C 
ENDROOT
BRANCH   1   2
ATOM      2  C   UNL     1       6.785  -8.570  57.126  1.00  0.00    -0.009 C 
BRANCH   2   3
ATOM      3  C   UNL     1       6.441  -7.127  56.660  1.00  0.00     0.000 C 
ATOM      4  C   UNL     1       4.938  -6.835  56.636  1.00  0.00     0.004 C 
ENDBRANCH   2   3
BRANCH   2   5
ATOM      5  C   UNL     1       7.126  -8.643  58.654  1.00  0.00    -0.014 C 
ATOM      6  C   UNL     1       5.988  -9.214  59.517  1.00  0.00     0.007 C 
ATOM      7  C   UNL     1       7.576  -7.281  59.208  1.00  0.00     0.007 C 
ENDBRANCH   2   5
ENDBRANCH   1   2
BRANCH   1   8
ATOM      8  C   UNL     1       8.876  -8.145  55.593  1.00  0.00     0.004 C 
BRANCH   8   9
ATOM      9  C   UNL     1      10.364  -8.602  55.552  1.00  0.00    -0.011 C 
ATOM     10  C   UNL     1      10.936  -8.537  54.113  1.00  0.00     0.008 C 
BRANCH   9  11
ATOM     11  C   UNL     1      11.266  -7.958  56.678  1.00  0.00    -0.002 C 
ATOM     12  C   UNL     1      10.664  -6.656  57.281  1.00  0.00     0.005 C 
ATOM     13  C   UNL     1      11.779  -8.782  57.916  1.00  0.00    -0.026 C 
ATOM     14  C   UNL     1      11.144  -6.561  58.734  1.00  0.00     0.005 C 
ATOM     15  C   UNL     1      12.220  -7.628  58.835  1.00  0.00    -0.001 C 
ATOM     16  C   UNL     1      13.039  -9.683  57.652  1.00  0.00     0.007 C 
ATOM     17  C   UNL     1      10.621  -9.624  58.520  1.00  0.00     0.012 C 
ATOM     18  C   UNL     1      12.792  -8.024  60.226  1.00  0.00     0.004 C 
ATOM     19  C   UNL     1      14.119  -9.660  58.779  1.00  0.00     0.005 C 
ATOM     20  C   UNL     1      13.511  -9.408  60.183  1.00  0.00     0.003 C 
ATOM     21  C   UNL     1      11.814  -7.991  61.402  1.00  0.00     0.085 C 
ATOM     22  C   UNL     1      14.473  -9.597  61.414  1.00  0.00    -0.000 C 
ATOM     23  C   UNL     1      12.529  -8.336  62.683  1.00  0.00     0.159 C 
ATOM     24  C   UNL     1      13.685  -9.288  62.704  1.00  0.00     0.005 C 
ATOM     25  C   UNL     1      14.967 -11.080  61.465  1.00  0.00     0.020 C 
ATOM     26  C   UNL     1      15.705  -8.656  61.335  1.00  0.00     0.017 C 
ATOM     27  O   UNL     1      12.089  -7.853  63.761  1.00  0.00    -0.295 OA
ATOM     28  C   UNL     1      14.042  -9.851  63.874  1.00  0.00     0.055 C 
ATOM     29  C   UNL     1      15.760 -11.415  62.737  1.00  0.00     0.081 C 
ATOM     30  C   UNL     1      15.087 -10.882  63.964  1.00  0.00     0.156 C 
ATOM     31  O   UNL     1      15.429 -11.318  65.095  1.00  0.00    -0.295 OA
ENDBRANCH   9  11
ENDBRANCH   8   9
ENDBRANCH   1   8
TORSDOF 6
ENDMDL
MODEL 7
REMARK VINA RESULT:    -7.454      1.952      3.357
REMARK INTER + INTRA:         -11.609
REMARK INTER:                 -10.218
REMARK INTRA:                  -1.390
REMARK UNBOUND:                -1.540
REMARK SMILES CC[C@@H](CC[C@@H](C)[C@H]1CC[C@H]2[C@H]3CC(=O)C4=CC(=O)CC[C@@]4(C)[C@@H]3CC[C@]12C)C(C)C
REMARK SMILES IDX 4 1 3 2 2 3 1 4 29 5 30 6 31 7 5 8 6 9 7 10 8 11 9 12 27 13
REMARK SMILES IDX 10 14 11 15 26 16 28 17 12 18 25 19 24 20 13 21 22 22 14 23
REMARK SMILES IDX 16 24 21 25 23 26 15 27 17 28 20 29 18 30 19 31
REMARK H PARENT
REMARK Flexibility Score: inf
ROOT
ATOM      1  C   UNL     1      12.212  -9.308  61.016  1.00  0.00     0.004 C 
ENDROOT
BRANCH   1   2
ATOM      2  C   UNL     1      12.691  -8.182  61.977  1.00  0.00    -0.009 C 
BRANCH   2   3
ATOM      3  C   UNL     1      11.636  -7.042  62.044  1.00  0.00     0.000 C 
ATOM      4  C   UNL     1      11.191  -6.706  63.471  1.00  0.00     0.004 C 
ENDBRANCH   2   3
BRANCH   2   5
ATOM      5  C   UNL     1      14.120  -7.656  61.606  1.00  0.00    -0.014 C 
ATOM      6  C   UNL     1      14.876  -7.027  62.788  1.00  0.00     0.007 C 
ATOM      7  C   UNL     1      14.083  -6.677  60.422  1.00  0.00     0.007 C 
ENDBRANCH   2   5
ENDBRANCH   1   2
BRANCH   1   8
ATOM      8  C   UNL     1      12.122 -10.724  61.631  1.00  0.00     0.004 C 
BRANCH   8   9
ATOM      9  C   UNL     1      13.499 -11.427  61.818  1.00  0.00    -0.011 C 
ATOM     10  C   UNL     1      14.339 -11.380  60.516  1.00  0.00     0.008 C 
BRANCH   9  11
ATOM     11  C   UNL     1      14.259 -11.011  63.139  1.00  0.00    -0.002 C 
ATOM     12  C   UNL     1      13.587 -11.556  64.433  1.00  0.00     0.005 C 
ATOM     13  C   UNL     1      15.798 -11.267  63.339  1.00  0.00    -0.026 C 
ATOM     14  C   UNL     1      14.698 -11.760  65.471  1.00  0.00     0.005 C 
ATOM     15  C   UNL     1      15.903 -11.066  64.861  1.00  0.00    -0.001 C 
ATOM     16  C   UNL     1      16.750 -10.219  62.657  1.00  0.00     0.007 C 
ATOM     17  C   UNL     1      16.165 -12.710  62.894  1.00  0.00     0.012 C 
ATOM     18  C   UNL     1      17.311 -11.255  65.494  1.00  0.00     0.004 C 
ATOM     19  C   UNL     1      17.967  -9.766  63.523  1.00  0.00     0.005 C 
ATOM     20  C   UNL     1      18.449 -10.872  64.498  1.00  0.00     0.003 C 
ATOM     21  C   UNL     1      17.606 -12.626  66.106  1.00  0.00     0.085 C 
ATOM     22  C   UNL     1      19.808 -10.609  65.248  1.00  0.00    -0.000 C 
ATOM     23  C   UNL     1      18.978 -12.632  66.731  1.00  0.00     0.159 C 
ATOM     24  C   UNL     1      20.098 -11.811  66.171  1.00  0.00     0.005 C 
ATOM     25  C   UNL     1      20.963 -10.483  64.202  1.00  0.00     0.020 C 
ATOM     26  C   UNL     1      19.755  -9.314  66.102  1.00  0.00     0.017 C 
ATOM     27  O   UNL     1      19.185 -13.402  67.707  1.00  0.00    -0.295 OA
ATOM     28  C   UNL     1      21.364 -12.124  66.508  1.00  0.00     0.055 C 
ATOM     29  C   UNL     1      22.358 -10.415  64.840  1.00  0.00     0.081 C 
ATOM     30  C   UNL     1      22.526 -11.445  65.913  1.00  0.00     0.156 C 
ATOM     31  O   UNL     1      23.683 -11.729  66.322  1.00  0.00    -0.295 OA
ENDBRANCH   9  11
ENDBRANCH   8   9
ENDBRANCH   1   8
TORSDOF 6
ENDMDL
MODEL 8
REMARK VINA RESULT:    -7.431     12.675     16.735
REMARK INTER + INTRA:         -11.577
REMARK INTER:                  -9.681
REMARK INTRA:                  -1.895
REMARK UNBOUND:                -1.540
REMARK SMILES CC[C@@H](CC[C@@H](C)[C@H]1CC[C@H]2[C@H]3CC(=O)C4=CC(=O)CC[C@@]4(C)[C@@H]3CC[C@]12C)C(C)C
REMARK SMILES IDX 4 1 3 2 2 3 1 4 29 5 30 6 31 7 5 8 6 9 7 10 8 11 9 12 27 13
REMARK SMILES IDX 10 14 11 15 26 16 28 17 12 18 25 19 24 20 13 21 22 22 14 23
REMARK SMILES IDX 16 24 21 25 23 26 15 27 17 28 20 29 18 30 19 31
REMARK H PARENT
REMARK Flexibility Score: inf
ROOT
ATOM      1  C   UNL     1      15.770   1.508  57.552  1.00  0.00     0.004 C 
ENDROOT
BRANCH   1   2
ATOM      2  C   UNL     1      15.981   0.044  58.036  1.00  0.00    -0.009 C 
BRANCH   2   3
ATOM      3  C   UNL     1      15.121  -0.935  57.188  1.00  0.00     0.000 C 
ATOM      4  C   UNL     1      15.914  -2.126  56.640  1.00  0.00     0.004 C 
ENDBRANCH   2   3
BRANCH   2   5
ATOM      5  C   UNL     1      15.728  -0.112  59.574  1.00  0.00    -0.014 C 
ATOM      6  C   UNL     1      14.496  -0.965  59.917  1.00  0.00     0.007 C 
ATOM      7  C   UNL     1      15.642   1.249  60.284  1.00  0.00     0.007 C 
ENDBRANCH   2   5
ENDBRANCH   1   2
BRANCH   1   8
ATOM      8  C   UNL     1      14.439   1.788  56.816  1.00  0.00     0.004 C 
BRANCH   8   9
ATOM      9  C   UNL     1      13.484   2.758  57.571  1.00  0.00    -0.011 C 
ATOM     10  C   UNL     1      13.531   4.184  56.964  1.00  0.00     0.008 C 
BRANCH   9  11
ATOM     11  C   UNL     1      12.041   2.169  57.828  1.00  0.00    -0.002 C 
ATOM     12  C   UNL     1      11.988   0.615  57.760  1.00  0.00     0.005 C 
ATOM     13  C   UNL     1      11.191   2.552  59.095  1.00  0.00    -0.026 C 
ATOM     14  C   UNL     1      10.866   0.156  58.700  1.00  0.00     0.005 C 
ATOM     15  C   UNL     1      10.130   1.438  59.047  1.00  0.00    -0.001 C 
ATOM     16  C   UNL     1      10.436   3.928  59.011  1.00  0.00     0.007 C 
ATOM     17  C   UNL     1      12.073   2.489  60.373  1.00  0.00     0.012 C 
ATOM     18  C   UNL     1       9.065   1.439  60.180  1.00  0.00     0.004 C 
ATOM     19  C   UNL     1       8.973   3.916  59.557  1.00  0.00     0.005 C 
ATOM     20  C   UNL     1       8.770   2.882  60.695  1.00  0.00     0.003 C 
ATOM     21  C   UNL     1       9.332   0.516  61.370  1.00  0.00     0.085 C 
ATOM     22  C   UNL     1       7.404   2.949  61.474  1.00  0.00    -0.000 C 
ATOM     23  C   UNL     1       8.187   0.582  62.347  1.00  0.00     0.159 C 
ATOM     24  C   UNL     1       7.396   1.838  62.545  1.00  0.00     0.005 C 
ATOM     25  C   UNL     1       7.278   4.337  62.183  1.00  0.00     0.020 C 
ATOM     26  C   UNL     1       6.189   2.751  60.528  1.00  0.00     0.017 C 
ATOM     27  O   UNL     1       7.946  -0.435  63.053  1.00  0.00    -0.295 OA
ATOM     28  C   UNL     1       6.656   1.970  63.662  1.00  0.00     0.055 C 
ATOM     29  C   UNL     1       6.068   4.432  63.125  1.00  0.00     0.081 C 
ATOM     30  C   UNL     1       5.944   3.216  63.989  1.00  0.00     0.156 C 
ATOM     31  O   UNL     1       5.207   3.256  65.010  1.00  0.00    -0.295 OA
ENDBRANCH   9  11
ENDBRANCH   8   9
ENDBRANCH   1   8
TORSDOF 6
ENDMDL
