MODEL 1
REMARK VINA RESULT:    -6.326      0.000      0.000
REMARK INTER + INTRA:          -7.562
REMARK INTER:                  -7.436
REMARK INTRA:                  -0.126
REMARK UNBOUND:                -0.126
REMARK SMILES O=C([O-])C=Cc1ccc(O)c(O)c1
REMARK SMILES IDX 6 1 13 2 7 3 11 4 8 5 9 6 5 7 4 8 2 9 1 10 3 11 12 12 10 14
REMARK H PARENT 12 13 10 15
REMARK Flexibility Score: inf
ROOT
ATOM      1  C   UNL     1     -24.779 -19.119 -13.191  1.00  0.00    -0.022 A 
ATOM      2  C   UNL     1     -24.444 -20.162 -14.071  1.00  0.00     0.058 A 
ATOM      3  C   UNL     1     -24.835 -19.388 -11.809  1.00  0.00     0.012 A 
ATOM      4  C   UNL     1     -24.145 -21.443 -13.584  1.00  0.00     0.157 A 
ATOM      5  C   UNL     1     -24.537 -20.664 -11.324  1.00  0.00     0.051 A 
ATOM      6  C   UNL     1     -24.189 -21.693 -12.204  1.00  0.00     0.157 A 
ENDROOT
BRANCH   1   7
ATOM      7  C   UNL     1     -25.097 -17.786 -13.759  1.00  0.00     0.010 C 
ATOM      8  C   UNL     1     -24.169 -16.898 -14.141  1.00  0.00     0.025 C 
BRANCH   8   9
ATOM      9  C   UNL     1     -24.529 -15.591 -14.711  1.00  0.00     0.064 C 
ATOM     10  O   UNL     1     -23.747 -14.615 -14.570  1.00  0.00    -0.545 OA
ATOM     11  O   UNL     1     -25.722 -15.414 -15.403  1.00  0.00    -0.545 OA
ENDBRANCH   8   9
ENDBRANCH   1   7
BRANCH   4  12
ATOM     12  O   UNL     1     -23.805 -22.466 -14.467  1.00  0.00    -0.504 OA
ATOM     13  H   UNL     1     -24.489 -22.877 -15.093  1.00  0.00     0.293 HD
ENDBRANCH   4  12
BRANCH   6  14
ATOM     14  O   UNL     1     -23.897 -22.955 -11.688  1.00  0.00    -0.504 OA
ATOM     15  H   UNL     1     -23.158 -23.101 -11.012  1.00  0.00     0.293 HD
ENDBRANCH   6  14
TORSDOF 4
ENDMDL
MODEL 2
REMARK VINA RESULT:    -6.006      1.609      2.384
REMARK INTER + INTRA:          -7.186
REMARK INTER:                  -7.047
REMARK INTRA:                  -0.139
REMARK UNBOUND:                -0.126
REMARK SMILES O=C([O-])C=Cc1ccc(O)c(O)c1
REMARK SMILES IDX 6 1 13 2 7 3 11 4 8 5 9 6 5 7 4 8 2 9 1 10 3 11 12 12 10 14
REMARK H PARENT 12 13 10 15
REMARK Flexibility Score: inf
ROOT
ATOM      1  C   UNL     1     -24.526 -21.039 -12.480  1.00  0.00    -0.022 A 
ATOM      2  C   UNL     1     -24.649 -22.323 -13.038  1.00  0.00     0.058 A 
ATOM      3  C   UNL     1     -24.448 -20.911 -11.079  1.00  0.00     0.012 A 
ATOM      4  C   UNL     1     -24.667 -23.461 -12.219  1.00  0.00     0.157 A 
ATOM      5  C   UNL     1     -24.467 -22.045 -10.264  1.00  0.00     0.051 A 
ATOM      6  C   UNL     1     -24.573 -23.321 -10.826  1.00  0.00     0.157 A 
ENDROOT
BRANCH   1   7
ATOM      7  C   UNL     1     -24.522 -19.867 -13.391  1.00  0.00     0.010 C 
ATOM      8  C   UNL     1     -24.879 -18.631 -13.016  1.00  0.00     0.025 C 
BRANCH   8   9
ATOM      9  C   UNL     1     -24.849 -17.495 -13.950  1.00  0.00     0.064 C 
ATOM     10  O   UNL     1     -25.916 -17.108 -14.493  1.00  0.00    -0.545 OA
ATOM     11  O   UNL     1     -23.658 -16.841 -14.245  1.00  0.00    -0.545 OA
ENDBRANCH   8   9
ENDBRANCH   1   7
BRANCH   4  12
ATOM     12  O   UNL     1     -24.780 -24.730 -12.786  1.00  0.00    -0.504 OA
ATOM     13  H   UNL     1     -23.963 -25.268 -13.053  1.00  0.00     0.293 HD
ENDBRANCH   4  12
BRANCH   6  14
ATOM     14  O   UNL     1     -24.588 -24.433  -9.985  1.00  0.00    -0.504 OA
ATOM     15  H   UNL     1     -23.978 -24.508  -9.180  1.00  0.00     0.293 HD
ENDBRANCH   6  14
TORSDOF 4
ENDMDL
MODEL 3
REMARK VINA RESULT:    -5.922      0.958      1.929
REMARK INTER + INTRA:          -7.087
REMARK INTER:                  -6.951
REMARK INTRA:                  -0.135
REMARK UNBOUND:                -0.126
REMARK SMILES O=C([O-])C=Cc1ccc(O)c(O)c1
REMARK SMILES IDX 6 1 13 2 7 3 11 4 8 5 9 6 5 7 4 8 2 9 1 10 3 11 12 12 10 14
REMARK H PARENT 12 13 10 15
REMARK Flexibility Score: inf
ROOT
ATOM      1  C   UNL     1     -24.873 -19.398 -13.054  1.00  0.00    -0.022 A 
ATOM      2  C   UNL     1     -25.395 -19.766 -11.802  1.00  0.00     0.058 A 
ATOM      3  C   UNL     1     -24.100 -20.333 -13.769  1.00  0.00     0.012 A 
ATOM      4  C   UNL     1     -25.172 -21.049 -11.282  1.00  0.00     0.157 A 
ATOM      5  C   UNL     1     -23.877 -21.611 -13.251  1.00  0.00     0.051 A 
ATOM      6  C   UNL     1     -24.412 -21.976 -12.012  1.00  0.00     0.157 A 
ENDROOT
BRANCH   1   7
ATOM      7  C   UNL     1     -25.130 -18.025 -13.554  1.00  0.00     0.010 C 
ATOM      8  C   UNL     1     -24.196 -17.254 -14.128  1.00  0.00     0.025 C 
BRANCH   8   9
ATOM      9  C   UNL     1     -24.498 -15.901 -14.620  1.00  0.00     0.064 C 
ATOM     10  O   UNL     1     -23.646 -14.985 -14.483  1.00  0.00    -0.545 OA
ATOM     11  O   UNL     1     -25.712 -15.615 -15.234  1.00  0.00    -0.545 OA
ENDBRANCH   8   9
ENDBRANCH   1   7
BRANCH   4  12
ATOM     12  O   UNL     1     -25.703 -21.404 -10.043  1.00  0.00    -0.504 OA
ATOM     13  H   UNL     1     -25.119 -21.480  -9.217  1.00  0.00     0.293 HD
ENDBRANCH   4  12
BRANCH   6  14
ATOM     14  O   UNL     1     -24.173 -23.259 -11.522  1.00  0.00    -0.504 OA
ATOM     15  H   UNL     1     -23.314 -23.759 -11.718  1.00  0.00     0.293 HD
ENDBRANCH   6  14
TORSDOF 4
ENDMDL
MODEL 4
REMARK VINA RESULT:    -5.889      2.353      3.261
REMARK INTER + INTRA:          -7.048
REMARK INTER:                  -6.909
REMARK INTRA:                  -0.139
REMARK UNBOUND:                -0.126
REMARK SMILES O=C([O-])C=Cc1ccc(O)c(O)c1
REMARK SMILES IDX 6 1 13 2 7 3 11 4 8 5 9 6 5 7 4 8 2 9 1 10 3 11 12 12 10 14
REMARK H PARENT 12 13 10 15
REMARK Flexibility Score: inf
ROOT
ATOM      1  C   UNL     1     -25.152 -21.042 -11.554  1.00  0.00    -0.022 A 
ATOM      2  C   UNL     1     -24.377 -22.174 -11.248  1.00  0.00     0.058 A 
ATOM      3  C   UNL     1     -26.340 -20.817 -10.831  1.00  0.00     0.012 A 
ATOM      4  C   UNL     1     -24.762 -23.051 -10.225  1.00  0.00     0.157 A 
ATOM      5  C   UNL     1     -26.725 -21.692  -9.812  1.00  0.00     0.051 A 
ATOM      6  C   UNL     1     -25.941 -22.807  -9.502  1.00  0.00     0.157 A 
ENDROOT
BRANCH   1   7
ATOM      7  C   UNL     1     -24.704 -20.151 -12.652  1.00  0.00     0.010 C 
ATOM      8  C   UNL     1     -24.878 -18.822 -12.652  1.00  0.00     0.025 C 
BRANCH   8   9
ATOM      9  C   UNL     1     -24.408 -17.974 -13.758  1.00  0.00     0.064 C 
ATOM     10  O   UNL     1     -23.729 -18.484 -14.686  1.00  0.00    -0.545 OA
ATOM     11  O   UNL     1     -24.701 -16.615 -13.795  1.00  0.00    -0.545 OA
ENDBRANCH   8   9
ENDBRANCH   1   7
BRANCH   4  12
ATOM     12  O   UNL     1     -23.979 -24.165  -9.925  1.00  0.00    -0.504 OA
ATOM     13  H   UNL     1     -23.687 -24.370  -8.976  1.00  0.00     0.293 HD
ENDBRANCH   4  12
BRANCH   6  14
ATOM     14  O   UNL     1     -26.351 -23.661  -8.479  1.00  0.00    -0.504 OA
ATOM     15  H   UNL     1     -26.250 -24.666  -8.544  1.00  0.00     0.293 HD
ENDBRANCH   6  14
TORSDOF 4
ENDMDL
MODEL 5
REMARK VINA RESULT:    -5.868      1.463      6.115
REMARK INTER + INTRA:          -7.023
REMARK INTER:                  -6.896
REMARK INTRA:                  -0.127
REMARK UNBOUND:                -0.126
REMARK SMILES O=C([O-])C=Cc1ccc(O)c(O)c1
REMARK SMILES IDX 6 1 13 2 7 3 11 4 8 5 9 6 5 7 4 8 2 9 1 10 3 11 12 12 10 14
REMARK H PARENT 12 13 10 15
REMARK Flexibility Score: inf
ROOT
ATOM      1  C   UNL     1     -24.887 -17.241 -14.062  1.00  0.00    -0.022 A 
ATOM      2  C   UNL     1     -23.656 -16.618 -14.330  1.00  0.00     0.058 A 
ATOM      3  C   UNL     1     -26.058 -16.706 -14.635  1.00  0.00     0.012 A 
ATOM      4  C   UNL     1     -23.588 -15.499 -15.173  1.00  0.00     0.157 A 
ATOM      5  C   UNL     1     -25.990 -15.591 -15.474  1.00  0.00     0.051 A 
ATOM      6  C   UNL     1     -24.760 -14.986 -15.749  1.00  0.00     0.157 A 
ENDROOT
BRANCH   1   7
ATOM      7  C   UNL     1     -24.906 -18.416 -13.156  1.00  0.00     0.010 C 
ATOM      8  C   UNL     1     -24.505 -19.642 -13.518  1.00  0.00     0.025 C 
BRANCH   8   9
ATOM      9  C   UNL     1     -24.530 -20.777 -12.583  1.00  0.00     0.064 C 
ATOM     10  O   UNL     1     -25.494 -20.904 -11.784  1.00  0.00    -0.545 OA
ATOM     11  O   UNL     1     -23.503 -21.714 -12.564  1.00  0.00    -0.545 OA
ENDBRANCH   8   9
ENDBRANCH   1   7
BRANCH   4  12
ATOM     12  O   UNL     1     -22.359 -14.896 -15.438  1.00  0.00    -0.504 OA
ATOM     13  H   UNL     1     -21.533 -15.444 -15.653  1.00  0.00     0.293 HD
ENDBRANCH   4  12
BRANCH   6  14
ATOM     14  O   UNL     1     -24.725 -13.875 -16.591  1.00  0.00    -0.504 OA
ATOM     15  H   UNL     1     -23.854 -13.476 -16.919  1.00  0.00     0.293 HD
ENDBRANCH   6  14
TORSDOF 4
ENDMDL
MODEL 6
REMARK VINA RESULT:    -5.812      5.479      6.623
REMARK INTER + INTRA:          -6.957
REMARK INTER:                  -6.829
REMARK INTRA:                  -0.128
REMARK UNBOUND:                -0.126
REMARK SMILES O=C([O-])C=Cc1ccc(O)c(O)c1
REMARK SMILES IDX 6 1 13 2 7 3 11 4 8 5 9 6 5 7 4 8 2 9 1 10 3 11 12 12 10 14
REMARK H PARENT 12 13 10 15
REMARK Flexibility Score: inf
ROOT
ATOM      1  C   UNL     1     -25.634 -23.815 -13.191  1.00  0.00    -0.022 A 
ATOM      2  C   UNL     1     -26.756 -23.971 -14.023  1.00  0.00     0.058 A 
ATOM      3  C   UNL     1     -24.420 -24.423 -13.567  1.00  0.00     0.012 A 
ATOM      4  C   UNL     1     -26.666 -24.697 -15.220  1.00  0.00     0.157 A 
ATOM      5  C   UNL     1     -24.331 -25.147 -14.758  1.00  0.00     0.051 A 
ATOM      6  C   UNL     1     -25.446 -25.285 -15.589  1.00  0.00     0.157 A 
ENDROOT
BRANCH   1   7
ATOM      7  C   UNL     1     -25.786 -23.046 -11.931  1.00  0.00     0.010 C 
ATOM      8  C   UNL     1     -26.536 -23.450 -10.898  1.00  0.00     0.025 C 
BRANCH   8   9
ATOM      9  C   UNL     1     -26.649 -22.660  -9.662  1.00  0.00     0.064 C 
ATOM     10  O   UNL     1     -26.696 -21.405  -9.728  1.00  0.00    -0.545 OA
ATOM     11  O   UNL     1     -26.704 -23.279  -8.417  1.00  0.00    -0.545 OA
ENDBRANCH   8   9
ENDBRANCH   1   7
BRANCH   4  12
ATOM     12  O   UNL     1     -27.784 -24.836 -16.040  1.00  0.00    -0.504 OA
ATOM     13  H   UNL     1     -28.265 -24.030 -16.424  1.00  0.00     0.293 HD
ENDBRANCH   4  12
BRANCH   6  14
ATOM     14  O   UNL     1     -25.325 -26.012 -16.773  1.00  0.00    -0.504 OA
ATOM     15  H   UNL     1     -25.482 -25.593 -17.681  1.00  0.00     0.293 HD
ENDBRANCH   6  14
TORSDOF 4
ENDMDL
MODEL 7
REMARK VINA RESULT:    -5.796      4.741      6.921
REMARK INTER + INTRA:          -6.939
REMARK INTER:                  -6.812
REMARK INTRA:                  -0.127
REMARK UNBOUND:                -0.126
REMARK SMILES O=C([O-])C=Cc1ccc(O)c(O)c1
REMARK SMILES IDX 6 1 13 2 7 3 11 4 8 5 9 6 5 7 4 8 2 9 1 10 3 11 12 12 10 14
REMARK H PARENT 12 13 10 15
REMARK Flexibility Score: inf
ROOT
ATOM      1  C   UNL     1     -26.241 -23.167 -12.770  1.00  0.00    -0.022 A 
ATOM      2  C   UNL     1     -26.840 -23.978 -13.749  1.00  0.00     0.058 A 
ATOM      3  C   UNL     1     -25.194 -22.304 -13.149  1.00  0.00     0.012 A 
ATOM      4  C   UNL     1     -26.423 -23.913 -15.086  1.00  0.00     0.157 A 
ATOM      5  C   UNL     1     -24.778 -22.240 -14.481  1.00  0.00     0.051 A 
ATOM      6  C   UNL     1     -25.389 -23.038 -15.453  1.00  0.00     0.157 A 
ENDROOT
BRANCH   1   7
ATOM      7  C   UNL     1     -26.713 -23.282 -11.367  1.00  0.00     0.010 C 
ATOM      8  C   UNL     1     -26.185 -24.126 -10.470  1.00  0.00     0.025 C 
BRANCH   8   9
ATOM      9  C   UNL     1     -26.677 -24.199  -9.086  1.00  0.00     0.064 C 
ATOM     10  O   UNL     1     -26.815 -25.320  -8.533  1.00  0.00    -0.545 OA
ATOM     11  O   UNL     1     -26.996 -23.046  -8.376  1.00  0.00    -0.545 OA
ENDBRANCH   8   9
ENDBRANCH   1   7
BRANCH   4  12
ATOM     12  O   UNL     1     -27.032 -24.716 -16.049  1.00  0.00    -0.504 OA
ATOM     13  H   UNL     1     -27.497 -25.583 -15.802  1.00  0.00     0.293 HD
ENDBRANCH   4  12
BRANCH   6  14
ATOM     14  O   UNL     1     -24.952 -22.950 -16.774  1.00  0.00    -0.504 OA
ATOM     15  H   UNL     1     -24.001 -22.693 -17.011  1.00  0.00     0.293 HD
ENDBRANCH   6  14
TORSDOF 4
ENDMDL
MODEL 8
REMARK VINA RESULT:    -5.732      3.535      5.203
REMARK INTER + INTRA:          -6.864
REMARK INTER:                  -6.738
REMARK INTRA:                  -0.126
REMARK UNBOUND:                -0.126
REMARK SMILES O=C([O-])C=Cc1ccc(O)c(O)c1
REMARK SMILES IDX 6 1 13 2 7 3 11 4 8 5 9 6 5 7 4 8 2 9 1 10 3 11 12 12 10 14
REMARK H PARENT 12 13 10 15
REMARK Flexibility Score: inf
ROOT
ATOM      1  C   UNL     1     -25.197 -23.400 -13.632  1.00  0.00    -0.022 A 
ATOM      2  C   UNL     1     -26.423 -23.644 -14.275  1.00  0.00     0.058 A 
ATOM      3  C   UNL     1     -24.065 -24.140 -14.025  1.00  0.00     0.012 A 
ATOM      4  C   UNL     1     -26.515 -24.588 -15.308  1.00  0.00     0.157 A 
ATOM      5  C   UNL     1     -24.157 -25.082 -15.053  1.00  0.00     0.051 A 
ATOM      6  C   UNL     1     -25.376 -25.309 -15.699  1.00  0.00     0.157 A 
ENDROOT
BRANCH   1   7
ATOM      7  C   UNL     1     -25.156 -22.397 -12.539  1.00  0.00     0.010 C 
ATOM      8  C   UNL     1     -24.822 -21.112 -12.720  1.00  0.00     0.025 C 
BRANCH   8   9
ATOM      9  C   UNL     1     -24.806 -20.149 -11.608  1.00  0.00     0.064 C 
ATOM     10  O   UNL     1     -23.822 -20.119 -10.826  1.00  0.00    -0.545 OA
ATOM     11  O   UNL     1     -25.863 -19.268 -11.407  1.00  0.00    -0.545 OA
ENDBRANCH   8   9
ENDBRANCH   1   7
BRANCH   4  12
ATOM     12  O   UNL     1     -27.735 -24.814 -15.944  1.00  0.00    -0.504 OA
ATOM     13  H   UNL     1     -28.618 -24.690 -15.459  1.00  0.00     0.293 HD
ENDBRANCH   4  12
BRANCH   6  14
ATOM     14  O   UNL     1     -25.435 -26.254 -16.722  1.00  0.00    -0.504 OA
ATOM     15  H   UNL     1     -25.736 -27.207 -16.558  1.00  0.00     0.293 HD
ENDBRANCH   6  14
TORSDOF 4
ENDMDL
MODEL 9
REMARK VINA RESULT:    -5.618      2.987      6.672
REMARK INTER + INTRA:          -6.729
REMARK INTER:                  -6.604
REMARK INTRA:                  -0.125
REMARK UNBOUND:                -0.126
REMARK SMILES O=C([O-])C=Cc1ccc(O)c(O)c1
REMARK SMILES IDX 6 1 13 2 7 3 11 4 8 5 9 6 5 7 4 8 2 9 1 10 3 11 12 12 10 14
REMARK H PARENT 12 13 10 15
REMARK Flexibility Score: inf
ROOT
ATOM      1  C   UNL     1     -25.101 -22.077 -11.194  1.00  0.00    -0.022 A 
ATOM      2  C   UNL     1     -24.213 -22.665 -12.111  1.00  0.00     0.058 A 
ATOM      3  C   UNL     1     -25.507 -20.743 -11.400  1.00  0.00     0.012 A 
ATOM      4  C   UNL     1     -23.757 -21.948 -13.227  1.00  0.00     0.157 A 
ATOM      5  C   UNL     1     -25.051 -20.029 -12.511  1.00  0.00     0.051 A 
ATOM      6  C   UNL     1     -24.180 -20.625 -13.428  1.00  0.00     0.157 A 
ENDROOT
BRANCH   1   7
ATOM      7  C   UNL     1     -25.546 -22.876 -10.025  1.00  0.00     0.010 C 
ATOM      8  C   UNL     1     -26.594 -23.710 -10.049  1.00  0.00     0.025 C 
BRANCH   8   9
ATOM      9  C   UNL     1     -26.993 -24.492  -8.868  1.00  0.00     0.064 C 
ATOM     10  O   UNL     1     -27.877 -24.042  -8.094  1.00  0.00    -0.545 OA
ATOM     11  O   UNL     1     -26.408 -25.723  -8.592  1.00  0.00    -0.545 OA
ENDBRANCH   8   9
ENDBRANCH   1   7
BRANCH   4  12
ATOM     12  O   UNL     1     -22.883 -22.546 -14.134  1.00  0.00    -0.504 OA
ATOM     13  H   UNL     1     -21.886 -22.594 -13.959  1.00  0.00     0.293 HD
ENDBRANCH   4  12
BRANCH   6  14
ATOM     14  O   UNL     1     -23.745 -19.886 -14.527  1.00  0.00    -0.504 OA
ATOM     15  H   UNL     1     -24.033 -20.107 -15.473  1.00  0.00     0.293 HD
ENDBRANCH   6  14
TORSDOF 4
ENDMDL
