MODEL 1
REMARK VINA RESULT:    -5.163      0.000      0.000
REMARK INTER + INTRA:          -5.314
REMARK INTER:                  -5.314
REMARK INTRA:                   0.000
REMARK UNBOUND:                 0.000
REMARK SMILES Cc1ccccc1O
REMARK SMILES IDX 1 1 2 2 3 3 4 4 5 5 6 6 7 7 8 8
REMARK H PARENT 8 9
REMARK Flexibility Score: inf
ROOT
ATOM      1  C   UNL     1      10.354   4.371  79.655  1.00  0.00     0.048 C 
ATOM      2  C   UNL     1       9.426   5.553  79.595  1.00  0.00    -0.009 A 
ATOM      3  C   UNL     1       9.913   6.797  79.159  1.00  0.00     0.007 A 
ATOM      4  C   UNL     1       9.066   7.907  79.096  1.00  0.00     0.001 A 
ATOM      5  C   UNL     1       7.727   7.787  79.466  1.00  0.00     0.004 A 
ATOM      6  C   UNL     1       7.228   6.556  79.900  1.00  0.00     0.046 A 
ATOM      7  C   UNL     1       8.066   5.436  79.968  1.00  0.00     0.118 A 
ENDROOT
BRANCH   7   8
ATOM      8  O   UNL     1       7.521   4.228  80.409  1.00  0.00    -0.508 OA
ATOM      9  H   UNL     1       7.763   3.805  81.296  1.00  0.00     0.293 HD
ENDBRANCH   7   8
TORSDOF 1
ENDMDL
MODEL 2
REMARK VINA RESULT:    -5.114      1.214      2.779
REMARK INTER + INTRA:          -5.263
REMARK INTER:                  -5.263
REMARK INTRA:                   0.000
REMARK UNBOUND:                 0.000
REMARK SMILES Cc1ccccc1O
REMARK SMILES IDX 1 1 2 2 3 3 4 4 5 5 6 6 7 7 8 8
REMARK H PARENT 8 9
REMARK Flexibility Score: inf
ROOT
ATOM      1  C   UNL     1       6.267   8.027  81.035  1.00  0.00     0.048 C 
ATOM      2  C   UNL     1       7.577   7.753  80.350  1.00  0.00    -0.009 A 
ATOM      3  C   UNL     1       8.520   8.787  80.215  1.00  0.00     0.007 A 
ATOM      4  C   UNL     1       9.743   8.552  79.582  1.00  0.00     0.001 A 
ATOM      5  C   UNL     1      10.038   7.285  79.079  1.00  0.00     0.004 A 
ATOM      6  C   UNL     1       9.112   6.248  79.207  1.00  0.00     0.046 A 
ATOM      7  C   UNL     1       7.882   6.470  79.839  1.00  0.00     0.118 A 
ENDROOT
BRANCH   7   8
ATOM      8  O   UNL     1       6.989   5.401  79.942  1.00  0.00    -0.508 OA
ATOM      9  H   UNL     1       6.927   4.811  80.763  1.00  0.00     0.293 HD
ENDBRANCH   7   8
TORSDOF 1
ENDMDL
MODEL 3
REMARK VINA RESULT:    -5.096      2.146      3.794
REMARK INTER + INTRA:          -5.245
REMARK INTER:                  -5.245
REMARK INTRA:                   0.000
REMARK UNBOUND:                 0.000
REMARK SMILES Cc1ccccc1O
REMARK SMILES IDX 1 1 2 2 3 3 4 4 5 5 6 6 7 7 8 8
REMARK H PARENT 8 9
REMARK Flexibility Score: inf
ROOT
ATOM      1  C   UNL     1       7.109   9.518  80.000  1.00  0.00     0.048 C 
ATOM      2  C   UNL     1       7.678   8.146  79.767  1.00  0.00    -0.009 A 
ATOM      3  C   UNL     1       6.897   7.013  80.050  1.00  0.00     0.007 A 
ATOM      4  C   UNL     1       7.408   5.729  79.839  1.00  0.00     0.001 A 
ATOM      5  C   UNL     1       8.702   5.564  79.345  1.00  0.00     0.004 A 
ATOM      6  C   UNL     1       9.489   6.681  79.059  1.00  0.00     0.046 A 
ATOM      7  C   UNL     1       8.990   7.973  79.265  1.00  0.00     0.118 A 
ENDROOT
BRANCH   7   8
ATOM      8  O   UNL     1       9.816   9.058  78.964  1.00  0.00    -0.508 OA
ATOM      9  H   UNL     1       9.478  10.011  78.911  1.00  0.00     0.293 HD
ENDBRANCH   7   8
TORSDOF 1
ENDMDL
MODEL 4
REMARK VINA RESULT:    -4.942      2.143      3.185
REMARK INTER + INTRA:          -5.086
REMARK INTER:                  -5.086
REMARK INTRA:                   0.000
REMARK UNBOUND:                 0.000
REMARK SMILES Cc1ccccc1O
REMARK SMILES IDX 1 1 2 2 3 3 4 4 5 5 6 6 7 7 8 8
REMARK H PARENT 8 9
REMARK Flexibility Score: inf
ROOT
ATOM      1  C   UNL     1       9.754   9.699  79.796  1.00  0.00     0.048 C 
ATOM      2  C   UNL     1       8.980   8.410  79.782  1.00  0.00    -0.009 A 
ATOM      3  C   UNL     1       9.559   7.258  79.221  1.00  0.00     0.007 A 
ATOM      4  C   UNL     1       8.857   6.050  79.199  1.00  0.00     0.001 A 
ATOM      5  C   UNL     1       7.572   5.979  79.736  1.00  0.00     0.004 A 
ATOM      6  C   UNL     1       6.984   7.114  80.298  1.00  0.00     0.046 A 
ATOM      7  C   UNL     1       7.677   8.331  80.327  1.00  0.00     0.118 A 
ENDROOT
BRANCH   7   8
ATOM      8  O   UNL     1       7.046   9.438  80.899  1.00  0.00    -0.508 OA
ATOM      9  H   UNL     1       6.264   9.359  81.537  1.00  0.00     0.293 HD
ENDBRANCH   7   8
TORSDOF 1
ENDMDL
MODEL 5
REMARK VINA RESULT:    -4.883      1.331      1.893
REMARK INTER + INTRA:          -5.025
REMARK INTER:                  -5.025
REMARK INTRA:                   0.000
REMARK UNBOUND:                 0.000
REMARK SMILES Cc1ccccc1O
REMARK SMILES IDX 1 1 2 2 3 3 4 4 5 5 6 6 7 7 8 8
REMARK H PARENT 8 9
REMARK Flexibility Score: inf
ROOT
ATOM      1  C   UNL     1      10.779   7.203  79.236  1.00  0.00     0.048 C 
ATOM      2  C   UNL     1       9.313   7.068  79.542  1.00  0.00    -0.009 A 
ATOM      3  C   UNL     1       8.562   8.213  79.860  1.00  0.00     0.007 A 
ATOM      4  C   UNL     1       7.198   8.109  80.147  1.00  0.00     0.001 A 
ATOM      5  C   UNL     1       6.571   6.864  80.119  1.00  0.00     0.004 A 
ATOM      6  C   UNL     1       7.304   5.717  79.804  1.00  0.00     0.046 A 
ATOM      7  C   UNL     1       8.671   5.807  79.515  1.00  0.00     0.118 A 
ENDROOT
BRANCH   7   8
ATOM      8  O   UNL     1       9.361   4.633  79.206  1.00  0.00    -0.508 OA
ATOM      9  H   UNL     1       9.556   3.912  79.889  1.00  0.00     0.293 HD
ENDBRANCH   7   8
TORSDOF 1
ENDMDL
MODEL 6
REMARK VINA RESULT:    -4.846      2.303      3.717
REMARK INTER + INTRA:          -4.987
REMARK INTER:                  -4.987
REMARK INTRA:                   0.000
REMARK UNBOUND:                 0.000
REMARK SMILES Cc1ccccc1O
REMARK SMILES IDX 1 1 2 2 3 3 4 4 5 5 6 6 7 7 8 8
REMARK H PARENT 8 9
REMARK Flexibility Score: inf
ROOT
ATOM      1  C   UNL     1       6.303   8.201  81.140  1.00  0.00     0.048 C 
ATOM      2  C   UNL     1       7.506   7.700  80.390  1.00  0.00    -0.009 A 
ATOM      3  C   UNL     1       7.580   6.346  80.020  1.00  0.00     0.007 A 
ATOM      4  C   UNL     1       8.690   5.862  79.322  1.00  0.00     0.001 A 
ATOM      5  C   UNL     1       9.736   6.722  78.987  1.00  0.00     0.004 A 
ATOM      6  C   UNL     1       9.675   8.070  79.347  1.00  0.00     0.046 A 
ATOM      7  C   UNL     1       8.569   8.569  80.046  1.00  0.00     0.118 A 
ENDROOT
BRANCH   7   8
ATOM      8  O   UNL     1       8.555   9.924  80.384  1.00  0.00    -0.508 OA
ATOM      9  H   UNL     1       9.244  10.347  80.993  1.00  0.00     0.293 HD
ENDBRANCH   7   8
TORSDOF 1
ENDMDL
MODEL 7
REMARK VINA RESULT:    -4.717      1.717      2.423
REMARK INTER + INTRA:          -4.855
REMARK INTER:                  -4.855
REMARK INTRA:                   0.000
REMARK UNBOUND:                 0.000
REMARK SMILES Cc1ccccc1O
REMARK SMILES IDX 1 1 2 2 3 3 4 4 5 5 6 6 7 7 8 8
REMARK H PARENT 8 9
REMARK Flexibility Score: inf
ROOT
ATOM      1  C   UNL     1      10.072   4.517  79.638  1.00  0.00     0.048 C 
ATOM      2  C   UNL     1       9.095   5.658  79.594  1.00  0.00    -0.009 A 
ATOM      3  C   UNL     1       7.737   5.421  79.874  1.00  0.00     0.007 A 
ATOM      4  C   UNL     1       6.813   6.468  79.839  1.00  0.00     0.001 A 
ATOM      5  C   UNL     1       7.232   7.761  79.525  1.00  0.00     0.004 A 
ATOM      6  C   UNL     1       8.578   8.012  79.245  1.00  0.00     0.046 A 
ATOM      7  C   UNL     1       9.515   6.971  79.277  1.00  0.00     0.118 A 
ENDROOT
BRANCH   7   8
ATOM      8  O   UNL     1      10.848   7.272  78.990  1.00  0.00    -0.508 OA
ATOM      9  H   UNL     1      11.386   7.950  79.515  1.00  0.00     0.293 HD
ENDBRANCH   7   8
TORSDOF 1
ENDMDL
MODEL 8
REMARK VINA RESULT:    -4.638      1.433      1.787
REMARK INTER + INTRA:          -4.773
REMARK INTER:                  -4.773
REMARK INTRA:                   0.000
REMARK UNBOUND:                 0.000
REMARK SMILES Cc1ccccc1O
REMARK SMILES IDX 1 1 2 2 3 3 4 4 5 5 6 6 7 7 8 8
REMARK H PARENT 8 9
REMARK Flexibility Score: inf
ROOT
ATOM      1  C   UNL     1       8.926   5.256  79.396  1.00  0.00     0.048 C 
ATOM      2  C   UNL     1       8.754   6.735  79.604  1.00  0.00    -0.009 A 
ATOM      3  C   UNL     1       9.840   7.599  79.378  1.00  0.00     0.007 A 
ATOM      4  C   UNL     1       9.700   8.977  79.564  1.00  0.00     0.001 A 
ATOM      5  C   UNL     1       8.478   9.506  79.978  1.00  0.00     0.004 A 
ATOM      6  C   UNL     1       7.390   8.660  80.205  1.00  0.00     0.046 A 
ATOM      7  C   UNL     1       7.516   7.277  80.022  1.00  0.00     0.118 A 
ENDROOT
BRANCH   7   8
ATOM      8  O   UNL     1       6.400   6.473  80.263  1.00  0.00    -0.508 OA
ATOM      9  H   UNL     1       6.403   5.711  80.928  1.00  0.00     0.293 HD
ENDBRANCH   7   8
TORSDOF 1
ENDMDL
MODEL 9
REMARK VINA RESULT:    -4.264      9.319     10.698
REMARK INTER + INTRA:          -4.388
REMARK INTER:                  -4.388
REMARK INTRA:                   0.000
REMARK UNBOUND:                 0.000
REMARK SMILES Cc1ccccc1O
REMARK SMILES IDX 1 1 2 2 3 3 4 4 5 5 6 6 7 7 8 8
REMARK H PARENT 8 9
REMARK Flexibility Score: inf
ROOT
ATOM      1  C   UNL     1       0.626   5.767  86.755  1.00  0.00     0.048 C 
ATOM      2  C   UNL     1       1.455   4.558  87.093  1.00  0.00    -0.009 A 
ATOM      3  C   UNL     1       1.099   3.757  88.191  1.00  0.00     0.007 A 
ATOM      4  C   UNL     1       1.856   2.629  88.521  1.00  0.00     0.001 A 
ATOM      5  C   UNL     1       2.974   2.291  87.759  1.00  0.00     0.004 A 
ATOM      6  C   UNL     1       3.340   3.077  86.664  1.00  0.00     0.046 A 
ATOM      7  C   UNL     1       2.590   4.210  86.323  1.00  0.00     0.118 A 
ENDROOT
BRANCH   7   8
ATOM      8  O   UNL     1       2.996   4.964  85.220  1.00  0.00    -0.508 OA
ATOM      9  H   UNL     1       2.702   4.759  84.274  1.00  0.00     0.293 HD
ENDBRANCH   7   8
TORSDOF 1
ENDMDL
