MODEL 1
REMARK VINA RESULT:    -6.509      0.000      0.000
REMARK INTER + INTRA:          -7.123
REMARK INTER:                  -6.890
REMARK INTRA:                  -0.233
REMARK UNBOUND:                -0.233
REMARK SMILES O=c1cc(-c2ccccc2)oc2ccccc12
REMARK SMILES IDX 4 1 3 2 2 3 1 4 17 5 16 6 15 7 14 8 13 9 12 10 11 11 5 12
REMARK SMILES IDX 8 13 7 14 9 15 6 16 10 17
REMARK H PARENT
REMARK Flexibility Score: inf
ROOT
ATOM      1  C   UNL     1      -8.565  -0.851  -4.383  1.00  0.00     0.138 A 
ATOM      2  C   UNL     1      -7.823  -0.571  -3.216  1.00  0.00     0.100 A 
ATOM      3  C   UNL     1      -7.761   0.739  -2.737  1.00  0.00     0.193 A 
ATOM      4  O   UNL     1      -7.098   0.988  -1.694  1.00  0.00    -0.289 OA
ATOM      5  C   UNL     1      -8.439   1.758  -3.422  1.00  0.00     0.065 A 
ATOM      6  C   UNL     1      -8.417   3.097  -2.992  1.00  0.00     0.016 A 
ATOM      7  C   UNL     1      -9.110   4.074  -3.714  1.00  0.00     0.001 A 
ATOM      8  C   UNL     1      -9.826   3.724  -4.862  1.00  0.00     0.004 A 
ATOM      9  C   UNL     1      -9.852   2.396  -5.296  1.00  0.00     0.048 A 
ATOM     10  C   UNL     1      -9.162   1.410  -4.582  1.00  0.00     0.138 A 
ATOM     11  O   UNL     1      -9.193   0.150  -5.003  1.00  0.00    -0.456 OA
ENDROOT
BRANCH   1  12
ATOM     12  C   UNL     1      -8.683  -2.224  -4.963  1.00  0.00     0.017 A 
ATOM     13  C   UNL     1      -8.863  -4.782  -6.142  1.00  0.00     0.000 A 
ATOM     14  C   UNL     1      -9.344  -4.573  -4.849  1.00  0.00     0.001 A 
ATOM     15  C   UNL     1      -8.294  -3.726  -6.851  1.00  0.00     0.001 A 
ATOM     16  C   UNL     1      -9.258  -3.308  -4.261  1.00  0.00     0.012 A 
ATOM     17  C   UNL     1      -8.203  -2.458  -6.270  1.00  0.00     0.012 A 
ENDBRANCH   1  12
TORSDOF 1
ENDMDL
MODEL 2
REMARK VINA RESULT:    -6.035      1.313      2.110
REMARK INTER + INTRA:          -6.620
REMARK INTER:                  -6.386
REMARK INTRA:                  -0.234
REMARK UNBOUND:                -0.233
REMARK SMILES O=c1cc(-c2ccccc2)oc2ccccc12
REMARK SMILES IDX 4 1 3 2 2 3 1 4 17 5 16 6 15 7 14 8 13 9 12 10 11 11 5 12
REMARK SMILES IDX 8 13 7 14 9 15 6 16 10 17
REMARK H PARENT
REMARK Flexibility Score: inf
ROOT
ATOM      1  C   UNL     1      -7.975  -0.011  -5.570  1.00  0.00     0.138 A 
ATOM      2  C   UNL     1      -7.391  -0.050  -4.286  1.00  0.00     0.100 A 
ATOM      3  C   UNL     1      -7.639   0.989  -3.386  1.00  0.00     0.193 A 
ATOM      4  O   UNL     1      -7.116   0.953  -2.238  1.00  0.00    -0.289 OA
ATOM      5  C   UNL     1      -8.463   2.055  -3.771  1.00  0.00     0.065 A 
ATOM      6  C   UNL     1      -8.752   3.132  -2.912  1.00  0.00     0.016 A 
ATOM      7  C   UNL     1      -9.580   4.170  -3.347  1.00  0.00     0.001 A 
ATOM      8  C   UNL     1     -10.125   4.143  -4.635  1.00  0.00     0.004 A 
ATOM      9  C   UNL     1      -9.843   3.078  -5.494  1.00  0.00     0.048 A 
ATOM     10  C   UNL     1      -9.015   2.033  -5.069  1.00  0.00     0.138 A 
ATOM     11  O   UNL     1      -8.753   1.024  -5.893  1.00  0.00    -0.456 OA
ENDROOT
BRANCH   1  12
ATOM     12  C   UNL     1      -7.763  -1.080  -6.593  1.00  0.00     0.017 A 
ATOM     13  C   UNL     1      -7.397  -3.164  -8.461  1.00  0.00     0.000 A 
ATOM     14  C   UNL     1      -7.045  -1.857  -8.796  1.00  0.00     0.001 A 
ATOM     15  C   UNL     1      -7.929  -3.441  -7.203  1.00  0.00     0.001 A 
ATOM     16  C   UNL     1      -7.224  -0.821  -7.874  1.00  0.00     0.012 A 
ATOM     17  C   UNL     1      -8.112  -2.411  -6.276  1.00  0.00     0.012 A 
ENDBRANCH   1  12
TORSDOF 1
ENDMDL
MODEL 3
REMARK VINA RESULT:    -5.859      1.852      3.294
REMARK INTER + INTRA:          -6.435
REMARK INTER:                  -6.214
REMARK INTRA:                  -0.221
REMARK UNBOUND:                -0.233
REMARK SMILES O=c1cc(-c2ccccc2)oc2ccccc12
REMARK SMILES IDX 4 1 3 2 2 3 1 4 17 5 16 6 15 7 14 8 13 9 12 10 11 11 5 12
REMARK SMILES IDX 8 13 7 14 9 15 6 16 10 17
REMARK H PARENT
REMARK Flexibility Score: inf
ROOT
ATOM      1  C   UNL     1      -7.791  -0.935  -6.414  1.00  0.00     0.138 A 
ATOM      2  C   UNL     1      -8.744  -0.095  -7.029  1.00  0.00     0.100 A 
ATOM      3  C   UNL     1      -9.156   1.070  -6.378  1.00  0.00     0.193 A 
ATOM      4  O   UNL     1     -10.008   1.820  -6.928  1.00  0.00    -0.289 OA
ATOM      5  C   UNL     1      -8.617   1.388  -5.123  1.00  0.00     0.065 A 
ATOM      6  C   UNL     1      -8.989   2.545  -4.415  1.00  0.00     0.016 A 
ATOM      7  C   UNL     1      -8.420   2.814  -3.167  1.00  0.00     0.001 A 
ATOM      8  C   UNL     1      -7.481   1.936  -2.618  1.00  0.00     0.004 A 
ATOM      9  C   UNL     1      -7.106   0.784  -3.315  1.00  0.00     0.048 A 
ATOM     10  C   UNL     1      -7.669   0.505  -4.565  1.00  0.00     0.138 A 
ATOM     11  O   UNL     1      -7.306  -0.593  -5.220  1.00  0.00    -0.456 OA
ENDROOT
BRANCH   1  12
ATOM     12  C   UNL     1      -7.297  -2.199  -7.041  1.00  0.00     0.017 A 
ATOM     13  C   UNL     1      -6.444  -4.631  -8.191  1.00  0.00     0.000 A 
ATOM     14  C   UNL     1      -5.649  -3.490  -8.302  1.00  0.00     0.001 A 
ATOM     15  C   UNL     1      -7.658  -4.570  -7.512  1.00  0.00     0.001 A 
ATOM     16  C   UNL     1      -6.067  -2.283  -7.734  1.00  0.00     0.012 A 
ATOM     17  C   UNL     1      -8.084  -3.367  -6.941  1.00  0.00     0.012 A 
ENDBRANCH   1  12
TORSDOF 1
ENDMDL
MODEL 4
REMARK VINA RESULT:    -5.858      1.999      6.241
REMARK INTER + INTRA:          -6.433
REMARK INTER:                  -6.173
REMARK INTRA:                  -0.260
REMARK UNBOUND:                -0.233
REMARK SMILES O=c1cc(-c2ccccc2)oc2ccccc12
REMARK SMILES IDX 4 1 3 2 2 3 1 4 17 5 16 6 15 7 14 8 13 9 12 10 11 11 5 12
REMARK SMILES IDX 8 13 7 14 9 15 6 16 10 17
REMARK H PARENT
REMARK Flexibility Score: inf
ROOT
ATOM      1  C   UNL     1      -8.210  -1.478  -4.496  1.00  0.00     0.138 A 
ATOM      2  C   UNL     1      -8.948  -2.382  -3.702  1.00  0.00     0.100 A 
ATOM      3  C   UNL     1      -9.259  -3.645  -4.208  1.00  0.00     0.193 A 
ATOM      4  O   UNL     1      -9.919  -4.453  -3.497  1.00  0.00    -0.289 OA
ATOM      5  C   UNL     1      -8.834  -3.998  -5.496  1.00  0.00     0.065 A 
ATOM      6  C   UNL     1      -9.115  -5.254  -6.064  1.00  0.00     0.016 A 
ATOM      7  C   UNL     1      -8.668  -5.554  -7.354  1.00  0.00     0.001 A 
ATOM      8  C   UNL     1      -7.941  -4.609  -8.084  1.00  0.00     0.004 A 
ATOM      9  C   UNL     1      -7.658  -3.359  -7.527  1.00  0.00     0.048 A 
ATOM     10  C   UNL     1      -8.101  -3.048  -6.236  1.00  0.00     0.138 A 
ATOM     11  O   UNL     1      -7.826  -1.856  -5.716  1.00  0.00    -0.456 OA
ENDROOT
BRANCH   1  12
ATOM     12  C   UNL     1      -7.834  -0.107  -4.032  1.00  0.00     0.017 A 
ATOM     13  C   UNL     1      -7.134   2.451  -3.064  1.00  0.00     0.000 A 
ATOM     14  C   UNL     1      -7.189   2.215  -4.438  1.00  0.00     0.001 A 
ATOM     15  C   UNL     1      -7.426   1.422  -2.170  1.00  0.00     0.001 A 
ATOM     16  C   UNL     1      -7.535   0.950  -4.923  1.00  0.00     0.012 A 
ATOM     17  C   UNL     1      -7.773   0.155  -2.646  1.00  0.00     0.012 A 
ENDBRANCH   1  12
TORSDOF 1
ENDMDL
MODEL 5
REMARK VINA RESULT:    -5.774      1.914      6.198
REMARK INTER + INTRA:          -6.345
REMARK INTER:                  -6.107
REMARK INTRA:                  -0.238
REMARK UNBOUND:                -0.233
REMARK SMILES O=c1cc(-c2ccccc2)oc2ccccc12
REMARK SMILES IDX 4 1 3 2 2 3 1 4 17 5 16 6 15 7 14 8 13 9 12 10 11 11 5 12
REMARK SMILES IDX 8 13 7 14 9 15 6 16 10 17
REMARK H PARENT
REMARK Flexibility Score: inf
ROOT
ATOM      1  C   UNL     1      -7.867  -1.082  -5.152  1.00  0.00     0.138 A 
ATOM      2  C   UNL     1      -8.646  -2.186  -4.747  1.00  0.00     0.100 A 
ATOM      3  C   UNL     1      -8.636  -3.353  -5.513  1.00  0.00     0.193 A 
ATOM      4  O   UNL     1      -9.332  -4.341  -5.149  1.00  0.00    -0.289 OA
ATOM      5  C   UNL     1      -7.852  -3.411  -6.674  1.00  0.00     0.065 A 
ATOM      6  C   UNL     1      -7.797  -4.556  -7.490  1.00  0.00     0.016 A 
ATOM      7  C   UNL     1      -7.000  -4.560  -8.637  1.00  0.00     0.001 A 
ATOM      8  C   UNL     1      -6.253  -3.428  -8.979  1.00  0.00     0.004 A 
ATOM      9  C   UNL     1      -6.302  -2.286  -8.174  1.00  0.00     0.048 A 
ATOM     10  C   UNL     1      -7.098  -2.271  -7.023  1.00  0.00     0.138 A 
ATOM     11  O   UNL     1      -7.137  -1.181  -6.264  1.00  0.00    -0.456 OA
ENDROOT
BRANCH   1  12
ATOM     12  C   UNL     1      -7.820   0.205  -4.391  1.00  0.00     0.017 A 
ATOM     13  C   UNL     1      -7.757   2.681  -3.037  1.00  0.00     0.000 A 
ATOM     14  C   UNL     1      -7.457   1.503  -2.353  1.00  0.00     0.001 A 
ATOM     15  C   UNL     1      -8.088   2.634  -4.390  1.00  0.00     0.001 A 
ATOM     16  C   UNL     1      -7.487   0.274  -3.019  1.00  0.00     0.012 A 
ATOM     17  C   UNL     1      -8.120   1.410  -5.064  1.00  0.00     0.012 A 
ENDBRANCH   1  12
TORSDOF 1
ENDMDL
MODEL 6
REMARK VINA RESULT:    -5.768      1.659      6.301
REMARK INTER + INTRA:          -6.338
REMARK INTER:                  -6.110
REMARK INTRA:                  -0.229
REMARK UNBOUND:                -0.233
REMARK SMILES O=c1cc(-c2ccccc2)oc2ccccc12
REMARK SMILES IDX 4 1 3 2 2 3 1 4 17 5 16 6 15 7 14 8 13 9 12 10 11 11 5 12
REMARK SMILES IDX 8 13 7 14 9 15 6 16 10 17
REMARK H PARENT
REMARK Flexibility Score: inf
ROOT
ATOM      1  C   UNL     1      -7.898  -0.767  -5.374  1.00  0.00     0.138 A 
ATOM      2  C   UNL     1      -7.183  -0.911  -6.581  1.00  0.00     0.100 A 
ATOM      3  C   UNL     1      -7.176  -2.146  -7.232  1.00  0.00     0.193 A 
ATOM      4  O   UNL     1      -6.536  -2.275  -8.312  1.00  0.00    -0.289 OA
ATOM      5  C   UNL     1      -7.881  -3.224  -6.678  1.00  0.00     0.065 A 
ATOM      6  C   UNL     1      -7.914  -4.494  -7.284  1.00  0.00     0.016 A 
ATOM      7  C   UNL     1      -8.632  -5.534  -6.688  1.00  0.00     0.001 A 
ATOM      8  C   UNL     1      -9.319  -5.318  -5.490  1.00  0.00     0.004 A 
ATOM      9  C   UNL     1      -9.291  -4.061  -4.881  1.00  0.00     0.048 A 
ATOM     10  C   UNL     1      -8.575  -3.012  -5.469  1.00  0.00     0.138 A 
ATOM     11  O   UNL     1      -8.554  -1.819  -4.882  1.00  0.00    -0.456 OA
ENDROOT
BRANCH   1  12
ATOM     12  C   UNL     1      -7.958   0.519  -4.612  1.00  0.00     0.017 A 
ATOM     13  C   UNL     1      -8.121   2.985  -3.248  1.00  0.00     0.000 A 
ATOM     14  C   UNL     1      -7.448   1.909  -2.669  1.00  0.00     0.001 A 
ATOM     15  C   UNL     1      -8.712   2.841  -4.502  1.00  0.00     0.001 A 
ATOM     16  C   UNL     1      -7.364   0.686  -3.339  1.00  0.00     0.012 A 
ATOM     17  C   UNL     1      -8.634   1.621  -5.180  1.00  0.00     0.012 A 
ENDBRANCH   1  12
TORSDOF 1
ENDMDL
MODEL 7
REMARK VINA RESULT:    -5.634      1.435      2.630
REMARK INTER + INTRA:          -6.196
REMARK INTER:                  -5.964
REMARK INTRA:                  -0.232
REMARK UNBOUND:                -0.233
REMARK SMILES O=c1cc(-c2ccccc2)oc2ccccc12
REMARK SMILES IDX 4 1 3 2 2 3 1 4 17 5 16 6 15 7 14 8 13 9 12 10 11 11 5 12
REMARK SMILES IDX 8 13 7 14 9 15 6 16 10 17
REMARK H PARENT
REMARK Flexibility Score: inf
ROOT
ATOM      1  C   UNL     1      -8.702  -1.589  -5.626  1.00  0.00     0.138 A 
ATOM      2  C   UNL     1      -9.231  -0.661  -6.548  1.00  0.00     0.100 A 
ATOM      3  C   UNL     1      -9.167   0.704  -6.264  1.00  0.00     0.193 A 
ATOM      4  O   UNL     1      -9.639   1.533  -7.089  1.00  0.00    -0.289 OA
ATOM      5  C   UNL     1      -8.578   1.134  -5.066  1.00  0.00     0.065 A 
ATOM      6  C   UNL     1      -8.481   2.494  -4.720  1.00  0.00     0.016 A 
ATOM      7  C   UNL     1      -7.885   2.868  -3.512  1.00  0.00     0.001 A 
ATOM      8  C   UNL     1      -7.382   1.893  -2.645  1.00  0.00     0.004 A 
ATOM      9  C   UNL     1      -7.474   0.539  -2.982  1.00  0.00     0.048 A 
ATOM     10  C   UNL     1      -8.069   0.154  -4.188  1.00  0.00     0.138 A 
ATOM     11  O   UNL     1      -8.152  -1.135  -4.499  1.00  0.00    -0.456 OA
ENDROOT
BRANCH   1  12
ATOM     12  C   UNL     1      -8.730  -3.067  -5.851  1.00  0.00     0.017 A 
ATOM     13  C   UNL     1      -8.729  -5.843  -6.359  1.00  0.00     0.000 A 
ATOM     14  C   UNL     1      -9.389  -5.338  -5.239  1.00  0.00     0.001 A 
ATOM     15  C   UNL     1      -8.071  -4.975  -7.228  1.00  0.00     0.001 A 
ATOM     16  C   UNL     1      -9.393  -3.964  -4.983  1.00  0.00     0.012 A 
ATOM     17  C   UNL     1      -8.069  -3.600  -6.980  1.00  0.00     0.012 A 
ENDBRANCH   1  12
TORSDOF 1
ENDMDL
MODEL 8
REMARK VINA RESULT:    -5.230     11.995     14.252
REMARK INTER + INTRA:          -5.769
REMARK INTER:                  -5.543
REMARK INTRA:                  -0.226
REMARK UNBOUND:                -0.233
REMARK SMILES O=c1cc(-c2ccccc2)oc2ccccc12
REMARK SMILES IDX 4 1 3 2 2 3 1 4 17 5 16 6 15 7 14 8 13 9 12 10 11 11 5 12
REMARK SMILES IDX 8 13 7 14 9 15 6 16 10 17
REMARK H PARENT
REMARK Flexibility Score: inf
ROOT
ATOM      1  C   UNL     1      -3.307  -6.520   6.069  1.00  0.00     0.138 A 
ATOM      2  C   UNL     1      -2.302  -6.172   5.142  1.00  0.00     0.100 A 
ATOM      3  C   UNL     1      -2.330  -6.722   3.859  1.00  0.00     0.193 A 
ATOM      4  O   UNL     1      -1.431  -6.410   3.030  1.00  0.00    -0.289 OA
ATOM      5  C   UNL     1      -3.356  -7.611   3.510  1.00  0.00     0.065 A 
ATOM      6  C   UNL     1      -3.441  -8.200   2.235  1.00  0.00     0.016 A 
ATOM      7  C   UNL     1      -4.485  -9.081   1.940  1.00  0.00     0.001 A 
ATOM      8  C   UNL     1      -5.447  -9.381   2.909  1.00  0.00     0.004 A 
ATOM      9  C   UNL     1      -5.369  -8.801   4.178  1.00  0.00     0.048 A 
ATOM     10  C   UNL     1      -4.329  -7.917   4.485  1.00  0.00     0.138 A 
ATOM     11  O   UNL     1      -4.264  -7.371   5.694  1.00  0.00    -0.456 OA
ENDROOT
BRANCH   1  12
ATOM     12  C   UNL     1      -3.352  -5.978   7.462  1.00  0.00     0.017 A 
ATOM     13  C   UNL     1      -3.407  -5.043  10.125  1.00  0.00     0.000 A 
ATOM     14  C   UNL     1      -3.778  -4.197   9.080  1.00  0.00     0.001 A 
ATOM     15  C   UNL     1      -3.010  -6.351   9.853  1.00  0.00     0.001 A 
ATOM     16  C   UNL     1      -3.753  -4.655   7.759  1.00  0.00     0.012 A 
ATOM     17  C   UNL     1      -2.982  -6.817   8.536  1.00  0.00     0.012 A 
ENDBRANCH   1  12
TORSDOF 1
ENDMDL
MODEL 9
REMARK VINA RESULT:    -5.167     13.074     15.084
REMARK INTER + INTRA:          -5.702
REMARK INTER:                  -5.441
REMARK INTRA:                  -0.261
REMARK UNBOUND:                -0.233
REMARK SMILES O=c1cc(-c2ccccc2)oc2ccccc12
REMARK SMILES IDX 4 1 3 2 2 3 1 4 17 5 16 6 15 7 14 8 13 9 12 10 11 11 5 12
REMARK SMILES IDX 8 13 7 14 9 15 6 16 10 17
REMARK H PARENT
REMARK Flexibility Score: inf
ROOT
ATOM      1  C   UNL     1      -3.582  -6.171   7.503  1.00  0.00     0.138 A 
ATOM      2  C   UNL     1      -3.626  -7.544   7.827  1.00  0.00     0.100 A 
ATOM      3  C   UNL     1      -3.039  -8.473   6.966  1.00  0.00     0.193 A 
ATOM      4  O   UNL     1      -3.079  -9.700   7.257  1.00  0.00    -0.289 OA
ATOM      5  C   UNL     1      -2.414  -8.029   5.793  1.00  0.00     0.065 A 
ATOM      6  C   UNL     1      -1.804  -8.913   4.883  1.00  0.00     0.016 A 
ATOM      7  C   UNL     1      -1.196  -8.416   3.727  1.00  0.00     0.001 A 
ATOM      8  C   UNL     1      -1.189  -7.042   3.470  1.00  0.00     0.004 A 
ATOM      9  C   UNL     1      -1.793  -6.157   4.368  1.00  0.00     0.048 A 
ATOM     10  C   UNL     1      -2.406  -6.643   5.529  1.00  0.00     0.138 A 
ATOM     11  O   UNL     1      -2.977  -5.794   6.376  1.00  0.00    -0.456 OA
ENDROOT
BRANCH   1  12
ATOM     12  C   UNL     1      -4.185  -5.111   8.369  1.00  0.00     0.017 A 
ATOM     13  C   UNL     1      -5.263  -3.043   9.959  1.00  0.00     0.000 A 
ATOM     14  C   UNL     1      -5.729  -4.350  10.102  1.00  0.00     0.001 A 
ATOM     15  C   UNL     1      -4.264  -2.759   9.030  1.00  0.00     0.001 A 
ATOM     16  C   UNL     1      -5.199  -5.378   9.317  1.00  0.00     0.012 A 
ATOM     17  C   UNL     1      -3.728  -3.781   8.241  1.00  0.00     0.012 A 
ENDBRANCH   1  12
TORSDOF 1
ENDMDL
