MODEL 1
REMARK VINA RESULT:    -5.274      0.000      0.000
REMARK INTER + INTRA:          -5.725
REMARK INTER:                  -5.583
REMARK INTRA:                  -0.142
REMARK UNBOUND:                -0.142
REMARK SMILES CC1=CCC(C(C)C)=CC1
REMARK SMILES IDX 1 1 2 2 3 3 4 4 5 5 9 6 10 7 6 8 7 9 8 10
REMARK H PARENT
REMARK Flexibility Score: inf
ROOT
ATOM      1  C   UNL     1     113.149 110.623 114.028  1.00  0.00     0.039 C 
ATOM      2  C   UNL     1     112.834 110.757 112.563  1.00  0.00    -0.073 C 
ATOM      3  C   UNL     1     112.516 109.665 111.843  1.00  0.00    -0.023 C 
ATOM      4  C   UNL     1     112.158 109.787 110.382  1.00  0.00     0.058 C 
ATOM      5  C   UNL     1     112.924 110.919 109.718  1.00  0.00    -0.068 C 
ATOM      6  C   UNL     1     113.243 112.010 110.449  1.00  0.00    -0.023 C 
ATOM      7  C   UNL     1     112.838 112.118 111.898  1.00  0.00     0.057 C 
ENDROOT
BRANCH   5   8
ATOM      8  C   UNL     1     113.354 110.824 108.262  1.00  0.00     0.009 C 
ATOM      9  C   UNL     1     112.881 109.505 107.642  1.00  0.00     0.012 C 
ATOM     10  C   UNL     1     112.850 112.025 107.454  1.00  0.00     0.012 C 
ENDBRANCH   5   8
TORSDOF 1
ENDMDL
MODEL 2
REMARK VINA RESULT:    -5.262      2.895      4.859
REMARK INTER + INTRA:          -5.712
REMARK INTER:                  -5.569
REMARK INTRA:                  -0.143
REMARK UNBOUND:                -0.142
REMARK SMILES CC1=CCC(C(C)C)=CC1
REMARK SMILES IDX 1 1 2 2 3 3 4 4 5 5 9 6 10 7 6 8 7 9 8 10
REMARK H PARENT
REMARK Flexibility Score: inf
ROOT
ATOM      1  C   UNL     1     113.157 110.636 118.888  1.00  0.00     0.039 C 
ATOM      2  C   UNL     1     112.844 110.754 117.421  1.00  0.00    -0.073 C 
ATOM      3  C   UNL     1     112.557 109.651 116.705  1.00  0.00    -0.023 C 
ATOM      4  C   UNL     1     112.201 109.755 115.243  1.00  0.00     0.058 C 
ATOM      5  C   UNL     1     112.941 110.903 114.576  1.00  0.00    -0.068 C 
ATOM      6  C   UNL     1     113.229 112.006 115.302  1.00  0.00    -0.023 C 
ATOM      7  C   UNL     1     112.815 112.111 116.749  1.00  0.00     0.057 C 
ENDROOT
BRANCH   5   8
ATOM      8  C   UNL     1     113.379 110.811 113.122  1.00  0.00     0.009 C 
ATOM      9  C   UNL     1     112.996 109.453 112.525  1.00  0.00     0.012 C 
ATOM     10  C   UNL     1     112.797 111.961 112.292  1.00  0.00     0.012 C 
ENDBRANCH   5   8
TORSDOF 1
ENDMDL
MODEL 3
REMARK VINA RESULT:    -5.249      4.694      6.487
REMARK INTER + INTRA:          -5.699
REMARK INTER:                  -5.556
REMARK INTRA:                  -0.142
REMARK UNBOUND:                -0.142
REMARK SMILES CC1=CCC(C(C)C)=CC1
REMARK SMILES IDX 1 1 2 2 3 3 4 4 5 5 9 6 10 7 6 8 7 9 8 10
REMARK H PARENT
REMARK Flexibility Score: inf
ROOT
ATOM      1  C   UNL     1     109.157 111.500 119.064  1.00  0.00     0.039 C 
ATOM      2  C   UNL     1     109.440 111.457 117.588  1.00  0.00    -0.073 C 
ATOM      3  C   UNL     1     109.666 112.600 116.914  1.00  0.00    -0.023 C 
ATOM      4  C   UNL     1     109.992 112.571 115.441  1.00  0.00     0.058 C 
ATOM      5  C   UNL     1     109.282 111.424 114.741  1.00  0.00    -0.068 C 
ATOM      6  C   UNL     1     109.055 110.281 115.426  1.00  0.00    -0.023 C 
ATOM      7  C   UNL     1     109.505 110.132 116.858  1.00  0.00     0.057 C 
ENDROOT
BRANCH   5   8
ATOM      8  C   UNL     1     108.807 111.559 113.303  1.00  0.00     0.009 C 
ATOM      9  C   UNL     1     109.248 112.902 112.710  1.00  0.00     0.012 C 
ATOM     10  C   UNL     1     109.297 110.389 112.442  1.00  0.00     0.012 C 
ENDBRANCH   5   8
TORSDOF 1
ENDMDL
MODEL 4
REMARK VINA RESULT:    -5.246      3.492      4.064
REMARK INTER + INTRA:          -5.695
REMARK INTER:                  -5.552
REMARK INTRA:                  -0.143
REMARK UNBOUND:                -0.142
REMARK SMILES CC1=CCC(C(C)C)=CC1
REMARK SMILES IDX 1 1 2 2 3 3 4 4 5 5 9 6 10 7 6 8 7 9 8 10
REMARK H PARENT
REMARK Flexibility Score: inf
ROOT
ATOM      1  C   UNL     1     109.119 111.597 114.135  1.00  0.00     0.039 C 
ATOM      2  C   UNL     1     109.434 111.492 112.668  1.00  0.00    -0.073 C 
ATOM      3  C   UNL     1     109.704 112.604 111.958  1.00  0.00    -0.023 C 
ATOM      4  C   UNL     1     110.063 112.513 110.495  1.00  0.00     0.058 C 
ATOM      5  C   UNL     1     109.342 111.358 109.821  1.00  0.00    -0.068 C 
ATOM      6  C   UNL     1     109.070 110.246 110.541  1.00  0.00    -0.023 C 
ATOM      7  C   UNL     1     109.484 110.140 111.988  1.00  0.00     0.057 C 
ENDROOT
BRANCH   5   8
ATOM      8  C   UNL     1     108.903 111.451 108.368  1.00  0.00     0.009 C 
ATOM      9  C   UNL     1     109.105 112.872 107.831  1.00  0.00     0.012 C 
ATOM     10  C   UNL     1     109.637 110.424 107.498  1.00  0.00     0.012 C 
ENDBRANCH   5   8
TORSDOF 1
ENDMDL
MODEL 5
REMARK VINA RESULT:    -5.054      0.744      4.830
REMARK INTER + INTRA:          -5.492
REMARK INTER:                  -5.351
REMARK INTRA:                  -0.141
REMARK UNBOUND:                -0.142
REMARK SMILES CC1=CCC(C(C)C)=CC1
REMARK SMILES IDX 1 1 2 2 3 3 4 4 5 5 9 6 10 7 6 8 7 9 8 10
REMARK H PARENT
REMARK Flexibility Score: inf
ROOT
ATOM      1  C   UNL     1     113.278 110.600 108.351  1.00  0.00     0.039 C 
ATOM      2  C   UNL     1     112.901 110.817 109.791  1.00  0.00    -0.073 C 
ATOM      3  C   UNL     1     113.235 111.968 110.406  1.00  0.00    -0.023 C 
ATOM      4  C   UNL     1     112.829 112.219 111.837  1.00  0.00     0.058 C 
ATOM      5  C   UNL     1     112.804 110.928 112.638  1.00  0.00    -0.068 C 
ATOM      6  C   UNL     1     112.472 109.776 112.013  1.00  0.00    -0.023 C 
ATOM      7  C   UNL     1     112.118 109.764 110.547  1.00  0.00     0.057 C 
ENDROOT
BRANCH   5   8
ATOM      8  C   UNL     1     113.172 110.917 114.114  1.00  0.00     0.009 C 
ATOM      9  C   UNL     1     112.908 112.286 114.749  1.00  0.00     0.012 C 
ATOM     10  C   UNL     1     112.427 109.807 114.865  1.00  0.00     0.012 C 
ENDBRANCH   5   8
TORSDOF 1
ENDMDL
MODEL 6
REMARK VINA RESULT:    -5.016      3.564      5.669
REMARK INTER + INTRA:          -5.452
REMARK INTER:                  -5.310
REMARK INTRA:                  -0.142
REMARK UNBOUND:                -0.142
REMARK SMILES CC1=CCC(C(C)C)=CC1
REMARK SMILES IDX 1 1 2 2 3 3 4 4 5 5 9 6 10 7 6 8 7 9 8 10
REMARK H PARENT
REMARK Flexibility Score: inf
ROOT
ATOM      1  C   UNL     1     109.052 111.355 108.474  1.00  0.00     0.039 C 
ATOM      2  C   UNL     1     109.422 111.274 109.929  1.00  0.00    -0.073 C 
ATOM      3  C   UNL     1     109.115 110.173 110.640  1.00  0.00    -0.023 C 
ATOM      4  C   UNL     1     109.515 110.058 112.090  1.00  0.00     0.058 C 
ATOM      5  C   UNL     1     109.499 111.414 112.776  1.00  0.00    -0.068 C 
ATOM      6  C   UNL     1     109.804 112.515 112.055  1.00  0.00    -0.023 C 
ATOM      7  C   UNL     1     110.170 112.410 110.595  1.00  0.00     0.057 C 
ENDROOT
BRANCH   5   8
ATOM      8  C   UNL     1     109.118 111.543 114.243  1.00  0.00     0.009 C 
ATOM      9  C   UNL     1     109.221 110.188 114.951  1.00  0.00     0.012 C 
ATOM     10  C   UNL     1     109.975 112.601 114.949  1.00  0.00     0.012 C 
ENDBRANCH   5   8
TORSDOF 1
ENDMDL
MODEL 7
REMARK VINA RESULT:    -5.005      1.241      4.747
REMARK INTER + INTRA:          -5.440
REMARK INTER:                  -5.298
REMARK INTRA:                  -0.142
REMARK UNBOUND:                -0.142
REMARK SMILES CC1=CCC(C(C)C)=CC1
REMARK SMILES IDX 1 1 2 2 3 3 4 4 5 5 9 6 10 7 6 8 7 9 8 10
REMARK H PARENT
REMARK Flexibility Score: inf
ROOT
ATOM      1  C   UNL     1     112.201 110.419 109.087  1.00  0.00     0.039 C 
ATOM      2  C   UNL     1     112.615 110.579 110.524  1.00  0.00    -0.073 C 
ATOM      3  C   UNL     1     112.489 109.546 111.378  1.00  0.00    -0.023 C 
ATOM      4  C   UNL     1     112.938 109.677 112.812  1.00  0.00     0.058 C 
ATOM      5  C   UNL     1     112.741 111.093 113.325  1.00  0.00    -0.068 C 
ATOM      6  C   UNL     1     112.864 112.125 112.461  1.00  0.00    -0.023 C 
ATOM      7  C   UNL     1     113.205 111.886 111.011  1.00  0.00     0.057 C 
ENDROOT
BRANCH   5   8
ATOM      8  C   UNL     1     112.382 111.355 114.780  1.00  0.00     0.009 C 
ATOM      9  C   UNL     1     112.496 110.070 115.606  1.00  0.00     0.012 C 
ATOM     10  C   UNL     1     113.247 112.472 115.374  1.00  0.00     0.012 C 
ENDBRANCH   5   8
TORSDOF 1
ENDMDL
MODEL 8
REMARK VINA RESULT:    -4.983      1.637      4.964
REMARK INTER + INTRA:          -5.417
REMARK INTER:                  -5.245
REMARK INTRA:                  -0.172
REMARK UNBOUND:                -0.142
REMARK SMILES CC1=CCC(C(C)C)=CC1
REMARK SMILES IDX 1 1 2 2 3 3 4 4 5 5 9 6 10 7 6 8 7 9 8 10
REMARK H PARENT
REMARK Flexibility Score: inf
ROOT
ATOM      1  C   UNL     1     111.776 110.838 104.490  1.00  0.00     0.039 C 
ATOM      2  C   UNL     1     112.407 110.813 105.855  1.00  0.00    -0.073 C 
ATOM      3  C   UNL     1     112.457 109.661 106.550  1.00  0.00    -0.023 C 
ATOM      4  C   UNL     1     113.121 109.609 107.904  1.00  0.00     0.058 C 
ATOM      5  C   UNL     1     112.955 110.922 108.651  1.00  0.00    -0.068 C 
ATOM      6  C   UNL     1     112.901 112.074 107.946  1.00  0.00    -0.023 C 
ATOM      7  C   UNL     1     113.017 112.069 106.442  1.00  0.00     0.057 C 
ENDROOT
BRANCH   5   8
ATOM      8  C   UNL     1     112.821 110.948 110.166  1.00  0.00     0.009 C 
ATOM      9  C   UNL     1     113.136 112.344 110.715  1.00  0.00     0.012 C 
ATOM     10  C   UNL     1     111.430 110.482 110.609  1.00  0.00     0.012 C 
ENDBRANCH   5   8
TORSDOF 1
ENDMDL
MODEL 9
REMARK VINA RESULT:    -4.971      3.644      6.269
REMARK INTER + INTRA:          -5.405
REMARK INTER:                  -5.262
REMARK INTRA:                  -0.142
REMARK UNBOUND:                -0.142
REMARK SMILES CC1=CCC(C(C)C)=CC1
REMARK SMILES IDX 1 1 2 2 3 3 4 4 5 5 9 6 10 7 6 8 7 9 8 10
REMARK H PARENT
REMARK Flexibility Score: inf
ROOT
ATOM      1  C   UNL     1     109.956 112.160 109.462  1.00  0.00     0.039 C 
ATOM      2  C   UNL     1     109.565 111.921 110.895  1.00  0.00    -0.073 C 
ATOM      3  C   UNL     1     109.613 112.934 111.781  1.00  0.00    -0.023 C 
ATOM      4  C   UNL     1     109.186 112.722 113.213  1.00  0.00     0.058 C 
ATOM      5  C   UNL     1     109.501 111.311 113.679  1.00  0.00    -0.068 C 
ATOM      6  C   UNL     1     109.456 110.300 112.783  1.00  0.00    -0.023 C 
ATOM      7  C   UNL     1     109.086 110.556 111.343  1.00  0.00     0.057 C 
ENDROOT
BRANCH   5   8
ATOM      8  C   UNL     1     109.890 111.034 115.123  1.00  0.00     0.009 C 
ATOM      9  C   UNL     1     109.897 112.329 115.941  1.00  0.00     0.012 C 
ATOM     10  C   UNL     1     108.967 109.986 115.757  1.00  0.00     0.012 C 
ENDBRANCH   5   8
TORSDOF 1
ENDMDL
