MODEL 1
REMARK VINA RESULT:    -3.906      0.000      0.000
REMARK INTER + INTRA:          -8.111
REMARK INTER:                  -6.875
REMARK INTRA:                  -1.236
REMARK UNBOUND:                -1.236
REMARK SMILES CCCCCCC=CCCCCCCCC(=O)[O-]
REMARK SMILES IDX 10 1 11 2 12 3 13 4 14 5 15 6 16 7 17 8 18 9 9 10 8 11 7 12
REMARK SMILES IDX 6 13 5 14 4 15 3 16 2 17 1 18
REMARK H PARENT
REMARK Flexibility Score: inf
ROOT
ATOM      1  C   UNL     1     -43.043 -28.473  -0.343  1.00  0.00     0.004 C 
ENDROOT
BRANCH   1   2
ATOM      2  C   UNL     1     -43.969 -29.699  -0.250  1.00  0.00     0.000 C 
BRANCH   2   3
ATOM      3  C   UNL     1     -44.674 -30.081  -1.563  1.00  0.00     0.000 C 
BRANCH   3   4
ATOM      4  C   UNL     1     -46.179 -29.760  -1.552  1.00  0.00     0.000 C 
BRANCH   4   5
ATOM      5  C   UNL     1     -46.746 -29.551  -2.971  1.00  0.00     0.006 C 
BRANCH   5   6
ATOM      6  C   UNL     1     -45.686 -29.124  -3.998  1.00  0.00     0.053 C 
BRANCH   6   7
ATOM      7  C   UNL     1     -45.689 -27.645  -4.238  1.00  0.00     0.041 C 
ATOM      8  O   UNL     1     -46.440 -27.147  -5.116  1.00  0.00    -0.550 OA
ATOM      9  O   UNL     1     -44.879 -26.816  -3.471  1.00  0.00    -0.550 OA
ENDBRANCH   6   7
ENDBRANCH   5   6
ENDBRANCH   4   5
ENDBRANCH   3   4
ENDBRANCH   2   3
ENDBRANCH   1   2
BRANCH   1  10
ATOM     10  C   UNL     1     -43.795 -27.142  -0.198  1.00  0.00     0.027 C 
BRANCH  10  11
ATOM     11  C   UNL     1     -44.936 -27.270   0.772  1.00  0.00    -0.031 C 
ATOM     12  C   UNL     1     -45.209 -26.308   1.666  1.00  0.00    -0.031 C 
BRANCH  12  13
ATOM     13  C   UNL     1     -46.364 -26.425   2.621  1.00  0.00     0.027 C 
BRANCH  13  14
ATOM     14  C   UNL     1     -46.604 -27.888   3.021  1.00  0.00     0.004 C 
BRANCH  14  15
ATOM     15  C   UNL     1     -46.804 -28.071   4.537  1.00  0.00     0.000 C 
BRANCH  15  16
ATOM     16  C   UNL     1     -45.606 -28.689   5.279  1.00  0.00    -0.000 C 
BRANCH  16  17
ATOM     17  C   UNL     1     -45.365 -28.059   6.658  1.00  0.00    -0.003 C 
ATOM     18  C   UNL     1     -45.617 -26.553   6.627  1.00  0.00     0.004 C 
ENDBRANCH  16  17
ENDBRANCH  15  16
ENDBRANCH  14  15
ENDBRANCH  13  14
ENDBRANCH  12  13
ENDBRANCH  10  11
ENDBRANCH   1  10
TORSDOF 13
ENDMDL
MODEL 2
REMARK VINA RESULT:    -3.817      2.386      2.939
REMARK INTER + INTRA:          -7.954
REMARK INTER:                  -7.385
REMARK INTRA:                  -0.568
REMARK UNBOUND:                -1.236
REMARK SMILES CCCCCCC=CCCCCCCCC(=O)[O-]
REMARK SMILES IDX 10 1 11 2 12 3 13 4 14 5 15 6 16 7 17 8 18 9 9 10 8 11 7 12
REMARK SMILES IDX 6 13 5 14 4 15 3 16 2 17 1 18
REMARK H PARENT
REMARK Flexibility Score: inf
ROOT
ATOM      1  C   UNL     1     -44.506 -27.590  -2.111  1.00  0.00     0.004 C 
ENDROOT
BRANCH   1   2
ATOM      2  C   UNL     1     -45.819 -28.267  -2.544  1.00  0.00     0.000 C 
BRANCH   2   3
ATOM      3  C   UNL     1     -45.864 -28.717  -4.015  1.00  0.00     0.000 C 
BRANCH   3   4
ATOM      4  C   UNL     1     -45.553 -27.578  -5.001  1.00  0.00     0.000 C 
BRANCH   4   5
ATOM      5  C   UNL     1     -45.293 -28.093  -6.432  1.00  0.00     0.006 C 
BRANCH   5   6
ATOM      6  C   UNL     1     -44.047 -27.480  -7.088  1.00  0.00     0.053 C 
BRANCH   6   7
ATOM      7  C   UNL     1     -43.195 -28.509  -7.764  1.00  0.00     0.041 C 
ATOM      8  O   UNL     1     -43.720 -29.376  -8.510  1.00  0.00    -0.550 OA
ATOM      9  O   UNL     1     -41.817 -28.493  -7.590  1.00  0.00    -0.550 OA
ENDBRANCH   6   7
ENDBRANCH   5   6
ENDBRANCH   4   5
ENDBRANCH   3   4
ENDBRANCH   2   3
ENDBRANCH   1   2
BRANCH   1  10
ATOM     10  C   UNL     1     -43.986 -28.103  -0.760  1.00  0.00     0.027 C 
BRANCH  10  11
ATOM     11  C   UNL     1     -44.272 -27.116   0.338  1.00  0.00    -0.031 C 
ATOM     12  C   UNL     1     -45.470 -27.059   0.937  1.00  0.00    -0.031 C 
BRANCH  12  13
ATOM     13  C   UNL     1     -45.750 -26.088   2.050  1.00  0.00     0.027 C 
BRANCH  13  14
ATOM     14  C   UNL     1     -46.831 -26.630   2.997  1.00  0.00     0.004 C 
BRANCH  14  15
ATOM     15  C   UNL     1     -46.363 -26.703   4.462  1.00  0.00     0.000 C 
BRANCH  15  16
ATOM     16  C   UNL     1     -46.154 -28.127   5.006  1.00  0.00    -0.000 C 
BRANCH  16  17
ATOM     17  C   UNL     1     -45.365 -28.156   6.322  1.00  0.00    -0.003 C 
ATOM     18  C   UNL     1     -45.512 -26.840   7.081  1.00  0.00     0.004 C 
ENDBRANCH  16  17
ENDBRANCH  15  16
ENDBRANCH  14  15
ENDBRANCH  13  14
ENDBRANCH  12  13
ENDBRANCH  10  11
ENDBRANCH   1  10
TORSDOF 13
ENDMDL
MODEL 3
REMARK VINA RESULT:    -3.767      1.563      2.105
REMARK INTER + INTRA:          -7.867
REMARK INTER:                  -6.967
REMARK INTRA:                  -0.900
REMARK UNBOUND:                -1.236
REMARK SMILES CCCCCCC=CCCCCCCCC(=O)[O-]
REMARK SMILES IDX 10 1 11 2 12 3 13 4 14 5 15 6 16 7 17 8 18 9 9 10 8 11 7 12
REMARK SMILES IDX 6 13 5 14 4 15 3 16 2 17 1 18
REMARK H PARENT
REMARK Flexibility Score: inf
ROOT
ATOM      1  C   UNL     1     -44.159 -27.532  -1.544  1.00  0.00     0.004 C 
ENDROOT
BRANCH   1   2
ATOM      2  C   UNL     1     -45.607 -28.051  -1.618  1.00  0.00     0.000 C 
BRANCH   2   3
ATOM      3  C   UNL     1     -45.909 -28.963  -2.820  1.00  0.00     0.000 C 
BRANCH   3   4
ATOM      4  C   UNL     1     -47.100 -28.472  -3.661  1.00  0.00     0.000 C 
BRANCH   4   5
ATOM      5  C   UNL     1     -46.736 -28.294  -5.149  1.00  0.00     0.006 C 
BRANCH   5   6
ATOM      6  C   UNL     1     -45.319 -27.744  -5.372  1.00  0.00     0.053 C 
BRANCH   6   7
ATOM      7  C   UNL     1     -45.050 -27.431  -6.812  1.00  0.00     0.041 C 
ATOM      8  O   UNL     1     -43.867 -27.332  -7.229  1.00  0.00    -0.550 OA
ATOM      9  O   UNL     1     -46.109 -27.273  -7.697  1.00  0.00    -0.550 OA
ENDBRANCH   6   7
ENDBRANCH   5   6
ENDBRANCH   4   5
ENDBRANCH   3   4
ENDBRANCH   2   3
ENDBRANCH   1   2
BRANCH   1  10
ATOM     10  C   UNL     1     -43.737 -27.138  -0.121  1.00  0.00     0.027 C 
BRANCH  10  11
ATOM     11  C   UNL     1     -44.883 -27.280   0.842  1.00  0.00    -0.031 C 
ATOM     12  C   UNL     1     -45.371 -26.228   1.514  1.00  0.00    -0.031 C 
BRANCH  12  13
ATOM     13  C   UNL     1     -46.532 -26.366   2.459  1.00  0.00     0.027 C 
BRANCH  13  14
ATOM     14  C   UNL     1     -46.671 -27.812   2.956  1.00  0.00     0.004 C 
BRANCH  14  15
ATOM     15  C   UNL     1     -46.416 -27.955   4.468  1.00  0.00     0.000 C 
BRANCH  15  16
ATOM     16  C   UNL     1     -46.092 -26.639   5.198  1.00  0.00    -0.000 C 
BRANCH  16  17
ATOM     17  C   UNL     1     -45.600 -26.857   6.635  1.00  0.00    -0.003 C 
ATOM     18  C   UNL     1     -45.178 -28.307   6.859  1.00  0.00     0.004 C 
ENDBRANCH  16  17
ENDBRANCH  15  16
ENDBRANCH  14  15
ENDBRANCH  13  14
ENDBRANCH  12  13
ENDBRANCH  10  11
ENDBRANCH   1  10
TORSDOF 13
ENDMDL
MODEL 4
REMARK VINA RESULT:    -3.594      4.028      8.669
REMARK INTER + INTRA:          -7.561
REMARK INTER:                  -6.587
REMARK INTRA:                  -0.974
REMARK UNBOUND:                -1.236
REMARK SMILES CCCCCCC=CCCCCCCCC(=O)[O-]
REMARK SMILES IDX 10 1 11 2 12 3 13 4 14 5 15 6 16 7 17 8 18 9 9 10 8 11 7 12
REMARK SMILES IDX 6 13 5 14 4 15 3 16 2 17 1 18
REMARK H PARENT
REMARK Flexibility Score: inf
ROOT
ATOM      1  C   UNL     1     -44.618 -26.426   1.090  1.00  0.00     0.004 C 
ENDROOT
BRANCH   1   2
ATOM      2  C   UNL     1     -46.154 -26.434   1.192  1.00  0.00     0.000 C 
BRANCH   2   3
ATOM      3  C   UNL     1     -46.710 -26.682   2.606  1.00  0.00     0.000 C 
BRANCH   3   4
ATOM      4  C   UNL     1     -46.383 -28.086   3.142  1.00  0.00     0.000 C 
BRANCH   4   5
ATOM      5  C   UNL     1     -46.179 -28.099   4.670  1.00  0.00     0.006 C 
BRANCH   5   6
ATOM      6  C   UNL     1     -46.075 -26.696   5.287  1.00  0.00     0.053 C 
BRANCH   6   7
ATOM      7  C   UNL     1     -45.645 -26.735   6.721  1.00  0.00     0.041 C 
ATOM      8  O   UNL     1     -44.931 -27.682   7.144  1.00  0.00    -0.550 OA
ATOM      9  O   UNL     1     -46.014 -25.712   7.585  1.00  0.00    -0.550 OA
ENDBRANCH   6   7
ENDBRANCH   5   6
ENDBRANCH   4   5
ENDBRANCH   3   4
ENDBRANCH   2   3
ENDBRANCH   1   2
BRANCH   1  10
ATOM     10  C   UNL     1     -44.084 -27.390   0.021  1.00  0.00     0.027 C 
BRANCH  10  11
ATOM     11  C   UNL     1     -45.203 -27.934  -0.823  1.00  0.00    -0.031 C 
ATOM     12  C   UNL     1     -45.142 -27.922  -2.163  1.00  0.00    -0.031 C 
BRANCH  12  13
ATOM     13  C   UNL     1     -46.251 -28.487  -3.007  1.00  0.00     0.027 C 
BRANCH  13  14
ATOM     14  C   UNL     1     -45.708 -29.500  -4.026  1.00  0.00     0.004 C 
BRANCH  14  15
ATOM     15  C   UNL     1     -46.155 -29.199  -5.468  1.00  0.00     0.000 C 
BRANCH  15  16
ATOM     16  C   UNL     1     -46.165 -27.707  -5.845  1.00  0.00    -0.000 C 
BRANCH  16  17
ATOM     17  C   UNL     1     -44.844 -27.239  -6.472  1.00  0.00    -0.003 C 
ATOM     18  C   UNL     1     -44.432 -28.147  -7.629  1.00  0.00     0.004 C 
ENDBRANCH  16  17
ENDBRANCH  15  16
ENDBRANCH  14  15
ENDBRANCH  13  14
ENDBRANCH  12  13
ENDBRANCH  10  11
ENDBRANCH   1  10
TORSDOF 13
ENDMDL
MODEL 5
REMARK VINA RESULT:    -3.577      3.663      6.204
REMARK INTER + INTRA:          -7.532
REMARK INTER:                  -6.519
REMARK INTRA:                  -1.013
REMARK UNBOUND:                -1.236
REMARK SMILES CCCCCCC=CCCCCCCCC(=O)[O-]
REMARK SMILES IDX 10 1 11 2 12 3 13 4 14 5 15 6 16 7 17 8 18 9 9 10 8 11 7 12
REMARK SMILES IDX 6 13 5 14 4 15 3 16 2 17 1 18
REMARK H PARENT
REMARK Flexibility Score: inf
ROOT
ATOM      1  C   UNL     1     -45.256 -27.129  -5.559  1.00  0.00     0.004 C 
ENDROOT
BRANCH   1   2
ATOM      2  C   UNL     1     -44.811 -27.273  -7.026  1.00  0.00     0.000 C 
BRANCH   2   3
ATOM      3  C   UNL     1     -45.928 -27.668  -8.008  1.00  0.00     0.000 C 
BRANCH   3   4
ATOM      4  C   UNL     1     -45.704 -29.049  -8.648  1.00  0.00     0.000 C 
BRANCH   4   5
ATOM      5  C   UNL     1     -44.374 -29.693  -8.206  1.00  0.00     0.006 C 
BRANCH   5   6
ATOM      6  C   UNL     1     -43.353 -29.834  -9.345  1.00  0.00     0.053 C 
BRANCH   6   7
ATOM      7  C   UNL     1     -41.975 -29.420  -8.929  1.00  0.00     0.041 C 
ATOM      8  O   UNL     1     -40.979 -29.736  -9.630  1.00  0.00    -0.550 OA
ATOM      9  O   UNL     1     -41.796 -28.662  -7.778  1.00  0.00    -0.550 OA
ENDBRANCH   6   7
ENDBRANCH   5   6
ENDBRANCH   4   5
ENDBRANCH   3   4
ENDBRANCH   2   3
ENDBRANCH   1   2
BRANCH   1  10
ATOM     10  C   UNL     1     -46.698 -27.604  -5.323  1.00  0.00     0.027 C 
BRANCH  10  11
ATOM     11  C   UNL     1     -46.842 -28.234  -3.966  1.00  0.00    -0.031 C 
ATOM     12  C   UNL     1     -45.785 -28.422  -3.162  1.00  0.00    -0.031 C 
BRANCH  12  13
ATOM     13  C   UNL     1     -45.933 -29.032  -1.796  1.00  0.00     0.027 C 
BRANCH  13  14
ATOM     14  C   UNL     1     -46.086 -27.946  -0.720  1.00  0.00     0.004 C 
BRANCH  14  15
ATOM     15  C   UNL     1     -44.990 -28.011   0.359  1.00  0.00     0.000 C 
BRANCH  15  16
ATOM     16  C   UNL     1     -43.615 -27.477  -0.081  1.00  0.00    -0.000 C 
BRANCH  16  17
ATOM     17  C   UNL     1     -42.568 -28.587  -0.251  1.00  0.00    -0.003 C 
ATOM     18  C   UNL     1     -41.157 -28.009  -0.308  1.00  0.00     0.004 C 
ENDBRANCH  16  17
ENDBRANCH  15  16
ENDBRANCH  14  15
ENDBRANCH  13  14
ENDBRANCH  12  13
ENDBRANCH  10  11
ENDBRANCH   1  10
TORSDOF 13
ENDMDL
MODEL 6
REMARK VINA RESULT:    -3.543      3.826      8.727
REMARK INTER + INTRA:          -7.471
REMARK INTER:                  -6.694
REMARK INTRA:                  -0.777
REMARK UNBOUND:                -1.236
REMARK SMILES CCCCCCC=CCCCCCCCC(=O)[O-]
REMARK SMILES IDX 10 1 11 2 12 3 13 4 14 5 15 6 16 7 17 8 18 9 9 10 8 11 7 12
REMARK SMILES IDX 6 13 5 14 4 15 3 16 2 17 1 18
REMARK H PARENT
REMARK Flexibility Score: inf
ROOT
ATOM      1  C   UNL     1     -43.861 -27.502  -0.501  1.00  0.00     0.004 C 
ENDROOT
BRANCH   1   2
ATOM      2  C   UNL     1     -44.396 -26.752   0.733  1.00  0.00     0.000 C 
BRANCH   2   3
ATOM      3  C   UNL     1     -45.761 -27.243   1.250  1.00  0.00     0.000 C 
BRANCH   3   4
ATOM      4  C   UNL     1     -46.245 -26.472   2.490  1.00  0.00     0.000 C 
BRANCH   4   5
ATOM      5  C   UNL     1     -46.366 -27.375   3.734  1.00  0.00     0.006 C 
BRANCH   5   6
ATOM      6  C   UNL     1     -46.693 -26.604   5.022  1.00  0.00     0.053 C 
BRANCH   6   7
ATOM      7  C   UNL     1     -45.760 -26.947   6.142  1.00  0.00     0.041 C 
ATOM      8  O   UNL     1     -45.497 -26.095   7.031  1.00  0.00    -0.550 OA
ATOM      9  O   UNL     1     -45.201 -28.216   6.218  1.00  0.00    -0.550 OA
ENDBRANCH   6   7
ENDBRANCH   5   6
ENDBRANCH   4   5
ENDBRANCH   3   4
ENDBRANCH   2   3
ENDBRANCH   1   2
BRANCH   1  10
ATOM     10  C   UNL     1     -44.297 -28.975  -0.541  1.00  0.00     0.027 C 
BRANCH  10  11
ATOM     11  C   UNL     1     -45.152 -29.252  -1.746  1.00  0.00    -0.031 C 
ATOM     12  C   UNL     1     -45.623 -28.260  -2.516  1.00  0.00    -0.031 C 
BRANCH  12  13
ATOM     13  C   UNL     1     -46.459 -28.538  -3.734  1.00  0.00     0.027 C 
BRANCH  13  14
ATOM     14  C   UNL     1     -45.620 -29.191  -4.843  1.00  0.00     0.004 C 
BRANCH  14  15
ATOM     15  C   UNL     1     -45.806 -28.514  -6.214  1.00  0.00     0.000 C 
BRANCH  15  16
ATOM     16  C   UNL     1     -44.881 -27.313  -6.474  1.00  0.00    -0.000 C 
BRANCH  16  17
ATOM     17  C   UNL     1     -44.013 -27.486  -7.729  1.00  0.00    -0.003 C 
ATOM     18  C   UNL     1     -42.958 -28.570  -7.524  1.00  0.00     0.004 C 
ENDBRANCH  16  17
ENDBRANCH  15  16
ENDBRANCH  14  15
ENDBRANCH  13  14
ENDBRANCH  12  13
ENDBRANCH  10  11
ENDBRANCH   1  10
TORSDOF 13
ENDMDL
MODEL 7
REMARK VINA RESULT:    -3.492      3.421      5.675
REMARK INTER + INTRA:          -7.382
REMARK INTER:                  -6.322
REMARK INTRA:                  -1.060
REMARK UNBOUND:                -1.236
REMARK SMILES CCCCCCC=CCCCCCCCC(=O)[O-]
REMARK SMILES IDX 10 1 11 2 12 3 13 4 14 5 15 6 16 7 17 8 18 9 9 10 8 11 7 12
REMARK SMILES IDX 6 13 5 14 4 15 3 16 2 17 1 18
REMARK H PARENT
REMARK Flexibility Score: inf
ROOT
ATOM      1  C   UNL     1     -45.635 -27.824  -4.496  1.00  0.00     0.004 C 
ENDROOT
BRANCH   1   2
ATOM      2  C   UNL     1     -45.292 -28.331  -5.908  1.00  0.00     0.000 C 
BRANCH   2   3
ATOM      3  C   UNL     1     -45.173 -27.233  -6.981  1.00  0.00     0.000 C 
BRANCH   3   4
ATOM      4  C   UNL     1     -45.558 -27.724  -8.387  1.00  0.00     0.000 C 
BRANCH   4   5
ATOM      5  C   UNL     1     -44.328 -27.935  -9.293  1.00  0.00     0.006 C 
BRANCH   5   6
ATOM      6  C   UNL     1     -43.636 -29.291  -9.082  1.00  0.00     0.053 C 
BRANCH   6   7
ATOM      7  C   UNL     1     -42.204 -29.141  -8.674  1.00  0.00     0.041 C 
ATOM      8  O   UNL     1     -41.909 -28.567  -7.593  1.00  0.00    -0.550 OA
ATOM      9  O   UNL     1     -41.195 -29.658  -9.476  1.00  0.00    -0.550 OA
ENDBRANCH   6   7
ENDBRANCH   5   6
ENDBRANCH   4   5
ENDBRANCH   3   4
ENDBRANCH   2   3
ENDBRANCH   1   2
BRANCH   1  10
ATOM     10  C   UNL     1     -46.855 -28.532  -3.886  1.00  0.00     0.027 C 
BRANCH  10  11
ATOM     11  C   UNL     1     -46.506 -29.172  -2.572  1.00  0.00    -0.031 C 
ATOM     12  C   UNL     1     -45.235 -29.273  -2.154  1.00  0.00    -0.031 C 
BRANCH  12  13
ATOM     13  C   UNL     1     -44.888 -29.893  -0.830  1.00  0.00     0.027 C 
BRANCH  13  14
ATOM     14  C   UNL     1     -43.863 -29.038  -0.071  1.00  0.00     0.004 C 
BRANCH  14  15
ATOM     15  C   UNL     1     -44.017 -27.531  -0.347  1.00  0.00     0.000 C 
BRANCH  15  16
ATOM     16  C   UNL     1     -44.680 -26.729   0.787  1.00  0.00    -0.000 C 
BRANCH  16  17
ATOM     17  C   UNL     1     -46.210 -26.848   0.789  1.00  0.00    -0.003 C 
ATOM     18  C   UNL     1     -46.853 -25.676   1.528  1.00  0.00     0.004 C 
ENDBRANCH  16  17
ENDBRANCH  15  16
ENDBRANCH  14  15
ENDBRANCH  13  14
ENDBRANCH  12  13
ENDBRANCH  10  11
ENDBRANCH   1  10
TORSDOF 13
ENDMDL
MODEL 8
REMARK VINA RESULT:    -3.436      3.898      9.446
REMARK INTER + INTRA:          -7.284
REMARK INTER:                  -6.178
REMARK INTRA:                  -1.106
REMARK UNBOUND:                -1.236
REMARK SMILES CCCCCCC=CCCCCCCCC(=O)[O-]
REMARK SMILES IDX 10 1 11 2 12 3 13 4 14 5 15 6 16 7 17 8 18 9 9 10 8 11 7 12
REMARK SMILES IDX 6 13 5 14 4 15 3 16 2 17 1 18
REMARK H PARENT
REMARK Flexibility Score: inf
ROOT
ATOM      1  C   UNL     1     -45.520 -28.198  -4.040  1.00  0.00     0.004 C 
ENDROOT
BRANCH   1   2
ATOM      2  C   UNL     1     -46.479 -28.678  -2.935  1.00  0.00     0.000 C 
BRANCH   2   3
ATOM      3  C   UNL     1     -46.136 -28.183  -1.518  1.00  0.00     0.000 C 
BRANCH   3   4
ATOM      4  C   UNL     1     -44.653 -27.811  -1.355  1.00  0.00     0.000 C 
BRANCH   4   5
ATOM      5  C   UNL     1     -44.283 -27.497   0.109  1.00  0.00     0.006 C 
BRANCH   5   6
ATOM      6  C   UNL     1     -45.453 -27.674   1.089  1.00  0.00     0.053 C 
BRANCH   6   7
ATOM      7  C   UNL     1     -45.854 -26.385   1.735  1.00  0.00     0.041 C 
ATOM      8  O   UNL     1     -46.641 -26.386   2.718  1.00  0.00    -0.550 OA
ATOM      9  O   UNL     1     -45.338 -25.183   1.267  1.00  0.00    -0.550 OA
ENDBRANCH   6   7
ENDBRANCH   5   6
ENDBRANCH   4   5
ENDBRANCH   3   4
ENDBRANCH   2   3
ENDBRANCH   1   2
BRANCH   1  10
ATOM     10  C   UNL     1     -46.242 -27.473  -5.185  1.00  0.00     0.027 C 
BRANCH  10  11
ATOM     11  C   UNL     1     -46.202 -28.285  -6.449  1.00  0.00    -0.031 C 
ATOM     12  C   UNL     1     -46.654 -27.796  -7.613  1.00  0.00    -0.031 C 
BRANCH  12  13
ATOM     13  C   UNL     1     -46.594 -28.600  -8.882  1.00  0.00     0.027 C 
BRANCH  13  14
ATOM     14  C   UNL     1     -45.854 -27.832  -9.988  1.00  0.00     0.004 C 
BRANCH  14  15
ATOM     15  C   UNL     1     -44.337 -27.739  -9.743  1.00  0.00     0.000 C 
BRANCH  15  16
ATOM     16  C   UNL     1     -43.581 -29.076  -9.846  1.00  0.00    -0.000 C 
BRANCH  16  17
ATOM     17  C   UNL     1     -42.507 -29.241  -8.762  1.00  0.00    -0.003 C 
ATOM     18  C   UNL     1     -42.731 -28.264  -7.611  1.00  0.00     0.004 C 
ENDBRANCH  16  17
ENDBRANCH  15  16
ENDBRANCH  14  15
ENDBRANCH  13  14
ENDBRANCH  12  13
ENDBRANCH  10  11
ENDBRANCH   1  10
TORSDOF 13
ENDMDL
MODEL 9
REMARK VINA RESULT:    -3.316      2.641      7.831
REMARK INTER + INTRA:          -7.072
REMARK INTER:                  -5.963
REMARK INTRA:                  -1.109
REMARK UNBOUND:                -1.236
REMARK SMILES CCCCCCC=CCCCCCCCC(=O)[O-]
REMARK SMILES IDX 10 1 11 2 12 3 13 4 14 5 15 6 16 7 17 8 18 9 9 10 8 11 7 12
REMARK SMILES IDX 6 13 5 14 4 15 3 16 2 17 1 18
REMARK H PARENT
REMARK Flexibility Score: inf
ROOT
ATOM      1  C   UNL     1     -43.896 -28.231  -0.210  1.00  0.00     0.004 C 
ENDROOT
BRANCH   1   2
ATOM      2  C   UNL     1     -44.461 -29.638   0.053  1.00  0.00     0.000 C 
BRANCH   2   3
ATOM      3  C   UNL     1     -45.231 -29.792   1.377  1.00  0.00     0.000 C 
BRANCH   3   4
ATOM      4  C   UNL     1     -46.358 -28.758   1.539  1.00  0.00     0.000 C 
BRANCH   4   5
ATOM      5  C   UNL     1     -46.304 -28.037   2.901  1.00  0.00     0.006 C 
BRANCH   5   6
ATOM      6  C   UNL     1     -46.776 -26.576   2.842  1.00  0.00     0.053 C 
BRANCH   6   7
ATOM      7  C   UNL     1     -46.311 -25.878   1.601  1.00  0.00     0.041 C 
ATOM      8  O   UNL     1     -47.125 -25.618   0.677  1.00  0.00    -0.550 OA
ATOM      9  O   UNL     1     -44.982 -25.491   1.479  1.00  0.00    -0.550 OA
ENDBRANCH   6   7
ENDBRANCH   5   6
ENDBRANCH   4   5
ENDBRANCH   3   4
ENDBRANCH   2   3
ENDBRANCH   1   2
BRANCH   1  10
ATOM     10  C   UNL     1     -44.593 -27.515  -1.376  1.00  0.00     0.027 C 
BRANCH  10  11
ATOM     11  C   UNL     1     -45.371 -28.487  -2.219  1.00  0.00    -0.031 C 
ATOM     12  C   UNL     1     -45.872 -28.137  -3.413  1.00  0.00    -0.031 C 
BRANCH  12  13
ATOM     13  C   UNL     1     -46.631 -29.115  -4.266  1.00  0.00     0.027 C 
BRANCH  13  14
ATOM     14  C   UNL     1     -46.082 -29.140  -5.700  1.00  0.00     0.004 C 
BRANCH  14  15
ATOM     15  C   UNL     1     -44.942 -28.130  -5.924  1.00  0.00     0.000 C 
BRANCH  15  16
ATOM     16  C   UNL     1     -44.841 -27.573  -7.355  1.00  0.00    -0.000 C 
BRANCH  16  17
ATOM     17  C   UNL     1     -43.433 -27.710  -7.953  1.00  0.00    -0.003 C 
ATOM     18  C   UNL     1     -42.947 -29.156  -7.890  1.00  0.00     0.004 C 
ENDBRANCH  16  17
ENDBRANCH  15  16
ENDBRANCH  14  15
ENDBRANCH  13  14
ENDBRANCH  12  13
ENDBRANCH  10  11
ENDBRANCH   1  10
TORSDOF 13
ENDMDL
