MODEL 1
REMARK VINA RESULT:    -3.770      0.000      0.000
REMARK INTER + INTRA:          -4.527
REMARK INTER:                  -4.431
REMARK INTRA:                  -0.095
REMARK UNBOUND:                -0.095
REMARK SMILES CCCCC(=O)[O-]
REMARK SMILES IDX 4 1 5 2 6 3 7 4 3 5 2 6 1 7
REMARK H PARENT
REMARK Flexibility Score: inf
ROOT
ATOM      1  C   UNL     1      -6.258  -3.941 -13.478  1.00  0.00     0.053 C 
ENDROOT
BRANCH   1   2
ATOM      2  C   UNL     1      -6.616  -3.349 -12.149  1.00  0.00     0.041 C 
ATOM      3  O   UNL     1      -7.025  -2.159 -12.072  1.00  0.00    -0.550 OA
ATOM      4  O   UNL     1      -6.527  -4.120 -10.997  1.00  0.00    -0.550 OA
ENDBRANCH   1   2
BRANCH   1   5
ATOM      5  C   UNL     1      -7.393  -4.792 -14.074  1.00  0.00     0.006 C 
BRANCH   5   6
ATOM      6  C   UNL     1      -6.984  -6.241 -14.393  1.00  0.00    -0.003 C 
ATOM      7  C   UNL     1      -6.585  -7.041 -13.154  1.00  0.00     0.004 C 
ENDBRANCH   5   6
ENDBRANCH   1   5
TORSDOF 3
ENDMDL
MODEL 2
REMARK VINA RESULT:    -3.623      2.439      2.891
REMARK INTER + INTRA:          -4.354
REMARK INTER:                  -4.302
REMARK INTRA:                  -0.052
REMARK UNBOUND:                -0.095
REMARK SMILES CCCCC(=O)[O-]
REMARK SMILES IDX 4 1 5 2 6 3 7 4 3 5 2 6 1 7
REMARK H PARENT
REMARK Flexibility Score: inf
ROOT
ATOM      1  C   UNL     1      -7.750  -5.315 -12.551  1.00  0.00     0.053 C 
ENDROOT
BRANCH   1   2
ATOM      2  C   UNL     1      -6.681  -4.735 -13.427  1.00  0.00     0.041 C 
ATOM      3  O   UNL     1      -6.697  -4.940 -14.670  1.00  0.00    -0.550 OA
ATOM      4  O   UNL     1      -5.683  -3.943 -12.874  1.00  0.00    -0.550 OA
ENDBRANCH   1   2
BRANCH   1   5
ATOM      5  C   UNL     1      -7.344  -5.358 -11.067  1.00  0.00     0.006 C 
BRANCH   5   6
ATOM      6  C   UNL     1      -7.646  -6.701 -10.377  1.00  0.00    -0.003 C 
ATOM      7  C   UNL     1      -7.500  -7.903 -11.310  1.00  0.00     0.004 C 
ENDBRANCH   5   6
ENDBRANCH   1   5
TORSDOF 3
ENDMDL
MODEL 3
REMARK VINA RESULT:    -3.613     12.054     12.574
REMARK INTER + INTRA:          -4.341
REMARK INTER:                  -4.234
REMARK INTRA:                  -0.107
REMARK UNBOUND:                -0.095
REMARK SMILES CCCCC(=O)[O-]
REMARK SMILES IDX 4 1 5 2 6 3 7 4 3 5 2 6 1 7
REMARK H PARENT
REMARK Flexibility Score: inf
ROOT
ATOM      1  C   UNL     1       4.271  -1.497 -13.905  1.00  0.00     0.053 C 
ENDROOT
BRANCH   1   2
ATOM      2  C   UNL     1       5.186  -0.320 -14.054  1.00  0.00     0.041 C 
ATOM      3  O   UNL     1       6.371  -0.378 -13.629  1.00  0.00    -0.550 OA
ATOM      4  O   UNL     1       4.740   0.831 -14.690  1.00  0.00    -0.550 OA
ENDBRANCH   1   2
BRANCH   1   5
ATOM      5  C   UNL     1       4.929  -2.820 -14.335  1.00  0.00     0.006 C 
BRANCH   5   6
ATOM      6  C   UNL     1       5.056  -3.852 -13.199  1.00  0.00    -0.003 C 
ATOM      7  C   UNL     1       6.393  -3.774 -12.462  1.00  0.00     0.004 C 
ENDBRANCH   5   6
ENDBRANCH   1   5
TORSDOF 3
ENDMDL
MODEL 4
REMARK VINA RESULT:    -3.594      2.496      2.996
REMARK INTER + INTRA:          -4.320
REMARK INTER:                  -4.261
REMARK INTRA:                  -0.059
REMARK UNBOUND:                -0.095
REMARK SMILES CCCCC(=O)[O-]
REMARK SMILES IDX 4 1 5 2 6 3 7 4 3 5 2 6 1 7
REMARK H PARENT
REMARK Flexibility Score: inf
ROOT
ATOM      1  C   UNL     1      -7.703  -5.367 -12.464  1.00  0.00     0.053 C 
ENDROOT
BRANCH   1   2
ATOM      2  C   UNL     1      -6.638  -4.773 -13.334  1.00  0.00     0.041 C 
ATOM      3  O   UNL     1      -5.691  -4.118 -12.822  1.00  0.00    -0.550 OA
ATOM      4  O   UNL     1      -6.673  -4.969 -14.709  1.00  0.00    -0.550 OA
ENDBRANCH   1   2
BRANCH   1   5
ATOM      5  C   UNL     1      -7.353  -5.302 -10.967  1.00  0.00     0.006 C 
BRANCH   5   6
ATOM      6  C   UNL     1      -7.521  -6.643 -10.229  1.00  0.00    -0.003 C 
ATOM      7  C   UNL     1      -7.715  -7.829 -11.172  1.00  0.00     0.004 C 
ENDBRANCH   5   6
ENDBRANCH   1   5
TORSDOF 3
ENDMDL
MODEL 5
REMARK VINA RESULT:    -3.591      2.694      3.689
REMARK INTER + INTRA:          -4.316
REMARK INTER:                  -4.273
REMARK INTRA:                  -0.042
REMARK UNBOUND:                -0.095
REMARK SMILES CCCCC(=O)[O-]
REMARK SMILES IDX 4 1 5 2 6 3 7 4 3 5 2 6 1 7
REMARK H PARENT
REMARK Flexibility Score: inf
ROOT
ATOM      1  C   UNL     1      -7.377  -5.908 -14.444  1.00  0.00     0.053 C 
ENDROOT
BRANCH   1   2
ATOM      2  C   UNL     1      -8.781  -6.236 -14.037  1.00  0.00     0.041 C 
ATOM      3  O   UNL     1      -9.740  -6.007 -14.821  1.00  0.00    -0.550 OA
ATOM      4  O   UNL     1      -9.029  -6.821 -12.802  1.00  0.00    -0.550 OA
ENDBRANCH   1   2
BRANCH   1   5
ATOM      5  C   UNL     1      -6.536  -5.350 -13.282  1.00  0.00     0.006 C 
BRANCH   5   6
ATOM      6  C   UNL     1      -6.192  -3.856 -13.423  1.00  0.00    -0.003 C 
ATOM      7  C   UNL     1      -6.761  -2.999 -12.293  1.00  0.00     0.004 C 
ENDBRANCH   5   6
ENDBRANCH   1   5
TORSDOF 3
ENDMDL
MODEL 6
REMARK VINA RESULT:    -3.580     11.497     12.284
REMARK INTER + INTRA:          -4.303
REMARK INTER:                  -4.273
REMARK INTRA:                  -0.030
REMARK UNBOUND:                -0.095
REMARK SMILES CCCCC(=O)[O-]
REMARK SMILES IDX 4 1 5 2 6 3 7 4 3 5 2 6 1 7
REMARK H PARENT
REMARK Flexibility Score: inf
ROOT
ATOM      1  C   UNL     1       4.986  -2.783 -14.397  1.00  0.00     0.053 C 
ENDROOT
BRANCH   1   2
ATOM      2  C   UNL     1       5.651  -3.589 -13.324  1.00  0.00     0.041 C 
ATOM      3  O   UNL     1       5.147  -4.679 -12.943  1.00  0.00    -0.550 OA
ATOM      4  O   UNL     1       6.844  -3.152 -12.764  1.00  0.00    -0.550 OA
ENDBRANCH   1   2
BRANCH   1   5
ATOM      5  C   UNL     1       4.878  -1.290 -14.039  1.00  0.00     0.006 C 
BRANCH   5   6
ATOM      6  C   UNL     1       3.468  -0.854 -13.601  1.00  0.00    -0.003 C 
ATOM      7  C   UNL     1       2.687  -0.146 -14.706  1.00  0.00     0.004 C 
ENDBRANCH   5   6
ENDBRANCH   1   5
TORSDOF 3
ENDMDL
MODEL 7
REMARK VINA RESULT:    -3.508      1.800      2.190
REMARK INTER + INTRA:          -4.218
REMARK INTER:                  -4.174
REMARK INTRA:                  -0.044
REMARK UNBOUND:                -0.095
REMARK SMILES CCCCC(=O)[O-]
REMARK SMILES IDX 4 1 5 2 6 3 7 4 3 5 2 6 1 7
REMARK H PARENT
REMARK Flexibility Score: inf
ROOT
ATOM      1  C   UNL     1      -7.427  -5.497 -10.549  1.00  0.00     0.053 C 
ENDROOT
BRANCH   1   2
ATOM      2  C   UNL     1      -6.645  -4.241 -10.311  1.00  0.00     0.041 C 
ATOM      3  O   UNL     1      -6.643  -3.321 -11.171  1.00  0.00    -0.550 OA
ATOM      4  O   UNL     1      -5.943  -4.073  -9.124  1.00  0.00    -0.550 OA
ENDBRANCH   1   2
BRANCH   1   5
ATOM      5  C   UNL     1      -7.892  -5.640 -12.009  1.00  0.00     0.006 C 
BRANCH   5   6
ATOM      6  C   UNL     1      -6.819  -6.219 -12.950  1.00  0.00    -0.003 C 
ATOM      7  C   UNL     1      -6.867  -5.620 -14.355  1.00  0.00     0.004 C 
ENDBRANCH   5   6
ENDBRANCH   1   5
TORSDOF 3
ENDMDL
MODEL 8
REMARK VINA RESULT:    -3.501      1.363      1.836
REMARK INTER + INTRA:          -4.210
REMARK INTER:                  -4.103
REMARK INTRA:                  -0.107
REMARK UNBOUND:                -0.095
REMARK SMILES CCCCC(=O)[O-]
REMARK SMILES IDX 4 1 5 2 6 3 7 4 3 5 2 6 1 7
REMARK H PARENT
REMARK Flexibility Score: inf
ROOT
ATOM      1  C   UNL     1      -6.831  -3.638 -12.154  1.00  0.00     0.053 C 
ENDROOT
BRANCH   1   2
ATOM      2  C   UNL     1      -6.926  -4.438 -10.891  1.00  0.00     0.041 C 
ATOM      3  O   UNL     1      -6.258  -4.106  -9.876  1.00  0.00    -0.550 OA
ATOM      4  O   UNL     1      -7.777  -5.535 -10.826  1.00  0.00    -0.550 OA
ENDBRANCH   1   2
BRANCH   1   5
ATOM      5  C   UNL     1      -6.064  -4.373 -13.267  1.00  0.00     0.006 C 
BRANCH   5   6
ATOM      6  C   UNL     1      -6.972  -5.000 -14.341  1.00  0.00    -0.003 C 
ATOM      7  C   UNL     1      -7.170  -6.504 -14.158  1.00  0.00     0.004 C 
ENDBRANCH   5   6
ENDBRANCH   1   5
TORSDOF 3
ENDMDL
MODEL 9
REMARK VINA RESULT:    -3.397     10.312     12.018
REMARK INTER + INTRA:          -4.087
REMARK INTER:                  -4.072
REMARK INTRA:                  -0.015
REMARK UNBOUND:                -0.095
REMARK SMILES CCCCC(=O)[O-]
REMARK SMILES IDX 4 1 5 2 6 3 7 4 3 5 2 6 1 7
REMARK H PARENT
REMARK Flexibility Score: inf
ROOT
ATOM      1  C   UNL     1      -7.424   6.362 -12.685  1.00  0.00     0.053 C 
ENDROOT
BRANCH   1   2
ATOM      2  C   UNL     1      -6.200   5.705 -13.246  1.00  0.00     0.041 C 
ATOM      3  O   UNL     1      -5.054   6.126 -12.937  1.00  0.00    -0.550 OA
ATOM      4  O   UNL     1      -6.325   4.607 -14.088  1.00  0.00    -0.550 OA
ENDBRANCH   1   2
BRANCH   1   5
ATOM      5  C   UNL     1      -7.851   7.605 -13.485  1.00  0.00     0.006 C 
BRANCH   5   6
ATOM      6  C   UNL     1      -9.037   8.368 -12.866  1.00  0.00    -0.003 C 
ATOM      7  C   UNL     1      -8.645   9.732 -12.302  1.00  0.00     0.004 C 
ENDBRANCH   5   6
ENDBRANCH   1   5
TORSDOF 3
ENDMDL
