MODEL 1
REMARK VINA RESULT:    -5.319      0.000      0.000
REMARK INTER + INTRA:         -13.067
REMARK INTER:                 -10.295
REMARK INTRA:                  -2.772
REMARK UNBOUND:                -2.772
REMARK SMILES CCCCCC=CCC=CCCCCCCCCOC(C)=O
REMARK SMILES IDX 12 1 11 2 10 3 9 4 8 5 7 6 6 7 5 8 4 9 3 10 2 11 1 12 13 13
REMARK SMILES IDX 14 14 15 15 16 16 17 17 18 18 19 19 20 20 22 21 21 22
REMARK H PARENT
REMARK Flexibility Score: inf
ROOT
ATOM      1  C   UNL     1      31.902  -1.083  16.791  1.00  0.00     0.004 C 
ENDROOT
BRANCH   1   2
ATOM      2  C   UNL     1      31.787   0.215  17.606  1.00  0.00     0.027 C 
BRANCH   2   3
ATOM      3  C   UNL     1      33.010   1.070  17.431  1.00  0.00    -0.031 C 
ATOM      4  C   UNL     1      33.500   1.353  16.215  1.00  0.00    -0.027 C 
BRANCH   4   5
ATOM      5  C   UNL     1      34.721   2.209  16.043  1.00  0.00     0.054 C 
BRANCH   5   6
ATOM      6  C   UNL     1      35.604   2.102  17.261  1.00  0.00    -0.027 C 
ATOM      7  C   UNL     1      36.828   1.541  17.287  1.00  0.00    -0.031 C 
BRANCH   7   8
ATOM      8  C   UNL     1      37.501   0.879  16.111  1.00  0.00     0.027 C 
BRANCH   8   9
ATOM      9  C   UNL     1      37.408  -0.652  16.214  1.00  0.00     0.004 C 
BRANCH   9  10
ATOM     10  C   UNL     1      36.113  -1.201  15.580  1.00  0.00     0.000 C 
BRANCH  10  11
ATOM     11  C   UNL     1      35.353  -2.185  16.486  1.00  0.00    -0.003 C 
ATOM     12  C   UNL     1      35.380  -1.783  17.958  1.00  0.00     0.004 C 
ENDBRANCH  10  11
ENDBRANCH   9  10
ENDBRANCH   8   9
ENDBRANCH   7   8
ENDBRANCH   5   6
ENDBRANCH   4   5
ENDBRANCH   2   3
ENDBRANCH   1   2
BRANCH   1  13
ATOM     13  C   UNL     1      30.677  -1.996  16.957  1.00  0.00     0.000 C 
BRANCH  13  14
ATOM     14  C   UNL     1      29.540  -1.644  15.984  1.00  0.00     0.000 C 
BRANCH  14  15
ATOM     15  C   UNL     1      28.153  -1.674  16.650  1.00  0.00     0.000 C 
BRANCH  15  16
ATOM     16  C   UNL     1      28.137  -1.079  18.074  1.00  0.00     0.003 C 
BRANCH  16  17
ATOM     17  C   UNL     1      27.355  -1.958  19.063  1.00  0.00     0.042 C 
BRANCH  17  18
ATOM     18  C   UNL     1      26.873  -3.247  18.394  1.00  0.00     0.233 C 
BRANCH  18  19
ATOM     19  O   UNL     1      27.515  -4.383  18.970  1.00  0.00    -0.466 OA
BRANCH  19  20
ATOM     20  C   UNL     1      28.779  -4.835  18.578  1.00  0.00     0.302 C 
ATOM     21  O   UNL     1      29.767  -4.753  19.358  1.00  0.00    -0.253 OA
ATOM     22  C   UNL     1      28.968  -5.379  17.203  1.00  0.00     0.139 C 
ENDBRANCH  19  20
ENDBRANCH  18  19
ENDBRANCH  17  18
ENDBRANCH  16  17
ENDBRANCH  15  16
ENDBRANCH  14  15
ENDBRANCH  13  14
ENDBRANCH   1  13
TORSDOF 16
ENDMDL
MODEL 2
REMARK VINA RESULT:    -5.303      1.356      3.150
REMARK INTER + INTRA:         -13.035
REMARK INTER:                 -10.349
REMARK INTRA:                  -2.686
REMARK UNBOUND:                -2.772
REMARK SMILES CCCCCC=CCC=CCCCCCCCCOC(C)=O
REMARK SMILES IDX 12 1 11 2 10 3 9 4 8 5 7 6 6 7 5 8 4 9 3 10 2 11 1 12 13 13
REMARK SMILES IDX 14 14 15 15 16 16 17 17 18 18 19 19 20 20 22 21 21 22
REMARK H PARENT
REMARK Flexibility Score: inf
ROOT
ATOM      1  C   UNL     1      30.757  -0.447  17.401  1.00  0.00     0.004 C 
ENDROOT
BRANCH   1   2
ATOM      2  C   UNL     1      31.650  -1.589  17.909  1.00  0.00     0.027 C 
BRANCH   2   3
ATOM      3  C   UNL     1      33.040  -1.474  17.350  1.00  0.00    -0.031 C 
ATOM      4  C   UNL     1      34.101  -1.983  17.996  1.00  0.00    -0.027 C 
BRANCH   4   5
ATOM      5  C   UNL     1      35.488  -1.867  17.435  1.00  0.00     0.054 C 
BRANCH   5   6
ATOM      6  C   UNL     1      35.432  -1.748  15.933  1.00  0.00    -0.027 C 
ATOM      7  C   UNL     1      36.120  -0.854  15.198  1.00  0.00    -0.031 C 
BRANCH   7   8
ATOM      8  C   UNL     1      37.027   0.211  15.759  1.00  0.00     0.027 C 
BRANCH   8   9
ATOM      9  C   UNL     1      36.313   1.572  15.809  1.00  0.00     0.004 C 
BRANCH   9  10
ATOM     10  C   UNL     1      35.800   1.909  17.225  1.00  0.00     0.000 C 
BRANCH  10  11
ATOM     11  C   UNL     1      34.267   1.919  17.338  1.00  0.00    -0.003 C 
ATOM     12  C   UNL     1      33.568   1.903  15.981  1.00  0.00     0.004 C 
ENDBRANCH  10  11
ENDBRANCH   9  10
ENDBRANCH   8   9
ENDBRANCH   7   8
ENDBRANCH   5   6
ENDBRANCH   4   5
ENDBRANCH   2   3
ENDBRANCH   1   2
BRANCH   1  13
ATOM     13  C   UNL     1      29.295  -0.882  17.207  1.00  0.00     0.000 C 
BRANCH  13  14
ATOM     14  C   UNL     1      29.162  -2.145  16.341  1.00  0.00     0.000 C 
BRANCH  14  15
ATOM     15  C   UNL     1      27.933  -2.994  16.707  1.00  0.00     0.000 C 
BRANCH  15  16
ATOM     16  C   UNL     1      28.191  -4.515  16.649  1.00  0.00     0.003 C 
BRANCH  16  17
ATOM     17  C   UNL     1      29.361  -4.942  17.549  1.00  0.00     0.042 C 
BRANCH  17  18
ATOM     18  C   UNL     1      28.975  -4.864  19.028  1.00  0.00     0.233 C 
BRANCH  18  19
ATOM     19  O   UNL     1      29.649  -3.782  19.667  1.00  0.00    -0.466 OA
BRANCH  19  20
ATOM     20  C   UNL     1      28.990  -2.784  20.393  1.00  0.00     0.302 C 
ATOM     21  O   UNL     1      29.610  -1.767  20.805  1.00  0.00    -0.253 OA
ATOM     22  C   UNL     1      27.546  -2.951  20.720  1.00  0.00     0.139 C 
ENDBRANCH  19  20
ENDBRANCH  18  19
ENDBRANCH  17  18
ENDBRANCH  16  17
ENDBRANCH  15  16
ENDBRANCH  14  15
ENDBRANCH  13  14
ENDBRANCH   1  13
TORSDOF 16
ENDMDL
MODEL 3
REMARK VINA RESULT:    -5.300      1.629      2.278
REMARK INTER + INTRA:         -13.029
REMARK INTER:                 -10.159
REMARK INTRA:                  -2.871
REMARK UNBOUND:                -2.772
REMARK SMILES CCCCCC=CCC=CCCCCCCCCOC(C)=O
REMARK SMILES IDX 12 1 11 2 10 3 9 4 8 5 7 6 6 7 5 8 4 9 3 10 2 11 1 12 13 13
REMARK SMILES IDX 14 14 15 15 16 16 17 17 18 18 19 19 20 20 22 21 21 22
REMARK H PARENT
REMARK Flexibility Score: inf
ROOT
ATOM      1  C   UNL     1      31.880  -0.783  18.331  1.00  0.00     0.004 C 
ENDROOT
BRANCH   1   2
ATOM      2  C   UNL     1      31.807   0.246  17.192  1.00  0.00     0.027 C 
BRANCH   2   3
ATOM      3  C   UNL     1      33.048   1.091  17.151  1.00  0.00    -0.031 C 
ATOM      4  C   UNL     1      33.654   1.392  15.992  1.00  0.00    -0.027 C 
BRANCH   4   5
ATOM      5  C   UNL     1      34.894   2.237  15.953  1.00  0.00     0.054 C 
BRANCH   5   6
ATOM      6  C   UNL     1      35.720   2.004  17.193  1.00  0.00    -0.027 C 
ATOM      7  C   UNL     1      36.834   1.250  17.253  1.00  0.00    -0.031 C 
BRANCH   7   8
ATOM      8  C   UNL     1      37.415   0.472  16.100  1.00  0.00     0.027 C 
BRANCH   8   9
ATOM      9  C   UNL     1      37.206  -1.038  16.293  1.00  0.00     0.004 C 
BRANCH   9  10
ATOM     10  C   UNL     1      35.836  -1.509  15.762  1.00  0.00     0.000 C 
BRANCH  10  11
ATOM     11  C   UNL     1      34.993  -2.256  16.809  1.00  0.00    -0.003 C 
ATOM     12  C   UNL     1      35.384  -1.915  18.244  1.00  0.00     0.004 C 
ENDBRANCH  10  11
ENDBRANCH   9  10
ENDBRANCH   8   9
ENDBRANCH   7   8
ENDBRANCH   5   6
ENDBRANCH   4   5
ENDBRANCH   2   3
ENDBRANCH   1   2
BRANCH   1  13
ATOM     13  C   UNL     1      31.232  -2.126  17.956  1.00  0.00     0.000 C 
BRANCH  13  14
ATOM     14  C   UNL     1      30.444  -2.057  16.638  1.00  0.00     0.000 C 
BRANCH  14  15
ATOM     15  C   UNL     1      29.261  -3.039  16.597  1.00  0.00     0.000 C 
BRANCH  15  16
ATOM     16  C   UNL     1      27.967  -2.425  16.020  1.00  0.00     0.003 C 
BRANCH  16  17
ATOM     17  C   UNL     1      26.714  -2.891  16.776  1.00  0.00     0.042 C 
BRANCH  17  18
ATOM     18  C   UNL     1      26.694  -2.337  18.204  1.00  0.00     0.233 C 
BRANCH  18  19
ATOM     19  O   UNL     1      27.057  -0.958  18.213  1.00  0.00    -0.466 OA
BRANCH  19  20
ATOM     20  C   UNL     1      28.032  -0.424  19.062  1.00  0.00     0.302 C 
ATOM     21  O   UNL     1      28.551   0.700  18.826  1.00  0.00    -0.253 OA
ATOM     22  C   UNL     1      28.492  -1.216  20.238  1.00  0.00     0.139 C 
ENDBRANCH  19  20
ENDBRANCH  18  19
ENDBRANCH  17  18
ENDBRANCH  16  17
ENDBRANCH  15  16
ENDBRANCH  14  15
ENDBRANCH  13  14
ENDBRANCH   1  13
TORSDOF 16
ENDMDL
MODEL 4
REMARK VINA RESULT:    -5.264      3.682      8.657
REMARK INTER + INTRA:         -12.959
REMARK INTER:                 -10.647
REMARK INTRA:                  -2.312
REMARK UNBOUND:                -2.772
REMARK SMILES CCCCCC=CCC=CCCCCCCCCOC(C)=O
REMARK SMILES IDX 12 1 11 2 10 3 9 4 8 5 7 6 6 7 5 8 4 9 3 10 2 11 1 12 13 13
REMARK SMILES IDX 14 14 15 15 16 16 17 17 18 18 19 19 20 20 22 21 21 22
REMARK H PARENT
REMARK Flexibility Score: inf
ROOT
ATOM      1  C   UNL     1      32.253  -1.868  17.747  1.00  0.00     0.004 C 
ENDROOT
BRANCH   1   2
ATOM      2  C   UNL     1      31.387  -1.100  16.736  1.00  0.00     0.027 C 
BRANCH   2   3
ATOM      3  C   UNL     1      29.934  -1.446  16.902  1.00  0.00    -0.031 C 
ATOM      4  C   UNL     1      29.147  -1.695  15.844  1.00  0.00    -0.027 C 
BRANCH   4   5
ATOM      5  C   UNL     1      27.696  -2.041  16.012  1.00  0.00     0.054 C 
BRANCH   5   6
ATOM      6  C   UNL     1      27.438  -3.446  15.527  1.00  0.00    -0.027 C 
ATOM      7  C   UNL     1      27.423  -4.545  16.305  1.00  0.00    -0.031 C 
BRANCH   7   8
ATOM      8  C   UNL     1      27.711  -4.561  17.785  1.00  0.00     0.027 C 
BRANCH   8   9
ATOM      9  C   UNL     1      29.162  -4.986  18.060  1.00  0.00     0.004 C 
BRANCH   9  10
ATOM     10  C   UNL     1      29.765  -4.247  19.273  1.00  0.00     0.000 C 
BRANCH  10  11
ATOM     11  C   UNL     1      28.756  -3.355  20.014  1.00  0.00    -0.003 C 
ATOM     12  C   UNL     1      29.378  -2.069  20.552  1.00  0.00     0.004 C 
ENDBRANCH  10  11
ENDBRANCH   9  10
ENDBRANCH   8   9
ENDBRANCH   7   8
ENDBRANCH   5   6
ENDBRANCH   4   5
ENDBRANCH   2   3
ENDBRANCH   1   2
BRANCH   1  13
ATOM     13  C   UNL     1      33.453  -1.044  18.242  1.00  0.00     0.000 C 
BRANCH  13  14
ATOM     14  C   UNL     1      34.715  -1.899  18.445  1.00  0.00     0.000 C 
BRANCH  14  15
ATOM     15  C   UNL     1      35.874  -1.481  17.525  1.00  0.00     0.000 C 
BRANCH  15  16
ATOM     16  C   UNL     1      35.602  -1.741  16.028  1.00  0.00     0.003 C 
BRANCH  16  17
ATOM     17  C   UNL     1      35.936  -0.522  15.155  1.00  0.00     0.042 C 
BRANCH  17  18
ATOM     18  C   UNL     1      36.122   0.734  16.010  1.00  0.00     0.233 C 
BRANCH  18  19
ATOM     19  O   UNL     1      37.253   1.481  15.565  1.00  0.00    -0.466 OA
BRANCH  19  20
ATOM     20  C   UNL     1      38.542   0.944  15.471  1.00  0.00     0.302 C 
ATOM     21  O   UNL     1      39.147   0.904  14.366  1.00  0.00    -0.253 OA
ATOM     22  C   UNL     1      39.187   0.373  16.687  1.00  0.00     0.139 C 
ENDBRANCH  19  20
ENDBRANCH  18  19
ENDBRANCH  17  18
ENDBRANCH  16  17
ENDBRANCH  15  16
ENDBRANCH  14  15
ENDBRANCH  13  14
ENDBRANCH   1  13
TORSDOF 16
ENDMDL
MODEL 5
REMARK VINA RESULT:    -5.246      3.442      8.313
REMARK INTER + INTRA:         -12.926
REMARK INTER:                 -10.341
REMARK INTRA:                  -2.585
REMARK UNBOUND:                -2.772
REMARK SMILES CCCCCC=CCC=CCCCCCCCCOC(C)=O
REMARK SMILES IDX 12 1 11 2 10 3 9 4 8 5 7 6 6 7 5 8 4 9 3 10 2 11 1 12 13 13
REMARK SMILES IDX 14 14 15 15 16 16 17 17 18 18 19 19 20 20 22 21 21 22
REMARK H PARENT
REMARK Flexibility Score: inf
ROOT
ATOM      1  C   UNL     1      32.397  -0.089  17.331  1.00  0.00     0.004 C 
ENDROOT
BRANCH   1   2
ATOM      2  C   UNL     1      31.004  -0.736  17.374  1.00  0.00     0.027 C 
BRANCH   2   3
ATOM      3  C   UNL     1      30.770  -1.420  18.691  1.00  0.00    -0.031 C 
ATOM      4  C   UNL     1      29.688  -1.154  19.439  1.00  0.00    -0.027 C 
BRANCH   4   5
ATOM      5  C   UNL     1      29.456  -1.839  20.754  1.00  0.00     0.054 C 
BRANCH   5   6
ATOM      6  C   UNL     1      28.244  -2.733  20.665  1.00  0.00    -0.027 C 
ATOM      7  C   UNL     1      28.244  -3.999  20.207  1.00  0.00    -0.031 C 
BRANCH   7   8
ATOM      8  C   UNL     1      29.449  -4.720  19.658  1.00  0.00     0.027 C 
BRANCH   8   9
ATOM      9  C   UNL     1      29.372  -4.835  18.128  1.00  0.00     0.004 C 
BRANCH   9  10
ATOM     10  C   UNL     1      28.034  -4.308  17.570  1.00  0.00     0.000 C 
BRANCH  10  11
ATOM     11  C   UNL     1      28.199  -3.199  16.518  1.00  0.00    -0.003 C 
ATOM     12  C   UNL     1      27.303  -1.991  16.778  1.00  0.00     0.004 C 
ENDBRANCH  10  11
ENDBRANCH   9  10
ENDBRANCH   8   9
ENDBRANCH   7   8
ENDBRANCH   5   6
ENDBRANCH   4   5
ENDBRANCH   2   3
ENDBRANCH   1   2
BRANCH   1  13
ATOM     13  C   UNL     1      33.184  -0.294  18.635  1.00  0.00     0.000 C 
BRANCH  13  14
ATOM     14  C   UNL     1      34.481  -1.093  18.425  1.00  0.00     0.000 C 
BRANCH  14  15
ATOM     15  C   UNL     1      34.382  -2.097  17.264  1.00  0.00     0.000 C 
BRANCH  15  16
ATOM     16  C   UNL     1      35.558  -2.009  16.268  1.00  0.00     0.003 C 
BRANCH  16  17
ATOM     17  C   UNL     1      35.354  -0.901  15.222  1.00  0.00     0.042 C 
BRANCH  17  18
ATOM     18  C   UNL     1      36.615  -0.045  15.073  1.00  0.00     0.233 C 
BRANCH  18  19
ATOM     19  O   UNL     1      37.557  -0.356  16.098  1.00  0.00    -0.466 OA
BRANCH  19  20
ATOM     20  C   UNL     1      37.994   0.571  17.050  1.00  0.00     0.302 C 
ATOM     21  O   UNL     1      39.208   0.637  17.380  1.00  0.00    -0.253 OA
ATOM     22  C   UNL     1      36.999   1.461  17.715  1.00  0.00     0.139 C 
ENDBRANCH  19  20
ENDBRANCH  18  19
ENDBRANCH  17  18
ENDBRANCH  16  17
ENDBRANCH  15  16
ENDBRANCH  14  15
ENDBRANCH  13  14
ENDBRANCH   1  13
TORSDOF 16
ENDMDL
MODEL 6
REMARK VINA RESULT:    -5.246      1.243      2.631
REMARK INTER + INTRA:         -12.925
REMARK INTER:                 -10.271
REMARK INTRA:                  -2.654
REMARK UNBOUND:                -2.772
REMARK SMILES CCCCCC=CCC=CCCCCCCCCOC(C)=O
REMARK SMILES IDX 12 1 11 2 10 3 9 4 8 5 7 6 6 7 5 8 4 9 3 10 2 11 1 12 13 13
REMARK SMILES IDX 14 14 15 15 16 16 17 17 18 18 19 19 20 20 22 21 21 22
REMARK H PARENT
REMARK Flexibility Score: inf
ROOT
ATOM      1  C   UNL     1      31.319  -1.054  16.745  1.00  0.00     0.004 C 
ENDROOT
BRANCH   1   2
ATOM      2  C   UNL     1      32.110  -1.767  17.853  1.00  0.00     0.027 C 
BRANCH   2   3
ATOM      3  C   UNL     1      33.576  -1.809  17.525  1.00  0.00    -0.031 C 
ATOM      4  C   UNL     1      34.511  -1.794  18.488  1.00  0.00    -0.027 C 
BRANCH   4   5
ATOM      5  C   UNL     1      35.974  -1.837  18.159  1.00  0.00     0.054 C 
BRANCH   5   6
ATOM      6  C   UNL     1      36.181  -1.597  16.684  1.00  0.00    -0.027 C 
ATOM      7  C   UNL     1      36.736  -0.494  16.146  1.00  0.00    -0.031 C 
BRANCH   7   8
ATOM      8  C   UNL     1      37.199   0.709  16.927  1.00  0.00     0.027 C 
BRANCH   8   9
ATOM      9  C   UNL     1      36.219   1.882  16.766  1.00  0.00     0.004 C 
BRANCH   9  10
ATOM     10  C   UNL     1      35.222   1.653  15.610  1.00  0.00     0.000 C 
BRANCH  10  11
ATOM     11  C   UNL     1      33.749   1.721  16.046  1.00  0.00    -0.003 C 
ATOM     12  C   UNL     1      33.578   1.812  17.560  1.00  0.00     0.004 C 
ENDBRANCH  10  11
ENDBRANCH   9  10
ENDBRANCH   8   9
ENDBRANCH   7   8
ENDBRANCH   5   6
ENDBRANCH   4   5
ENDBRANCH   2   3
ENDBRANCH   1   2
BRANCH   1  13
ATOM     13  C   UNL     1      30.165  -1.911  16.198  1.00  0.00     0.000 C 
BRANCH  13  14
ATOM     14  C   UNL     1      28.885  -1.095  15.957  1.00  0.00     0.000 C 
BRANCH  14  15
ATOM     15  C   UNL     1      28.703   0.046  16.973  1.00  0.00     0.000 C 
BRANCH  15  16
ATOM     16  C   UNL     1      27.406  -0.067  17.803  1.00  0.00     0.003 C 
BRANCH  16  17
ATOM     17  C   UNL     1      26.659  -1.383  17.540  1.00  0.00     0.042 C 
BRANCH  17  18
ATOM     18  C   UNL     1      26.727  -2.309  18.758  1.00  0.00     0.233 C 
BRANCH  18  19
ATOM     19  O   UNL     1      27.771  -3.268  18.601  1.00  0.00    -0.466 OA
BRANCH  19  20
ATOM     20  C   UNL     1      28.950  -3.254  19.353  1.00  0.00     0.302 C 
ATOM     21  O   UNL     1      29.322  -2.211  19.955  1.00  0.00    -0.253 OA
ATOM     22  C   UNL     1      29.800  -4.478  19.406  1.00  0.00     0.139 C 
ENDBRANCH  19  20
ENDBRANCH  18  19
ENDBRANCH  17  18
ENDBRANCH  16  17
ENDBRANCH  15  16
ENDBRANCH  14  15
ENDBRANCH  13  14
ENDBRANCH   1  13
TORSDOF 16
ENDMDL
MODEL 7
REMARK VINA RESULT:    -5.238      3.048      7.873
REMARK INTER + INTRA:         -12.909
REMARK INTER:                  -9.956
REMARK INTRA:                  -2.953
REMARK UNBOUND:                -2.772
REMARK SMILES CCCCCC=CCC=CCCCCCCCCOC(C)=O
REMARK SMILES IDX 12 1 11 2 10 3 9 4 8 5 7 6 6 7 5 8 4 9 3 10 2 11 1 12 13 13
REMARK SMILES IDX 14 14 15 15 16 16 17 17 18 18 19 19 20 20 22 21 21 22
REMARK H PARENT
REMARK Flexibility Score: inf
ROOT
ATOM      1  C   UNL     1      31.781  -2.035  17.743  1.00  0.00     0.004 C 
ENDROOT
BRANCH   1   2
ATOM      2  C   UNL     1      30.896  -1.452  16.631  1.00  0.00     0.027 C 
BRANCH   2   3
ATOM      3  C   UNL     1      29.538  -1.087  17.161  1.00  0.00    -0.031 C 
ATOM      4  C   UNL     1      29.391  -0.438  18.326  1.00  0.00    -0.027 C 
BRANCH   4   5
ATOM      5  C   UNL     1      28.033  -0.073  18.853  1.00  0.00     0.054 C 
BRANCH   5   6
ATOM      6  C   UNL     1      27.033  -1.142  18.491  1.00  0.00    -0.027 C 
ATOM      7  C   UNL     1      26.739  -2.219  19.244  1.00  0.00    -0.031 C 
BRANCH   7   8
ATOM      8  C   UNL     1      27.399  -2.563  20.555  1.00  0.00     0.027 C 
BRANCH   8   9
ATOM      9  C   UNL     1      28.642  -3.439  20.333  1.00  0.00     0.004 C 
BRANCH   9  10
ATOM     10  C   UNL     1      28.338  -4.671  19.455  1.00  0.00     0.000 C 
BRANCH  10  11
ATOM     11  C   UNL     1      29.278  -4.814  18.247  1.00  0.00    -0.003 C 
ATOM     12  C   UNL     1      28.557  -4.680  16.909  1.00  0.00     0.004 C 
ENDBRANCH  10  11
ENDBRANCH   9  10
ENDBRANCH   8   9
ENDBRANCH   7   8
ENDBRANCH   5   6
ENDBRANCH   4   5
ENDBRANCH   2   3
ENDBRANCH   1   2
BRANCH   1  13
ATOM     13  C   UNL     1      33.160  -1.358  17.817  1.00  0.00     0.000 C 
BRANCH  13  14
ATOM     14  C   UNL     1      33.204  -0.212  18.840  1.00  0.00     0.000 C 
BRANCH  14  15
ATOM     15  C   UNL     1      33.720   1.106  18.239  1.00  0.00     0.000 C 
BRANCH  15  16
ATOM     16  C   UNL     1      33.128   1.427  16.850  1.00  0.00     0.003 C 
BRANCH  16  17
ATOM     17  C   UNL     1      34.216   1.612  15.781  1.00  0.00     0.042 C 
BRANCH  17  18
ATOM     18  C   UNL     1      35.565   1.950  16.421  1.00  0.00     0.233 C 
BRANCH  18  19
ATOM     19  O   UNL     1      36.551   0.987  16.052  1.00  0.00    -0.466 OA
BRANCH  19  20
ATOM     20  C   UNL     1      36.554  -0.331  16.522  1.00  0.00     0.302 C 
ATOM     21  O   UNL     1      36.883  -0.594  17.710  1.00  0.00    -0.253 OA
ATOM     22  C   UNL     1      36.206  -1.441  15.589  1.00  0.00     0.139 C 
ENDBRANCH  19  20
ENDBRANCH  18  19
ENDBRANCH  17  18
ENDBRANCH  16  17
ENDBRANCH  15  16
ENDBRANCH  14  15
ENDBRANCH  13  14
ENDBRANCH   1  13
TORSDOF 16
ENDMDL
MODEL 8
REMARK VINA RESULT:    -5.223      1.396      2.339
REMARK INTER + INTRA:         -12.881
REMARK INTER:                 -10.198
REMARK INTRA:                  -2.684
REMARK UNBOUND:                -2.772
REMARK SMILES CCCCCC=CCC=CCCCCCCCCOC(C)=O
REMARK SMILES IDX 12 1 11 2 10 3 9 4 8 5 7 6 6 7 5 8 4 9 3 10 2 11 1 12 13 13
REMARK SMILES IDX 14 14 15 15 16 16 17 17 18 18 19 19 20 20 22 21 21 22
REMARK H PARENT
REMARK Flexibility Score: inf
ROOT
ATOM      1  C   UNL     1      30.351  -0.662  17.933  1.00  0.00     0.004 C 
ENDROOT
BRANCH   1   2
ATOM      2  C   UNL     1      31.687  -1.193  17.391  1.00  0.00     0.027 C 
BRANCH   2   3
ATOM      3  C   UNL     1      32.556  -0.067  16.905  1.00  0.00    -0.031 C 
ATOM      4  C   UNL     1      33.059   0.847  17.749  1.00  0.00    -0.027 C 
BRANCH   4   5
ATOM      5  C   UNL     1      33.927   1.970  17.261  1.00  0.00     0.054 C 
BRANCH   5   6
ATOM      6  C   UNL     1      34.221   1.796  15.792  1.00  0.00    -0.027 C 
ATOM      7  C   UNL     1      35.441   1.580  15.264  1.00  0.00    -0.031 C 
BRANCH   7   8
ATOM      8  C   UNL     1      36.725   1.523  16.050  1.00  0.00     0.027 C 
BRANCH   8   9
ATOM      9  C   UNL     1      37.191   0.071  16.243  1.00  0.00     0.004 C 
BRANCH   9  10
ATOM     10  C   UNL     1      36.855  -0.467  17.650  1.00  0.00     0.000 C 
BRANCH  10  11
ATOM     11  C   UNL     1      35.832  -1.615  17.642  1.00  0.00    -0.003 C 
ATOM     12  C   UNL     1      35.496  -2.106  16.237  1.00  0.00     0.004 C 
ENDBRANCH  10  11
ENDBRANCH   9  10
ENDBRANCH   8   9
ENDBRANCH   7   8
ENDBRANCH   5   6
ENDBRANCH   4   5
ENDBRANCH   2   3
ENDBRANCH   1   2
BRANCH   1  13
ATOM     13  C   UNL     1      29.259  -0.599  16.853  1.00  0.00     0.000 C 
BRANCH  13  14
ATOM     14  C   UNL     1      28.122  -1.603  17.100  1.00  0.00     0.000 C 
BRANCH  14  15
ATOM     15  C   UNL     1      28.193  -2.827  16.171  1.00  0.00     0.000 C 
BRANCH  15  16
ATOM     16  C   UNL     1      28.093  -4.175  16.916  1.00  0.00     0.003 C 
BRANCH  16  17
ATOM     17  C   UNL     1      29.455  -4.652  17.443  1.00  0.00     0.042 C 
BRANCH  17  18
ATOM     18  C   UNL     1      29.415  -4.867  18.959  1.00  0.00     0.233 C 
BRANCH  18  19
ATOM     19  O   UNL     1      29.766  -3.668  19.645  1.00  0.00    -0.466 OA
BRANCH  19  20
ATOM     20  C   UNL     1      28.884  -2.972  20.480  1.00  0.00     0.302 C 
ATOM     21  O   UNL     1      29.255  -1.933  21.091  1.00  0.00    -0.253 OA
ATOM     22  C   UNL     1      27.502  -3.493  20.682  1.00  0.00     0.139 C 
ENDBRANCH  19  20
ENDBRANCH  18  19
ENDBRANCH  17  18
ENDBRANCH  16  17
ENDBRANCH  15  16
ENDBRANCH  14  15
ENDBRANCH  13  14
ENDBRANCH   1  13
TORSDOF 16
ENDMDL
MODEL 9
REMARK VINA RESULT:    -5.222      3.249      8.196
REMARK INTER + INTRA:         -12.879
REMARK INTER:                 -10.183
REMARK INTRA:                  -2.697
REMARK UNBOUND:                -2.772
REMARK SMILES CCCCCC=CCC=CCCCCCCCCOC(C)=O
REMARK SMILES IDX 12 1 11 2 10 3 9 4 8 5 7 6 6 7 5 8 4 9 3 10 2 11 1 12 13 13
REMARK SMILES IDX 14 14 15 15 16 16 17 17 18 18 19 19 20 20 22 21 21 22
REMARK H PARENT
REMARK Flexibility Score: inf
ROOT
ATOM      1  C   UNL     1      31.545  -0.362  17.069  1.00  0.00     0.004 C 
ENDROOT
BRANCH   1   2
ATOM      2  C   UNL     1      30.806  -1.472  16.306  1.00  0.00     0.027 C 
BRANCH   2   3
ATOM      3  C   UNL     1      30.463  -2.616  17.219  1.00  0.00    -0.031 C 
ATOM      4  C   UNL     1      29.385  -3.385  17.006  1.00  0.00    -0.027 C 
BRANCH   4   5
ATOM      5  C   UNL     1      29.045  -4.527  17.918  1.00  0.00     0.054 C 
BRANCH   5   6
ATOM      6  C   UNL     1      29.622  -4.283  19.290  1.00  0.00    -0.027 C 
ATOM      7  C   UNL     1      28.988  -3.656  20.299  1.00  0.00    -0.031 C 
BRANCH   7   8
ATOM      8  C   UNL     1      27.612  -3.047  20.211  1.00  0.00     0.027 C 
BRANCH   8   9
ATOM      9  C   UNL     1      27.647  -1.551  20.562  1.00  0.00     0.004 C 
BRANCH   9  10
ATOM     10  C   UNL     1      28.660  -0.773  19.696  1.00  0.00     0.000 C 
BRANCH  10  11
ATOM     11  C   UNL     1      28.054   0.449  18.988  1.00  0.00    -0.003 C 
ATOM     12  C   UNL     1      27.843   0.229  17.492  1.00  0.00     0.004 C 
ENDBRANCH  10  11
ENDBRANCH   9  10
ENDBRANCH   8   9
ENDBRANCH   7   8
ENDBRANCH   5   6
ENDBRANCH   4   5
ENDBRANCH   2   3
ENDBRANCH   1   2
BRANCH   1  13
ATOM     13  C   UNL     1      32.160  -0.860  18.386  1.00  0.00     0.000 C 
BRANCH  13  14
ATOM     14  C   UNL     1      33.695  -0.932  18.334  1.00  0.00     0.000 C 
BRANCH  14  15
ATOM     15  C   UNL     1      34.210  -2.188  17.612  1.00  0.00     0.000 C 
BRANCH  15  16
ATOM     16  C   UNL     1      35.164  -1.880  16.438  1.00  0.00     0.003 C 
BRANCH  16  17
ATOM     17  C   UNL     1      36.220  -0.826  16.806  1.00  0.00     0.042 C 
BRANCH  17  18
ATOM     18  C   UNL     1      36.699  -0.069  15.564  1.00  0.00     0.233 C 
BRANCH  18  19
ATOM     19  O   UNL     1      36.516   1.335  15.731  1.00  0.00    -0.466 OA
BRANCH  19  20
ATOM     20  C   UNL     1      35.458   1.894  16.456  1.00  0.00     0.302 C 
ATOM     21  O   UNL     1      35.618   2.268  17.650  1.00  0.00    -0.253 OA
ATOM     22  C   UNL     1      34.114   2.006  15.822  1.00  0.00     0.139 C 
ENDBRANCH  19  20
ENDBRANCH  18  19
ENDBRANCH  17  18
ENDBRANCH  16  17
ENDBRANCH  15  16
ENDBRANCH  14  15
ENDBRANCH  13  14
ENDBRANCH   1  13
TORSDOF 16
ENDMDL
