MODEL 1
REMARK VINA RESULT:    -2.972      0.000      0.000
REMARK INTER + INTRA:          -3.952
REMARK INTER:                  -3.580
REMARK INTRA:                  -0.372
REMARK UNBOUND:                -0.372
REMARK SMILES O=c1ccn([C@H]2O[C@@H](CO)[C@@H](O)[C@@H]2O)c(=O)[nH]1
REMARK SMILES IDX 6 1 13 2 11 3 8 4 7 5 5 6 3 7 4 8 2 9 17 10 1 11 15 12 16 14
REMARK SMILES IDX 14 15 12 17 9 19 10 20
REMARK H PARENT 17 13 14 16 12 18 10 21
REMARK Flexibility Score: inf
ROOT
ATOM      1  C   UNL     1     -32.891 -21.566  28.807  1.00  0.00     0.255 C 
ATOM      2  C   UNL     1     -31.914 -22.398  27.990  1.00  0.00     0.196 C 
ATOM      3  C   UNL     1     -32.698 -23.659  27.762  1.00  0.00     0.179 C 
ATOM      4  C   UNL     1     -34.149 -23.153  27.744  1.00  0.00     0.178 C 
ATOM      5  O   UNL     1     -34.208 -21.922  28.439  1.00  0.00    -0.347 OA
ENDROOT
BRANCH   1   6
ATOM      6  N   UNL     1     -32.658 -20.121  28.597  1.00  0.00    -0.271 N 
ATOM      7  C   UNL     1     -33.248 -18.062  27.514  1.00  0.00     0.090 A 
ATOM      8  C   UNL     1     -33.469 -19.416  27.749  1.00  0.00     0.099 A 
ATOM      9  C   UNL     1     -32.175 -17.443  28.145  1.00  0.00     0.253 A 
ATOM     10  N   UNL     1     -31.367 -18.163  28.967  1.00  0.00    -0.274 N 
ATOM     11  O   UNL     1     -31.950 -16.218  27.951  1.00  0.00    -0.269 OA
ATOM     12  C   UNL     1     -31.592 -19.488  29.190  1.00  0.00     0.330 A 
ATOM     13  H   UNL     1     -30.557 -17.693  29.431  1.00  0.00     0.175 HD
ATOM     14  O   UNL     1     -30.806 -20.124  29.946  1.00  0.00    -0.248 OA
ENDBRANCH   1   6
BRANCH   2  15
ATOM     15  O   UNL     1     -30.739 -22.645  28.717  1.00  0.00    -0.386 OA
ATOM     16  H   UNL     1     -31.024 -22.885  29.636  1.00  0.00     0.211 HD
ENDBRANCH   2  15
BRANCH   3  17
ATOM     17  O   UNL     1     -32.306 -24.283  26.567  1.00  0.00    -0.387 OA
ATOM     18  H   UNL     1     -32.260 -23.567  25.880  1.00  0.00     0.211 HD
ENDBRANCH   3  17
BRANCH   4  19
ATOM     19  C   UNL     1     -34.712 -22.956  26.328  1.00  0.00     0.191 C 
BRANCH  19  20
ATOM     20  O   UNL     1     -33.800 -22.227  25.555  1.00  0.00    -0.394 OA
ATOM     21  H   UNL     1     -34.076 -21.276  25.626  1.00  0.00     0.210 HD
ENDBRANCH  19  20
ENDBRANCH   4  19
TORSDOF 5
ENDMDL
MODEL 2
REMARK VINA RESULT:    -2.876      1.638      2.248
REMARK INTER + INTRA:          -3.836
REMARK INTER:                  -3.217
REMARK INTRA:                  -0.619
REMARK UNBOUND:                -0.372
REMARK SMILES O=c1ccn([C@H]2O[C@@H](CO)[C@@H](O)[C@@H]2O)c(=O)[nH]1
REMARK SMILES IDX 6 1 13 2 11 3 8 4 7 5 5 6 3 7 4 8 2 9 17 10 1 11 15 12 16 14
REMARK SMILES IDX 14 15 12 17 9 19 10 20
REMARK H PARENT 17 13 14 16 12 18 10 21
REMARK Flexibility Score: inf
ROOT
ATOM      1  C   UNL     1     -32.799 -22.378  27.880  1.00  0.00     0.255 C 
ATOM      2  C   UNL     1     -33.257 -22.128  26.450  1.00  0.00     0.196 C 
ATOM      3  C   UNL     1     -34.252 -23.235  26.247  1.00  0.00     0.179 C 
ATOM      4  C   UNL     1     -34.807 -23.452  27.663  1.00  0.00     0.178 C 
ATOM      5  O   UNL     1     -33.862 -22.970  28.599  1.00  0.00    -0.347 OA
ENDROOT
BRANCH   1   6
ATOM      6  N   UNL     1     -32.364 -21.120  28.522  1.00  0.00    -0.271 N 
ATOM      7  C   UNL     1     -32.715 -18.785  28.958  1.00  0.00     0.090 A 
ATOM      8  C   UNL     1     -33.123 -19.988  28.387  1.00  0.00     0.099 A 
ATOM      9  C   UNL     1     -31.513 -18.752  29.654  1.00  0.00     0.253 A 
ATOM     10  N   UNL     1     -30.762 -19.880  29.760  1.00  0.00    -0.274 N 
ATOM     11  O   UNL     1     -31.119 -17.678  30.182  1.00  0.00    -0.269 OA
ATOM     12  C   UNL     1     -31.169 -21.052  29.197  1.00  0.00     0.330 A 
ATOM     13  H   UNL     1     -29.854 -19.846  30.278  1.00  0.00     0.175 HD
ATOM     14  O   UNL     1     -30.432 -22.071  29.303  1.00  0.00    -0.248 OA
ENDBRANCH   1   6
BRANCH   2  15
ATOM     15  O   UNL     1     -32.180 -22.230  25.556  1.00  0.00    -0.386 OA
ATOM     16  H   UNL     1     -31.668 -21.383  25.637  1.00  0.00     0.211 HD
ENDBRANCH   2  15
BRANCH   3  17
ATOM     17  O   UNL     1     -35.230 -22.863  25.310  1.00  0.00    -0.387 OA
ATOM     18  H   UNL     1     -35.188 -21.874  25.241  1.00  0.00     0.211 HD
ENDBRANCH   3  17
BRANCH   4  19
ATOM     19  C   UNL     1     -36.154 -22.753  27.907  1.00  0.00     0.191 C 
BRANCH  19  20
ATOM     20  O   UNL     1     -37.192 -23.529  27.376  1.00  0.00    -0.394 OA
ATOM     21  H   UNL     1     -37.941 -22.904  27.197  1.00  0.00     0.210 HD
ENDBRANCH  19  20
ENDBRANCH   4  19
TORSDOF 5
ENDMDL
MODEL 3
REMARK VINA RESULT:    -2.252      1.618      2.762
REMARK INTER + INTRA:          -3.084
REMARK INTER:                  -2.672
REMARK INTRA:                  -0.413
REMARK UNBOUND:                -0.372
REMARK SMILES O=c1ccn([C@H]2O[C@@H](CO)[C@@H](O)[C@@H]2O)c(=O)[nH]1
REMARK SMILES IDX 6 1 13 2 11 3 8 4 7 5 5 6 3 7 4 8 2 9 17 10 1 11 15 12 16 14
REMARK SMILES IDX 14 15 12 17 9 19 10 20
REMARK H PARENT 17 13 14 16 12 18 10 21
REMARK Flexibility Score: inf
ROOT
ATOM      1  C   UNL     1     -33.843 -21.093  27.028  1.00  0.00     0.255 C 
ATOM      2  C   UNL     1     -34.338 -22.163  27.990  1.00  0.00     0.196 C 
ATOM      3  C   UNL     1     -34.163 -23.414  27.176  1.00  0.00     0.179 C 
ATOM      4  C   UNL     1     -32.963 -23.068  26.282  1.00  0.00     0.178 C 
ATOM      5  O   UNL     1     -32.860 -21.660  26.186  1.00  0.00    -0.347 OA
ENDROOT
BRANCH   1   6
ATOM      6  N   UNL     1     -33.300 -19.932  27.765  1.00  0.00    -0.271 N 
ATOM      7  C   UNL     1     -32.337 -19.010  29.761  1.00  0.00     0.090 A 
ATOM      8  C   UNL     1     -32.825 -20.095  29.039  1.00  0.00     0.099 A 
ATOM      9  C   UNL     1     -32.358 -17.752  29.169  1.00  0.00     0.253 A 
ATOM     10  N   UNL     1     -32.853 -17.605  27.912  1.00  0.00    -0.274 N 
ATOM     11  O   UNL     1     -31.923 -16.751  29.799  1.00  0.00    -0.269 OA
ATOM     12  C   UNL     1     -33.328 -18.674  27.213  1.00  0.00     0.330 A 
ATOM     13  H   UNL     1     -32.873 -16.655  27.476  1.00  0.00     0.175 HD
ATOM     14  O   UNL     1     -33.797 -18.490  26.056  1.00  0.00    -0.248 OA
ENDBRANCH   1   6
BRANCH   2  15
ATOM     15  O   UNL     1     -35.683 -21.949  28.327  1.00  0.00    -0.386 OA
ATOM     16  H   UNL     1     -35.838 -20.972  28.251  1.00  0.00     0.211 HD
ENDBRANCH   2  15
BRANCH   3  17
ATOM     17  O   UNL     1     -33.944 -24.525  28.006  1.00  0.00    -0.387 OA
ATOM     18  H   UNL     1     -34.836 -24.807  28.338  1.00  0.00     0.211 HD
ENDBRANCH   3  17
BRANCH   4  19
ATOM     19  C   UNL     1     -31.630 -23.633  26.800  1.00  0.00     0.191 C 
BRANCH  19  20
ATOM     20  O   UNL     1     -31.338 -23.078  28.052  1.00  0.00    -0.394 OA
ATOM     21  H   UNL     1     -31.732 -22.167  28.050  1.00  0.00     0.210 HD
ENDBRANCH  19  20
ENDBRANCH   4  19
TORSDOF 5
ENDMDL
MODEL 4
REMARK VINA RESULT:    -1.913      1.690      5.445
REMARK INTER + INTRA:          -2.676
REMARK INTER:                  -2.334
REMARK INTRA:                  -0.341
REMARK UNBOUND:                -0.372
REMARK SMILES O=c1ccn([C@H]2O[C@@H](CO)[C@@H](O)[C@@H]2O)c(=O)[nH]1
REMARK SMILES IDX 6 1 13 2 11 3 8 4 7 5 5 6 3 7 4 8 2 9 17 10 1 11 15 12 16 14
REMARK SMILES IDX 14 15 12 17 9 19 10 20
REMARK H PARENT 17 13 14 16 12 18 10 21
REMARK Flexibility Score: inf
ROOT
ATOM      1  C   UNL     1     -33.440 -20.077  28.644  1.00  0.00     0.255 C 
ATOM      2  C   UNL     1     -33.056 -19.078  27.564  1.00  0.00     0.196 C 
ATOM      3  C   UNL     1     -32.758 -17.847  28.374  1.00  0.00     0.179 C 
ATOM      4  C   UNL     1     -32.251 -18.434  29.700  1.00  0.00     0.178 C 
ATOM      5  O   UNL     1     -32.744 -19.753  29.830  1.00  0.00    -0.347 OA
ENDROOT
BRANCH   1   6
ATOM      6  N   UNL     1     -33.137 -21.459  28.216  1.00  0.00    -0.271 N 
ATOM      7  C   UNL     1     -31.530 -23.139  27.617  1.00  0.00     0.090 A 
ATOM      8  C   UNL     1     -31.836 -21.852  28.049  1.00  0.00     0.099 A 
ATOM      9  C   UNL     1     -32.574 -24.014  27.341  1.00  0.00     0.253 A 
ATOM     10  N   UNL     1     -33.860 -23.602  27.490  1.00  0.00    -0.274 N 
ATOM     11  O   UNL     1     -32.327 -25.186  26.948  1.00  0.00    -0.269 OA
ATOM     12  C   UNL     1     -34.149 -22.339  27.913  1.00  0.00     0.330 A 
ATOM     13  H   UNL     1     -34.640 -24.262  27.272  1.00  0.00     0.175 HD
ATOM     14  O   UNL     1     -35.357 -21.990  28.020  1.00  0.00    -0.248 OA
ENDBRANCH   1   6
BRANCH   2  15
ATOM     15  O   UNL     1     -34.121 -18.866  26.676  1.00  0.00    -0.386 OA
ATOM     16  H   UNL     1     -34.247 -19.718  26.182  1.00  0.00     0.211 HD
ENDBRANCH   2  15
BRANCH   3  17
ATOM     17  O   UNL     1     -31.816 -17.035  27.722  1.00  0.00    -0.387 OA
ATOM     18  H   UNL     1     -31.456 -16.418  28.410  1.00  0.00     0.211 HD
ENDBRANCH   3  17
BRANCH   4  19
ATOM     19  C   UNL     1     -30.718 -18.458  29.813  1.00  0.00     0.191 C 
BRANCH  19  20
ATOM     20  O   UNL     1     -30.268 -19.785  29.834  1.00  0.00    -0.394 OA
ATOM     21  H   UNL     1     -31.080 -20.353  29.785  1.00  0.00     0.210 HD
ENDBRANCH  19  20
ENDBRANCH   4  19
TORSDOF 5
ENDMDL
MODEL 5
REMARK VINA RESULT:    -1.625      1.438      2.331
REMARK INTER + INTRA:          -2.329
REMARK INTER:                  -2.630
REMARK INTRA:                   0.302
REMARK UNBOUND:                -0.372
REMARK SMILES O=c1ccn([C@H]2O[C@@H](CO)[C@@H](O)[C@@H]2O)c(=O)[nH]1
REMARK SMILES IDX 6 1 13 2 11 3 8 4 7 5 5 6 3 7 4 8 2 9 17 10 1 11 15 12 16 14
REMARK SMILES IDX 14 15 12 17 9 19 10 20
REMARK H PARENT 17 13 14 16 12 18 10 21
REMARK Flexibility Score: inf
ROOT
ATOM      1  C   UNL     1     -33.902 -20.925  27.094  1.00  0.00     0.255 C 
ATOM      2  C   UNL     1     -34.349 -22.064  27.998  1.00  0.00     0.196 C 
ATOM      3  C   UNL     1     -34.196 -23.254  27.093  1.00  0.00     0.179 C 
ATOM      4  C   UNL     1     -33.034 -22.834  26.179  1.00  0.00     0.178 C 
ATOM      5  O   UNL     1     -32.948 -21.422  26.176  1.00  0.00    -0.347 OA
ENDROOT
BRANCH   1   6
ATOM      6  N   UNL     1     -33.340 -19.812  27.887  1.00  0.00    -0.271 N 
ATOM      7  C   UNL     1     -32.826 -17.477  28.107  1.00  0.00     0.090 A 
ATOM      8  C   UNL     1     -33.377 -18.536  27.390  1.00  0.00     0.099 A 
ATOM      9  C   UNL     1     -32.223 -17.744  29.331  1.00  0.00     0.253 A 
ATOM     10  N   UNL     1     -32.176 -19.019  29.798  1.00  0.00    -0.274 N 
ATOM     11  O   UNL     1     -31.716 -16.805  30.002  1.00  0.00    -0.269 OA
ATOM     12  C   UNL     1     -32.718 -20.049  29.088  1.00  0.00     0.330 A 
ATOM     13  H   UNL     1     -31.713 -19.213  30.715  1.00  0.00     0.175 HD
ATOM     14  O   UNL     1     -32.636 -21.220  29.550  1.00  0.00    -0.248 OA
ENDBRANCH   1   6
BRANCH   2  15
ATOM     15  O   UNL     1     -35.682 -21.890  28.400  1.00  0.00    -0.386 OA
ATOM     16  H   UNL     1     -35.657 -21.707  29.376  1.00  0.00     0.211 HD
ENDBRANCH   2  15
BRANCH   3  17
ATOM     17  O   UNL     1     -33.934 -24.417  27.836  1.00  0.00    -0.387 OA
ATOM     18  H   UNL     1     -33.352 -24.141  28.592  1.00  0.00     0.211 HD
ENDBRANCH   3  17
BRANCH   4  19
ATOM     19  C   UNL     1     -31.677 -23.417  26.605  1.00  0.00     0.191 C 
BRANCH  19  20
ATOM     20  O   UNL     1     -31.432 -23.109  27.949  1.00  0.00    -0.394 OA
ATOM     21  H   UNL     1     -30.481 -23.337  28.116  1.00  0.00     0.210 HD
ENDBRANCH  19  20
ENDBRANCH   4  19
TORSDOF 5
ENDMDL
