MODEL 1
REMARK VINA RESULT:    -5.252      0.000      0.000
REMARK INTER + INTRA:          -8.181
REMARK INTER:                  -7.708
REMARK INTRA:                  -0.473
REMARK UNBOUND:                -0.473
REMARK SMILES O=C([O-])CCCCCCCC(=O)[O-]
REMARK SMILES IDX 7 1 6 2 5 3 4 4 2 5 1 6 3 7 8 8 9 9 10 10 11 11 12 12 13 13
REMARK H PARENT
REMARK Flexibility Score: inf
ROOT
ATOM      1  C   UNL     1       2.854   9.340  18.791  1.00  0.00     0.000 C 
ENDROOT
BRANCH   1   2
ATOM      2  C   UNL     1       2.140   8.231  19.578  1.00  0.00     0.000 C 
BRANCH   2   3
ATOM      3  C   UNL     1       1.976   6.938  18.762  1.00  0.00     0.006 C 
BRANCH   3   4
ATOM      4  C   UNL     1       2.415   5.690  19.538  1.00  0.00     0.053 C 
BRANCH   4   5
ATOM      5  C   UNL     1       2.810   4.599  18.593  1.00  0.00     0.041 C 
ATOM      6  O   UNL     1       2.796   4.801  17.351  1.00  0.00    -0.550 OA
ATOM      7  O   UNL     1       3.144   3.343  19.083  1.00  0.00    -0.550 OA
ENDBRANCH   4   5
ENDBRANCH   3   4
ENDBRANCH   2   3
ENDBRANCH   1   2
BRANCH   1   8
ATOM      8  C   UNL     1       2.918   8.999  17.297  1.00  0.00     0.000 C 
BRANCH   8   9
ATOM      9  C   UNL     1       4.368   8.810  16.837  1.00  0.00     0.006 C 
BRANCH   9  10
ATOM     10  C   UNL     1       4.479   7.661  15.830  1.00  0.00     0.053 C 
BRANCH  10  11
ATOM     11  C   UNL     1       5.390   8.036  14.705  1.00  0.00     0.041 C 
ATOM     12  O   UNL     1       5.045   8.921  13.879  1.00  0.00    -0.550 OA
ATOM     13  O   UNL     1       6.642   7.444  14.597  1.00  0.00    -0.550 OA
ENDBRANCH  10  11
ENDBRANCH   9  10
ENDBRANCH   8   9
ENDBRANCH   1   8
TORSDOF 8
ENDMDL
MODEL 2
REMARK VINA RESULT:    -5.133      1.026      5.722
REMARK INTER + INTRA:          -8.006
REMARK INTER:                  -7.699
REMARK INTRA:                  -0.307
REMARK UNBOUND:                -0.473
REMARK SMILES O=C([O-])CCCCCCCC(=O)[O-]
REMARK SMILES IDX 7 1 6 2 5 3 4 4 2 5 1 6 3 7 8 8 9 9 10 10 11 11 12 12 13 13
REMARK H PARENT
REMARK Flexibility Score: inf
ROOT
ATOM      1  C   UNL     1       2.806   8.761  18.114  1.00  0.00     0.000 C 
ENDROOT
BRANCH   1   2
ATOM      2  C   UNL     1       3.373   7.932  16.953  1.00  0.00     0.000 C 
BRANCH   2   3
ATOM      3  C   UNL     1       4.482   8.670  16.184  1.00  0.00     0.006 C 
BRANCH   3   4
ATOM      4  C   UNL     1       5.319   7.729  15.307  1.00  0.00     0.053 C 
BRANCH   4   5
ATOM      5  C   UNL     1       5.589   8.360  13.977  1.00  0.00     0.041 C 
ATOM      6  O   UNL     1       4.916   9.353  13.597  1.00  0.00    -0.550 OA
ATOM      7  O   UNL     1       6.551   7.817  13.135  1.00  0.00    -0.550 OA
ENDBRANCH   4   5
ENDBRANCH   3   4
ENDBRANCH   2   3
ENDBRANCH   1   2
BRANCH   1   8
ATOM      8  C   UNL     1       2.133   7.859  19.156  1.00  0.00     0.000 C 
BRANCH   8   9
ATOM      9  C   UNL     1       2.092   6.402  18.679  1.00  0.00     0.006 C 
BRANCH   9  10
ATOM     10  C   UNL     1       2.568   5.451  19.780  1.00  0.00     0.053 C 
BRANCH  10  11
ATOM     11  C   UNL     1       2.386   4.027  19.356  1.00  0.00     0.041 C 
ATOM     12  O   UNL     1       3.390   3.301  19.128  1.00  0.00    -0.550 OA
ATOM     13  O   UNL     1       1.110   3.489  19.260  1.00  0.00    -0.550 OA
ENDBRANCH  10  11
ENDBRANCH   9  10
ENDBRANCH   8   9
ENDBRANCH   1   8
TORSDOF 8
ENDMDL
MODEL 3
REMARK VINA RESULT:    -5.048      3.262      5.158
REMARK INTER + INTRA:          -7.881
REMARK INTER:                  -7.573
REMARK INTRA:                  -0.309
REMARK UNBOUND:                -0.473
REMARK SMILES O=C([O-])CCCCCCCC(=O)[O-]
REMARK SMILES IDX 7 1 6 2 5 3 4 4 2 5 1 6 3 7 8 8 9 9 10 10 11 11 12 12 13 13
REMARK H PARENT
REMARK Flexibility Score: inf
ROOT
ATOM      1  C   UNL     1       2.713   4.806  19.680  1.00  0.00     0.000 C 
ENDROOT
BRANCH   1   2
ATOM      2  C   UNL     1       1.879   5.640  18.696  1.00  0.00     0.000 C 
BRANCH   2   3
ATOM      3  C   UNL     1       2.476   7.036  18.449  1.00  0.00     0.006 C 
BRANCH   3   4
ATOM      4  C   UNL     1       1.992   8.074  19.470  1.00  0.00     0.053 C 
BRANCH   4   5
ATOM      5  C   UNL     1       2.300   9.458  18.992  1.00  0.00     0.041 C 
ATOM      6  O   UNL     1       3.429   9.969  19.213  1.00  0.00    -0.550 OA
ATOM      7  O   UNL     1       1.322  10.204  18.347  1.00  0.00    -0.550 OA
ENDBRANCH   4   5
ENDBRANCH   3   4
ENDBRANCH   2   3
ENDBRANCH   1   2
BRANCH   1   8
ATOM      8  C   UNL     1       3.158   3.485  19.040  1.00  0.00     0.000 C 
BRANCH   8   9
ATOM      9  C   UNL     1       2.671   3.384  17.589  1.00  0.00     0.006 C 
BRANCH   9  10
ATOM     10  C   UNL     1       3.667   2.601  16.730  1.00  0.00     0.053 C 
BRANCH  10  11
ATOM     11  C   UNL     1       3.266   2.649  15.289  1.00  0.00     0.041 C 
ATOM     12  O   UNL     1       2.726   3.684  14.816  1.00  0.00    -0.550 OA
ATOM     13  O   UNL     1       3.533   1.570  14.457  1.00  0.00    -0.550 OA
ENDBRANCH  10  11
ENDBRANCH   9  10
ENDBRANCH   8   9
ENDBRANCH   1   8
TORSDOF 8
ENDMDL
MODEL 4
REMARK VINA RESULT:    -5.037      3.067      4.592
REMARK INTER + INTRA:          -7.865
REMARK INTER:                  -7.646
REMARK INTRA:                  -0.219
REMARK UNBOUND:                -0.473
REMARK SMILES O=C([O-])CCCCCCCC(=O)[O-]
REMARK SMILES IDX 7 1 6 2 5 3 4 4 2 5 1 6 3 7 8 8 9 9 10 10 11 11 12 12 13 13
REMARK H PARENT
REMARK Flexibility Score: inf
ROOT
ATOM      1  C   UNL     1       2.761   4.403  19.690  1.00  0.00     0.000 C 
ENDROOT
BRANCH   1   2
ATOM      2  C   UNL     1       3.151   3.031  19.122  1.00  0.00     0.000 C 
BRANCH   2   3
ATOM      3  C   UNL     1       3.300   3.045  17.591  1.00  0.00     0.006 C 
BRANCH   3   4
ATOM      4  C   UNL     1       4.044   1.812  17.059  1.00  0.00     0.053 C 
BRANCH   4   5
ATOM      5  C   UNL     1       3.523   1.432  15.709  1.00  0.00     0.041 C 
ATOM      6  O   UNL     1       4.322   1.181  14.769  1.00  0.00    -0.550 OA
ATOM      7  O   UNL     1       2.154   1.404  15.475  1.00  0.00    -0.550 OA
ENDBRANCH   4   5
ENDBRANCH   3   4
ENDBRANCH   2   3
ENDBRANCH   1   2
BRANCH   1   8
ATOM      8  C   UNL     1       1.805   5.139  18.743  1.00  0.00     0.000 C 
BRANCH   8   9
ATOM      9  C   UNL     1       2.460   6.401  18.170  1.00  0.00     0.006 C 
BRANCH   9  10
ATOM     10  C   UNL     1       2.127   7.628  19.025  1.00  0.00     0.053 C 
BRANCH  10  11
ATOM     11  C   UNL     1       2.649   8.873  18.380  1.00  0.00     0.041 C 
ATOM     12  O   UNL     1       2.554   9.980  18.971  1.00  0.00    -0.550 OA
ATOM     13  O   UNL     1       3.284   8.803  17.147  1.00  0.00    -0.550 OA
ENDBRANCH  10  11
ENDBRANCH   9  10
ENDBRANCH   8   9
ENDBRANCH   1   8
TORSDOF 8
ENDMDL
MODEL 5
REMARK VINA RESULT:    -4.934      2.925      3.891
REMARK INTER + INTRA:          -7.715
REMARK INTER:                  -7.435
REMARK INTRA:                  -0.280
REMARK UNBOUND:                -0.473
REMARK SMILES O=C([O-])CCCCCCCC(=O)[O-]
REMARK SMILES IDX 7 1 6 2 5 3 4 4 2 5 1 6 3 7 8 8 9 9 10 10 11 11 12 12 13 13
REMARK H PARENT
REMARK Flexibility Score: inf
ROOT
ATOM      1  C   UNL     1       4.046   4.590  14.790  1.00  0.00     0.000 C 
ENDROOT
BRANCH   1   2
ATOM      2  C   UNL     1       2.999   3.521  15.137  1.00  0.00     0.000 C 
BRANCH   2   3
ATOM      3  C   UNL     1       3.077   3.072  16.606  1.00  0.00     0.006 C 
BRANCH   3   4
ATOM      4  C   UNL     1       2.792   4.215  17.589  1.00  0.00     0.053 C 
BRANCH   4   5
ATOM      5  C   UNL     1       3.014   3.760  18.997  1.00  0.00     0.041 C 
ATOM      6  O   UNL     1       2.861   4.563  19.954  1.00  0.00    -0.550 OA
ATOM      7  O   UNL     1       3.439   2.462  19.248  1.00  0.00    -0.550 OA
ENDBRANCH   4   5
ENDBRANCH   3   4
ENDBRANCH   2   3
ENDBRANCH   1   2
BRANCH   1   8
ATOM      8  C   UNL     1       4.280   4.657  13.275  1.00  0.00     0.000 C 
BRANCH   8   9
ATOM      9  C   UNL     1       4.921   5.991  12.875  1.00  0.00     0.006 C 
BRANCH   9  10
ATOM     10  C   UNL     1       5.282   6.819  14.111  1.00  0.00     0.053 C 
BRANCH  10  11
ATOM     11  C   UNL     1       6.022   8.057  13.714  1.00  0.00     0.041 C 
ATOM     12  O   UNL     1       7.278   8.042  13.621  1.00  0.00    -0.550 OA
ATOM     13  O   UNL     1       5.322   9.214  13.401  1.00  0.00    -0.550 OA
ENDBRANCH  10  11
ENDBRANCH   9  10
ENDBRANCH   8   9
ENDBRANCH   1   8
TORSDOF 8
ENDMDL
MODEL 6
REMARK VINA RESULT:    -4.896      2.807      6.668
REMARK INTER + INTRA:          -7.659
REMARK INTER:                  -7.332
REMARK INTRA:                  -0.327
REMARK UNBOUND:                -0.473
REMARK SMILES O=C([O-])CCCCCCCC(=O)[O-]
REMARK SMILES IDX 7 1 6 2 5 3 4 4 2 5 1 6 3 7 8 8 9 9 10 10 11 11 12 12 13 13
REMARK H PARENT
REMARK Flexibility Score: inf
ROOT
ATOM      1  C   UNL     1       4.265   4.223  14.721  1.00  0.00     0.000 C 
ENDROOT
BRANCH   1   2
ATOM      2  C   UNL     1       4.047   4.646  13.260  1.00  0.00     0.000 C 
BRANCH   2   3
ATOM      3  C   UNL     1       4.771   5.957  12.909  1.00  0.00     0.006 C 
BRANCH   3   4
ATOM      4  C   UNL     1       5.316   6.681  14.147  1.00  0.00     0.053 C 
BRANCH   4   5
ATOM      5  C   UNL     1       5.993   7.955  13.751  1.00  0.00     0.041 C 
ATOM      6  O   UNL     1       7.249   8.022  13.716  1.00  0.00    -0.550 OA
ATOM      7  O   UNL     1       5.234   9.085  13.469  1.00  0.00    -0.550 OA
ENDBRANCH   4   5
ENDBRANCH   3   4
ENDBRANCH   2   3
ENDBRANCH   1   2
BRANCH   1   8
ATOM      8  C   UNL     1       2.926   3.991  15.431  1.00  0.00     0.000 C 
BRANCH   8   9
ATOM      9  C   UNL     1       2.923   4.631  16.824  1.00  0.00     0.006 C 
BRANCH   9  10
ATOM     10  C   UNL     1       2.947   3.561  17.919  1.00  0.00     0.053 C 
BRANCH  10  11
ATOM     11  C   UNL     1       2.408   4.111  19.202  1.00  0.00     0.041 C 
ATOM     12  O   UNL     1       2.585   5.323  19.494  1.00  0.00    -0.550 OA
ATOM     13  O   UNL     1       1.669   3.298  20.051  1.00  0.00    -0.550 OA
ENDBRANCH  10  11
ENDBRANCH   9  10
ENDBRANCH   8   9
ENDBRANCH   1   8
TORSDOF 8
ENDMDL
MODEL 7
REMARK VINA RESULT:    -4.896      3.022      4.991
REMARK INTER + INTRA:          -7.659
REMARK INTER:                  -7.315
REMARK INTRA:                  -0.343
REMARK UNBOUND:                -0.473
REMARK SMILES O=C([O-])CCCCCCCC(=O)[O-]
REMARK SMILES IDX 7 1 6 2 5 3 4 4 2 5 1 6 3 7 8 8 9 9 10 10 11 11 12 12 13 13
REMARK H PARENT
REMARK Flexibility Score: inf
ROOT
ATOM      1  C   UNL     1       5.166   8.406  14.580  1.00  0.00     0.000 C 
ENDROOT
BRANCH   1   2
ATOM      2  C   UNL     1       5.249   7.189  13.647  1.00  0.00     0.000 C 
BRANCH   2   3
ATOM      3  C   UNL     1       4.882   5.874  14.354  1.00  0.00     0.006 C 
BRANCH   3   4
ATOM      4  C   UNL     1       4.360   4.807  13.383  1.00  0.00     0.053 C 
BRANCH   4   5
ATOM      5  C   UNL     1       3.760   3.663  14.139  1.00  0.00     0.041 C 
ATOM      6  O   UNL     1       2.750   3.844  14.867  1.00  0.00    -0.550 OA
ATOM      7  O   UNL     1       4.350   2.406  14.079  1.00  0.00    -0.550 OA
ENDBRANCH   4   5
ENDBRANCH   3   4
ENDBRANCH   2   3
ENDBRANCH   1   2
BRANCH   1   8
ATOM      8  C   UNL     1       4.901   7.971  16.027  1.00  0.00     0.000 C 
BRANCH   8   9
ATOM      9  C   UNL     1       3.762   8.788  16.648  1.00  0.00     0.006 C 
BRANCH   9  10
ATOM     10  C   UNL     1       3.009   7.968  17.699  1.00  0.00     0.053 C 
BRANCH  10  11
ATOM     11  C   UNL     1       2.334   8.871  18.683  1.00  0.00     0.041 C 
ATOM     12  O   UNL     1       2.251   8.538  19.895  1.00  0.00    -0.550 OA
ATOM     13  O   UNL     1       1.841  10.102  18.271  1.00  0.00    -0.550 OA
ENDBRANCH  10  11
ENDBRANCH   9  10
ENDBRANCH   8   9
ENDBRANCH   1   8
TORSDOF 8
ENDMDL
MODEL 8
REMARK VINA RESULT:    -4.792      3.161      4.772
REMARK INTER + INTRA:          -7.505
REMARK INTER:                  -7.197
REMARK INTRA:                  -0.308
REMARK UNBOUND:                -0.473
REMARK SMILES O=C([O-])CCCCCCCC(=O)[O-]
REMARK SMILES IDX 7 1 6 2 5 3 4 4 2 5 1 6 3 7 8 8 9 9 10 10 11 11 12 12 13 13
REMARK H PARENT
REMARK Flexibility Score: inf
ROOT
ATOM      1  C   UNL     1       5.514   7.493  15.245  1.00  0.00     0.000 C 
ENDROOT
BRANCH   1   2
ATOM      2  C   UNL     1       4.487   8.554  15.666  1.00  0.00     0.000 C 
BRANCH   2   3
ATOM      3  C   UNL     1       3.807   8.222  17.004  1.00  0.00     0.006 C 
BRANCH   3   4
ATOM      4  C   UNL     1       2.834   9.318  17.460  1.00  0.00     0.053 C 
BRANCH   4   5
ATOM      5  C   UNL     1       2.864   9.455  18.950  1.00  0.00     0.041 C 
ATOM      6  O   UNL     1       3.649  10.273  19.496  1.00  0.00    -0.550 OA
ATOM      7  O   UNL     1       2.060   8.641  19.738  1.00  0.00    -0.550 OA
ENDBRANCH   4   5
ENDBRANCH   3   4
ENDBRANCH   2   3
ENDBRANCH   1   2
BRANCH   1   8
ATOM      8  C   UNL     1       5.482   7.270  13.728  1.00  0.00     0.000 C 
BRANCH   8   9
ATOM      9  C   UNL     1       4.871   5.906  13.383  1.00  0.00     0.006 C 
BRANCH   9  10
ATOM     10  C   UNL     1       4.566   5.106  14.653  1.00  0.00     0.053 C 
BRANCH  10  11
ATOM     11  C   UNL     1       3.713   3.920  14.331  1.00  0.00     0.041 C 
ATOM     12  O   UNL     1       4.168   2.986  13.618  1.00  0.00    -0.550 OA
ATOM     13  O   UNL     1       2.431   3.822  14.857  1.00  0.00    -0.550 OA
ENDBRANCH  10  11
ENDBRANCH   9  10
ENDBRANCH   8   9
ENDBRANCH   1   8
TORSDOF 8
ENDMDL
MODEL 9
REMARK VINA RESULT:    -4.697      4.415      6.648
REMARK INTER + INTRA:          -7.367
REMARK INTER:                  -6.793
REMARK INTRA:                  -0.573
REMARK UNBOUND:                -0.473
REMARK SMILES O=C([O-])CCCCCCCC(=O)[O-]
REMARK SMILES IDX 7 1 6 2 5 3 4 4 2 5 1 6 3 7 8 8 9 9 10 10 11 11 12 12 13 13
REMARK H PARENT
REMARK Flexibility Score: inf
ROOT
ATOM      1  C   UNL     1       4.127   2.748  15.709  1.00  0.00     0.000 C 
ENDROOT
BRANCH   1   2
ATOM      2  C   UNL     1       3.012   3.805  15.739  1.00  0.00     0.000 C 
BRANCH   2   3
ATOM      3  C   UNL     1       2.871   4.477  17.114  1.00  0.00     0.006 C 
BRANCH   3   4
ATOM      4  C   UNL     1       3.025   3.486  18.275  1.00  0.00     0.053 C 
BRANCH   4   5
ATOM      5  C   UNL     1       2.406   4.040  19.520  1.00  0.00     0.041 C 
ATOM      6  O   UNL     1       2.712   5.193  19.921  1.00  0.00    -0.550 OA
ATOM      7  O   UNL     1       1.528   3.262  20.264  1.00  0.00    -0.550 OA
ENDBRANCH   4   5
ENDBRANCH   3   4
ENDBRANCH   2   3
ENDBRANCH   1   2
BRANCH   1   8
ATOM      8  C   UNL     1       3.588   1.395  15.229  1.00  0.00     0.000 C 
BRANCH   8   9
ATOM      9  C   UNL     1       4.108   0.251  16.107  1.00  0.00     0.006 C 
BRANCH   9  10
ATOM     10  C   UNL     1       5.228   0.736  17.032  1.00  0.00     0.053 C 
BRANCH  10  11
ATOM     11  C   UNL     1       5.194  -0.008  18.330  1.00  0.00     0.041 C 
ATOM     12  O   UNL     1       4.500   0.423  19.289  1.00  0.00    -0.550 OA
ATOM     13  O   UNL     1       5.890  -1.202  18.465  1.00  0.00    -0.550 OA
ENDBRANCH  10  11
ENDBRANCH   9  10
ENDBRANCH   8   9
ENDBRANCH   1   8
TORSDOF 8
ENDMDL
