MODEL 1
REMARK VINA RESULT:    -9.003      0.000      0.000
REMARK INTER + INTRA:         -10.847
REMARK INTER:                 -10.582
REMARK INTRA:                  -0.265
REMARK UNBOUND:                -0.265
REMARK SMILES O=c1cc(-c2ccc(O)c(O)c2)oc2cc(O)cc(O)c12
REMARK SMILES IDX 4 1 3 2 2 3 1 4 21 5 19 6 18 7 16 8 15 9 14 10 13 11 5 12
REMARK SMILES IDX 6 13 7 14 8 15 12 16 10 17 9 18 11 20 20 22 17 24
REMARK H PARENT 9 19 11 21 20 23 17 25
REMARK Flexibility Score: inf
ROOT
ATOM      1  C   UNL     1       9.974 -46.185  35.652  1.00  0.00     0.138 A 
ATOM      2  C   UNL     1       9.145 -46.728  36.643  1.00  0.00     0.100 A 
ATOM      3  C   UNL     1       9.693 -47.119  37.865  1.00  0.00     0.197 A 
ATOM      4  O   UNL     1       8.934 -47.660  38.711  1.00  0.00    -0.289 OA
ATOM      5  C   UNL     1      11.075 -46.934  38.106  1.00  0.00     0.107 A 
ATOM      6  C   UNL     1      11.737 -47.258  39.329  1.00  0.00     0.134 A 
ATOM      7  C   UNL     1      13.130 -47.141  39.412  1.00  0.00     0.093 A 
ATOM      8  C   UNL     1      13.878 -46.655  38.336  1.00  0.00     0.123 A 
ATOM      9  C   UNL     1      13.236 -46.286  37.156  1.00  0.00     0.094 A 
ATOM     10  C   UNL     1      11.850 -46.424  37.031  1.00  0.00     0.146 A 
ATOM     11  O   UNL     1      11.278 -46.074  35.884  1.00  0.00    -0.456 OA
ENDROOT
BRANCH   1  12
ATOM     12  C   UNL     1       9.443 -45.753  34.335  1.00  0.00     0.021 A 
ATOM     13  C   UNL     1       9.490 -44.407  33.923  1.00  0.00     0.016 A 
ATOM     14  C   UNL     1       8.991 -44.030  32.675  1.00  0.00     0.051 A 
ATOM     15  C   UNL     1       8.446 -44.988  31.811  1.00  0.00     0.157 A 
ATOM     16  C   UNL     1       8.906 -46.711  33.457  1.00  0.00     0.062 A 
ATOM     17  C   UNL     1       8.405 -46.335  32.204  1.00  0.00     0.158 A 
BRANCH  15  18
ATOM     18  O   UNL     1       7.949 -44.607  30.566  1.00  0.00    -0.504 OA
ATOM     19  H   UNL     1       7.543 -43.692  30.413  1.00  0.00     0.293 HD
ENDBRANCH  15  18
BRANCH  17  20
ATOM     20  O   UNL     1       7.872 -47.315  31.367  1.00  0.00    -0.504 OA
ATOM     21  H   UNL     1       7.105 -47.910  31.656  1.00  0.00     0.293 HD
ENDBRANCH  17  20
ENDBRANCH   1  12
BRANCH   6  22
ATOM     22  O   UNL     1      11.076 -47.671  40.489  1.00  0.00    -0.507 OA
ATOM     23  H   UNL     1      10.373 -48.394  40.526  1.00  0.00     0.293 HD
ENDBRANCH   6  22
BRANCH   8  24
ATOM     24  O   UNL     1      15.262 -46.528  38.433  1.00  0.00    -0.508 OA
ATOM     25  H   UNL     1      15.741 -46.614  39.320  1.00  0.00     0.293 HD
ENDBRANCH   8  24
TORSDOF 5
ENDMDL
MODEL 2
REMARK VINA RESULT:    -8.802      1.610      7.373
REMARK INTER + INTRA:         -10.610
REMARK INTER:                 -10.321
REMARK INTRA:                  -0.289
REMARK UNBOUND:                -0.265
REMARK SMILES O=c1cc(-c2ccc(O)c(O)c2)oc2cc(O)cc(O)c12
REMARK SMILES IDX 4 1 3 2 2 3 1 4 21 5 19 6 18 7 16 8 15 9 14 10 13 11 5 12
REMARK SMILES IDX 6 13 7 14 8 15 12 16 10 17 9 18 11 20 20 22 17 24
REMARK H PARENT 9 19 11 21 20 23 17 25
REMARK Flexibility Score: inf
ROOT
ATOM      1  C   UNL     1      10.207 -46.226  35.857  1.00  0.00     0.138 A 
ATOM      2  C   UNL     1      10.778 -45.368  34.907  1.00  0.00     0.100 A 
ATOM      3  C   UNL     1      10.102 -45.110  33.713  1.00  0.00     0.197 A 
ATOM      4  O   UNL     1      10.668 -44.386  32.854  1.00  0.00    -0.289 OA
ATOM      5  C   UNL     1       8.833 -45.692  33.485  1.00  0.00     0.107 A 
ATOM      6  C   UNL     1       8.034 -45.470  32.323  1.00  0.00     0.134 A 
ATOM      7  C   UNL     1       6.846 -46.192  32.153  1.00  0.00     0.093 A 
ATOM      8  C   UNL     1       6.398 -47.083  33.132  1.00  0.00     0.123 A 
ATOM      9  C   UNL     1       7.143 -47.267  34.294  1.00  0.00     0.094 A 
ATOM     10  C   UNL     1       8.351 -46.587  34.477  1.00  0.00     0.146 A 
ATOM     11  O   UNL     1       9.038 -46.803  35.594  1.00  0.00    -0.456 OA
ENDROOT
BRANCH   1  12
ATOM     12  C   UNL     1      10.882 -46.533  37.143  1.00  0.00     0.021 A 
ATOM     13  C   UNL     1      10.166 -47.005  38.260  1.00  0.00     0.016 A 
ATOM     14  C   UNL     1      10.829 -47.295  39.455  1.00  0.00     0.051 A 
ATOM     15  C   UNL     1      12.216 -47.129  39.554  1.00  0.00     0.157 A 
ATOM     16  C   UNL     1      12.276 -46.381  37.246  1.00  0.00     0.062 A 
ATOM     17  C   UNL     1      12.942 -46.671  38.443  1.00  0.00     0.158 A 
BRANCH  15  18
ATOM     18  O   UNL     1      12.873 -47.419  40.748  1.00  0.00    -0.504 OA
ATOM     19  H   UNL     1      13.457 -48.241  40.848  1.00  0.00     0.293 HD
ENDBRANCH  15  18
BRANCH  17  20
ATOM     20  O   UNL     1      14.325 -46.499  38.506  1.00  0.00    -0.504 OA
ATOM     21  H   UNL     1      14.912 -47.077  39.094  1.00  0.00     0.293 HD
ENDBRANCH  17  20
ENDBRANCH   1  12
BRANCH   6  22
ATOM     22  O   UNL     1       8.347 -44.540  31.326  1.00  0.00    -0.507 OA
ATOM     23  H   UNL     1       9.249 -44.452  30.883  1.00  0.00     0.293 HD
ENDBRANCH   6  22
BRANCH   8  24
ATOM     24  O   UNL     1       5.207 -47.786  32.961  1.00  0.00    -0.508 OA
ATOM     25  H   UNL     1       5.154 -48.600  32.362  1.00  0.00     0.293 HD
ENDBRANCH   8  24
TORSDOF 5
ENDMDL
MODEL 3
REMARK VINA RESULT:    -8.533      0.765      1.524
REMARK INTER + INTRA:         -10.294
REMARK INTER:                 -10.021
REMARK INTRA:                  -0.273
REMARK UNBOUND:                -0.265
REMARK SMILES O=c1cc(-c2ccc(O)c(O)c2)oc2cc(O)cc(O)c12
REMARK SMILES IDX 4 1 3 2 2 3 1 4 21 5 19 6 18 7 16 8 15 9 14 10 13 11 5 12
REMARK SMILES IDX 6 13 7 14 8 15 12 16 10 17 9 18 11 20 20 22 17 24
REMARK H PARENT 9 19 11 21 20 23 17 25
REMARK Flexibility Score: inf
ROOT
ATOM      1  C   UNL     1       9.560 -46.372  35.482  1.00  0.00     0.138 A 
ATOM      2  C   UNL     1       8.805 -46.969  36.502  1.00  0.00     0.100 A 
ATOM      3  C   UNL     1       9.411 -47.276  37.720  1.00  0.00     0.197 A 
ATOM      4  O   UNL     1       8.725 -47.868  38.593  1.00  0.00    -0.289 OA
ATOM      5  C   UNL     1      10.774 -46.954  37.928  1.00  0.00     0.107 A 
ATOM      6  C   UNL     1      11.487 -47.184  39.144  1.00  0.00     0.134 A 
ATOM      7  C   UNL     1      12.863 -46.931  39.195  1.00  0.00     0.093 A 
ATOM      8  C   UNL     1      13.540 -46.401  38.094  1.00  0.00     0.123 A 
ATOM      9  C   UNL     1      12.843 -46.122  36.920  1.00  0.00     0.094 A 
ATOM     10  C   UNL     1      11.475 -46.396  36.827  1.00  0.00     0.146 A 
ATOM     11  O   UNL     1      10.851 -46.129  35.684  1.00  0.00    -0.456 OA
ENDROOT
BRANCH   1  12
ATOM     12  C   UNL     1       8.964 -46.023  34.167  1.00  0.00     0.021 A 
ATOM     13  C   UNL     1       8.456 -47.009  33.300  1.00  0.00     0.016 A 
ATOM     14  C   UNL     1       7.892 -46.652  32.074  1.00  0.00     0.051 A 
ATOM     15  C   UNL     1       7.817 -45.305  31.694  1.00  0.00     0.157 A 
ATOM     16  C   UNL     1       8.873 -44.673  33.785  1.00  0.00     0.062 A 
ATOM     17  C   UNL     1       8.308 -44.312  32.556  1.00  0.00     0.158 A 
BRANCH  15  18
ATOM     18  O   UNL     1       7.254 -44.953  30.469  1.00  0.00    -0.504 OA
ATOM     19  H   UNL     1       7.429 -45.492  29.629  1.00  0.00     0.293 HD
ENDBRANCH  15  18
BRANCH  17  20
ATOM     20  O   UNL     1       8.245 -42.962  32.211  1.00  0.00    -0.504 OA
ATOM     21  H   UNL     1       8.200 -42.655  31.246  1.00  0.00     0.293 HD
ENDBRANCH  17  20
ENDBRANCH   1  12
BRANCH   6  22
ATOM     22  O   UNL     1      10.890 -47.631  40.326  1.00  0.00    -0.507 OA
ATOM     23  H   UNL     1      11.325 -47.608  41.236  1.00  0.00     0.293 HD
ENDBRANCH   6  22
BRANCH   8  24
ATOM     24  O   UNL     1      14.907 -46.138  38.159  1.00  0.00    -0.508 OA
ATOM     25  H   UNL     1      15.579 -46.704  37.656  1.00  0.00     0.293 HD
ENDBRANCH   8  24
TORSDOF 5
ENDMDL
MODEL 4
REMARK VINA RESULT:    -8.270      1.397      6.791
REMARK INTER + INTRA:          -9.986
REMARK INTER:                  -9.691
REMARK INTRA:                  -0.295
REMARK UNBOUND:                -0.265
REMARK SMILES O=c1cc(-c2ccc(O)c(O)c2)oc2cc(O)cc(O)c12
REMARK SMILES IDX 4 1 3 2 2 3 1 4 21 5 19 6 18 7 16 8 15 9 14 10 13 11 5 12
REMARK SMILES IDX 6 13 7 14 8 15 12 16 10 17 9 18 11 20 20 22 17 24
REMARK H PARENT 9 19 11 21 20 23 17 25
REMARK Flexibility Score: inf
ROOT
ATOM      1  C   UNL     1      10.611 -46.510  36.034  1.00  0.00     0.138 A 
ATOM      2  C   UNL     1       9.424 -46.988  36.608  1.00  0.00     0.100 A 
ATOM      3  C   UNL     1       8.246 -46.989  35.861  1.00  0.00     0.197 A 
ATOM      4  O   UNL     1       7.185 -47.365  36.424  1.00  0.00    -0.289 OA
ATOM      5  C   UNL     1       8.265 -46.538  34.519  1.00  0.00     0.107 A 
ATOM      6  C   UNL     1       7.133 -46.531  33.649  1.00  0.00     0.134 A 
ATOM      7  C   UNL     1       7.243 -45.952  32.379  1.00  0.00     0.093 A 
ATOM      8  C   UNL     1       8.460 -45.435  31.925  1.00  0.00     0.123 A 
ATOM      9  C   UNL     1       9.583 -45.486  32.746  1.00  0.00     0.094 A 
ATOM     10  C   UNL     1       9.497 -46.026  34.033  1.00  0.00     0.146 A 
ATOM     11  O   UNL     1      10.589 -46.042  34.790  1.00  0.00    -0.456 OA
ENDROOT
BRANCH   1  12
ATOM     12  C   UNL     1      11.892 -46.488  36.784  1.00  0.00     0.021 A 
ATOM     13  C   UNL     1      13.063 -45.935  36.231  1.00  0.00     0.016 A 
ATOM     14  C   UNL     1      14.252 -45.919  36.964  1.00  0.00     0.051 A 
ATOM     15  C   UNL     1      14.292 -46.445  38.262  1.00  0.00     0.157 A 
ATOM     16  C   UNL     1      11.936 -47.002  38.092  1.00  0.00     0.062 A 
ATOM     17  C   UNL     1      13.127 -46.987  38.827  1.00  0.00     0.158 A 
BRANCH  15  18
ATOM     18  O   UNL     1      15.481 -46.427  38.988  1.00  0.00    -0.504 OA
ATOM     19  H   UNL     1      16.295 -46.951  38.689  1.00  0.00     0.293 HD
ENDBRANCH  15  18
BRANCH  17  20
ATOM     20  O   UNL     1      13.132 -47.515  40.119  1.00  0.00    -0.504 OA
ATOM     21  H   UNL     1      12.492 -47.191  40.834  1.00  0.00     0.293 HD
ENDBRANCH  17  20
ENDBRANCH   1  12
BRANCH   6  22
ATOM     22  O   UNL     1       5.896 -47.096  33.972  1.00  0.00    -0.507 OA
ATOM     23  H   UNL     1       5.016 -46.839  33.550  1.00  0.00     0.293 HD
ENDBRANCH   6  22
BRANCH   8  24
ATOM     24  O   UNL     1       8.564 -44.875  30.653  1.00  0.00    -0.508 OA
ATOM     25  H   UNL     1       9.317 -44.242  30.413  1.00  0.00     0.293 HD
ENDBRANCH   8  24
TORSDOF 5
ENDMDL
MODEL 5
REMARK VINA RESULT:    -8.237      1.539      7.150
REMARK INTER + INTRA:          -9.946
REMARK INTER:                  -9.671
REMARK INTRA:                  -0.275
REMARK UNBOUND:                -0.265
REMARK SMILES O=c1cc(-c2ccc(O)c(O)c2)oc2cc(O)cc(O)c12
REMARK SMILES IDX 4 1 3 2 2 3 1 4 21 5 19 6 18 7 16 8 15 9 14 10 13 11 5 12
REMARK SMILES IDX 6 13 7 14 8 15 12 16 10 17 9 18 11 20 20 22 17 24
REMARK H PARENT 9 19 11 21 20 23 17 25
REMARK Flexibility Score: inf
ROOT
ATOM      1  C   UNL     1       9.512 -46.629  35.603  1.00  0.00     0.138 A 
ATOM      2  C   UNL     1       9.013 -47.784  34.984  1.00  0.00     0.100 A 
ATOM      3  C   UNL     1       8.331 -47.679  33.771  1.00  0.00     0.197 A 
ATOM      4  O   UNL     1       7.841 -48.724  33.272  1.00  0.00    -0.289 OA
ATOM      5  C   UNL     1       8.176 -46.411  33.160  1.00  0.00     0.107 A 
ATOM      6  C   UNL     1       7.534 -46.188  31.905  1.00  0.00     0.134 A 
ATOM      7  C   UNL     1       7.337 -44.876  31.455  1.00  0.00     0.093 A 
ATOM      8  C   UNL     1       7.811 -43.784  32.186  1.00  0.00     0.123 A 
ATOM      9  C   UNL     1       8.486 -43.994  33.386  1.00  0.00     0.094 A 
ATOM     10  C   UNL     1       8.668 -45.289  33.879  1.00  0.00     0.146 A 
ATOM     11  O   UNL     1       9.305 -45.445  35.035  1.00  0.00    -0.456 OA
ENDROOT
BRANCH   1  12
ATOM     12  C   UNL     1      10.245 -46.685  36.892  1.00  0.00     0.021 A 
ATOM     13  C   UNL     1       9.638 -47.165  38.069  1.00  0.00     0.016 A 
ATOM     14  C   UNL     1      10.355 -47.215  39.266  1.00  0.00     0.051 A 
ATOM     15  C   UNL     1      11.692 -46.798  39.310  1.00  0.00     0.157 A 
ATOM     16  C   UNL     1      11.591 -46.280  36.941  1.00  0.00     0.062 A 
ATOM     17  C   UNL     1      12.312 -46.330  38.140  1.00  0.00     0.158 A 
BRANCH  15  18
ATOM     18  O   UNL     1      12.403 -46.849  40.507  1.00  0.00    -0.504 OA
ATOM     19  H   UNL     1      13.293 -46.377  40.617  1.00  0.00     0.293 HD
ENDBRANCH  15  18
BRANCH  17  20
ATOM     20  O   UNL     1      13.642 -45.910  38.148  1.00  0.00    -0.504 OA
ATOM     21  H   UNL     1      13.898 -44.934  38.067  1.00  0.00     0.293 HD
ENDBRANCH  17  20
ENDBRANCH   1  12
BRANCH   6  22
ATOM     22  O   UNL     1       7.099 -47.210  31.057  1.00  0.00    -0.507 OA
ATOM     23  H   UNL     1       6.168 -47.287  30.676  1.00  0.00     0.293 HD
ENDBRANCH   6  22
BRANCH   8  24
ATOM     24  O   UNL     1       7.623 -42.483  31.723  1.00  0.00    -0.508 OA
ATOM     25  H   UNL     1       7.174 -41.778  32.293  1.00  0.00     0.293 HD
ENDBRANCH   8  24
TORSDOF 5
ENDMDL
MODEL 6
REMARK VINA RESULT:    -8.225      3.916      5.785
REMARK INTER + INTRA:          -9.933
REMARK INTER:                  -9.635
REMARK INTRA:                  -0.298
REMARK UNBOUND:                -0.265
REMARK SMILES O=c1cc(-c2ccc(O)c(O)c2)oc2cc(O)cc(O)c12
REMARK SMILES IDX 4 1 3 2 2 3 1 4 21 5 19 6 18 7 16 8 15 9 14 10 13 11 5 12
REMARK SMILES IDX 6 13 7 14 8 15 12 16 10 17 9 18 11 20 20 22 17 24
REMARK H PARENT 9 19 11 21 20 23 17 25
REMARK Flexibility Score: inf
ROOT
ATOM      1  C   UNL     1       7.483 -48.688  36.095  1.00  0.00     0.138 A 
ATOM      2  C   UNL     1       7.939 -48.132  34.891  1.00  0.00     0.100 A 
ATOM      3  C   UNL     1       9.040 -47.275  34.899  1.00  0.00     0.197 A 
ATOM      4  O   UNL     1       9.386 -46.743  33.813  1.00  0.00    -0.289 OA
ATOM      5  C   UNL     1       9.707 -47.000  36.117  1.00  0.00     0.107 A 
ATOM      6  C   UNL     1      10.864 -46.173  36.240  1.00  0.00     0.134 A 
ATOM      7  C   UNL     1      11.369 -45.877  37.512  1.00  0.00     0.093 A 
ATOM      8  C   UNL     1      10.795 -46.427  38.661  1.00  0.00     0.123 A 
ATOM      9  C   UNL     1       9.698 -47.279  38.548  1.00  0.00     0.094 A 
ATOM     10  C   UNL     1       9.150 -47.565  37.294  1.00  0.00     0.146 A 
ATOM     11  O   UNL     1       8.094 -48.370  37.232  1.00  0.00    -0.456 OA
ENDROOT
BRANCH   1  12
ATOM     12  C   UNL     1       6.318 -49.607  36.143  1.00  0.00     0.021 A 
ATOM     13  C   UNL     1       6.125 -50.610  35.173  1.00  0.00     0.016 A 
ATOM     14  C   UNL     1       5.025 -51.466  35.249  1.00  0.00     0.051 A 
ATOM     15  C   UNL     1       4.102 -51.344  36.296  1.00  0.00     0.157 A 
ATOM     16  C   UNL     1       5.395 -49.499  37.198  1.00  0.00     0.062 A 
ATOM     17  C   UNL     1       4.291 -50.356  37.276  1.00  0.00     0.158 A 
BRANCH  15  18
ATOM     18  O   UNL     1       3.005 -52.200  36.367  1.00  0.00    -0.504 OA
ATOM     19  H   UNL     1       3.032 -53.132  35.970  1.00  0.00     0.293 HD
ENDBRANCH  15  18
BRANCH  17  20
ATOM     20  O   UNL     1       3.394 -50.210  38.334  1.00  0.00    -0.504 OA
ATOM     21  H   UNL     1       3.576 -49.587  39.111  1.00  0.00     0.293 HD
ENDBRANCH  17  20
ENDBRANCH   1  12
BRANCH   6  22
ATOM     22  O   UNL     1      11.564 -45.642  35.152  1.00  0.00    -0.507 OA
ATOM     23  H   UNL     1      12.439 -45.144  35.217  1.00  0.00     0.293 HD
ENDBRANCH   6  22
BRANCH   8  24
ATOM     24  O   UNL     1      11.314 -46.140  39.922  1.00  0.00    -0.508 OA
ATOM     25  H   UNL     1      10.925 -46.553  40.761  1.00  0.00     0.293 HD
ENDBRANCH   8  24
TORSDOF 5
ENDMDL
MODEL 7
REMARK VINA RESULT:    -8.143      3.799      7.092
REMARK INTER + INTRA:          -9.836
REMARK INTER:                  -9.542
REMARK INTRA:                  -0.294
REMARK UNBOUND:                -0.265
REMARK SMILES O=c1cc(-c2ccc(O)c(O)c2)oc2cc(O)cc(O)c12
REMARK SMILES IDX 4 1 3 2 2 3 1 4 21 5 19 6 18 7 16 8 15 9 14 10 13 11 5 12
REMARK SMILES IDX 6 13 7 14 8 15 12 16 10 17 9 18 11 20 20 22 17 24
REMARK H PARENT 9 19 11 21 20 23 17 25
REMARK Flexibility Score: inf
ROOT
ATOM      1  C   UNL     1       7.600 -48.855  34.929  1.00  0.00     0.138 A 
ATOM      2  C   UNL     1       8.626 -48.324  35.722  1.00  0.00     0.100 A 
ATOM      3  C   UNL     1       9.309 -47.184  35.298  1.00  0.00     0.197 A 
ATOM      4  O   UNL     1      10.266 -46.767  36.001  1.00  0.00    -0.289 OA
ATOM      5  C   UNL     1       8.938 -46.554  34.086  1.00  0.00     0.107 A 
ATOM      6  C   UNL     1       9.536 -45.363  33.573  1.00  0.00     0.134 A 
ATOM      7  C   UNL     1       9.168 -44.897  32.306  1.00  0.00     0.093 A 
ATOM      8  C   UNL     1       8.180 -45.543  31.558  1.00  0.00     0.123 A 
ATOM      9  C   UNL     1       7.552 -46.675  32.073  1.00  0.00     0.094 A 
ATOM     10  C   UNL     1       7.922 -47.185  33.320  1.00  0.00     0.146 A 
ATOM     11  O   UNL     1       7.309 -48.276  33.768  1.00  0.00    -0.456 OA
ENDROOT
BRANCH   1  12
ATOM     12  C   UNL     1       6.841 -50.065  35.334  1.00  0.00     0.021 A 
ATOM     13  C   UNL     1       5.768 -50.557  34.566  1.00  0.00     0.016 A 
ATOM     14  C   UNL     1       5.078 -51.703  34.966  1.00  0.00     0.051 A 
ATOM     15  C   UNL     1       5.452 -52.385  36.132  1.00  0.00     0.157 A 
ATOM     16  C   UNL     1       7.219 -50.762  36.495  1.00  0.00     0.062 A 
ATOM     17  C   UNL     1       6.529 -51.912  36.898  1.00  0.00     0.158 A 
BRANCH  15  18
ATOM     18  O   UNL     1       4.760 -53.528  36.527  1.00  0.00    -0.504 OA
ATOM     19  H   UNL     1       5.235 -54.409  36.685  1.00  0.00     0.293 HD
ENDBRANCH  15  18
BRANCH  17  20
ATOM     20  O   UNL     1       6.929 -52.569  38.061  1.00  0.00    -0.504 OA
ATOM     21  H   UNL     1       7.583 -52.154  38.715  1.00  0.00     0.293 HD
ENDBRANCH  17  20
ENDBRANCH   1  12
BRANCH   6  22
ATOM     22  O   UNL     1      10.471 -44.595  34.274  1.00  0.00    -0.507 OA
ATOM     23  H   UNL     1      11.452 -44.532  34.048  1.00  0.00     0.293 HD
ENDBRANCH   6  22
BRANCH   8  24
ATOM     24  O   UNL     1       7.809 -45.063  30.304  1.00  0.00    -0.508 OA
ATOM     25  H   UNL     1       7.605 -44.083  30.152  1.00  0.00     0.293 HD
ENDBRANCH   8  24
TORSDOF 5
ENDMDL
MODEL 8
REMARK VINA RESULT:    -8.043      4.287      7.371
REMARK INTER + INTRA:          -9.719
REMARK INTER:                  -9.427
REMARK INTRA:                  -0.292
REMARK UNBOUND:                -0.265
REMARK SMILES O=c1cc(-c2ccc(O)c(O)c2)oc2cc(O)cc(O)c12
REMARK SMILES IDX 4 1 3 2 2 3 1 4 21 5 19 6 18 7 16 8 15 9 14 10 13 11 5 12
REMARK SMILES IDX 6 13 7 14 8 15 12 16 10 17 9 18 11 20 20 22 17 24
REMARK H PARENT 9 19 11 21 20 23 17 25
REMARK Flexibility Score: inf
ROOT
ATOM      1  C   UNL     1       6.873 -48.084  34.231  1.00  0.00     0.138 A 
ATOM      2  C   UNL     1       5.975 -48.042  33.155  1.00  0.00     0.100 A 
ATOM      3  C   UNL     1       6.053 -47.001  32.230  1.00  0.00     0.197 A 
ATOM      4  O   UNL     1       5.195 -46.956  31.311  1.00  0.00    -0.289 OA
ATOM      5  C   UNL     1       7.058 -46.014  32.367  1.00  0.00     0.107 A 
ATOM      6  C   UNL     1       7.259 -44.928  31.462  1.00  0.00     0.134 A 
ATOM      7  C   UNL     1       8.211 -43.946  31.764  1.00  0.00     0.093 A 
ATOM      8  C   UNL     1       9.010 -44.042  32.906  1.00  0.00     0.123 A 
ATOM      9  C   UNL     1       8.859 -45.126  33.768  1.00  0.00     0.094 A 
ATOM     10  C   UNL     1       7.894 -46.104  33.512  1.00  0.00     0.146 A 
ATOM     11  O   UNL     1       7.771 -47.115  34.368  1.00  0.00    -0.456 OA
ENDROOT
BRANCH   1  12
ATOM     12  C   UNL     1       6.834 -49.170  35.243  1.00  0.00     0.021 A 
ATOM     13  C   UNL     1       7.482 -49.046  36.487  1.00  0.00     0.016 A 
ATOM     14  C   UNL     1       7.421 -50.080  37.424  1.00  0.00     0.051 A 
ATOM     15  C   UNL     1       6.705 -51.250  37.142  1.00  0.00     0.157 A 
ATOM     16  C   UNL     1       6.106 -50.342  34.973  1.00  0.00     0.062 A 
ATOM     17  C   UNL     1       6.043 -51.380  35.911  1.00  0.00     0.158 A 
BRANCH  15  18
ATOM     18  O   UNL     1       6.646 -52.279  38.080  1.00  0.00    -0.504 OA
ATOM     19  H   UNL     1       7.481 -52.761  38.393  1.00  0.00     0.293 HD
ENDBRANCH  15  18
BRANCH  17  20
ATOM     20  O   UNL     1       5.318 -52.530  35.600  1.00  0.00    -0.504 OA
ATOM     21  H   UNL     1       4.961 -52.705  34.668  1.00  0.00     0.293 HD
ENDBRANCH  17  20
ENDBRANCH   1  12
BRANCH   6  22
ATOM     22  O   UNL     1       6.574 -44.782  30.253  1.00  0.00    -0.507 OA
ATOM     23  H   UNL     1       7.003 -44.542  29.372  1.00  0.00     0.293 HD
ENDBRANCH   6  22
BRANCH   8  24
ATOM     24  O   UNL     1       9.965 -43.068  33.190  1.00  0.00    -0.508 OA
ATOM     25  H   UNL     1       9.700 -42.137  33.485  1.00  0.00     0.293 HD
ENDBRANCH   8  24
TORSDOF 5
ENDMDL
MODEL 9
REMARK VINA RESULT:    -7.976      3.370      5.695
REMARK INTER + INTRA:          -9.640
REMARK INTER:                  -9.377
REMARK INTRA:                  -0.263
REMARK UNBOUND:                -0.265
REMARK SMILES O=c1cc(-c2ccc(O)c(O)c2)oc2cc(O)cc(O)c12
REMARK SMILES IDX 4 1 3 2 2 3 1 4 21 5 19 6 18 7 16 8 15 9 14 10 13 11 5 12
REMARK SMILES IDX 6 13 7 14 8 15 12 16 10 17 9 18 11 20 20 22 17 24
REMARK H PARENT 9 19 11 21 20 23 17 25
REMARK Flexibility Score: inf
ROOT
ATOM      1  C   UNL     1       7.872 -47.405  38.142  1.00  0.00     0.138 A 
ATOM      2  C   UNL     1       8.003 -46.754  36.907  1.00  0.00     0.100 A 
ATOM      3  C   UNL     1       9.261 -46.333  36.478  1.00  0.00     0.197 A 
ATOM      4  O   UNL     1       9.338 -45.697  35.395  1.00  0.00    -0.289 OA
ATOM      5  C   UNL     1      10.400 -46.594  37.277  1.00  0.00     0.107 A 
ATOM      6  C   UNL     1      11.739 -46.246  36.923  1.00  0.00     0.134 A 
ATOM      7  C   UNL     1      12.771 -46.449  37.846  1.00  0.00     0.093 A 
ATOM      8  C   UNL     1      12.524 -47.042  39.087  1.00  0.00     0.123 A 
ATOM      9  C   UNL     1      11.230 -47.434  39.421  1.00  0.00     0.094 A 
ATOM     10  C   UNL     1      10.171 -47.213  38.535  1.00  0.00     0.146 A 
ATOM     11  O   UNL     1       8.949 -47.589  38.898  1.00  0.00    -0.456 OA
ENDROOT
BRANCH   1  12
ATOM     12  C   UNL     1       6.556 -47.875  38.646  1.00  0.00     0.021 A 
ATOM     13  C   UNL     1       5.875 -47.201  39.678  1.00  0.00     0.016 A 
ATOM     14  C   UNL     1       4.635 -47.660  40.125  1.00  0.00     0.051 A 
ATOM     15  C   UNL     1       4.047 -48.793  39.546  1.00  0.00     0.157 A 
ATOM     16  C   UNL     1       5.954 -49.003  38.060  1.00  0.00     0.062 A 
ATOM     17  C   UNL     1       4.711 -49.465  38.507  1.00  0.00     0.158 A 
BRANCH  15  18
ATOM     18  O   UNL     1       2.809 -49.247  39.996  1.00  0.00    -0.504 OA
ATOM     19  H   UNL     1       2.226 -49.851  39.428  1.00  0.00     0.293 HD
ENDBRANCH  15  18
BRANCH  17  20
ATOM     20  O   UNL     1       4.152 -50.593  37.906  1.00  0.00    -0.504 OA
ATOM     21  H   UNL     1       4.720 -51.367  37.584  1.00  0.00     0.293 HD
ENDBRANCH  17  20
ENDBRANCH   1  12
BRANCH   6  22
ATOM     22  O   UNL     1      12.107 -45.726  35.679  1.00  0.00    -0.507 OA
ATOM     23  H   UNL     1      12.314 -44.756  35.497  1.00  0.00     0.293 HD
ENDBRANCH   6  22
BRANCH   8  24
ATOM     24  O   UNL     1      13.561 -47.254  39.993  1.00  0.00    -0.508 OA
ATOM     25  H   UNL     1      14.203 -46.514  40.246  1.00  0.00     0.293 HD
ENDBRANCH   8  24
TORSDOF 5
ENDMDL
