MODEL 1
REMARK VINA RESULT:    -4.270      0.000      0.000
REMARK INTER + INTRA:          -5.150
REMARK INTER:                  -5.143
REMARK INTRA:                  -0.006
REMARK UNBOUND:                -0.006
REMARK SMILES CC[C@@H](C)[C@H]([NH3+])C(=O)[O-]
REMARK SMILES IDX 3 1 4 2 5 3 6 4 7 8 8 9 9 10 2 11 1 12
REMARK H PARENT 6 5 6 6 6 7
REMARK Flexibility Score: inf
ROOT
ATOM      1  C   UNL     1      45.250  58.192  92.357  1.00  0.00     0.050 C 
ATOM      2  C   UNL     1      43.768  58.047  91.958  1.00  0.00     0.014 C 
ENDROOT
BRANCH   1   3
ATOM      3  C   UNL     1      46.239  58.210  91.147  1.00  0.00     0.230 C 
BRANCH   3   4
ATOM      4  N   UNL     1      45.728  58.951  89.986  1.00  0.00    -0.350 N 
ATOM      5  H   UNL     1      46.219  58.673  89.107  1.00  0.00     0.345 HD
ATOM      6  H   UNL     1      44.701  58.794  89.886  1.00  0.00     0.345 HD
ATOM      7  H   UNL     1      45.864  59.979  90.133  1.00  0.00     0.345 HD
ENDBRANCH   3   4
BRANCH   3   8
ATOM      8  C   UNL     1      46.647  56.810  90.758  1.00  0.00     0.099 C 
ATOM      9  O   UNL     1      47.422  56.613  89.783  1.00  0.00    -0.544 OA
ATOM     10  O   UNL     1      46.127  55.722  91.447  1.00  0.00    -0.544 OA
ENDBRANCH   3   8
ENDBRANCH   1   3
BRANCH   1  11
ATOM     11  C   UNL     1      45.498  59.350  93.367  1.00  0.00     0.006 C 
ATOM     12  C   UNL     1      44.783  59.215  94.717  1.00  0.00     0.004 C 
ENDBRANCH   1  11
TORSDOF 4
ENDMDL
MODEL 2
REMARK VINA RESULT:    -4.261      2.017      3.742
REMARK INTER + INTRA:          -5.139
REMARK INTER:                  -5.122
REMARK INTRA:                  -0.017
REMARK UNBOUND:                -0.006
REMARK SMILES CC[C@@H](C)[C@H]([NH3+])C(=O)[O-]
REMARK SMILES IDX 3 1 4 2 5 3 6 4 7 8 8 9 9 10 2 11 1 12
REMARK H PARENT 6 5 6 6 6 7
REMARK Flexibility Score: inf
ROOT
ATOM      1  C   UNL     1      46.200  58.026  90.424  1.00  0.00     0.050 C 
ATOM      2  C   UNL     1      47.684  58.056  90.845  1.00  0.00     0.014 C 
ENDROOT
BRANCH   1   3
ATOM      3  C   UNL     1      45.196  58.193  91.609  1.00  0.00     0.230 C 
BRANCH   3   4
ATOM      4  N   UNL     1      45.647  59.154  92.626  1.00  0.00    -0.350 N 
ATOM      5  H   UNL     1      44.853  59.487  93.218  1.00  0.00     0.345 HD
ATOM      6  H   UNL     1      46.383  58.719  93.226  1.00  0.00     0.345 HD
ATOM      7  H   UNL     1      46.086  59.983  92.161  1.00  0.00     0.345 HD
ENDBRANCH   3   4
BRANCH   3   8
ATOM      8  C   UNL     1      44.865  56.860  92.235  1.00  0.00     0.099 C 
ATOM      9  O   UNL     1      44.109  56.791  93.241  1.00  0.00    -0.544 OA
ATOM     10  O   UNL     1      45.437  55.700  91.730  1.00  0.00    -0.544 OA
ENDBRANCH   3   8
ENDBRANCH   1   3
BRANCH   1  11
ATOM     11  C   UNL     1      45.891  58.964  89.222  1.00  0.00     0.006 C 
ATOM     12  C   UNL     1      46.569  58.589  87.898  1.00  0.00     0.004 C 
ENDBRANCH   1  11
TORSDOF 4
ENDMDL
MODEL 3
REMARK VINA RESULT:    -4.061      2.527      3.819
REMARK INTER + INTRA:          -4.898
REMARK INTER:                  -4.980
REMARK INTRA:                   0.082
REMARK UNBOUND:                -0.006
REMARK SMILES CC[C@@H](C)[C@H]([NH3+])C(=O)[O-]
REMARK SMILES IDX 3 1 4 2 5 3 6 4 7 8 8 9 9 10 2 11 1 12
REMARK H PARENT 6 5 6 6 6 7
REMARK Flexibility Score: inf
ROOT
ATOM      1  C   UNL     1      45.354  58.539  92.834  1.00  0.00     0.050 C 
ATOM      2  C   UNL     1      45.919  59.834  93.451  1.00  0.00     0.014 C 
ENDROOT
BRANCH   1   3
ATOM      3  C   UNL     1      44.086  57.985  93.560  1.00  0.00     0.230 C 
BRANCH   3   4
ATOM      4  N   UNL     1      43.918  58.508  94.924  1.00  0.00    -0.350 N 
ATOM      5  H   UNL     1      43.059  59.096  95.005  1.00  0.00     0.345 HD
ATOM      6  H   UNL     1      43.876  57.718  95.605  1.00  0.00     0.345 HD
ATOM      7  H   UNL     1      44.748  59.090  95.185  1.00  0.00     0.345 HD
ENDBRANCH   3   4
BRANCH   3   8
ATOM      8  C   UNL     1      44.071  56.475  93.555  1.00  0.00     0.099 C 
ATOM      9  O   UNL     1      43.467  55.834  94.456  1.00  0.00    -0.544 OA
ATOM     10  O   UNL     1      44.771  55.782  92.576  1.00  0.00    -0.544 OA
ENDBRANCH   3   8
ENDBRANCH   1   3
BRANCH   1  11
ATOM     11  C   UNL     1      45.186  58.624  91.289  1.00  0.00     0.006 C 
ATOM     12  C   UNL     1      46.402  58.180  90.466  1.00  0.00     0.004 C 
ENDBRANCH   1  11
TORSDOF 4
ENDMDL
MODEL 4
REMARK VINA RESULT:    -4.029      1.823      2.393
REMARK INTER + INTRA:          -4.860
REMARK INTER:                  -4.981
REMARK INTRA:                   0.120
REMARK UNBOUND:                -0.006
REMARK SMILES CC[C@@H](C)[C@H]([NH3+])C(=O)[O-]
REMARK SMILES IDX 3 1 4 2 5 3 6 4 7 8 8 9 9 10 2 11 1 12
REMARK H PARENT 6 5 6 6 6 7
REMARK Flexibility Score: inf
ROOT
ATOM      1  C   UNL     1      44.690  58.969  93.133  1.00  0.00     0.050 C 
ATOM      2  C   UNL     1      46.025  59.738  93.218  1.00  0.00     0.014 C 
ENDROOT
BRANCH   1   3
ATOM      3  C   UNL     1      44.669  57.845  92.049  1.00  0.00     0.230 C 
BRANCH   3   4
ATOM      4  N   UNL     1      44.674  56.488  92.614  1.00  0.00    -0.350 N 
ATOM      5  H   UNL     1      44.802  56.504  93.651  1.00  0.00     0.345 HD
ATOM      6  H   UNL     1      43.784  55.998  92.372  1.00  0.00     0.345 HD
ATOM      7  H   UNL     1      45.452  55.930  92.190  1.00  0.00     0.345 HD
ENDBRANCH   3   4
BRANCH   3   8
ATOM      8  C   UNL     1      45.794  58.021  91.058  1.00  0.00     0.099 C 
ATOM      9  O   UNL     1      46.823  57.297  91.117  1.00  0.00    -0.544 OA
ATOM     10  O   UNL     1      45.720  59.025  90.101  1.00  0.00    -0.544 OA
ENDBRANCH   3   8
ENDBRANCH   1   3
BRANCH   1  11
ATOM     11  C   UNL     1      44.174  58.492  94.521  1.00  0.00     0.006 C 
ATOM     12  C   UNL     1      44.108  59.571  95.609  1.00  0.00     0.004 C 
ENDBRANCH   1  11
TORSDOF 4
ENDMDL
MODEL 5
REMARK VINA RESULT:    -4.008      1.655      2.313
REMARK INTER + INTRA:          -4.834
REMARK INTER:                  -4.917
REMARK INTRA:                   0.084
REMARK UNBOUND:                -0.006
REMARK SMILES CC[C@@H](C)[C@H]([NH3+])C(=O)[O-]
REMARK SMILES IDX 3 1 4 2 5 3 6 4 7 8 8 9 9 10 2 11 1 12
REMARK H PARENT 6 5 6 6 6 7
REMARK Flexibility Score: inf
ROOT
ATOM      1  C   UNL     1      46.022  58.315  89.984  1.00  0.00     0.050 C 
ATOM      2  C   UNL     1      45.497  59.477  89.116  1.00  0.00     0.014 C 
ENDROOT
BRANCH   1   3
ATOM      3  C   UNL     1      47.302  57.621  89.416  1.00  0.00     0.230 C 
BRANCH   3   4
ATOM      4  N   UNL     1      47.527  57.888  87.988  1.00  0.00    -0.350 N 
ATOM      5  H   UNL     1      46.946  58.688  87.651  1.00  0.00     0.345 HD
ATOM      6  H   UNL     1      48.539  58.084  87.818  1.00  0.00     0.345 HD
ATOM      7  H   UNL     1      47.285  57.039  87.426  1.00  0.00     0.345 HD
ENDBRANCH   3   4
BRANCH   3   8
ATOM      8  C   UNL     1      47.284  56.137  89.692  1.00  0.00     0.099 C 
ATOM      9  O   UNL     1      47.858  55.330  88.912  1.00  0.00    -0.544 OA
ATOM     10  O   UNL     1      46.588  55.647  90.790  1.00  0.00    -0.544 OA
ENDBRANCH   3   8
ENDBRANCH   1   3
BRANCH   1  11
ATOM     11  C   UNL     1      46.145  58.688  91.490  1.00  0.00     0.006 C 
ATOM     12  C   UNL     1      44.923  58.357  92.355  1.00  0.00     0.004 C 
ENDBRANCH   1  11
TORSDOF 4
ENDMDL
MODEL 6
REMARK VINA RESULT:    -3.991      2.259      3.193
REMARK INTER + INTRA:          -4.814
REMARK INTER:                  -4.795
REMARK INTRA:                  -0.019
REMARK UNBOUND:                -0.006
REMARK SMILES CC[C@@H](C)[C@H]([NH3+])C(=O)[O-]
REMARK SMILES IDX 3 1 4 2 5 3 6 4 7 8 8 9 9 10 2 11 1 12
REMARK H PARENT 6 5 6 6 6 7
REMARK Flexibility Score: inf
ROOT
ATOM      1  C   UNL     1      45.150  57.532  92.524  1.00  0.00     0.050 C 
ATOM      2  C   UNL     1      44.501  58.376  93.640  1.00  0.00     0.014 C 
ENDROOT
BRANCH   1   3
ATOM      3  C   UNL     1      44.467  56.145  92.293  1.00  0.00     0.230 C 
BRANCH   3   4
ATOM      4  N   UNL     1      43.543  55.762  93.369  1.00  0.00    -0.350 N 
ATOM      5  H   UNL     1      44.046  55.612  94.272  1.00  0.00     0.345 HD
ATOM      6  H   UNL     1      42.809  56.496  93.486  1.00  0.00     0.345 HD
ATOM      7  H   UNL     1      43.047  54.877  93.112  1.00  0.00     0.345 HD
ENDBRANCH   3   4
BRANCH   3   8
ATOM      8  C   UNL     1      45.495  55.066  92.054  1.00  0.00     0.099 C 
ATOM      9  O   UNL     1      45.782  54.238  92.960  1.00  0.00    -0.544 OA
ATOM     10  O   UNL     1      46.169  55.011  90.840  1.00  0.00    -0.544 OA
ENDBRANCH   3   8
ENDBRANCH   1   3
BRANCH   1  11
ATOM     11  C   UNL     1      45.372  58.332  91.208  1.00  0.00     0.006 C 
ATOM     12  C   UNL     1      46.790  58.269  90.626  1.00  0.00     0.004 C 
ENDBRANCH   1  11
TORSDOF 4
ENDMDL
MODEL 7
REMARK VINA RESULT:    -3.953      2.171      2.838
REMARK INTER + INTRA:          -4.768
REMARK INTER:                  -4.831
REMARK INTRA:                   0.063
REMARK UNBOUND:                -0.006
REMARK SMILES CC[C@@H](C)[C@H]([NH3+])C(=O)[O-]
REMARK SMILES IDX 3 1 4 2 5 3 6 4 7 8 8 9 9 10 2 11 1 12
REMARK H PARENT 6 5 6 6 6 7
REMARK Flexibility Score: inf
ROOT
ATOM      1  C   UNL     1      46.001  57.443  90.798  1.00  0.00     0.050 C 
ATOM      2  C   UNL     1      46.765  58.162  89.668  1.00  0.00     0.014 C 
ENDROOT
BRANCH   1   3
ATOM      3  C   UNL     1      46.653  56.099  91.256  1.00  0.00     0.230 C 
BRANCH   3   4
ATOM      4  N   UNL     1      47.589  55.537  90.272  1.00  0.00    -0.350 N 
ATOM      5  H   UNL     1      47.523  54.496  90.230  1.00  0.00     0.345 HD
ATOM      6  H   UNL     1      47.401  55.946  89.329  1.00  0.00     0.345 HD
ATOM      7  H   UNL     1      48.570  55.800  90.525  1.00  0.00     0.345 HD
ENDBRANCH   3   4
BRANCH   3   8
ATOM      8  C   UNL     1      45.602  55.086  91.641  1.00  0.00     0.099 C 
ATOM      9  O   UNL     1      44.912  55.239  92.685  1.00  0.00    -0.544 OA
ATOM     10  O   UNL     1      45.425  53.947  90.866  1.00  0.00    -0.544 OA
ENDBRANCH   3   8
ENDBRANCH   1   3
BRANCH   1  11
ATOM     11  C   UNL     1      45.639  58.384  91.983  1.00  0.00     0.006 C 
ATOM     12  C   UNL     1      44.155  58.427  92.366  1.00  0.00     0.004 C 
ENDBRANCH   1  11
TORSDOF 4
ENDMDL
MODEL 8
REMARK VINA RESULT:    -3.928      2.769      3.979
REMARK INTER + INTRA:          -4.738
REMARK INTER:                  -4.653
REMARK INTRA:                  -0.084
REMARK UNBOUND:                -0.006
REMARK SMILES CC[C@@H](C)[C@H]([NH3+])C(=O)[O-]
REMARK SMILES IDX 3 1 4 2 5 3 6 4 7 8 8 9 9 10 2 11 1 12
REMARK H PARENT 6 5 6 6 6 7
REMARK Flexibility Score: inf
ROOT
ATOM      1  C   UNL     1      45.976  56.642  90.986  1.00  0.00     0.050 C 
ATOM      2  C   UNL     1      46.766  55.352  90.685  1.00  0.00     0.014 C 
ENDROOT
BRANCH   1   3
ATOM      3  C   UNL     1      45.248  56.637  92.369  1.00  0.00     0.230 C 
BRANCH   3   4
ATOM      4  N   UNL     1      44.373  55.473  92.565  1.00  0.00    -0.350 N 
ATOM      5  H   UNL     1      43.768  55.585  93.409  1.00  0.00     0.345 HD
ATOM      6  H   UNL     1      43.780  55.326  91.717  1.00  0.00     0.345 HD
ATOM      7  H   UNL     1      44.952  54.609  92.682  1.00  0.00     0.345 HD
ENDBRANCH   3   4
BRANCH   3   8
ATOM      8  C   UNL     1      44.492  57.925  92.591  1.00  0.00     0.099 C 
ATOM      9  O   UNL     1      43.494  58.216  91.880  1.00  0.00    -0.544 OA
ATOM     10  O   UNL     1      44.929  58.824  93.556  1.00  0.00    -0.544 OA
ENDBRANCH   3   8
ENDBRANCH   1   3
BRANCH   1  11
ATOM     11  C   UNL     1      46.804  57.935  90.734  1.00  0.00     0.006 C 
ATOM     12  C   UNL     1      47.193  58.198  89.274  1.00  0.00     0.004 C 
ENDBRANCH   1  11
TORSDOF 4
ENDMDL
MODEL 9
REMARK VINA RESULT:    -3.868      2.044      2.466
REMARK INTER + INTRA:          -4.665
REMARK INTER:                  -4.567
REMARK INTRA:                  -0.098
REMARK UNBOUND:                -0.006
REMARK SMILES CC[C@@H](C)[C@H]([NH3+])C(=O)[O-]
REMARK SMILES IDX 3 1 4 2 5 3 6 4 7 8 8 9 9 10 2 11 1 12
REMARK H PARENT 6 5 6 6 6 7
REMARK Flexibility Score: inf
ROOT
ATOM      1  C   UNL     1      45.554  56.681  92.004  1.00  0.00     0.050 C 
ATOM      2  C   UNL     1      44.795  55.438  92.512  1.00  0.00     0.014 C 
ENDROOT
BRANCH   1   3
ATOM      3  C   UNL     1      46.306  56.464  90.653  1.00  0.00     0.230 C 
BRANCH   3   4
ATOM      4  N   UNL     1      47.266  55.351  90.690  1.00  0.00    -0.350 N 
ATOM      5  H   UNL     1      47.176  54.738  89.849  1.00  0.00     0.345 HD
ATOM      6  H   UNL     1      48.239  55.722  90.760  1.00  0.00     0.345 HD
ATOM      7  H   UNL     1      47.102  54.770  91.545  1.00  0.00     0.345 HD
ENDBRANCH   3   4
BRANCH   3   8
ATOM      8  C   UNL     1      46.973  57.736  90.189  1.00  0.00     0.099 C 
ATOM      9  O   UNL     1      47.891  58.267  90.870  1.00  0.00    -0.544 OA
ATOM     10  O   UNL     1      46.539  58.358  89.025  1.00  0.00    -0.544 OA
ENDBRANCH   3   8
ENDBRANCH   1   3
BRANCH   1  11
ATOM     11  C   UNL     1      44.684  57.972  92.020  1.00  0.00     0.006 C 
ATOM     12  C   UNL     1      44.734  58.788  93.318  1.00  0.00     0.004 C 
ENDBRANCH   1  11
TORSDOF 4
ENDMDL
