MODEL 1
REMARK VINA RESULT:    -3.507      0.000      0.000
REMARK INTER + INTRA:          -4.158
REMARK INTER:                  -4.122
REMARK INTRA:                  -0.036
REMARK UNBOUND:                -0.036
REMARK SMILES O=C([O-])CCC(=O)[O-]
REMARK SMILES IDX 4 1 2 2 1 3 3 4 5 5 6 6 7 7 8 8
REMARK H PARENT
REMARK Flexibility Score: inf
ROOT
ATOM      1  C   UNL     1      -2.173 -20.687 -10.174  1.00  0.00     0.059 C 
ENDROOT
BRANCH   1   2
ATOM      2  C   UNL     1      -3.606 -20.946  -9.830  1.00  0.00     0.042 C 
ATOM      3  O   UNL     1      -4.062 -22.119  -9.855  1.00  0.00    -0.550 OA
ATOM      4  O   UNL     1      -4.450 -19.885  -9.529  1.00  0.00    -0.550 OA
ENDBRANCH   1   2
BRANCH   1   5
ATOM      5  C   UNL     1      -1.847 -19.200 -10.028  1.00  0.00     0.059 C 
BRANCH   5   6
ATOM      6  C   UNL     1      -0.703 -18.825 -10.914  1.00  0.00     0.042 C 
ATOM      7  O   UNL     1      -0.838 -17.916 -11.775  1.00  0.00    -0.550 OA
ATOM      8  O   UNL     1       0.501 -19.515 -10.826  1.00  0.00    -0.550 OA
ENDBRANCH   5   6
ENDBRANCH   1   5
TORSDOF 3
ENDMDL
MODEL 2
REMARK VINA RESULT:    -3.488      1.826      2.251
REMARK INTER + INTRA:          -4.135
REMARK INTER:                  -4.016
REMARK INTRA:                  -0.120
REMARK UNBOUND:                -0.036
REMARK SMILES O=C([O-])CCC(=O)[O-]
REMARK SMILES IDX 4 1 2 2 1 3 3 4 5 5 6 6 7 7 8 8
REMARK H PARENT
REMARK Flexibility Score: inf
ROOT
ATOM      1  C   UNL     1      -1.721 -19.007  -9.029  1.00  0.00     0.059 C 
ENDROOT
BRANCH   1   2
ATOM      2  C   UNL     1      -1.534 -20.427  -8.593  1.00  0.00     0.042 C 
ATOM      3  O   UNL     1      -2.510 -21.087  -8.148  1.00  0.00    -0.550 OA
ATOM      4  O   UNL     1      -0.271 -21.005  -8.632  1.00  0.00    -0.550 OA
ENDBRANCH   1   2
BRANCH   1   5
ATOM      5  C   UNL     1      -1.488 -18.875 -10.534  1.00  0.00     0.059 C 
BRANCH   5   6
ATOM      6  C   UNL     1      -0.295 -18.016 -10.806  1.00  0.00     0.042 C 
ATOM      7  O   UNL     1      -0.443 -16.843 -11.240  1.00  0.00    -0.550 OA
ATOM      8  O   UNL     1       0.985 -18.526 -10.628  1.00  0.00    -0.550 OA
ENDBRANCH   5   6
ENDBRANCH   1   5
TORSDOF 3
ENDMDL
MODEL 3
REMARK VINA RESULT:    -3.487      1.861      4.226
REMARK INTER + INTRA:          -4.134
REMARK INTER:                  -4.016
REMARK INTRA:                  -0.118
REMARK UNBOUND:                -0.036
REMARK SMILES O=C([O-])CCC(=O)[O-]
REMARK SMILES IDX 4 1 2 2 1 3 3 4 5 5 6 6 7 7 8 8
REMARK H PARENT
REMARK Flexibility Score: inf
ROOT
ATOM      1  C   UNL     1      -1.393 -19.003 -10.661  1.00  0.00     0.059 C 
ENDROOT
BRANCH   1   2
ATOM      2  C   UNL     1      -0.267 -18.029 -10.810  1.00  0.00     0.042 C 
ATOM      3  O   UNL     1      -0.500 -16.834 -11.132  1.00  0.00    -0.550 OA
ATOM      4  O   UNL     1       1.045 -18.452 -10.639  1.00  0.00    -0.550 OA
ENDBRANCH   1   2
BRANCH   1   5
ATOM      5  C   UNL     1      -1.841 -19.085  -9.201  1.00  0.00     0.059 C 
BRANCH   5   6
ATOM      6  C   UNL     1      -1.545 -20.438  -8.639  1.00  0.00     0.042 C 
ATOM      7  O   UNL     1      -2.447 -21.092  -8.051  1.00  0.00    -0.550 OA
ATOM      8  O   UNL     1      -0.259 -20.960  -8.718  1.00  0.00    -0.550 OA
ENDBRANCH   5   6
ENDBRANCH   1   5
TORSDOF 3
ENDMDL
MODEL 4
REMARK VINA RESULT:    -3.473      0.110      4.225
REMARK INTER + INTRA:          -4.117
REMARK INTER:                  -4.080
REMARK INTRA:                  -0.038
REMARK UNBOUND:                -0.036
REMARK SMILES O=C([O-])CCC(=O)[O-]
REMARK SMILES IDX 4 1 2 2 1 3 3 4 5 5 6 6 7 7 8 8
REMARK H PARENT
REMARK Flexibility Score: inf
ROOT
ATOM      1  C   UNL     1      -1.773 -19.161  -9.997  1.00  0.00     0.059 C 
ENDROOT
BRANCH   1   2
ATOM      2  C   UNL     1      -0.619 -18.774 -10.868  1.00  0.00     0.042 C 
ATOM      3  O   UNL     1      -0.760 -17.885 -11.748  1.00  0.00    -0.550 OA
ATOM      4  O   UNL     1       0.598 -19.431 -10.740  1.00  0.00    -0.550 OA
ENDBRANCH   1   2
BRANCH   1   5
ATOM      5  C   UNL     1      -2.144 -20.628 -10.221  1.00  0.00     0.059 C 
BRANCH   5   6
ATOM      6  C   UNL     1      -3.574 -20.869  -9.853  1.00  0.00     0.042 C 
ATOM      7  O   UNL     1      -4.298 -19.914  -9.466  1.00  0.00    -0.550 OA
ATOM      8  O   UNL     1      -4.094 -22.156  -9.889  1.00  0.00    -0.550 OA
ENDBRANCH   5   6
ENDBRANCH   1   5
TORSDOF 3
ENDMDL
MODEL 5
REMARK VINA RESULT:    -3.459      0.123      4.109
REMARK INTER + INTRA:          -4.101
REMARK INTER:                  -4.062
REMARK INTRA:                  -0.040
REMARK UNBOUND:                -0.036
REMARK SMILES O=C([O-])CCC(=O)[O-]
REMARK SMILES IDX 4 1 2 2 1 3 3 4 5 5 6 6 7 7 8 8
REMARK H PARENT
REMARK Flexibility Score: inf
ROOT
ATOM      1  C   UNL     1      -1.791 -19.228  -9.947  1.00  0.00     0.059 C 
ENDROOT
BRANCH   1   2
ATOM      2  C   UNL     1      -0.696 -18.846 -10.892  1.00  0.00     0.042 C 
ATOM      3  O   UNL     1       0.441 -19.380 -10.795  1.00  0.00    -0.550 OA
ATOM      4  O   UNL     1      -0.915 -17.863 -11.848  1.00  0.00    -0.550 OA
ENDBRANCH   1   2
BRANCH   1   5
ATOM      5  C   UNL     1      -2.234 -20.670 -10.198  1.00  0.00     0.059 C 
BRANCH   5   6
ATOM      6  C   UNL     1      -3.661 -20.858  -9.791  1.00  0.00     0.042 C 
ATOM      7  O   UNL     1      -4.375 -19.860  -9.504  1.00  0.00    -0.550 OA
ATOM      8  O   UNL     1      -4.190 -22.138  -9.678  1.00  0.00    -0.550 OA
ENDBRANCH   5   6
ENDBRANCH   1   5
TORSDOF 3
ENDMDL
MODEL 6
REMARK VINA RESULT:    -3.440      1.848      2.524
REMARK INTER + INTRA:          -4.079
REMARK INTER:                  -3.958
REMARK INTRA:                  -0.121
REMARK UNBOUND:                -0.036
REMARK SMILES O=C([O-])CCC(=O)[O-]
REMARK SMILES IDX 4 1 2 2 1 3 3 4 5 5 6 6 7 7 8 8
REMARK H PARENT
REMARK Flexibility Score: inf
ROOT
ATOM      1  C   UNL     1      -1.742 -19.053  -8.922  1.00  0.00     0.059 C 
ENDROOT
BRANCH   1   2
ATOM      2  C   UNL     1      -1.530 -20.473  -8.499  1.00  0.00     0.042 C 
ATOM      3  O   UNL     1      -2.501 -21.166  -8.096  1.00  0.00    -0.550 OA
ATOM      4  O   UNL     1      -0.251 -21.015  -8.504  1.00  0.00    -0.550 OA
ENDBRANCH   1   2
BRANCH   1   5
ATOM      5  C   UNL     1      -1.592 -18.919 -10.438  1.00  0.00     0.059 C 
BRANCH   5   6
ATOM      6  C   UNL     1      -0.386 -18.100 -10.774  1.00  0.00     0.042 C 
ATOM      7  O   UNL     1       0.760 -18.622 -10.757  1.00  0.00    -0.550 OA
ATOM      8  O   UNL     1      -0.521 -16.746 -11.057  1.00  0.00    -0.550 OA
ENDBRANCH   5   6
ENDBRANCH   1   5
TORSDOF 3
ENDMDL
MODEL 7
REMARK VINA RESULT:    -3.393      1.412      1.713
REMARK INTER + INTRA:          -4.023
REMARK INTER:                  -3.962
REMARK INTRA:                  -0.062
REMARK UNBOUND:                -0.036
REMARK SMILES O=C([O-])CCC(=O)[O-]
REMARK SMILES IDX 4 1 2 2 1 3 3 4 5 5 6 6 7 7 8 8
REMARK H PARENT
REMARK Flexibility Score: inf
ROOT
ATOM      1  C   UNL     1      -2.982 -20.948  -9.008  1.00  0.00     0.059 C 
ENDROOT
BRANCH   1   2
ATOM      2  C   UNL     1      -4.219 -21.678  -9.426  1.00  0.00     0.042 C 
ATOM      3  O   UNL     1      -4.676 -22.611  -8.714  1.00  0.00    -0.550 OA
ATOM      4  O   UNL     1      -4.841 -21.361 -10.627  1.00  0.00    -0.550 OA
ENDBRANCH   1   2
BRANCH   1   5
ATOM      5  C   UNL     1      -2.101 -20.650 -10.222  1.00  0.00     0.059 C 
BRANCH   5   6
ATOM      6  C   UNL     1      -1.574 -19.252 -10.156  1.00  0.00     0.042 C 
ATOM      7  O   UNL     1      -0.828 -18.811 -11.070  1.00  0.00    -0.550 OA
ATOM      8  O   UNL     1      -1.864 -18.450  -9.058  1.00  0.00    -0.550 OA
ENDBRANCH   5   6
ENDBRANCH   1   5
TORSDOF 3
ENDMDL
MODEL 8
REMARK VINA RESULT:    -3.266      1.801      2.211
REMARK INTER + INTRA:          -3.874
REMARK INTER:                  -3.776
REMARK INTRA:                  -0.098
REMARK UNBOUND:                -0.036
REMARK SMILES O=C([O-])CCC(=O)[O-]
REMARK SMILES IDX 4 1 2 2 1 3 3 4 5 5 6 6 7 7 8 8
REMARK H PARENT
REMARK Flexibility Score: inf
ROOT
ATOM      1  C   UNL     1      -2.579 -19.563  -9.676  1.00  0.00     0.059 C 
ENDROOT
BRANCH   1   2
ATOM      2  C   UNL     1      -2.877 -18.765  -8.445  1.00  0.00     0.042 C 
ATOM      3  O   UNL     1      -1.942 -18.224  -7.798  1.00  0.00    -0.550 OA
ATOM      4  O   UNL     1      -4.184 -18.660  -7.986  1.00  0.00    -0.550 OA
ENDBRANCH   1   2
BRANCH   1   5
ATOM      5  C   UNL     1      -1.122 -20.029  -9.671  1.00  0.00     0.059 C 
BRANCH   5   6
ATOM      6  C   UNL     1      -0.336 -19.298 -10.712  1.00  0.00     0.042 C 
ATOM      7  O   UNL     1      -0.885 -18.407 -11.413  1.00  0.00    -0.550 OA
ATOM      8  O   UNL     1       0.992 -19.635 -10.945  1.00  0.00    -0.550 OA
ENDBRANCH   5   6
ENDBRANCH   1   5
TORSDOF 3
ENDMDL
MODEL 9
REMARK VINA RESULT:    -3.183      1.768      4.324
REMARK INTER + INTRA:          -3.777
REMARK INTER:                  -3.715
REMARK INTRA:                  -0.062
REMARK UNBOUND:                -0.036
REMARK SMILES O=C([O-])CCC(=O)[O-]
REMARK SMILES IDX 4 1 2 2 1 3 3 4 5 5 6 6 7 7 8 8
REMARK H PARENT
REMARK Flexibility Score: inf
ROOT
ATOM      1  C   UNL     1      -0.739 -19.508  -9.297  1.00  0.00     0.059 C 
ENDROOT
BRANCH   1   2
ATOM      2  C   UNL     1      -0.181 -19.084 -10.619  1.00  0.00     0.042 C 
ATOM      3  O   UNL     1      -0.883 -18.407 -11.416  1.00  0.00    -0.550 OA
ATOM      4  O   UNL     1       1.098 -19.480 -10.992  1.00  0.00    -0.550 OA
ENDBRANCH   1   2
BRANCH   1   5
ATOM      5  C   UNL     1      -1.790 -18.508  -8.815  1.00  0.00     0.059 C 
BRANCH   5   6
ATOM      6  C   UNL     1      -2.968 -19.225  -8.235  1.00  0.00     0.042 C 
ATOM      7  O   UNL     1      -2.884 -20.447  -7.941  1.00  0.00    -0.550 OA
ATOM      8  O   UNL     1      -4.175 -18.558  -8.065  1.00  0.00    -0.550 OA
ENDBRANCH   5   6
ENDBRANCH   1   5
TORSDOF 3
ENDMDL
