MODEL 1
REMARK VINA RESULT:    -4.187      0.000      0.000
REMARK INTER + INTRA:          -5.570
REMARK INTER:                  -5.411
REMARK INTRA:                  -0.159
REMARK UNBOUND:                -0.159
REMARK SMILES CCCCCCC(=O)[O-]
REMARK SMILES IDX 5 1 6 2 7 3 8 4 9 5 4 6 3 7 2 8 1 9
REMARK H PARENT
REMARK Flexibility Score: inf
ROOT
ATOM      1  C   UNL     1       2.940 -28.912   2.513  1.00  0.00     0.006 C 
ENDROOT
BRANCH   1   2
ATOM      2  C   UNL     1       3.904 -29.562   3.510  1.00  0.00     0.053 C 
BRANCH   2   3
ATOM      3  C   UNL     1       3.164 -30.034   4.722  1.00  0.00     0.041 C 
ATOM      4  O   UNL     1       3.037 -29.277   5.721  1.00  0.00    -0.550 OA
ATOM      5  O   UNL     1       2.658 -31.326   4.769  1.00  0.00    -0.550 OA
ENDBRANCH   2   3
ENDBRANCH   1   2
BRANCH   1   6
ATOM      6  C   UNL     1       3.547 -28.874   1.106  1.00  0.00     0.000 C 
BRANCH   6   7
ATOM      7  C   UNL     1       2.558 -28.282   0.095  1.00  0.00    -0.000 C 
BRANCH   7   8
ATOM      8  C   UNL     1       1.351 -27.659   0.806  1.00  0.00    -0.003 C 
ATOM      9  C   UNL     1       0.640 -26.654  -0.095  1.00  0.00     0.004 C 
ENDBRANCH   7   8
ENDBRANCH   6   7
ENDBRANCH   1   6
TORSDOF 5
ENDMDL
MODEL 2
REMARK VINA RESULT:    -4.133      1.276      2.147
REMARK INTER + INTRA:          -5.500
REMARK INTER:                  -5.331
REMARK INTRA:                  -0.170
REMARK UNBOUND:                -0.159
REMARK SMILES CCCCCCC(=O)[O-]
REMARK SMILES IDX 5 1 6 2 7 3 8 4 9 5 4 6 3 7 2 8 1 9
REMARK H PARENT
REMARK Flexibility Score: inf
ROOT
ATOM      1  C   UNL     1       4.388 -30.133   4.503  1.00  0.00     0.006 C 
ENDROOT
BRANCH   1   2
ATOM      2  C   UNL     1       3.189 -29.595   5.290  1.00  0.00     0.053 C 
BRANCH   2   3
ATOM      3  C   UNL     1       2.537 -30.695   6.067  1.00  0.00     0.041 C 
ATOM      4  O   UNL     1       1.389 -30.529   6.557  1.00  0.00    -0.550 OA
ATOM      5  O   UNL     1       3.216 -31.886   6.291  1.00  0.00    -0.550 OA
ENDBRANCH   2   3
ENDBRANCH   1   2
BRANCH   1   6
ATOM      6  C   UNL     1       4.329 -29.681   3.038  1.00  0.00     0.000 C 
BRANCH   6   7
ATOM      7  C   UNL     1       3.041 -28.900   2.754  1.00  0.00    -0.000 C 
BRANCH   7   8
ATOM      8  C   UNL     1       2.911 -28.578   1.260  1.00  0.00    -0.003 C 
ATOM      9  C   UNL     1       1.587 -27.883   0.960  1.00  0.00     0.004 C 
ENDBRANCH   7   8
ENDBRANCH   6   7
ENDBRANCH   1   6
TORSDOF 5
ENDMDL
MODEL 3
REMARK VINA RESULT:    -4.088      5.639      7.671
REMARK INTER + INTRA:          -5.442
REMARK INTER:                  -5.279
REMARK INTRA:                  -0.163
REMARK UNBOUND:                -0.159
REMARK SMILES CCCCCCC(=O)[O-]
REMARK SMILES IDX 5 1 6 2 7 3 8 4 9 5 4 6 3 7 2 8 1 9
REMARK H PARENT
REMARK Flexibility Score: inf
ROOT
ATOM      1  C   UNL     1      -2.048 -24.137  -0.379  1.00  0.00     0.006 C 
ENDROOT
BRANCH   1   2
ATOM      2  C   UNL     1      -1.223 -25.119  -1.217  1.00  0.00     0.053 C 
BRANCH   2   3
ATOM      3  C   UNL     1      -0.624 -26.177  -0.345  1.00  0.00     0.041 C 
ATOM      4  O   UNL     1       0.626 -26.321  -0.292  1.00  0.00    -0.550 OA
ATOM      5  O   UNL     1      -1.447 -27.038   0.370  1.00  0.00    -0.550 OA
ENDBRANCH   2   3
ENDBRANCH   1   2
BRANCH   1   6
ATOM      6  C   UNL     1      -3.547 -24.426  -0.512  1.00  0.00     0.000 C 
BRANCH   6   7
ATOM      7  C   UNL     1      -4.216 -24.513   0.865  1.00  0.00    -0.000 C 
BRANCH   7   8
ATOM      8  C   UNL     1      -4.442 -23.116   1.456  1.00  0.00    -0.003 C 
ATOM      9  C   UNL     1      -5.494 -23.149   2.560  1.00  0.00     0.004 C 
ENDBRANCH   7   8
ENDBRANCH   6   7
ENDBRANCH   1   6
TORSDOF 5
ENDMDL
MODEL 4
REMARK VINA RESULT:    -4.051      3.899      5.450
REMARK INTER + INTRA:          -5.394
REMARK INTER:                  -5.218
REMARK INTRA:                  -0.176
REMARK UNBOUND:                -0.159
REMARK SMILES CCCCCCC(=O)[O-]
REMARK SMILES IDX 5 1 6 2 7 3 8 4 9 5 4 6 3 7 2 8 1 9
REMARK H PARENT
REMARK Flexibility Score: inf
ROOT
ATOM      1  C   UNL     1       1.263 -27.850   0.067  1.00  0.00     0.006 C 
ENDROOT
BRANCH   1   2
ATOM      2  C   UNL     1       0.892 -26.377  -0.128  1.00  0.00     0.053 C 
BRANCH   2   3
ATOM      3  C   UNL     1      -0.580 -26.234  -0.361  1.00  0.00     0.041 C 
ATOM      4  O   UNL     1      -1.011 -25.374  -1.174  1.00  0.00    -0.550 OA
ATOM      5  O   UNL     1      -1.476 -27.016   0.355  1.00  0.00    -0.550 OA
ENDBRANCH   2   3
ENDBRANCH   1   2
BRANCH   1   6
ATOM      6  C   UNL     1       2.714 -28.111  -0.352  1.00  0.00     0.000 C 
BRANCH   6   7
ATOM      7  C   UNL     1       3.475 -28.869   0.742  1.00  0.00    -0.000 C 
BRANCH   7   8
ATOM      8  C   UNL     1       2.675 -28.899   2.050  1.00  0.00    -0.003 C 
ATOM      9  C   UNL     1       3.566 -29.264   3.233  1.00  0.00     0.004 C 
ENDBRANCH   7   8
ENDBRANCH   6   7
ENDBRANCH   1   6
TORSDOF 5
ENDMDL
MODEL 5
REMARK VINA RESULT:    -4.043      4.737      6.563
REMARK INTER + INTRA:          -5.383
REMARK INTER:                  -5.237
REMARK INTRA:                  -0.146
REMARK UNBOUND:                -0.159
REMARK SMILES CCCCCCC(=O)[O-]
REMARK SMILES IDX 5 1 6 2 7 3 8 4 9 5 4 6 3 7 2 8 1 9
REMARK H PARENT
REMARK Flexibility Score: inf
ROOT
ATOM      1  C   UNL     1       0.133 -26.300  -0.397  1.00  0.00     0.006 C 
ENDROOT
BRANCH   1   2
ATOM      2  C   UNL     1      -0.749 -25.532  -1.386  1.00  0.00     0.053 C 
BRANCH   2   3
ATOM      3  C   UNL     1      -1.883 -24.868  -0.670  1.00  0.00     0.041 C 
ATOM      4  O   UNL     1      -3.007 -25.432  -0.606  1.00  0.00    -0.550 OA
ATOM      5  O   UNL     1      -1.713 -23.606  -0.117  1.00  0.00    -0.550 OA
ENDBRANCH   2   3
ENDBRANCH   1   2
BRANCH   1   6
ATOM      6  C   UNL     1       1.409 -26.808  -1.079  1.00  0.00     0.000 C 
BRANCH   6   7
ATOM      7  C   UNL     1       1.966 -28.039  -0.355  1.00  0.00    -0.000 C 
BRANCH   7   8
ATOM      8  C   UNL     1       1.727 -27.944   1.156  1.00  0.00    -0.003 C 
ATOM      9  C   UNL     1       2.851 -28.620   1.936  1.00  0.00     0.004 C 
ENDBRANCH   7   8
ENDBRANCH   6   7
ENDBRANCH   1   6
TORSDOF 5
ENDMDL
MODEL 6
REMARK VINA RESULT:    -3.965      1.268      2.175
REMARK INTER + INTRA:          -5.283
REMARK INTER:                  -5.174
REMARK INTRA:                  -0.109
REMARK UNBOUND:                -0.159
REMARK SMILES CCCCCCC(=O)[O-]
REMARK SMILES IDX 5 1 6 2 7 3 8 4 9 5 4 6 3 7 2 8 1 9
REMARK H PARENT
REMARK Flexibility Score: inf
ROOT
ATOM      1  C   UNL     1       2.038 -28.249   1.445  1.00  0.00     0.006 C 
ENDROOT
BRANCH   1   2
ATOM      2  C   UNL     1       3.371 -28.911   1.808  1.00  0.00     0.053 C 
BRANCH   2   3
ATOM      3  C   UNL     1       3.208 -29.793   3.006  1.00  0.00     0.041 C 
ATOM      4  O   UNL     1       2.886 -31.002   2.863  1.00  0.00    -0.550 OA
ATOM      5  O   UNL     1       3.364 -29.269   4.283  1.00  0.00    -0.550 OA
ENDBRANCH   2   3
ENDBRANCH   1   2
BRANCH   1   6
ATOM      6  C   UNL     1       1.892 -28.106  -0.074  1.00  0.00     0.000 C 
BRANCH   6   7
ATOM      7  C   UNL     1       1.254 -26.761  -0.442  1.00  0.00    -0.000 C 
BRANCH   7   8
ATOM      8  C   UNL     1      -0.248 -26.762  -0.135  1.00  0.00    -0.003 C 
ATOM      9  C   UNL     1      -0.939 -25.553  -0.758  1.00  0.00     0.004 C 
ENDBRANCH   7   8
ENDBRANCH   6   7
ENDBRANCH   1   6
TORSDOF 5
ENDMDL
MODEL 7
REMARK VINA RESULT:    -3.964      6.593      8.085
REMARK INTER + INTRA:          -5.281
REMARK INTER:                  -4.921
REMARK INTRA:                  -0.360
REMARK UNBOUND:                -0.159
REMARK SMILES CCCCCCC(=O)[O-]
REMARK SMILES IDX 5 1 6 2 7 3 8 4 9 5 4 6 3 7 2 8 1 9
REMARK H PARENT
REMARK Flexibility Score: inf
ROOT
ATOM      1  C   UNL     1      -2.834 -26.347   0.777  1.00  0.00     0.006 C 
ENDROOT
BRANCH   1   2
ATOM      2  C   UNL     1      -1.543 -26.234  -0.039  1.00  0.00     0.053 C 
BRANCH   2   3
ATOM      3  C   UNL     1      -1.429 -24.875  -0.654  1.00  0.00     0.041 C 
ATOM      4  O   UNL     1      -1.456 -24.742  -1.906  1.00  0.00    -0.550 OA
ATOM      5  O   UNL     1      -1.243 -23.760   0.153  1.00  0.00    -0.550 OA
ENDBRANCH   2   3
ENDBRANCH   1   2
BRANCH   1   6
ATOM      6  C   UNL     1      -4.067 -26.219  -0.126  1.00  0.00     0.000 C 
BRANCH   6   7
ATOM      7  C   UNL     1      -4.896 -24.984   0.247  1.00  0.00    -0.000 C 
BRANCH   7   8
ATOM      8  C   UNL     1      -4.426 -24.386   1.578  1.00  0.00    -0.003 C 
ATOM      9  C   UNL     1      -4.632 -22.875   1.608  1.00  0.00     0.004 C 
ENDBRANCH   7   8
ENDBRANCH   6   7
ENDBRANCH   1   6
TORSDOF 5
ENDMDL
MODEL 8
REMARK VINA RESULT:    -3.957      4.636      6.678
REMARK INTER + INTRA:          -5.273
REMARK INTER:                  -5.100
REMARK INTRA:                  -0.172
REMARK UNBOUND:                -0.159
REMARK SMILES CCCCCCC(=O)[O-]
REMARK SMILES IDX 5 1 6 2 7 3 8 4 9 5 4 6 3 7 2 8 1 9
REMARK H PARENT
REMARK Flexibility Score: inf
ROOT
ATOM      1  C   UNL     1      -0.978 -25.459  -1.569  1.00  0.00     0.006 C 
ENDROOT
BRANCH   1   2
ATOM      2  C   UNL     1      -0.602 -25.993  -0.184  1.00  0.00     0.053 C 
BRANCH   2   3
ATOM      3  C   UNL     1       0.648 -26.812  -0.258  1.00  0.00     0.041 C 
ATOM      4  O   UNL     1       1.010 -27.506   0.728  1.00  0.00    -0.550 OA
ATOM      5  O   UNL     1       1.439 -26.771  -1.399  1.00  0.00    -0.550 OA
ENDBRANCH   2   3
ENDBRANCH   1   2
BRANCH   1   6
ATOM      6  C   UNL     1      -1.989 -24.312  -1.461  1.00  0.00     0.000 C 
BRANCH   6   7
ATOM      7  C   UNL     1      -2.339 -24.023   0.003  1.00  0.00    -0.000 C 
BRANCH   7   8
ATOM      8  C   UNL     1      -3.845 -24.178   0.250  1.00  0.00    -0.003 C 
ATOM      9  C   UNL     1      -4.276 -23.438   1.513  1.00  0.00     0.004 C 
ENDBRANCH   7   8
ENDBRANCH   6   7
ENDBRANCH   1   6
TORSDOF 5
ENDMDL
MODEL 9
REMARK VINA RESULT:    -3.937      3.714      5.309
REMARK INTER + INTRA:          -5.247
REMARK INTER:                  -5.067
REMARK INTRA:                  -0.180
REMARK UNBOUND:                -0.159
REMARK SMILES CCCCCCC(=O)[O-]
REMARK SMILES IDX 5 1 6 2 7 3 8 4 9 5 4 6 3 7 2 8 1 9
REMARK H PARENT
REMARK Flexibility Score: inf
ROOT
ATOM      1  C   UNL     1       2.115 -28.696   0.260  1.00  0.00     0.006 C 
ENDROOT
BRANCH   1   2
ATOM      2  C   UNL     1       1.248 -27.537   0.758  1.00  0.00     0.053 C 
BRANCH   2   3
ATOM      3  C   UNL     1       0.745 -26.726  -0.394  1.00  0.00     0.041 C 
ATOM      4  O   UNL     1      -0.360 -26.126  -0.313  1.00  0.00    -0.550 OA
ATOM      5  O   UNL     1       1.472 -26.672  -1.577  1.00  0.00    -0.550 OA
ENDBRANCH   2   3
ENDBRANCH   1   2
BRANCH   1   6
ATOM      6  C   UNL     1       3.372 -28.853   1.124  1.00  0.00     0.000 C 
BRANCH   6   7
ATOM      7  C   UNL     1       3.010 -28.939   2.612  1.00  0.00    -0.000 C 
BRANCH   7   8
ATOM      8  C   UNL     1       4.116 -29.640   3.408  1.00  0.00    -0.003 C 
ATOM      9  C   UNL     1       5.322 -29.947   2.526  1.00  0.00     0.004 C 
ENDBRANCH   7   8
ENDBRANCH   6   7
ENDBRANCH   1   6
TORSDOF 5
ENDMDL
