MODEL 1
REMARK VINA RESULT:    -4.494      0.000      0.000
REMARK INTER + INTRA:          -9.839
REMARK INTER:                  -8.171
REMARK INTRA:                  -1.668
REMARK UNBOUND:                -1.668
REMARK SMILES CCCCCCCCCCCCCCCC(=O)[O-]
REMARK SMILES IDX 9 1 10 2 11 3 12 4 13 5 14 6 15 7 16 8 17 9 18 10 8 11 7 12
REMARK SMILES IDX 6 13 5 14 4 15 3 16 2 17 1 18
REMARK H PARENT
REMARK Flexibility Score: inf
ROOT
ATOM      1  C   UNL     1      49.601  76.434  44.068  1.00  0.00     0.000 C 
ENDROOT
BRANCH   1   2
ATOM      2  C   UNL     1      48.807  77.551  43.369  1.00  0.00     0.000 C 
BRANCH   2   3
ATOM      3  C   UNL     1      48.824  77.450  41.829  1.00  0.00     0.000 C 
BRANCH   3   4
ATOM      4  C   UNL     1      49.206  78.781  41.160  1.00  0.00     0.000 C 
BRANCH   4   5
ATOM      5  C   UNL     1      50.598  78.723  40.493  1.00  0.00     0.000 C 
BRANCH   5   6
ATOM      6  C   UNL     1      51.497  79.924  40.833  1.00  0.00     0.006 C 
BRANCH   6   7
ATOM      7  C   UNL     1      51.461  80.291  42.321  1.00  0.00     0.053 C 
BRANCH   7   8
ATOM      8  C   UNL     1      52.834  80.211  42.912  1.00  0.00     0.041 C 
ATOM      9  O   UNL     1      53.058  79.457  43.894  1.00  0.00    -0.550 OA
ATOM     10  O   UNL     1      53.854  81.007  42.407  1.00  0.00    -0.550 OA
ENDBRANCH   7   8
ENDBRANCH   6   7
ENDBRANCH   5   6
ENDBRANCH   4   5
ENDBRANCH   3   4
ENDBRANCH   2   3
ENDBRANCH   1   2
BRANCH   1  11
ATOM     11  C   UNL     1      51.002  76.233  43.470  1.00  0.00     0.000 C 
BRANCH  11  12
ATOM     12  C   UNL     1      51.556  74.820  43.713  1.00  0.00    -0.000 C 
BRANCH  12  13
ATOM     13  C   UNL     1      51.259  73.862  42.547  1.00  0.00    -0.000 C 
BRANCH  13  14
ATOM     14  C   UNL     1      50.232  72.781  42.919  1.00  0.00    -0.000 C 
BRANCH  14  15
ATOM     15  C   UNL     1      49.164  72.577  41.832  1.00  0.00    -0.000 C 
BRANCH  15  16
ATOM     16  C   UNL     1      49.038  73.826  40.946  1.00  0.00    -0.000 C 
BRANCH  16  17
ATOM     17  C   UNL     1      47.612  74.030  40.413  1.00  0.00    -0.003 C 
ATOM     18  C   UNL     1      46.657  72.912  40.829  1.00  0.00     0.004 C 
ENDBRANCH  16  17
ENDBRANCH  15  16
ENDBRANCH  14  15
ENDBRANCH  13  14
ENDBRANCH  12  13
ENDBRANCH  11  12
ENDBRANCH   1  11
TORSDOF 14
ENDMDL
MODEL 2
REMARK VINA RESULT:    -4.422      0.971      1.697
REMARK INTER + INTRA:          -9.709
REMARK INTER:                  -8.155
REMARK INTRA:                  -1.554
REMARK UNBOUND:                -1.668
REMARK SMILES CCCCCCCCCCCCCCCC(=O)[O-]
REMARK SMILES IDX 9 1 10 2 11 3 12 4 13 5 14 6 15 7 16 8 17 9 18 10 8 11 7 12
REMARK SMILES IDX 6 13 5 14 4 15 3 16 2 17 1 18
REMARK H PARENT
REMARK Flexibility Score: inf
ROOT
ATOM      1  C   UNL     1      51.520  75.223  44.094  1.00  0.00     0.000 C 
ENDROOT
BRANCH   1   2
ATOM      2  C   UNL     1      50.902  76.580  43.717  1.00  0.00     0.000 C 
BRANCH   2   3
ATOM      3  C   UNL     1      49.566  76.460  42.954  1.00  0.00     0.000 C 
BRANCH   3   4
ATOM      4  C   UNL     1      49.688  76.907  41.487  1.00  0.00     0.000 C 
BRANCH   4   5
ATOM      5  C   UNL     1      48.920  78.218  41.210  1.00  0.00     0.000 C 
BRANCH   5   6
ATOM      6  C   UNL     1      49.698  79.485  41.604  1.00  0.00     0.006 C 
BRANCH   6   7
ATOM      7  C   UNL     1      51.149  79.470  41.109  1.00  0.00     0.053 C 
BRANCH   7   8
ATOM      8  C   UNL     1      52.003  80.347  41.971  1.00  0.00     0.041 C 
ATOM      9  O   UNL     1      52.543  79.882  43.009  1.00  0.00    -0.550 OA
ATOM     10  O   UNL     1      52.162  81.689  41.654  1.00  0.00    -0.550 OA
ENDBRANCH   7   8
ENDBRANCH   6   7
ENDBRANCH   5   6
ENDBRANCH   4   5
ENDBRANCH   3   4
ENDBRANCH   2   3
ENDBRANCH   1   2
BRANCH   1  11
ATOM     11  C   UNL     1      51.400  74.180  42.971  1.00  0.00     0.000 C 
BRANCH  11  12
ATOM     12  C   UNL     1      51.551  72.737  43.480  1.00  0.00    -0.000 C 
BRANCH  12  13
ATOM     13  C   UNL     1      50.197  72.080  43.799  1.00  0.00    -0.000 C 
BRANCH  13  14
ATOM     14  C   UNL     1      49.012  72.840  43.182  1.00  0.00    -0.000 C 
BRANCH  14  15
ATOM     15  C   UNL     1      48.526  72.214  41.865  1.00  0.00    -0.000 C 
BRANCH  15  16
ATOM     16  C   UNL     1      48.691  73.197  40.696  1.00  0.00    -0.000 C 
BRANCH  16  17
ATOM     17  C   UNL     1      47.450  74.077  40.485  1.00  0.00    -0.003 C 
ATOM     18  C   UNL     1      46.141  73.313  40.682  1.00  0.00     0.004 C 
ENDBRANCH  16  17
ENDBRANCH  15  16
ENDBRANCH  14  15
ENDBRANCH  13  14
ENDBRANCH  12  13
ENDBRANCH  11  12
ENDBRANCH   1  11
TORSDOF 14
ENDMDL
MODEL 3
REMARK VINA RESULT:    -4.400     10.514     13.193
REMARK INTER + INTRA:          -9.668
REMARK INTER:                  -7.575
REMARK INTRA:                  -2.094
REMARK UNBOUND:                -1.668
REMARK SMILES CCCCCCCCCCCCCCCC(=O)[O-]
REMARK SMILES IDX 9 1 10 2 11 3 12 4 13 5 14 6 15 7 16 8 17 9 18 10 8 11 7 12
REMARK SMILES IDX 6 13 5 14 4 15 3 16 2 17 1 18
REMARK H PARENT
REMARK Flexibility Score: inf
ROOT
ATOM      1  C   UNL     1      62.287  77.441  45.806  1.00  0.00     0.000 C 
ENDROOT
BRANCH   1   2
ATOM      2  C   UNL     1      61.252  77.634  44.685  1.00  0.00     0.000 C 
BRANCH   2   3
ATOM      3  C   UNL     1      60.222  76.488  44.589  1.00  0.00     0.000 C 
BRANCH   3   4
ATOM      4  C   UNL     1      59.228  76.496  45.764  1.00  0.00     0.000 C 
BRANCH   4   5
ATOM      5  C   UNL     1      59.006  75.085  46.351  1.00  0.00     0.000 C 
BRANCH   5   6
ATOM      6  C   UNL     1      60.027  74.045  45.861  1.00  0.00     0.006 C 
BRANCH   6   7
ATOM      7  C   UNL     1      59.378  72.713  45.467  1.00  0.00     0.053 C 
BRANCH   7   8
ATOM      8  C   UNL     1      59.869  72.271  44.124  1.00  0.00     0.041 C 
ATOM      9  O   UNL     1      60.349  73.109  43.317  1.00  0.00    -0.550 OA
ATOM     10  O   UNL     1      59.749  70.940  43.745  1.00  0.00    -0.550 OA
ENDBRANCH   7   8
ENDBRANCH   6   7
ENDBRANCH   5   6
ENDBRANCH   4   5
ENDBRANCH   3   4
ENDBRANCH   2   3
ENDBRANCH   1   2
BRANCH   1  11
ATOM     11  C   UNL     1      63.575  78.248  45.575  1.00  0.00     0.000 C 
BRANCH  11  12
ATOM     12  C   UNL     1      63.898  78.438  44.084  1.00  0.00    -0.000 C 
BRANCH  12  13
ATOM     13  C   UNL     1      64.883  77.381  43.555  1.00  0.00    -0.000 C 
BRANCH  13  14
ATOM     14  C   UNL     1      64.171  76.130  43.016  1.00  0.00    -0.000 C 
BRANCH  14  15
ATOM     15  C   UNL     1      64.626  74.840  43.717  1.00  0.00    -0.000 C 
BRANCH  15  16
ATOM     16  C   UNL     1      63.434  74.113  44.357  1.00  0.00    -0.000 C 
BRANCH  16  17
ATOM     17  C   UNL     1      63.823  73.347  45.631  1.00  0.00    -0.003 C 
ATOM     18  C   UNL     1      63.604  74.164  46.903  1.00  0.00     0.004 C 
ENDBRANCH  16  17
ENDBRANCH  15  16
ENDBRANCH  14  15
ENDBRANCH  13  14
ENDBRANCH  12  13
ENDBRANCH  11  12
ENDBRANCH   1  11
TORSDOF 14
ENDMDL
MODEL 4
REMARK VINA RESULT:    -4.356      2.642      6.587
REMARK INTER + INTRA:          -9.589
REMARK INTER:                  -7.599
REMARK INTRA:                  -1.990
REMARK UNBOUND:                -1.668
REMARK SMILES CCCCCCCCCCCCCCCC(=O)[O-]
REMARK SMILES IDX 9 1 10 2 11 3 12 4 13 5 14 6 15 7 16 8 17 9 18 10 8 11 7 12
REMARK SMILES IDX 6 13 5 14 4 15 3 16 2 17 1 18
REMARK H PARENT
REMARK Flexibility Score: inf
ROOT
ATOM      1  C   UNL     1      51.102  76.302  43.402  1.00  0.00     0.000 C 
ENDROOT
BRANCH   1   2
ATOM      2  C   UNL     1      51.783  74.924  43.374  1.00  0.00     0.000 C 
BRANCH   2   3
ATOM      3  C   UNL     1      51.096  73.877  44.276  1.00  0.00     0.000 C 
BRANCH   3   4
ATOM      4  C   UNL     1      51.160  72.459  43.680  1.00  0.00     0.000 C 
BRANCH   4   5
ATOM      5  C   UNL     1      49.760  71.824  43.531  1.00  0.00     0.000 C 
BRANCH   5   6
ATOM      6  C   UNL     1      49.155  71.987  42.126  1.00  0.00     0.006 C 
BRANCH   6   7
ATOM      7  C   UNL     1      48.052  73.051  42.073  1.00  0.00     0.053 C 
BRANCH   7   8
ATOM      8  C   UNL     1      48.375  74.087  41.042  1.00  0.00     0.041 C 
ATOM      9  O   UNL     1      47.454  74.759  40.509  1.00  0.00    -0.550 OA
ATOM     10  O   UNL     1      49.690  74.274  40.634  1.00  0.00    -0.550 OA
ENDBRANCH   7   8
ENDBRANCH   6   7
ENDBRANCH   5   6
ENDBRANCH   4   5
ENDBRANCH   3   4
ENDBRANCH   2   3
ENDBRANCH   1   2
BRANCH   1  11
ATOM     11  C   UNL     1      49.599  76.219  43.715  1.00  0.00     0.000 C 
BRANCH  11  12
ATOM     12  C   UNL     1      48.879  77.567  43.540  1.00  0.00    -0.000 C 
BRANCH  12  13
ATOM     13  C   UNL     1      48.331  77.762  42.116  1.00  0.00    -0.000 C 
BRANCH  13  14
ATOM     14  C   UNL     1      48.931  78.992  41.416  1.00  0.00    -0.000 C 
BRANCH  14  15
ATOM     15  C   UNL     1      50.235  78.673  40.668  1.00  0.00    -0.000 C 
BRANCH  15  16
ATOM     16  C   UNL     1      51.340  79.673  41.040  1.00  0.00    -0.000 C 
BRANCH  16  17
ATOM     17  C   UNL     1      51.186  80.219  42.467  1.00  0.00    -0.003 C 
ATOM     18  C   UNL     1      52.365  79.860  43.370  1.00  0.00     0.004 C 
ENDBRANCH  16  17
ENDBRANCH  15  16
ENDBRANCH  14  15
ENDBRANCH  13  14
ENDBRANCH  12  13
ENDBRANCH  11  12
ENDBRANCH   1  11
TORSDOF 14
ENDMDL
MODEL 5
REMARK VINA RESULT:    -4.354      1.125      3.362
REMARK INTER + INTRA:          -9.585
REMARK INTER:                  -7.921
REMARK INTRA:                  -1.664
REMARK UNBOUND:                -1.668
REMARK SMILES CCCCCCCCCCCCCCCC(=O)[O-]
REMARK SMILES IDX 9 1 10 2 11 3 12 4 13 5 14 6 15 7 16 8 17 9 18 10 8 11 7 12
REMARK SMILES IDX 6 13 5 14 4 15 3 16 2 17 1 18
REMARK H PARENT
REMARK Flexibility Score: inf
ROOT
ATOM      1  C   UNL     1      48.061  73.875  40.324  1.00  0.00     0.000 C 
ENDROOT
BRANCH   1   2
ATOM      2  C   UNL     1      47.701  75.273  40.853  1.00  0.00     0.000 C 
BRANCH   2   3
ATOM      3  C   UNL     1      48.882  76.002  41.529  1.00  0.00     0.000 C 
BRANCH   3   4
ATOM      4  C   UNL     1      48.771  77.532  41.409  1.00  0.00     0.000 C 
BRANCH   4   5
ATOM      5  C   UNL     1      50.012  78.156  40.735  1.00  0.00     0.000 C 
BRANCH   5   6
ATOM      6  C   UNL     1      50.436  79.502  41.348  1.00  0.00     0.006 C 
BRANCH   6   7
ATOM      7  C   UNL     1      51.873  79.895  40.984  1.00  0.00     0.053 C 
BRANCH   7   8
ATOM      8  C   UNL     1      52.595  80.405  42.192  1.00  0.00     0.041 C 
ATOM      9  O   UNL     1      51.968  80.620  43.262  1.00  0.00    -0.550 OA
ATOM     10  O   UNL     1      53.953  80.691  42.119  1.00  0.00    -0.550 OA
ENDBRANCH   7   8
ENDBRANCH   6   7
ENDBRANCH   5   6
ENDBRANCH   4   5
ENDBRANCH   3   4
ENDBRANCH   2   3
ENDBRANCH   1   2
BRANCH   1  11
ATOM     11  C   UNL     1      47.877  72.772  41.378  1.00  0.00     0.000 C 
BRANCH  11  12
ATOM     12  C   UNL     1      49.193  72.388  42.075  1.00  0.00    -0.000 C 
BRANCH  12  13
ATOM     13  C   UNL     1      49.071  72.392  43.608  1.00  0.00    -0.000 C 
BRANCH  13  14
ATOM     14  C   UNL     1      50.281  73.046  44.294  1.00  0.00    -0.000 C 
BRANCH  14  15
ATOM     15  C   UNL     1      51.487  73.196  43.354  1.00  0.00    -0.000 C 
BRANCH  15  16
ATOM     16  C   UNL     1      51.943  74.661  43.276  1.00  0.00    -0.000 C 
BRANCH  16  17
ATOM     17  C   UNL     1      51.228  75.558  44.298  1.00  0.00    -0.003 C 
ATOM     18  C   UNL     1      51.571  77.037  44.131  1.00  0.00     0.004 C 
ENDBRANCH  16  17
ENDBRANCH  15  16
ENDBRANCH  14  15
ENDBRANCH  13  14
ENDBRANCH  12  13
ENDBRANCH  11  12
ENDBRANCH   1  11
TORSDOF 14
ENDMDL
MODEL 6
REMARK VINA RESULT:    -4.342      1.211      1.573
REMARK INTER + INTRA:          -9.563
REMARK INTER:                  -7.388
REMARK INTRA:                  -2.176
REMARK UNBOUND:                -1.668
REMARK SMILES CCCCCCCCCCCCCCCC(=O)[O-]
REMARK SMILES IDX 9 1 10 2 11 3 12 4 13 5 14 6 15 7 16 8 17 9 18 10 8 11 7 12
REMARK SMILES IDX 6 13 5 14 4 15 3 16 2 17 1 18
REMARK H PARENT
REMARK Flexibility Score: inf
ROOT
ATOM      1  C   UNL     1      50.604  78.557  44.683  1.00  0.00     0.000 C 
ENDROOT
BRANCH   1   2
ATOM      2  C   UNL     1      49.217  77.956  44.394  1.00  0.00     0.000 C 
BRANCH   2   3
ATOM      3  C   UNL     1      48.586  78.463  43.080  1.00  0.00     0.000 C 
BRANCH   3   4
ATOM      4  C   UNL     1      48.823  77.497  41.906  1.00  0.00     0.000 C 
BRANCH   4   5
ATOM      5  C   UNL     1      49.931  77.995  40.954  1.00  0.00     0.000 C 
BRANCH   5   6
ATOM      6  C   UNL     1      50.247  79.493  41.104  1.00  0.00     0.006 C 
BRANCH   6   7
ATOM      7  C   UNL     1      51.706  79.829  40.771  1.00  0.00     0.053 C 
BRANCH   7   8
ATOM      8  C   UNL     1      52.343  80.566  41.908  1.00  0.00     0.041 C 
ATOM      9  O   UNL     1      51.645  81.284  42.669  1.00  0.00    -0.550 OA
ATOM     10  O   UNL     1      53.718  80.498  42.094  1.00  0.00    -0.550 OA
ENDBRANCH   7   8
ENDBRANCH   6   7
ENDBRANCH   5   6
ENDBRANCH   4   5
ENDBRANCH   3   4
ENDBRANCH   2   3
ENDBRANCH   1   2
BRANCH   1  11
ATOM     11  C   UNL     1      51.755  77.628  44.263  1.00  0.00     0.000 C 
BRANCH  11  12
ATOM     12  C   UNL     1      51.477  76.151  44.587  1.00  0.00    -0.000 C 
BRANCH  12  13
ATOM     13  C   UNL     1      51.690  75.231  43.373  1.00  0.00    -0.000 C 
BRANCH  13  14
ATOM     14  C   UNL     1      50.918  73.907  43.493  1.00  0.00    -0.000 C 
BRANCH  14  15
ATOM     15  C   UNL     1      49.662  73.870  42.608  1.00  0.00    -0.000 C 
BRANCH  15  16
ATOM     16  C   UNL     1      50.015  74.162  41.142  1.00  0.00    -0.000 C 
BRANCH  16  17
ATOM     17  C   UNL     1      48.983  73.587  40.160  1.00  0.00    -0.003 C 
ATOM     18  C   UNL     1      47.541  73.864  40.586  1.00  0.00     0.004 C 
ENDBRANCH  16  17
ENDBRANCH  15  16
ENDBRANCH  14  15
ENDBRANCH  13  14
ENDBRANCH  12  13
ENDBRANCH  11  12
ENDBRANCH   1  11
TORSDOF 14
ENDMDL
MODEL 7
REMARK VINA RESULT:    -4.340     10.595     12.525
REMARK INTER + INTRA:          -9.560
REMARK INTER:                  -7.687
REMARK INTRA:                  -1.873
REMARK UNBOUND:                -1.668
REMARK SMILES CCCCCCCCCCCCCCCC(=O)[O-]
REMARK SMILES IDX 9 1 10 2 11 3 12 4 13 5 14 6 15 7 16 8 17 9 18 10 8 11 7 12
REMARK SMILES IDX 6 13 5 14 4 15 3 16 2 17 1 18
REMARK H PARENT
REMARK Flexibility Score: inf
ROOT
ATOM      1  C   UNL     1      60.931  76.504  44.320  1.00  0.00     0.000 C 
ENDROOT
BRANCH   1   2
ATOM      2  C   UNL     1      61.693  77.705  43.735  1.00  0.00     0.000 C 
BRANCH   2   3
ATOM      3  C   UNL     1      62.839  78.209  44.638  1.00  0.00     0.000 C 
BRANCH   3   4
ATOM      4  C   UNL     1      63.943  77.154  44.826  1.00  0.00     0.000 C 
BRANCH   4   5
ATOM      5  C   UNL     1      64.591  76.740  43.487  1.00  0.00     0.000 C 
BRANCH   5   6
ATOM      6  C   UNL     1      64.863  75.230  43.373  1.00  0.00     0.006 C 
BRANCH   6   7
ATOM      7  C   UNL     1      63.656  74.376  43.777  1.00  0.00     0.053 C 
BRANCH   7   8
ATOM      8  C   UNL     1      64.051  73.373  44.816  1.00  0.00     0.041 C 
ATOM      9  O   UNL     1      64.628  72.306  44.481  1.00  0.00    -0.550 OA
ATOM     10  O   UNL     1      63.735  73.595  46.151  1.00  0.00    -0.550 OA
ENDBRANCH   7   8
ENDBRANCH   6   7
ENDBRANCH   5   6
ENDBRANCH   4   5
ENDBRANCH   3   4
ENDBRANCH   2   3
ENDBRANCH   1   2
BRANCH   1  11
ATOM     11  C   UNL     1      59.796  76.923  45.269  1.00  0.00     0.000 C 
BRANCH  11  12
ATOM     12  C   UNL     1      60.065  76.527  46.730  1.00  0.00    -0.000 C 
BRANCH  12  13
ATOM     13  C   UNL     1      60.282  75.013  46.899  1.00  0.00    -0.000 C 
BRANCH  13  14
ATOM     14  C   UNL     1      58.970  74.217  46.820  1.00  0.00    -0.000 C 
BRANCH  14  15
ATOM     15  C   UNL     1      59.083  72.972  45.926  1.00  0.00    -0.000 C 
BRANCH  15  16
ATOM     16  C   UNL     1      60.388  72.994  45.117  1.00  0.00    -0.000 C 
BRANCH  16  17
ATOM     17  C   UNL     1      60.146  72.937  43.602  1.00  0.00    -0.003 C 
ATOM     18  C   UNL     1      59.413  71.668  43.166  1.00  0.00     0.004 C 
ENDBRANCH  16  17
ENDBRANCH  15  16
ENDBRANCH  14  15
ENDBRANCH  13  14
ENDBRANCH  12  13
ENDBRANCH  11  12
ENDBRANCH   1  11
TORSDOF 14
ENDMDL
MODEL 8
REMARK VINA RESULT:    -4.307      3.109      6.983
REMARK INTER + INTRA:          -9.499
REMARK INTER:                  -7.826
REMARK INTRA:                  -1.673
REMARK UNBOUND:                -1.668
REMARK SMILES CCCCCCCCCCCCCCCC(=O)[O-]
REMARK SMILES IDX 9 1 10 2 11 3 12 4 13 5 14 6 15 7 16 8 17 9 18 10 8 11 7 12
REMARK SMILES IDX 6 13 5 14 4 15 3 16 2 17 1 18
REMARK H PARENT
REMARK Flexibility Score: inf
ROOT
ATOM      1  C   UNL     1      49.830  76.642  42.295  1.00  0.00     0.000 C 
ENDROOT
BRANCH   1   2
ATOM      2  C   UNL     1      50.506  76.178  43.596  1.00  0.00     0.000 C 
BRANCH   2   3
ATOM      3  C   UNL     1      51.529  75.041  43.389  1.00  0.00     0.000 C 
BRANCH   3   4
ATOM      4  C   UNL     1      51.105  74.068  42.276  1.00  0.00     0.000 C 
BRANCH   4   5
ATOM      5  C   UNL     1      50.035  73.062  42.754  1.00  0.00     0.000 C 
BRANCH   5   6
ATOM      6  C   UNL     1      49.153  72.514  41.619  1.00  0.00     0.006 C 
BRANCH   6   7
ATOM      7  C   UNL     1      48.871  73.554  40.529  1.00  0.00     0.053 C 
BRANCH   7   8
ATOM      8  C   UNL     1      47.432  73.965  40.561  1.00  0.00     0.041 C 
ATOM      9  O   UNL     1      46.524  73.094  40.588  1.00  0.00    -0.550 OA
ATOM     10  O   UNL     1      47.094  75.312  40.510  1.00  0.00    -0.550 OA
ENDBRANCH   7   8
ENDBRANCH   6   7
ENDBRANCH   5   6
ENDBRANCH   4   5
ENDBRANCH   3   4
ENDBRANCH   2   3
ENDBRANCH   1   2
BRANCH   1  11
ATOM     11  C   UNL     1      48.876  77.829  42.509  1.00  0.00     0.000 C 
BRANCH  11  12
ATOM     12  C   UNL     1      49.106  78.966  41.501  1.00  0.00    -0.000 C 
BRANCH  12  13
ATOM     13  C   UNL     1      50.419  78.801  40.715  1.00  0.00    -0.000 C 
BRANCH  13  14
ATOM     14  C   UNL     1      51.289  80.068  40.747  1.00  0.00    -0.000 C 
BRANCH  14  15
ATOM     15  C   UNL     1      52.204  80.130  41.981  1.00  0.00    -0.000 C 
BRANCH  15  16
ATOM     16  C   UNL     1      51.942  81.406  42.794  1.00  0.00    -0.000 C 
BRANCH  16  17
ATOM     17  C   UNL     1      51.787  81.128  44.297  1.00  0.00    -0.003 C 
ATOM     18  C   UNL     1      51.274  79.719  44.589  1.00  0.00     0.004 C 
ENDBRANCH  16  17
ENDBRANCH  15  16
ENDBRANCH  14  15
ENDBRANCH  13  14
ENDBRANCH  12  13
ENDBRANCH  11  12
ENDBRANCH   1  11
TORSDOF 14
ENDMDL
MODEL 9
REMARK VINA RESULT:    -4.284      2.264      3.065
REMARK INTER + INTRA:          -9.457
REMARK INTER:                  -7.096
REMARK INTRA:                  -2.361
REMARK UNBOUND:                -1.668
REMARK SMILES CCCCCCCCCCCCCCCC(=O)[O-]
REMARK SMILES IDX 9 1 10 2 11 3 12 4 13 5 14 6 15 7 16 8 17 9 18 10 8 11 7 12
REMARK SMILES IDX 6 13 5 14 4 15 3 16 2 17 1 18
REMARK H PARENT
REMARK Flexibility Score: inf
ROOT
ATOM      1  C   UNL     1      50.769  75.396  44.384  1.00  0.00     0.000 C 
ENDROOT
BRANCH   1   2
ATOM      2  C   UNL     1      49.764  76.317  43.672  1.00  0.00     0.000 C 
BRANCH   2   3
ATOM      3  C   UNL     1      50.414  77.255  42.632  1.00  0.00     0.000 C 
BRANCH   3   4
ATOM      4  C   UNL     1      49.433  77.668  41.522  1.00  0.00     0.000 C 
BRANCH   4   5
ATOM      5  C   UNL     1      47.977  77.751  42.030  1.00  0.00     0.000 C 
BRANCH   5   6
ATOM      6  C   UNL     1      47.484  79.190  42.260  1.00  0.00     0.006 C 
BRANCH   6   7
ATOM      7  C   UNL     1      47.154  79.478  43.729  1.00  0.00     0.053 C 
BRANCH   7   8
ATOM      8  C   UNL     1      48.406  79.761  44.500  1.00  0.00     0.041 C 
ATOM      9  O   UNL     1      49.294  80.507  44.014  1.00  0.00    -0.550 OA
ATOM     10  O   UNL     1      48.611  79.158  45.735  1.00  0.00    -0.550 OA
ENDBRANCH   7   8
ENDBRANCH   6   7
ENDBRANCH   5   6
ENDBRANCH   4   5
ENDBRANCH   3   4
ENDBRANCH   2   3
ENDBRANCH   1   2
BRANCH   1  11
ATOM     11  C   UNL     1      51.682  74.639  43.405  1.00  0.00     0.000 C 
BRANCH  11  12
ATOM     12  C   UNL     1      51.529  73.113  43.508  1.00  0.00    -0.000 C 
BRANCH  12  13
ATOM     13  C   UNL     1      50.533  72.693  44.603  1.00  0.00    -0.000 C 
BRANCH  13  14
ATOM     14  C   UNL     1      49.240  72.093  44.026  1.00  0.00    -0.000 C 
BRANCH  14  15
ATOM     15  C   UNL     1      49.270  71.980  42.494  1.00  0.00    -0.000 C 
BRANCH  15  16
ATOM     16  C   UNL     1      47.979  72.540  41.878  1.00  0.00    -0.000 C 
BRANCH  16  17
ATOM     17  C   UNL     1      48.175  73.932  41.259  1.00  0.00    -0.003 C 
ATOM     18  C   UNL     1      49.500  74.066  40.508  1.00  0.00     0.004 C 
ENDBRANCH  16  17
ENDBRANCH  15  16
ENDBRANCH  14  15
ENDBRANCH  13  14
ENDBRANCH  12  13
ENDBRANCH  11  12
ENDBRANCH   1  11
TORSDOF 14
ENDMDL
