MODEL 1
REMARK VINA RESULT:    -4.151      0.000      0.000
REMARK INTER + INTRA:          -5.611
REMARK INTER:                  -5.364
REMARK INTRA:                  -0.247
REMARK UNBOUND:                -0.247
REMARK SMILES CCCCCCC(=O)[O-]
REMARK SMILES IDX 5 1 6 2 7 3 8 4 9 5 4 6 3 7 2 8 1 9
REMARK H PARENT
REMARK Flexibility Score: inf
ROOT
ATOM      1  C   UNL     1      17.899  23.826   7.983  1.00  0.00     0.006 C 
ENDROOT
BRANCH   1   2
ATOM      2  C   UNL     1      17.782  25.332   8.248  1.00  0.00     0.053 C 
BRANCH   2   3
ATOM      3  C   UNL     1      18.865  25.784   9.175  1.00  0.00     0.041 C 
ATOM      4  O   UNL     1      19.438  24.957   9.931  1.00  0.00    -0.550 OA
ATOM      5  O   UNL     1      19.209  27.129   9.239  1.00  0.00    -0.550 OA
ENDBRANCH   2   3
ENDBRANCH   1   2
BRANCH   1   6
ATOM      6  C   UNL     1      18.028  23.488   6.486  1.00  0.00     0.000 C 
BRANCH   6   7
ATOM      7  C   UNL     1      19.322  22.749   6.097  1.00  0.00    -0.000 C 
BRANCH   7   8
ATOM      8  C   UNL     1      20.378  22.765   7.211  1.00  0.00    -0.003 C 
ATOM      9  C   UNL     1      21.625  21.988   6.797  1.00  0.00     0.004 C 
ENDBRANCH   7   8
ENDBRANCH   6   7
ENDBRANCH   1   6
TORSDOF 5
ENDMDL
MODEL 2
REMARK VINA RESULT:    -4.125      0.111      1.082
REMARK INTER + INTRA:          -5.578
REMARK INTER:                  -5.333
REMARK INTRA:                  -0.245
REMARK UNBOUND:                -0.247
REMARK SMILES CCCCCCC(=O)[O-]
REMARK SMILES IDX 5 1 6 2 7 3 8 4 9 5 4 6 3 7 2 8 1 9
REMARK H PARENT
REMARK Flexibility Score: inf
ROOT
ATOM      1  C   UNL     1      17.849  23.780   8.015  1.00  0.00     0.006 C 
ENDROOT
BRANCH   1   2
ATOM      2  C   UNL     1      17.678  25.273   8.325  1.00  0.00     0.053 C 
BRANCH   2   3
ATOM      3  C   UNL     1      18.830  25.773   9.137  1.00  0.00     0.041 C 
ATOM      4  O   UNL     1      19.192  26.976   9.051  1.00  0.00    -0.550 OA
ATOM      5  O   UNL     1      19.536  24.898   9.954  1.00  0.00    -0.550 OA
ENDBRANCH   2   3
ENDBRANCH   1   2
BRANCH   1   6
ATOM      6  C   UNL     1      17.999  23.493   6.510  1.00  0.00     0.000 C 
BRANCH   6   7
ATOM      7  C   UNL     1      19.268  22.714   6.120  1.00  0.00    -0.000 C 
BRANCH   7   8
ATOM      8  C   UNL     1      20.349  22.747   7.211  1.00  0.00    -0.003 C 
ATOM      9  C   UNL     1      21.601  21.995   6.767  1.00  0.00     0.004 C 
ENDBRANCH   7   8
ENDBRANCH   6   7
ENDBRANCH   1   6
TORSDOF 5
ENDMDL
MODEL 3
REMARK VINA RESULT:    -4.090      1.848      2.843
REMARK INTER + INTRA:          -5.532
REMARK INTER:                  -5.213
REMARK INTRA:                  -0.319
REMARK UNBOUND:                -0.247
REMARK SMILES CCCCCCC(=O)[O-]
REMARK SMILES IDX 5 1 6 2 7 3 8 4 9 5 4 6 3 7 2 8 1 9
REMARK H PARENT
REMARK Flexibility Score: inf
ROOT
ATOM      1  C   UNL     1      21.366  23.122   9.891  1.00  0.00     0.006 C 
ENDROOT
BRANCH   1   2
ATOM      2  C   UNL     1      19.941  22.943  10.432  1.00  0.00     0.053 C 
BRANCH   2   3
ATOM      3  C   UNL     1      19.061  24.056   9.962  1.00  0.00     0.041 C 
ATOM      4  O   UNL     1      18.043  23.808   9.264  1.00  0.00    -0.550 OA
ATOM      5  O   UNL     1      19.391  25.374  10.254  1.00  0.00    -0.550 OA
ENDBRANCH   2   3
ENDBRANCH   1   2
BRANCH   1   6
ATOM      6  C   UNL     1      21.412  23.275   8.360  1.00  0.00     0.000 C 
BRANCH   6   7
ATOM      7  C   UNL     1      21.584  21.958   7.581  1.00  0.00    -0.000 C 
BRANCH   7   8
ATOM      8  C   UNL     1      20.924  21.991   6.195  1.00  0.00    -0.003 C 
ATOM      9  C   UNL     1      19.547  22.646   6.257  1.00  0.00     0.004 C 
ENDBRANCH   7   8
ENDBRANCH   6   7
ENDBRANCH   1   6
TORSDOF 5
ENDMDL
MODEL 4
REMARK VINA RESULT:    -4.042      1.870      2.520
REMARK INTER + INTRA:          -5.470
REMARK INTER:                  -5.211
REMARK INTRA:                  -0.260
REMARK UNBOUND:                -0.247
REMARK SMILES CCCCCCC(=O)[O-]
REMARK SMILES IDX 5 1 6 2 7 3 8 4 9 5 4 6 3 7 2 8 1 9
REMARK H PARENT
REMARK Flexibility Score: inf
ROOT
ATOM      1  C   UNL     1      19.305  23.647   9.819  1.00  0.00     0.006 C 
ENDROOT
BRANCH   1   2
ATOM      2  C   UNL     1      19.472  24.765   8.782  1.00  0.00     0.053 C 
BRANCH   2   3
ATOM      3  C   UNL     1      18.534  25.893   9.076  1.00  0.00     0.041 C 
ATOM      4  O   UNL     1      17.299  25.675   9.194  1.00  0.00    -0.550 OA
ATOM      5  O   UNL     1      19.017  27.192   9.172  1.00  0.00    -0.550 OA
ENDBRANCH   2   3
ENDBRANCH   1   2
BRANCH   1   6
ATOM      6  C   UNL     1      20.649  23.087  10.319  1.00  0.00     0.000 C 
BRANCH   6   7
ATOM      7  C   UNL     1      21.782  23.090   9.277  1.00  0.00    -0.000 C 
BRANCH   7   8
ATOM      8  C   UNL     1      21.814  21.815   8.423  1.00  0.00    -0.003 C 
ATOM      9  C   UNL     1      21.649  22.140   6.942  1.00  0.00     0.004 C 
ENDBRANCH   7   8
ENDBRANCH   6   7
ENDBRANCH   1   6
TORSDOF 5
ENDMDL
MODEL 5
REMARK VINA RESULT:    -4.022      2.070      3.102
REMARK INTER + INTRA:          -5.445
REMARK INTER:                  -5.080
REMARK INTRA:                  -0.364
REMARK UNBOUND:                -0.247
REMARK SMILES CCCCCCC(=O)[O-]
REMARK SMILES IDX 5 1 6 2 7 3 8 4 9 5 4 6 3 7 2 8 1 9
REMARK H PARENT
REMARK Flexibility Score: inf
ROOT
ATOM      1  C   UNL     1      19.124  25.321   9.442  1.00  0.00     0.006 C 
ENDROOT
BRANCH   1   2
ATOM      2  C   UNL     1      18.842  24.059  10.270  1.00  0.00     0.053 C 
BRANCH   2   3
ATOM      3  C   UNL     1      20.007  23.124  10.209  1.00  0.00     0.041 C 
ATOM      4  O   UNL     1      19.860  21.957   9.762  1.00  0.00    -0.550 OA
ATOM      5  O   UNL     1      21.247  23.526  10.690  1.00  0.00    -0.550 OA
ENDBRANCH   2   3
ENDBRANCH   1   2
BRANCH   1   6
ATOM      6  C   UNL     1      18.077  25.561   8.339  1.00  0.00     0.000 C 
BRANCH   6   7
ATOM      7  C   UNL     1      17.258  24.320   7.939  1.00  0.00    -0.000 C 
BRANCH   7   8
ATOM      8  C   UNL     1      17.579  23.823   6.523  1.00  0.00    -0.003 C 
ATOM      9  C   UNL     1      18.877  23.020   6.503  1.00  0.00     0.004 C 
ENDBRANCH   7   8
ENDBRANCH   6   7
ENDBRANCH   1   6
TORSDOF 5
ENDMDL
MODEL 6
REMARK VINA RESULT:    -4.007      2.601      3.605
REMARK INTER + INTRA:          -5.424
REMARK INTER:                  -5.072
REMARK INTRA:                  -0.352
REMARK UNBOUND:                -0.247
REMARK SMILES CCCCCCC(=O)[O-]
REMARK SMILES IDX 5 1 6 2 7 3 8 4 9 5 4 6 3 7 2 8 1 9
REMARK H PARENT
REMARK Flexibility Score: inf
ROOT
ATOM      1  C   UNL     1      20.269  24.188   9.028  1.00  0.00     0.006 C 
ENDROOT
BRANCH   1   2
ATOM      2  C   UNL     1      18.856  24.462   8.496  1.00  0.00     0.053 C 
BRANCH   2   3
ATOM      3  C   UNL     1      18.339  25.759   9.032  1.00  0.00     0.041 C 
ATOM      4  O   UNL     1      17.146  25.851   9.425  1.00  0.00    -0.550 OA
ATOM      5  O   UNL     1      19.160  26.879   9.055  1.00  0.00    -0.550 OA
ENDBRANCH   2   3
ENDBRANCH   1   2
BRANCH   1   6
ATOM      6  C   UNL     1      20.285  23.195  10.205  1.00  0.00     0.000 C 
BRANCH   6   7
ATOM      7  C   UNL     1      19.185  22.119  10.161  1.00  0.00    -0.000 C 
BRANCH   7   8
ATOM      8  C   UNL     1      18.434  21.976  11.493  1.00  0.00    -0.003 C 
ATOM      9  C   UNL     1      17.198  22.871  11.526  1.00  0.00     0.004 C 
ENDBRANCH   7   8
ENDBRANCH   6   7
ENDBRANCH   1   6
TORSDOF 5
ENDMDL
MODEL 7
REMARK VINA RESULT:    -3.986      2.075      3.780
REMARK INTER + INTRA:          -5.397
REMARK INTER:                  -5.042
REMARK INTRA:                  -0.356
REMARK UNBOUND:                -0.247
REMARK SMILES CCCCCCC(=O)[O-]
REMARK SMILES IDX 5 1 6 2 7 3 8 4 9 5 4 6 3 7 2 8 1 9
REMARK H PARENT
REMARK Flexibility Score: inf
ROOT
ATOM      1  C   UNL     1      18.743  23.137   7.942  1.00  0.00     0.006 C 
ENDROOT
BRANCH   1   2
ATOM      2  C   UNL     1      20.226  23.480   8.132  1.00  0.00     0.053 C 
BRANCH   2   3
ATOM      3  C   UNL     1      20.663  23.150   9.524  1.00  0.00     0.041 C 
ATOM      4  O   UNL     1      19.810  22.995  10.436  1.00  0.00    -0.550 OA
ATOM      5  O   UNL     1      22.017  23.062   9.825  1.00  0.00    -0.550 OA
ENDBRANCH   2   3
ENDBRANCH   1   2
BRANCH   1   6
ATOM      6  C   UNL     1      17.878  24.369   7.620  1.00  0.00     0.000 C 
BRANCH   6   7
ATOM      7  C   UNL     1      17.398  25.164   8.848  1.00  0.00    -0.000 C 
BRANCH   7   8
ATOM      8  C   UNL     1      17.766  26.654   8.777  1.00  0.00    -0.003 C 
ATOM      9  C   UNL     1      19.233  26.875   9.135  1.00  0.00     0.004 C 
ENDBRANCH   7   8
ENDBRANCH   6   7
ENDBRANCH   1   6
TORSDOF 5
ENDMDL
MODEL 8
REMARK VINA RESULT:    -3.955      3.058      4.760
REMARK INTER + INTRA:          -5.358
REMARK INTER:                  -5.074
REMARK INTRA:                  -0.283
REMARK UNBOUND:                -0.247
REMARK SMILES CCCCCCC(=O)[O-]
REMARK SMILES IDX 5 1 6 2 7 3 8 4 9 5 4 6 3 7 2 8 1 9
REMARK H PARENT
REMARK Flexibility Score: inf
ROOT
ATOM      1  C   UNL     1      20.979  23.357   9.900  1.00  0.00     0.006 C 
ENDROOT
BRANCH   1   2
ATOM      2  C   UNL     1      21.476  23.046   8.482  1.00  0.00     0.053 C 
BRANCH   2   3
ATOM      3  C   UNL     1      21.468  21.570   8.239  1.00  0.00     0.041 C 
ATOM      4  O   UNL     1      20.382  20.934   8.242  1.00  0.00    -0.550 OA
ATOM      5  O   UNL     1      22.665  20.889   8.056  1.00  0.00    -0.550 OA
ENDBRANCH   2   3
ENDBRANCH   1   2
BRANCH   1   6
ATOM      6  C   UNL     1      19.753  24.288   9.916  1.00  0.00     0.000 C 
BRANCH   6   7
ATOM      7  C   UNL     1      18.982  24.369   8.585  1.00  0.00    -0.000 C 
BRANCH   7   8
ATOM      8  C   UNL     1      18.313  25.733   8.364  1.00  0.00    -0.003 C 
ATOM      9  C   UNL     1      19.075  26.843   9.081  1.00  0.00     0.004 C 
ENDBRANCH   7   8
ENDBRANCH   6   7
ENDBRANCH   1   6
TORSDOF 5
ENDMDL
MODEL 9
REMARK VINA RESULT:    -3.911      1.354      1.654
REMARK INTER + INTRA:          -5.301
REMARK INTER:                  -4.916
REMARK INTRA:                  -0.385
REMARK UNBOUND:                -0.247
REMARK SMILES CCCCCCC(=O)[O-]
REMARK SMILES IDX 5 1 6 2 7 3 8 4 9 5 4 6 3 7 2 8 1 9
REMARK H PARENT
REMARK Flexibility Score: inf
ROOT
ATOM      1  C   UNL     1      17.599  23.863   6.490  1.00  0.00     0.006 C 
ENDROOT
BRANCH   1   2
ATOM      2  C   UNL     1      16.879  23.888   7.845  1.00  0.00     0.053 C 
BRANCH   2   3
ATOM      3  C   UNL     1      17.520  24.886   8.757  1.00  0.00     0.041 C 
ATOM      4  O   UNL     1      17.006  25.142   9.877  1.00  0.00    -0.550 OA
ATOM      5  O   UNL     1      18.660  25.568   8.350  1.00  0.00    -0.550 OA
ENDBRANCH   2   3
ENDBRANCH   1   2
BRANCH   1   6
ATOM      6  C   UNL     1      18.433  22.586   6.277  1.00  0.00     0.000 C 
BRANCH   6   7
ATOM      7  C   UNL     1      19.944  22.749   6.525  1.00  0.00    -0.000 C 
BRANCH   7   8
ATOM      8  C   UNL     1      20.361  22.369   7.953  1.00  0.00    -0.003 C 
ATOM      9  C   UNL     1      21.426  23.322   8.488  1.00  0.00     0.004 C 
ENDBRANCH   7   8
ENDBRANCH   6   7
ENDBRANCH   1   6
TORSDOF 5
ENDMDL
