MODEL 1
REMARK VINA RESULT:    -3.515      0.000      0.000
REMARK INTER + INTRA:          -5.159
REMARK INTER:                  -4.748
REMARK INTRA:                  -0.411
REMARK UNBOUND:                -0.411
REMARK SMILES CCCCCCCC(=O)[O-]
REMARK SMILES IDX 5 1 6 2 7 3 8 4 9 5 10 6 4 7 3 8 2 9 1 10
REMARK H PARENT
REMARK Flexibility Score: inf
ROOT
ATOM      1  C   UNL     1     -35.299  -3.334   0.469  1.00  0.00     0.000 C 
ENDROOT
BRANCH   1   2
ATOM      2  C   UNL     1     -34.108  -2.432   0.105  1.00  0.00     0.006 C 
BRANCH   2   3
ATOM      3  C   UNL     1     -34.528  -0.981  -0.158  1.00  0.00     0.053 C 
BRANCH   3   4
ATOM      4  C   UNL     1     -34.840  -0.287   1.131  1.00  0.00     0.041 C 
ATOM      5  O   UNL     1     -33.912   0.031   1.921  1.00  0.00    -0.550 OA
ATOM      6  O   UNL     1     -36.151   0.053   1.438  1.00  0.00    -0.550 OA
ENDBRANCH   3   4
ENDBRANCH   2   3
ENDBRANCH   1   2
BRANCH   1   7
ATOM      7  C   UNL     1     -35.630  -4.351  -0.635  1.00  0.00     0.000 C 
BRANCH   7   8
ATOM      8  C   UNL     1     -34.371  -5.103  -1.083  1.00  0.00    -0.000 C 
BRANCH   8   9
ATOM      9  C   UNL     1     -34.267  -5.142  -2.611  1.00  0.00    -0.003 C 
ATOM     10  C   UNL     1     -33.181  -4.195  -3.114  1.00  0.00     0.004 C 
ENDBRANCH   8   9
ENDBRANCH   7   8
ENDBRANCH   1   7
TORSDOF 6
ENDMDL
MODEL 2
REMARK VINA RESULT:    -3.328      2.166      2.741
REMARK INTER + INTRA:          -4.906
REMARK INTER:                  -4.562
REMARK INTRA:                  -0.343
REMARK UNBOUND:                -0.411
REMARK SMILES CCCCCCCC(=O)[O-]
REMARK SMILES IDX 5 1 6 2 7 3 8 4 9 5 10 6 4 7 3 8 2 9 1 10
REMARK H PARENT
REMARK Flexibility Score: inf
ROOT
ATOM      1  C   UNL     1     -34.920  -3.258   0.567  1.00  0.00     0.000 C 
ENDROOT
BRANCH   1   2
ATOM      2  C   UNL     1     -34.029  -2.138   1.129  1.00  0.00     0.006 C 
BRANCH   2   3
ATOM      3  C   UNL     1     -32.541  -2.365   0.835  1.00  0.00     0.053 C 
BRANCH   3   4
ATOM      4  C   UNL     1     -31.753  -2.368   2.108  1.00  0.00     0.041 C 
ATOM      5  O   UNL     1     -32.317  -2.637   3.202  1.00  0.00    -0.550 OA
ATOM      6  O   UNL     1     -30.387  -2.122   2.081  1.00  0.00    -0.550 OA
ENDBRANCH   3   4
ENDBRANCH   2   3
ENDBRANCH   1   2
BRANCH   1   7
ATOM      7  C   UNL     1     -34.819  -3.384  -0.961  1.00  0.00     0.000 C 
BRANCH   7   8
ATOM      8  C   UNL     1     -35.095  -4.823  -1.412  1.00  0.00    -0.000 C 
BRANCH   8   9
ATOM      9  C   UNL     1     -34.103  -5.259  -2.497  1.00  0.00    -0.003 C 
ATOM     10  C   UNL     1     -33.208  -4.099  -2.923  1.00  0.00     0.004 C 
ENDBRANCH   8   9
ENDBRANCH   7   8
ENDBRANCH   1   7
TORSDOF 6
ENDMDL
MODEL 3
REMARK VINA RESULT:    -3.324      1.343      1.917
REMARK INTER + INTRA:          -4.900
REMARK INTER:                  -4.555
REMARK INTRA:                  -0.345
REMARK UNBOUND:                -0.411
REMARK SMILES CCCCCCCC(=O)[O-]
REMARK SMILES IDX 5 1 6 2 7 3 8 4 9 5 10 6 4 7 3 8 2 9 1 10
REMARK H PARENT
REMARK Flexibility Score: inf
ROOT
ATOM      1  C   UNL     1     -34.457  -2.801   0.409  1.00  0.00     0.000 C 
ENDROOT
BRANCH   1   2
ATOM      2  C   UNL     1     -35.534  -3.489   1.263  1.00  0.00     0.006 C 
BRANCH   2   3
ATOM      3  C   UNL     1     -36.798  -2.635   1.419  1.00  0.00     0.053 C 
BRANCH   3   4
ATOM      4  C   UNL     1     -36.452  -1.290   1.977  1.00  0.00     0.041 C 
ATOM      5  O   UNL     1     -36.737  -0.245   1.335  1.00  0.00    -0.550 OA
ATOM      6  O   UNL     1     -35.859  -1.188   3.228  1.00  0.00    -0.550 OA
ENDBRANCH   3   4
ENDBRANCH   2   3
ENDBRANCH   1   2
BRANCH   1   7
ATOM      7  C   UNL     1     -34.577  -3.143  -1.085  1.00  0.00     0.000 C 
BRANCH   7   8
ATOM      8  C   UNL     1     -34.892  -4.631  -1.282  1.00  0.00    -0.000 C 
BRANCH   8   9
ATOM      9  C   UNL     1     -34.213  -5.174  -2.544  1.00  0.00    -0.003 C 
ATOM     10  C   UNL     1     -33.135  -4.217  -3.044  1.00  0.00     0.004 C 
ENDBRANCH   8   9
ENDBRANCH   7   8
ENDBRANCH   1   7
TORSDOF 6
ENDMDL
MODEL 4
REMARK VINA RESULT:    -3.236      9.952     11.262
REMARK INTER + INTRA:          -4.782
REMARK INTER:                  -4.463
REMARK INTRA:                  -0.319
REMARK UNBOUND:                -0.411
REMARK SMILES CCCCCCCC(=O)[O-]
REMARK SMILES IDX 5 1 6 2 7 3 8 4 9 5 10 6 4 7 3 8 2 9 1 10
REMARK H PARENT
REMARK Flexibility Score: inf
ROOT
ATOM      1  C   UNL     1     -27.175   3.361   0.836  1.00  0.00     0.000 C 
ENDROOT
BRANCH   1   2
ATOM      2  C   UNL     1     -25.883   3.130   1.637  1.00  0.00     0.006 C 
BRANCH   2   3
ATOM      3  C   UNL     1     -24.738   4.044   1.185  1.00  0.00     0.053 C 
BRANCH   3   4
ATOM      4  C   UNL     1     -24.169   4.783   2.355  1.00  0.00     0.041 C 
ATOM      5  O   UNL     1     -23.281   4.250   3.071  1.00  0.00    -0.550 OA
ATOM      6  O   UNL     1     -24.584   6.080   2.627  1.00  0.00    -0.550 OA
ENDBRANCH   3   4
ENDBRANCH   2   3
ENDBRANCH   1   2
BRANCH   1   7
ATOM      7  C   UNL     1     -27.305   4.804   0.325  1.00  0.00     0.000 C 
BRANCH   7   8
ATOM      8  C   UNL     1     -27.630   4.829  -1.173  1.00  0.00    -0.000 C 
BRANCH   8   9
ATOM      9  C   UNL     1     -28.739   3.827  -1.512  1.00  0.00    -0.003 C 
ATOM     10  C   UNL     1     -28.702   3.444  -2.989  1.00  0.00     0.004 C 
ENDBRANCH   8   9
ENDBRANCH   7   8
ENDBRANCH   1   7
TORSDOF 6
ENDMDL
MODEL 5
REMARK VINA RESULT:    -3.148     13.453     14.541
REMARK INTER + INTRA:          -4.662
REMARK INTER:                  -4.204
REMARK INTRA:                  -0.459
REMARK UNBOUND:                -0.411
REMARK SMILES CCCCCCCC(=O)[O-]
REMARK SMILES IDX 5 1 6 2 7 3 8 4 9 5 10 6 4 7 3 8 2 9 1 10
REMARK H PARENT
REMARK Flexibility Score: inf
ROOT
ATOM      1  C   UNL     1     -23.165  -8.858   2.290  1.00  0.00     0.000 C 
ENDROOT
BRANCH   1   2
ATOM      2  C   UNL     1     -21.854  -8.988   1.496  1.00  0.00     0.006 C 
BRANCH   2   3
ATOM      3  C   UNL     1     -20.612  -8.806   2.377  1.00  0.00     0.053 C 
BRANCH   3   4
ATOM      4  C   UNL     1     -19.754  -7.701   1.845  1.00  0.00     0.041 C 
ATOM      5  O   UNL     1     -19.982  -6.507   2.173  1.00  0.00    -0.550 OA
ATOM      6  O   UNL     1     -18.672  -7.994   1.025  1.00  0.00    -0.550 OA
ENDBRANCH   3   4
ENDBRANCH   2   3
ENDBRANCH   1   2
BRANCH   1   7
ATOM      7  C   UNL     1     -24.099  -7.780   1.717  1.00  0.00     0.000 C 
BRANCH   7   8
ATOM      8  C   UNL     1     -23.512  -6.379   1.926  1.00  0.00    -0.000 C 
BRANCH   8   9
ATOM      9  C   UNL     1     -23.719  -5.905   3.369  1.00  0.00    -0.003 C 
ATOM     10  C   UNL     1     -22.608  -4.953   3.801  1.00  0.00     0.004 C 
ENDBRANCH   8   9
ENDBRANCH   7   8
ENDBRANCH   1   7
TORSDOF 6
ENDMDL
MODEL 6
REMARK VINA RESULT:    -3.119      9.564     11.288
REMARK INTER + INTRA:          -4.624
REMARK INTER:                  -4.034
REMARK INTRA:                  -0.590
REMARK UNBOUND:                -0.411
REMARK SMILES CCCCCCCC(=O)[O-]
REMARK SMILES IDX 5 1 6 2 7 3 8 4 9 5 10 6 4 7 3 8 2 9 1 10
REMARK H PARENT
REMARK Flexibility Score: inf
ROOT
ATOM      1  C   UNL     1     -32.736   7.529  -2.498  1.00  0.00     0.000 C 
ENDROOT
BRANCH   1   2
ATOM      2  C   UNL     1     -33.350   8.257  -3.706  1.00  0.00     0.006 C 
BRANCH   2   3
ATOM      3  C   UNL     1     -34.310   9.379  -3.292  1.00  0.00     0.053 C 
BRANCH   3   4
ATOM      4  C   UNL     1     -35.595   9.270  -4.051  1.00  0.00     0.041 C 
ATOM      5  O   UNL     1     -35.966   8.160  -4.514  1.00  0.00    -0.550 OA
ATOM      6  O   UNL     1     -36.409  10.386  -4.204  1.00  0.00    -0.550 OA
ENDBRANCH   3   4
ENDBRANCH   2   3
ENDBRANCH   1   2
BRANCH   1   7
ATOM      7  C   UNL     1     -33.738   7.343  -1.348  1.00  0.00     0.000 C 
BRANCH   7   8
ATOM      8  C   UNL     1     -34.198   5.883  -1.252  1.00  0.00    -0.000 C 
BRANCH   8   9
ATOM      9  C   UNL     1     -35.707   5.764  -1.492  1.00  0.00    -0.003 C 
ATOM     10  C   UNL     1     -36.423   7.068  -1.153  1.00  0.00     0.004 C 
ENDBRANCH   8   9
ENDBRANCH   7   8
ENDBRANCH   1   7
TORSDOF 6
ENDMDL
MODEL 7
REMARK VINA RESULT:    -3.094      9.657     11.384
REMARK INTER + INTRA:          -4.590
REMARK INTER:                  -4.193
REMARK INTRA:                  -0.397
REMARK UNBOUND:                -0.411
REMARK SMILES CCCCCCCC(=O)[O-]
REMARK SMILES IDX 5 1 6 2 7 3 8 4 9 5 10 6 4 7 3 8 2 9 1 10
REMARK H PARENT
REMARK Flexibility Score: inf
ROOT
ATOM      1  C   UNL     1     -36.021   7.672  -2.519  1.00  0.00     0.000 C 
ENDROOT
BRANCH   1   2
ATOM      2  C   UNL     1     -34.822   8.126  -3.369  1.00  0.00     0.006 C 
BRANCH   2   3
ATOM      3  C   UNL     1     -34.774   9.647  -3.556  1.00  0.00     0.053 C 
BRANCH   3   4
ATOM      4  C   UNL     1     -36.020  10.128  -4.232  1.00  0.00     0.041 C 
ATOM      5  O   UNL     1     -36.734  11.013  -3.690  1.00  0.00    -0.550 OA
ATOM      6  O   UNL     1     -36.367   9.636  -5.483  1.00  0.00    -0.550 OA
ENDBRANCH   3   4
ENDBRANCH   2   3
ENDBRANCH   1   2
BRANCH   1   7
ATOM      7  C   UNL     1     -35.599   6.846  -1.294  1.00  0.00     0.000 C 
BRANCH   7   8
ATOM      8  C   UNL     1     -34.833   5.587  -1.720  1.00  0.00    -0.000 C 
BRANCH   8   9
ATOM      9  C   UNL     1     -33.610   5.359  -0.825  1.00  0.00    -0.003 C 
ATOM     10  C   UNL     1     -32.805   6.644  -0.655  1.00  0.00     0.004 C 
ENDBRANCH   8   9
ENDBRANCH   7   8
ENDBRANCH   1   7
TORSDOF 6
ENDMDL
MODEL 8
REMARK VINA RESULT:    -3.069      9.054     11.312
REMARK INTER + INTRA:          -4.557
REMARK INTER:                  -4.255
REMARK INTRA:                  -0.302
REMARK UNBOUND:                -0.411
REMARK SMILES CCCCCCCC(=O)[O-]
REMARK SMILES IDX 5 1 6 2 7 3 8 4 9 5 10 6 4 7 3 8 2 9 1 10
REMARK H PARENT
REMARK Flexibility Score: inf
ROOT
ATOM      1  C   UNL     1     -34.390   7.375  -1.793  1.00  0.00     0.000 C 
ENDROOT
BRANCH   1   2
ATOM      2  C   UNL     1     -35.918   7.233  -1.708  1.00  0.00     0.006 C 
BRANCH   2   3
ATOM      3  C   UNL     1     -36.373   5.769  -1.673  1.00  0.00     0.053 C 
BRANCH   3   4
ATOM      4  C   UNL     1     -36.752   5.307  -3.045  1.00  0.00     0.041 C 
ATOM      5  O   UNL     1     -37.117   4.117  -3.235  1.00  0.00    -0.550 OA
ATOM      6  O   UNL     1     -36.750   6.203  -4.105  1.00  0.00    -0.550 OA
ENDBRANCH   3   4
ENDBRANCH   2   3
ENDBRANCH   1   2
BRANCH   1   7
ATOM      7  C   UNL     1     -33.926   7.994  -3.121  1.00  0.00     0.000 C 
BRANCH   7   8
ATOM      8  C   UNL     1     -34.411   9.443  -3.250  1.00  0.00    -0.000 C 
BRANCH   8   9
ATOM      9  C   UNL     1     -35.531   9.557  -4.290  1.00  0.00    -0.003 C 
ATOM     10  C   UNL     1     -36.435  10.751  -3.998  1.00  0.00     0.004 C 
ENDBRANCH   8   9
ENDBRANCH   7   8
ENDBRANCH   1   7
TORSDOF 6
ENDMDL
MODEL 9
REMARK VINA RESULT:    -2.990      3.507      5.004
REMARK INTER + INTRA:          -4.450
REMARK INTER:                  -4.061
REMARK INTRA:                  -0.388
REMARK UNBOUND:                -0.411
REMARK SMILES CCCCCCCC(=O)[O-]
REMARK SMILES IDX 5 1 6 2 7 3 8 4 9 5 10 6 4 7 3 8 2 9 1 10
REMARK H PARENT
REMARK Flexibility Score: inf
ROOT
ATOM      1  C   UNL     1     -35.215  -3.903   0.945  1.00  0.00     0.000 C 
ENDROOT
BRANCH   1   2
ATOM      2  C   UNL     1     -35.277  -4.118  -0.576  1.00  0.00     0.006 C 
BRANCH   2   3
ATOM      3  C   UNL     1     -34.020  -3.611  -1.295  1.00  0.00     0.053 C 
BRANCH   3   4
ATOM      4  C   UNL     1     -33.728  -4.459  -2.493  1.00  0.00     0.041 C 
ATOM      5  O   UNL     1     -34.491  -5.415  -2.795  1.00  0.00    -0.550 OA
ATOM      6  O   UNL     1     -32.641  -4.165  -3.304  1.00  0.00    -0.550 OA
ENDBRANCH   3   4
ENDBRANCH   2   3
ENDBRANCH   1   2
BRANCH   1   7
ATOM      7  C   UNL     1     -35.670  -2.495   1.362  1.00  0.00     0.000 C 
BRANCH   7   8
ATOM      8  C   UNL     1     -34.549  -1.753   2.100  1.00  0.00    -0.000 C 
BRANCH   8   9
ATOM      9  C   UNL     1     -33.622  -2.735   2.823  1.00  0.00    -0.003 C 
ATOM     10  C   UNL     1     -32.158  -2.458   2.490  1.00  0.00     0.004 C 
ENDBRANCH   8   9
ENDBRANCH   7   8
ENDBRANCH   1   7
TORSDOF 6
ENDMDL
