MODEL 1
REMARK VINA RESULT:    -3.334      0.000      0.000
REMARK INTER + INTRA:          -3.736
REMARK INTER:                  -3.724
REMARK INTRA:                  -0.012
REMARK UNBOUND:                -0.012
REMARK SMILES CCCC(=O)[O-]
REMARK SMILES IDX 3 1 4 2 5 3 6 4 2 5 1 6
REMARK H PARENT
REMARK Flexibility Score: inf
ROOT
ATOM      1  C   UNL     1      36.152   3.752  21.148  1.00  0.00     0.052 C 
ENDROOT
BRANCH   1   2
ATOM      2  C   UNL     1      37.587   3.945  20.768  1.00  0.00     0.041 C 
ATOM      3  O   UNL     1      38.480   3.212  21.268  1.00  0.00    -0.550 OA
ATOM      4  O   UNL     1      37.935   4.913  19.835  1.00  0.00    -0.550 OA
ENDBRANCH   1   2
BRANCH   1   5
ATOM      5  C   UNL     1      35.225   4.690  20.364  1.00  0.00     0.003 C 
ATOM      6  C   UNL     1      33.837   4.088  20.147  1.00  0.00     0.004 C 
ENDBRANCH   1   5
TORSDOF 2
ENDMDL
MODEL 2
REMARK VINA RESULT:    -3.168     17.457     18.268
REMARK INTER + INTRA:          -3.551
REMARK INTER:                  -3.518
REMARK INTRA:                  -0.033
REMARK UNBOUND:                -0.012
REMARK SMILES CCCC(=O)[O-]
REMARK SMILES IDX 3 1 4 2 5 3 6 4 2 5 1 6
REMARK H PARENT
REMARK Flexibility Score: inf
ROOT
ATOM      1  C   UNL     1      33.088  21.398  14.030  1.00  0.00     0.052 C 
ENDROOT
BRANCH   1   2
ATOM      2  C   UNL     1      34.370  21.599  14.779  1.00  0.00     0.041 C 
ATOM      3  O   UNL     1      35.401  20.952  14.457  1.00  0.00    -0.550 OA
ATOM      4  O   UNL     1      34.433  22.526  15.810  1.00  0.00    -0.550 OA
ENDBRANCH   1   2
BRANCH   1   5
ATOM      5  C   UNL     1      33.137  20.142  13.149  1.00  0.00     0.003 C 
ATOM      6  C   UNL     1      32.197  19.046  13.649  1.00  0.00     0.004 C 
ENDBRANCH   1   5
TORSDOF 2
ENDMDL
MODEL 3
REMARK VINA RESULT:    -3.106     17.531     18.222
REMARK INTER + INTRA:          -3.482
REMARK INTER:                  -3.446
REMARK INTRA:                  -0.036
REMARK UNBOUND:                -0.012
REMARK SMILES CCCC(=O)[O-]
REMARK SMILES IDX 3 1 4 2 5 3 6 4 2 5 1 6
REMARK H PARENT
REMARK Flexibility Score: inf
ROOT
ATOM      1  C   UNL     1      33.624  20.126  13.537  1.00  0.00     0.052 C 
ENDROOT
BRANCH   1   2
ATOM      2  C   UNL     1      33.620  21.312  14.451  1.00  0.00     0.041 C 
ATOM      3  O   UNL     1      32.734  22.200  14.335  1.00  0.00    -0.550 OA
ATOM      4  O   UNL     1      34.576  21.421  15.453  1.00  0.00    -0.550 OA
ENDBRANCH   1   2
BRANCH   1   5
ATOM      5  C   UNL     1      32.367  19.266  13.719  1.00  0.00     0.003 C 
ATOM      6  C   UNL     1      31.516  19.204  12.451  1.00  0.00     0.004 C 
ENDBRANCH   1   5
TORSDOF 2
ENDMDL
MODEL 4
REMARK VINA RESULT:    -3.097     17.526     18.238
REMARK INTER + INTRA:          -3.472
REMARK INTER:                  -3.408
REMARK INTRA:                  -0.064
REMARK UNBOUND:                -0.012
REMARK SMILES CCCC(=O)[O-]
REMARK SMILES IDX 3 1 4 2 5 3 6 4 2 5 1 6
REMARK H PARENT
REMARK Flexibility Score: inf
ROOT
ATOM      1  C   UNL     1      31.875  18.951  13.385  1.00  0.00     0.052 C 
ENDROOT
BRANCH   1   2
ATOM      2  C   UNL     1      31.340  19.275  12.024  1.00  0.00     0.041 C 
ATOM      3  O   UNL     1      30.651  20.314  11.844  1.00  0.00    -0.550 OA
ATOM      4  O   UNL     1      31.632  18.447  10.948  1.00  0.00    -0.550 OA
ENDBRANCH   1   2
BRANCH   1   5
ATOM      5  C   UNL     1      32.721  20.099  13.951  1.00  0.00     0.003 C 
ATOM      6  C   UNL     1      34.094  20.191  13.286  1.00  0.00     0.004 C 
ENDBRANCH   1   5
TORSDOF 2
ENDMDL
MODEL 5
REMARK VINA RESULT:    -3.046     17.462     18.259
REMARK INTER + INTRA:          -3.414
REMARK INTER:                  -3.401
REMARK INTRA:                  -0.013
REMARK UNBOUND:                -0.012
REMARK SMILES CCCC(=O)[O-]
REMARK SMILES IDX 3 1 4 2 5 3 6 4 2 5 1 6
REMARK H PARENT
REMARK Flexibility Score: inf
ROOT
ATOM      1  C   UNL     1      33.594  20.484  13.421  1.00  0.00     0.052 C 
ENDROOT
BRANCH   1   2
ATOM      2  C   UNL     1      32.294  19.745  13.353  1.00  0.00     0.041 C 
ATOM      3  O   UNL     1      32.179  18.612  13.890  1.00  0.00    -0.550 OA
ATOM      4  O   UNL     1      31.198  20.323  12.726  1.00  0.00    -0.550 OA
ENDBRANCH   1   2
BRANCH   1   5
ATOM      5  C   UNL     1      33.525  21.668  14.394  1.00  0.00     0.003 C 
ATOM      6  C   UNL     1      34.631  21.619  15.448  1.00  0.00     0.004 C 
ENDBRANCH   1   5
TORSDOF 2
ENDMDL
MODEL 6
REMARK VINA RESULT:    -2.988     17.662     18.178
REMARK INTER + INTRA:          -3.349
REMARK INTER:                  -3.344
REMARK INTRA:                  -0.005
REMARK UNBOUND:                -0.012
REMARK SMILES CCCC(=O)[O-]
REMARK SMILES IDX 3 1 4 2 5 3 6 4 2 5 1 6
REMARK H PARENT
REMARK Flexibility Score: inf
ROOT
ATOM      1  C   UNL     1      32.017  19.451  11.549  1.00  0.00     0.052 C 
ENDROOT
BRANCH   1   2
ATOM      2  C   UNL     1      31.306  18.456  10.686  1.00  0.00     0.041 C 
ATOM      3  O   UNL     1      31.959  17.699   9.918  1.00  0.00    -0.550 OA
ATOM      4  O   UNL     1      29.924  18.340  10.753  1.00  0.00    -0.550 OA
ENDBRANCH   1   2
BRANCH   1   5
ATOM      5  C   UNL     1      31.899  19.098  13.038  1.00  0.00     0.003 C 
ATOM      6  C   UNL     1      32.693  20.055  13.926  1.00  0.00     0.004 C 
ENDBRANCH   1   5
TORSDOF 2
ENDMDL
MODEL 7
REMARK VINA RESULT:    -2.961     17.926     18.125
REMARK INTER + INTRA:          -3.320
REMARK INTER:                  -3.304
REMARK INTRA:                  -0.016
REMARK UNBOUND:                -0.012
REMARK SMILES CCCC(=O)[O-]
REMARK SMILES IDX 3 1 4 2 5 3 6 4 2 5 1 6
REMARK H PARENT
REMARK Flexibility Score: inf
ROOT
ATOM      1  C   UNL     1      32.685  19.824  11.362  1.00  0.00     0.052 C 
ENDROOT
BRANCH   1   2
ATOM      2  C   UNL     1      32.901  19.904  12.842  1.00  0.00     0.041 C 
ATOM      3  O   UNL     1      31.937  19.730  13.634  1.00  0.00    -0.550 OA
ATOM      4  O   UNL     1      34.173  20.138  13.347  1.00  0.00    -0.550 OA
ENDBRANCH   1   2
BRANCH   1   5
ATOM      5  C   UNL     1      31.478  18.944  11.012  1.00  0.00     0.003 C 
ATOM      6  C   UNL     1      31.811  17.899   9.947  1.00  0.00     0.004 C 
ENDBRANCH   1   5
TORSDOF 2
ENDMDL
MODEL 8
REMARK VINA RESULT:    -2.864      9.496      9.747
REMARK INTER + INTRA:          -3.212
REMARK INTER:                  -3.205
REMARK INTRA:                  -0.006
REMARK UNBOUND:                -0.012
REMARK SMILES CCCC(=O)[O-]
REMARK SMILES IDX 3 1 4 2 5 3 6 4 2 5 1 6
REMARK H PARENT
REMARK Flexibility Score: inf
ROOT
ATOM      1  C   UNL     1      34.403   8.871  27.840  1.00  0.00     0.052 C 
ENDROOT
BRANCH   1   2
ATOM      2  C   UNL     1      34.499   9.755  29.045  1.00  0.00     0.041 C 
ATOM      3  O   UNL     1      33.561  10.547  29.327  1.00  0.00    -0.550 OA
ATOM      4  O   UNL     1      35.609   9.680  29.875  1.00  0.00    -0.550 OA
ENDBRANCH   1   2
BRANCH   1   5
ATOM      5  C   UNL     1      35.701   8.882  27.023  1.00  0.00     0.003 C 
ATOM      6  C   UNL     1      35.612   7.996  25.780  1.00  0.00     0.004 C 
ENDBRANCH   1   5
TORSDOF 2
ENDMDL
MODEL 9
REMARK VINA RESULT:    -2.817      9.324     10.470
REMARK INTER + INTRA:          -3.159
REMARK INTER:                  -3.138
REMARK INTRA:                  -0.022
REMARK UNBOUND:                -0.012
REMARK SMILES CCCC(=O)[O-]
REMARK SMILES IDX 3 1 4 2 5 3 6 4 2 5 1 6
REMARK H PARENT
REMARK Flexibility Score: inf
ROOT
ATOM      1  C   UNL     1      30.165   5.884  13.093  1.00  0.00     0.052 C 
ENDROOT
BRANCH   1   2
ATOM      2  C   UNL     1      28.767   6.405  13.214  1.00  0.00     0.041 C 
ATOM      3  O   UNL     1      27.854   5.671  13.677  1.00  0.00    -0.550 OA
ATOM      4  O   UNL     1      28.478   7.713  12.848  1.00  0.00    -0.550 OA
ENDBRANCH   1   2
BRANCH   1   5
ATOM      5  C   UNL     1      31.008   6.227  14.328  1.00  0.00     0.003 C 
ATOM      6  C   UNL     1      31.569   4.981  15.014  1.00  0.00     0.004 C 
ENDBRANCH   1   5
TORSDOF 2
ENDMDL
