MODEL 1
REMARK VINA RESULT:    -3.673      0.000      0.000
REMARK INTER + INTRA:          -5.156
REMARK INTER:                  -4.747
REMARK INTRA:                  -0.410
REMARK UNBOUND:                -0.410
REMARK SMILES CCCCCCC(=O)[O-]
REMARK SMILES IDX 5 1 6 2 7 3 8 4 9 5 4 6 3 7 2 8 1 9
REMARK H PARENT
REMARK Flexibility Score: inf
ROOT
ATOM      1  C   UNL     1     -10.271   2.174   5.443  1.00  0.00     0.006 C 
ENDROOT
BRANCH   1   2
ATOM      2  C   UNL     1      -8.960   2.951   5.296  1.00  0.00     0.053 C 
BRANCH   2   3
ATOM      3  C   UNL     1      -7.816   2.155   5.839  1.00  0.00     0.041 C 
ATOM      4  O   UNL     1      -6.771   2.000   5.154  1.00  0.00    -0.550 OA
ATOM      5  O   UNL     1      -7.922   1.543   7.081  1.00  0.00    -0.550 OA
ENDBRANCH   2   3
ENDBRANCH   1   2
BRANCH   1   6
ATOM      6  C   UNL     1     -10.340   1.016   4.439  1.00  0.00     0.000 C 
BRANCH   6   7
ATOM      7  C   UNL     1     -10.305  -0.338   5.157  1.00  0.00    -0.000 C 
BRANCH   7   8
ATOM      8  C   UNL     1      -9.341  -1.304   4.458  1.00  0.00    -0.003 C 
ATOM      9  C   UNL     1      -8.518  -0.587   3.392  1.00  0.00     0.004 C 
ENDBRANCH   7   8
ENDBRANCH   6   7
ENDBRANCH   1   6
TORSDOF 5
ENDMDL
MODEL 2
REMARK VINA RESULT:    -3.445      2.581      3.707
REMARK INTER + INTRA:          -4.862
REMARK INTER:                  -4.552
REMARK INTRA:                  -0.309
REMARK UNBOUND:                -0.410
REMARK SMILES CCCCCCC(=O)[O-]
REMARK SMILES IDX 5 1 6 2 7 3 8 4 9 5 4 6 3 7 2 8 1 9
REMARK H PARENT
REMARK Flexibility Score: inf
ROOT
ATOM      1  C   UNL     1      -9.351   1.229   5.030  1.00  0.00     0.006 C 
ENDROOT
BRANCH   1   2
ATOM      2  C   UNL     1      -9.000   0.063   4.100  1.00  0.00     0.053 C 
BRANCH   2   3
ATOM      3  C   UNL     1      -9.391  -1.239   4.723  1.00  0.00     0.041 C 
ATOM      4  O   UNL     1     -10.065  -2.077   4.069  1.00  0.00    -0.550 OA
ATOM      5  O   UNL     1      -9.053  -1.508   6.043  1.00  0.00    -0.550 OA
ENDBRANCH   2   3
ENDBRANCH   1   2
BRANCH   1   6
ATOM      6  C   UNL     1     -10.738   1.796   4.701  1.00  0.00     0.000 C 
BRANCH   6   7
ATOM      7  C   UNL     1     -11.526   2.099   5.981  1.00  0.00    -0.000 C 
BRANCH   7   8
ATOM      8  C   UNL     1     -11.818   0.812   6.762  1.00  0.00    -0.003 C 
ATOM      9  C   UNL     1     -13.189   0.248   6.402  1.00  0.00     0.004 C 
ENDBRANCH   7   8
ENDBRANCH   6   7
ENDBRANCH   1   6
TORSDOF 5
ENDMDL
MODEL 3
REMARK VINA RESULT:    -3.427     12.252     13.439
REMARK INTER + INTRA:          -4.838
REMARK INTER:                  -4.402
REMARK INTRA:                  -0.436
REMARK UNBOUND:                -0.410
REMARK SMILES CCCCCCC(=O)[O-]
REMARK SMILES IDX 5 1 6 2 7 3 8 4 9 5 4 6 3 7 2 8 1 9
REMARK H PARENT
REMARK Flexibility Score: inf
ROOT
ATOM      1  C   UNL     1      -0.559  -9.288   6.477  1.00  0.00     0.006 C 
ENDROOT
BRANCH   1   2
ATOM      2  C   UNL     1       0.713  -8.720   7.114  1.00  0.00     0.053 C 
BRANCH   2   3
ATOM      3  C   UNL     1       0.771  -9.068   8.567  1.00  0.00     0.041 C 
ATOM      4  O   UNL     1       1.163 -10.207   8.931  1.00  0.00    -0.550 OA
ATOM      5  O   UNL     1       0.346  -8.150   9.518  1.00  0.00    -0.550 OA
ENDBRANCH   2   3
ENDBRANCH   1   2
BRANCH   1   6
ATOM      6  C   UNL     1      -1.604  -8.187   6.259  1.00  0.00     0.000 C 
BRANCH   6   7
ATOM      7  C   UNL     1      -2.747  -8.304   7.275  1.00  0.00    -0.000 C 
BRANCH   7   8
ATOM      8  C   UNL     1      -2.854  -9.734   7.818  1.00  0.00    -0.003 C 
ATOM      9  C   UNL     1      -2.935  -9.740   9.342  1.00  0.00     0.004 C 
ENDBRANCH   7   8
ENDBRANCH   6   7
ENDBRANCH   1   6
TORSDOF 5
ENDMDL
MODEL 4
REMARK VINA RESULT:    -3.391      2.807      3.558
REMARK INTER + INTRA:          -4.792
REMARK INTER:                  -4.534
REMARK INTRA:                  -0.257
REMARK UNBOUND:                -0.410
REMARK SMILES CCCCCCC(=O)[O-]
REMARK SMILES IDX 5 1 6 2 7 3 8 4 9 5 4 6 3 7 2 8 1 9
REMARK H PARENT
REMARK Flexibility Score: inf
ROOT
ATOM      1  C   UNL     1     -11.060   1.536   5.010  1.00  0.00     0.006 C 
ENDROOT
BRANCH   1   2
ATOM      2  C   UNL     1     -12.216   0.934   5.814  1.00  0.00     0.053 C 
BRANCH   2   3
ATOM      3  C   UNL     1     -12.696   1.904   6.847  1.00  0.00     0.041 C 
ATOM      4  O   UNL     1     -11.924   2.286   7.765  1.00  0.00    -0.550 OA
ATOM      5  O   UNL     1     -14.012   2.348   6.825  1.00  0.00    -0.550 OA
ENDBRANCH   2   3
ENDBRANCH   1   2
BRANCH   1   6
ATOM      6  C   UNL     1      -9.744   0.807   5.307  1.00  0.00     0.000 C 
BRANCH   6   7
ATOM      7  C   UNL     1      -9.956  -0.710   5.364  1.00  0.00    -0.000 C 
BRANCH   7   8
ATOM      8  C   UNL     1      -9.440  -1.385   4.087  1.00  0.00    -0.003 C 
ATOM      9  C   UNL     1      -8.390  -0.521   3.394  1.00  0.00     0.004 C 
ENDBRANCH   7   8
ENDBRANCH   6   7
ENDBRANCH   1   6
TORSDOF 5
ENDMDL
MODEL 5
REMARK VINA RESULT:    -3.355     12.377     13.650
REMARK INTER + INTRA:          -4.745
REMARK INTER:                  -4.390
REMARK INTRA:                  -0.355
REMARK UNBOUND:                -0.410
REMARK SMILES CCCCCCC(=O)[O-]
REMARK SMILES IDX 5 1 6 2 7 3 8 4 9 5 4 6 3 7 2 8 1 9
REMARK H PARENT
REMARK Flexibility Score: inf
ROOT
ATOM      1  C   UNL     1      -0.422 -10.769   6.594  1.00  0.00     0.006 C 
ENDROOT
BRANCH   1   2
ATOM      2  C   UNL     1       0.570  -9.635   6.871  1.00  0.00     0.053 C 
BRANCH   2   3
ATOM      3  C   UNL     1       0.749  -9.443   8.344  1.00  0.00     0.041 C 
ATOM      4  O   UNL     1       1.188 -10.384   9.056  1.00  0.00    -0.550 OA
ATOM      5  O   UNL     1       0.385  -8.242   8.937  1.00  0.00    -0.550 OA
ENDBRANCH   2   3
ENDBRANCH   1   2
BRANCH   1   6
ATOM      6  C   UNL     1      -1.723 -10.226   5.989  1.00  0.00     0.000 C 
BRANCH   6   7
ATOM      7  C   UNL     1      -2.699  -9.787   7.086  1.00  0.00    -0.000 C 
BRANCH   7   8
ATOM      8  C   UNL     1      -2.794  -8.258   7.156  1.00  0.00    -0.003 C 
ATOM      9  C   UNL     1      -2.421  -7.622   5.820  1.00  0.00     0.004 C 
ENDBRANCH   7   8
ENDBRANCH   6   7
ENDBRANCH   1   6
TORSDOF 5
ENDMDL
MODEL 6
REMARK VINA RESULT:    -3.310      1.782      2.114
REMARK INTER + INTRA:          -4.687
REMARK INTER:                  -4.420
REMARK INTRA:                  -0.267
REMARK UNBOUND:                -0.410
REMARK SMILES CCCCCCC(=O)[O-]
REMARK SMILES IDX 5 1 6 2 7 3 8 4 9 5 4 6 3 7 2 8 1 9
REMARK H PARENT
REMARK Flexibility Score: inf
ROOT
ATOM      1  C   UNL     1     -10.750   1.330   6.207  1.00  0.00     0.006 C 
ENDROOT
BRANCH   1   2
ATOM      2  C   UNL     1     -10.766   2.181   4.933  1.00  0.00     0.053 C 
BRANCH   2   3
ATOM      3  C   UNL     1      -9.906   3.393   5.103  1.00  0.00     0.041 C 
ATOM      4  O   UNL     1     -10.172   4.451   4.474  1.00  0.00    -0.550 OA
ATOM      5  O   UNL     1      -8.783   3.340   5.918  1.00  0.00    -0.550 OA
ENDBRANCH   2   3
ENDBRANCH   1   2
BRANCH   1   6
ATOM      6  C   UNL     1     -10.949  -0.155   5.880  1.00  0.00     0.000 C 
BRANCH   6   7
ATOM      7  C   UNL     1      -9.606  -0.846   5.619  1.00  0.00    -0.000 C 
BRANCH   7   8
ATOM      8  C   UNL     1      -9.493  -1.294   4.157  1.00  0.00    -0.003 C 
ATOM      9  C   UNL     1      -8.405  -0.515   3.424  1.00  0.00     0.004 C 
ENDBRANCH   7   8
ENDBRANCH   6   7
ENDBRANCH   1   6
TORSDOF 5
ENDMDL
MODEL 7
REMARK VINA RESULT:    -3.237     12.724     13.864
REMARK INTER + INTRA:          -4.593
REMARK INTER:                  -4.221
REMARK INTRA:                  -0.373
REMARK UNBOUND:                -0.410
REMARK SMILES CCCCCCC(=O)[O-]
REMARK SMILES IDX 5 1 6 2 7 3 8 4 9 5 4 6 3 7 2 8 1 9
REMARK H PARENT
REMARK Flexibility Score: inf
ROOT
ATOM      1  C   UNL     1      -1.677  -8.345   7.116  1.00  0.00     0.006 C 
ENDROOT
BRANCH   1   2
ATOM      2  C   UNL     1      -0.227  -8.519   6.656  1.00  0.00     0.053 C 
BRANCH   2   3
ATOM      3  C   UNL     1       0.646  -8.901   7.809  1.00  0.00     0.041 C 
ATOM      4  O   UNL     1       0.562  -8.280   8.900  1.00  0.00    -0.550 OA
ATOM      5  O   UNL     1       1.587  -9.912   7.663  1.00  0.00    -0.550 OA
ENDBRANCH   2   3
ENDBRANCH   1   2
BRANCH   1   6
ATOM      6  C   UNL     1      -2.418  -9.688   7.121  1.00  0.00     0.000 C 
BRANCH   6   7
ATOM      7  C   UNL     1      -2.084 -10.506   5.868  1.00  0.00    -0.000 C 
BRANCH   7   8
ATOM      8  C   UNL     1      -1.520 -11.881   6.244  1.00  0.00    -0.003 C 
ATOM      9  C   UNL     1      -0.194 -12.145   5.536  1.00  0.00     0.004 C 
ENDBRANCH   7   8
ENDBRANCH   6   7
ENDBRANCH   1   6
TORSDOF 5
ENDMDL
MODEL 8
REMARK VINA RESULT:    -3.233      1.880      2.272
REMARK INTER + INTRA:          -4.588
REMARK INTER:                  -4.324
REMARK INTRA:                  -0.264
REMARK UNBOUND:                -0.410
REMARK SMILES CCCCCCC(=O)[O-]
REMARK SMILES IDX 5 1 6 2 7 3 8 4 9 5 4 6 3 7 2 8 1 9
REMARK H PARENT
REMARK Flexibility Score: inf
ROOT
ATOM      1  C   UNL     1     -10.993   1.333   7.018  1.00  0.00     0.006 C 
ENDROOT
BRANCH   1   2
ATOM      2  C   UNL     1     -10.274   0.911   8.302  1.00  0.00     0.053 C 
BRANCH   2   3
ATOM      3  C   UNL     1      -8.860   0.521   8.007  1.00  0.00     0.041 C 
ATOM      4  O   UNL     1      -8.090   1.328   7.424  1.00  0.00    -0.550 OA
ATOM      5  O   UNL     1      -8.408  -0.751   8.331  1.00  0.00    -0.550 OA
ENDBRANCH   2   3
ENDBRANCH   1   2
BRANCH   1   6
ATOM      6  C   UNL     1     -11.213   0.133   6.089  1.00  0.00     0.000 C 
BRANCH   6   7
ATOM      7  C   UNL     1     -10.404   0.282   4.795  1.00  0.00    -0.000 C 
BRANCH   7   8
ATOM      8  C   UNL     1      -9.553  -0.966   4.533  1.00  0.00    -0.003 C 
ATOM      9  C   UNL     1      -8.502  -0.700   3.459  1.00  0.00     0.004 C 
ENDBRANCH   7   8
ENDBRANCH   6   7
ENDBRANCH   1   6
TORSDOF 5
ENDMDL
MODEL 9
REMARK VINA RESULT:    -3.224      2.035      3.505
REMARK INTER + INTRA:          -4.575
REMARK INTER:                  -4.156
REMARK INTRA:                  -0.419
REMARK UNBOUND:                -0.410
REMARK SMILES CCCCCCC(=O)[O-]
REMARK SMILES IDX 5 1 6 2 7 3 8 4 9 5 4 6 3 7 2 8 1 9
REMARK H PARENT
REMARK Flexibility Score: inf
ROOT
ATOM      1  C   UNL     1     -11.358   1.097   5.159  1.00  0.00     0.006 C 
ENDROOT
BRANCH   1   2
ATOM      2  C   UNL     1     -10.779  -0.120   5.887  1.00  0.00     0.053 C 
BRANCH   2   3
ATOM      3  C   UNL     1      -9.698  -0.754   5.071  1.00  0.00     0.041 C 
ATOM      4  O   UNL     1      -8.960  -1.640   5.575  1.00  0.00    -0.550 OA
ATOM      5  O   UNL     1      -9.474  -0.331   3.767  1.00  0.00    -0.550 OA
ENDBRANCH   2   3
ENDBRANCH   1   2
BRANCH   1   6
ATOM      6  C   UNL     1     -10.939   2.401   5.847  1.00  0.00     0.000 C 
BRANCH   6   7
ATOM      7  C   UNL     1      -9.720   3.022   5.154  1.00  0.00    -0.000 C 
BRANCH   7   8
ATOM      8  C   UNL     1      -8.435   2.729   5.936  1.00  0.00    -0.003 C 
ATOM      9  C   UNL     1      -7.318   2.262   5.007  1.00  0.00     0.004 C 
ENDBRANCH   7   8
ENDBRANCH   6   7
ENDBRANCH   1   6
TORSDOF 5
ENDMDL
