MODEL 1
REMARK VINA RESULT:    -3.228      0.000      0.000
REMARK INTER + INTRA:          -7.835
REMARK INTER:                  -5.681
REMARK INTRA:                  -2.154
REMARK UNBOUND:                -2.154
REMARK SMILES CCCCCCCCCCCCCCC(=O)[O-]
REMARK SMILES IDX 9 1 10 2 11 3 12 4 13 5 14 6 15 7 16 8 17 9 8 10 7 11 6 12
REMARK SMILES IDX 5 13 4 14 3 15 2 16 1 17
REMARK H PARENT
REMARK Flexibility Score: inf
ROOT
ATOM      1  C   UNL     1     -95.272 149.606 240.136  1.00  0.00     0.000 C 
ENDROOT
BRANCH   1   2
ATOM      2  C   UNL     1     -96.535 150.475 240.271  1.00  0.00     0.000 C 
BRANCH   2   3
ATOM      3  C   UNL     1     -97.695 149.728 240.950  1.00  0.00     0.000 C 
BRANCH   3   4
ATOM      4  C   UNL     1     -99.035 149.931 240.227  1.00  0.00     0.000 C 
BRANCH   4   5
ATOM      5  C   UNL     1     -98.933 151.053 239.187  1.00  0.00     0.006 C 
BRANCH   5   6
ATOM      6  C   UNL     1    -100.224 151.167 238.371  1.00  0.00     0.053 C 
BRANCH   6   7
ATOM      7  C   UNL     1    -100.060 152.159 237.264  1.00  0.00     0.041 C 
ATOM      8  O   UNL     1     -99.307 151.901 236.288  1.00  0.00    -0.550 OA
ATOM      9  O   UNL     1    -100.778 153.349 237.284  1.00  0.00    -0.550 OA
ENDBRANCH   6   7
ENDBRANCH   5   6
ENDBRANCH   4   5
ENDBRANCH   3   4
ENDBRANCH   2   3
ENDBRANCH   1   2
BRANCH   1  10
ATOM     10  C   UNL     1     -95.579 148.101 240.222  1.00  0.00     0.000 C 
BRANCH  10  11
ATOM     11  C   UNL     1     -94.612 147.249 239.387  1.00  0.00    -0.000 C 
BRANCH  11  12
ATOM     12  C   UNL     1     -93.848 148.119 238.378  1.00  0.00    -0.000 C 
BRANCH  12  13
ATOM     13  C   UNL     1     -93.862 147.536 236.953  1.00  0.00    -0.000 C 
BRANCH  13  14
ATOM     14  C   UNL     1     -94.739 148.302 235.943  1.00  0.00    -0.000 C 
BRANCH  14  15
ATOM     15  C   UNL     1     -95.580 149.447 236.542  1.00  0.00    -0.000 C 
BRANCH  15  16
ATOM     16  C   UNL     1     -97.102 149.288 236.372  1.00  0.00    -0.003 C 
ATOM     17  C   UNL     1     -97.675 148.142 237.204  1.00  0.00     0.004 C 
ENDBRANCH  15  16
ENDBRANCH  14  15
ENDBRANCH  13  14
ENDBRANCH  12  13
ENDBRANCH  11  12
ENDBRANCH  10  11
ENDBRANCH   1  10
TORSDOF 13
ENDMDL
MODEL 2
REMARK VINA RESULT:    -3.198      2.240      5.615
REMARK INTER + INTRA:          -7.783
REMARK INTER:                  -6.341
REMARK INTRA:                  -1.442
REMARK UNBOUND:                -2.154
REMARK SMILES CCCCCCCCCCCCCCC(=O)[O-]
REMARK SMILES IDX 9 1 10 2 11 3 12 4 13 5 14 6 15 7 16 8 17 9 8 10 7 11 6 12
REMARK SMILES IDX 5 13 4 14 3 15 2 16 1 17
REMARK H PARENT
REMARK Flexibility Score: inf
ROOT
ATOM      1  C   UNL     1     -95.160 148.030 240.052  1.00  0.00     0.000 C 
ENDROOT
BRANCH   1   2
ATOM      2  C   UNL     1     -94.399 148.917 239.052  1.00  0.00     0.000 C 
BRANCH   2   3
ATOM      3  C   UNL     1     -93.786 148.111 237.895  1.00  0.00     0.000 C 
BRANCH   3   4
ATOM      4  C   UNL     1     -94.557 148.283 236.578  1.00  0.00     0.000 C 
BRANCH   4   5
ATOM      5  C   UNL     1     -95.537 149.459 236.665  1.00  0.00     0.006 C 
BRANCH   5   6
ATOM      6  C   UNL     1     -96.868 149.119 235.988  1.00  0.00     0.053 C 
BRANCH   6   7
ATOM      7  C   UNL     1     -98.003 149.284 236.947  1.00  0.00     0.041 C 
ATOM      8  O   UNL     1     -98.298 148.356 237.746  1.00  0.00    -0.550 OA
ATOM      9  O   UNL     1     -98.705 150.482 236.996  1.00  0.00    -0.550 OA
ENDBRANCH   6   7
ENDBRANCH   5   6
ENDBRANCH   4   5
ENDBRANCH   3   4
ENDBRANCH   2   3
ENDBRANCH   1   2
BRANCH   1  10
ATOM     10  C   UNL     1     -96.418 148.716 240.611  1.00  0.00     0.000 C 
BRANCH  10  11
ATOM     11  C   UNL     1     -96.438 150.228 240.343  1.00  0.00    -0.000 C 
BRANCH  11  12
ATOM     12  C   UNL     1     -97.870 150.779 240.417  1.00  0.00    -0.000 C 
BRANCH  12  13
ATOM     13  C   UNL     1     -98.860 149.788 241.055  1.00  0.00    -0.000 C 
BRANCH  13  14
ATOM     14  C   UNL     1     -99.656 150.341 242.254  1.00  0.00    -0.000 C 
BRANCH  14  15
ATOM     15  C   UNL     1     -98.829 150.591 243.531  1.00  0.00    -0.000 C 
BRANCH  15  16
ATOM     16  C   UNL     1     -99.317 151.767 244.396  1.00  0.00    -0.003 C 
ATOM     17  C   UNL     1     -98.430 152.014 245.616  1.00  0.00     0.004 C 
ENDBRANCH  15  16
ENDBRANCH  14  15
ENDBRANCH  13  14
ENDBRANCH  12  13
ENDBRANCH  11  12
ENDBRANCH  10  11
ENDBRANCH   1  10
TORSDOF 13
ENDMDL
MODEL 3
REMARK VINA RESULT:    -3.158      3.037      4.239
REMARK INTER + INTRA:          -7.712
REMARK INTER:                  -6.460
REMARK INTRA:                  -1.252
REMARK UNBOUND:                -2.154
REMARK SMILES CCCCCCCCCCCCCCC(=O)[O-]
REMARK SMILES IDX 9 1 10 2 11 3 12 4 13 5 14 6 15 7 16 8 17 9 8 10 7 11 6 12
REMARK SMILES IDX 5 13 4 14 3 15 2 16 1 17
REMARK H PARENT
REMARK Flexibility Score: inf
ROOT
ATOM      1  C   UNL     1     -94.279 148.698 238.059  1.00  0.00     0.000 C 
ENDROOT
BRANCH   1   2
ATOM      2  C   UNL     1     -94.538 149.149 239.507  1.00  0.00     0.000 C 
BRANCH   2   3
ATOM      3  C   UNL     1     -95.391 148.143 240.296  1.00  0.00     0.000 C 
BRANCH   3   4
ATOM      4  C   UNL     1     -96.770 148.702 240.675  1.00  0.00     0.000 C 
BRANCH   4   5
ATOM      5  C   UNL     1     -96.803 150.228 240.530  1.00  0.00     0.006 C 
BRANCH   5   6
ATOM      6  C   UNL     1     -98.243 150.748 240.493  1.00  0.00     0.053 C 
BRANCH   6   7
ATOM      7  C   UNL     1     -99.001 150.279 241.694  1.00  0.00     0.041 C 
ATOM      8  O   UNL     1     -98.652 150.644 242.847  1.00  0.00    -0.550 OA
ATOM      9  O   UNL     1    -100.126 149.478 241.537  1.00  0.00    -0.550 OA
ENDBRANCH   6   7
ENDBRANCH   5   6
ENDBRANCH   4   5
ENDBRANCH   3   4
ENDBRANCH   2   3
ENDBRANCH   1   2
BRANCH   1  10
ATOM     10  C   UNL     1     -94.975 149.600 237.026  1.00  0.00     0.000 C 
BRANCH  10  11
ATOM     11  C   UNL     1     -96.472 149.289 236.880  1.00  0.00    -0.000 C 
BRANCH  11  12
ATOM     12  C   UNL     1     -97.066 150.014 235.664  1.00  0.00    -0.000 C 
BRANCH  12  13
ATOM     13  C   UNL     1     -96.371 149.636 234.343  1.00  0.00    -0.000 C 
BRANCH  13  14
ATOM     14  C   UNL     1     -95.748 150.816 233.571  1.00  0.00    -0.000 C 
BRANCH  14  15
ATOM     15  C   UNL     1     -95.931 152.199 234.229  1.00  0.00    -0.000 C 
BRANCH  15  16
ATOM     16  C   UNL     1     -97.022 153.078 233.594  1.00  0.00    -0.003 C 
ATOM     17  C   UNL     1     -97.359 154.308 234.436  1.00  0.00     0.004 C 
ENDBRANCH  15  16
ENDBRANCH  14  15
ENDBRANCH  13  14
ENDBRANCH  12  13
ENDBRANCH  11  12
ENDBRANCH  10  11
ENDBRANCH   1  10
TORSDOF 13
ENDMDL
MODEL 4
REMARK VINA RESULT:    -3.150      2.162      4.356
REMARK INTER + INTRA:          -7.699
REMARK INTER:                  -6.103
REMARK INTRA:                  -1.596
REMARK UNBOUND:                -2.154
REMARK SMILES CCCCCCCCCCCCCCC(=O)[O-]
REMARK SMILES IDX 9 1 10 2 11 3 12 4 13 5 14 6 15 7 16 8 17 9 8 10 7 11 6 12
REMARK SMILES IDX 5 13 4 14 3 15 2 16 1 17
REMARK H PARENT
REMARK Flexibility Score: inf
ROOT
ATOM      1  C   UNL     1     -94.994 149.529 237.376  1.00  0.00     0.000 C 
ENDROOT
BRANCH   1   2
ATOM      2  C   UNL     1     -95.274 149.098 235.925  1.00  0.00     0.000 C 
BRANCH   2   3
ATOM      3  C   UNL     1     -96.203 150.076 235.188  1.00  0.00     0.000 C 
BRANCH   3   4
ATOM      4  C   UNL     1     -95.483 150.857 234.079  1.00  0.00     0.000 C 
BRANCH   4   5
ATOM      5  C   UNL     1     -96.122 152.236 233.875  1.00  0.00     0.006 C 
BRANCH   5   6
ATOM      6  C   UNL     1     -97.626 152.194 234.163  1.00  0.00     0.053 C 
BRANCH   6   7
ATOM      7  C   UNL     1     -98.099 153.517 234.674  1.00  0.00     0.041 C 
ATOM      8  O   UNL     1     -97.466 154.569 234.394  1.00  0.00    -0.550 OA
ATOM      9  O   UNL     1     -99.270 153.597 235.419  1.00  0.00    -0.550 OA
ENDBRANCH   6   7
ENDBRANCH   5   6
ENDBRANCH   4   5
ENDBRANCH   3   4
ENDBRANCH   2   3
ENDBRANCH   1   2
BRANCH   1  10
ATOM     10  C   UNL     1     -94.631 148.343 238.285  1.00  0.00     0.000 C 
BRANCH  10  11
ATOM     11  C   UNL     1     -95.270 148.446 239.678  1.00  0.00    -0.000 C 
BRANCH  11  12
ATOM     12  C   UNL     1     -95.671 149.895 239.991  1.00  0.00    -0.000 C 
BRANCH  12  13
ATOM     13  C   UNL     1     -97.010 149.996 240.745  1.00  0.00    -0.000 C 
BRANCH  13  14
ATOM     14  C   UNL     1     -97.987 151.056 240.198  1.00  0.00    -0.000 C 
BRANCH  14  15
ATOM     15  C   UNL     1     -99.114 150.508 239.299  1.00  0.00    -0.000 C 
BRANCH  15  16
ATOM     16  C   UNL     1     -98.676 150.130 237.873  1.00  0.00    -0.003 C 
ATOM     17  C   UNL     1     -98.631 148.620 237.646  1.00  0.00     0.004 C 
ENDBRANCH  15  16
ENDBRANCH  14  15
ENDBRANCH  13  14
ENDBRANCH  12  13
ENDBRANCH  11  12
ENDBRANCH  10  11
ENDBRANCH   1  10
TORSDOF 13
ENDMDL
MODEL 5
REMARK VINA RESULT:    -3.145      2.303      4.464
REMARK INTER + INTRA:          -7.690
REMARK INTER:                  -6.362
REMARK INTRA:                  -1.328
REMARK UNBOUND:                -2.154
REMARK SMILES CCCCCCCCCCCCCCC(=O)[O-]
REMARK SMILES IDX 9 1 10 2 11 3 12 4 13 5 14 6 15 7 16 8 17 9 8 10 7 11 6 12
REMARK SMILES IDX 5 13 4 14 3 15 2 16 1 17
REMARK H PARENT
REMARK Flexibility Score: inf
ROOT
ATOM      1  C   UNL     1     -96.290 149.137 236.528  1.00  0.00     0.000 C 
ENDROOT
BRANCH   1   2
ATOM      2  C   UNL     1     -96.840 150.141 235.500  1.00  0.00     0.000 C 
BRANCH   2   3
ATOM      3  C   UNL     1     -95.840 150.439 234.372  1.00  0.00     0.000 C 
BRANCH   3   4
ATOM      4  C   UNL     1     -95.826 151.920 233.966  1.00  0.00     0.000 C 
BRANCH   4   5
ATOM      5  C   UNL     1     -97.242 152.416 233.652  1.00  0.00     0.006 C 
BRANCH   5   6
ATOM      6  C   UNL     1     -97.407 153.891 234.033  1.00  0.00     0.053 C 
BRANCH   6   7
ATOM      7  C   UNL     1     -98.626 154.083 234.875  1.00  0.00     0.041 C 
ATOM      8  O   UNL     1     -99.042 153.150 235.611  1.00  0.00    -0.550 OA
ATOM      9  O   UNL     1     -99.277 155.310 234.888  1.00  0.00    -0.550 OA
ENDBRANCH   6   7
ENDBRANCH   5   6
ENDBRANCH   4   5
ENDBRANCH   3   4
ENDBRANCH   2   3
ENDBRANCH   1   2
BRANCH   1  10
ATOM     10  C   UNL     1     -94.917 149.554 237.083  1.00  0.00     0.000 C 
BRANCH  10  11
ATOM     11  C   UNL     1     -94.335 148.523 238.062  1.00  0.00    -0.000 C 
BRANCH  11  12
ATOM     12  C   UNL     1     -94.469 149.008 239.513  1.00  0.00    -0.000 C 
BRANCH  12  13
ATOM     13  C   UNL     1     -95.462 148.166 240.336  1.00  0.00    -0.000 C 
BRANCH  13  14
ATOM     14  C   UNL     1     -96.786 148.876 240.686  1.00  0.00    -0.000 C 
BRANCH  14  15
ATOM     15  C   UNL     1     -96.794 150.400 240.453  1.00  0.00    -0.000 C 
BRANCH  15  16
ATOM     16  C   UNL     1     -98.184 151.006 240.191  1.00  0.00    -0.003 C 
ATOM     17  C   UNL     1     -98.777 150.572 238.851  1.00  0.00     0.004 C 
ENDBRANCH  15  16
ENDBRANCH  14  15
ENDBRANCH  13  14
ENDBRANCH  12  13
ENDBRANCH  11  12
ENDBRANCH  10  11
ENDBRANCH   1  10
TORSDOF 13
ENDMDL
MODEL 6
REMARK VINA RESULT:    -3.137      3.620      4.280
REMARK INTER + INTRA:          -7.675
REMARK INTER:                  -6.266
REMARK INTRA:                  -1.409
REMARK UNBOUND:                -2.154
REMARK SMILES CCCCCCCCCCCCCCC(=O)[O-]
REMARK SMILES IDX 9 1 10 2 11 3 12 4 13 5 14 6 15 7 16 8 17 9 8 10 7 11 6 12
REMARK SMILES IDX 5 13 4 14 3 15 2 16 1 17
REMARK H PARENT
REMARK Flexibility Score: inf
ROOT
ATOM      1  C   UNL     1     -96.891 150.125 240.670  1.00  0.00     0.000 C 
ENDROOT
BRANCH   1   2
ATOM      2  C   UNL     1     -98.304 150.603 241.047  1.00  0.00     0.000 C 
BRANCH   2   3
ATOM      3  C   UNL     1     -99.172 149.477 241.632  1.00  0.00     0.000 C 
BRANCH   3   4
ATOM      4  C   UNL     1     -99.190 149.478 243.168  1.00  0.00     0.000 C 
BRANCH   4   5
ATOM      5  C   UNL     1     -98.800 150.854 243.720  1.00  0.00     0.006 C 
BRANCH   5   6
ATOM      6  C   UNL     1     -99.991 151.533 244.403  1.00  0.00     0.053 C 
BRANCH   6   7
ATOM      7  C   UNL     1     -99.527 152.657 245.273  1.00  0.00     0.041 C 
ATOM      8  O   UNL     1     -98.488 152.531 245.972  1.00  0.00    -0.550 OA
ATOM      9  O   UNL     1    -100.214 153.865 245.273  1.00  0.00    -0.550 OA
ENDBRANCH   6   7
ENDBRANCH   5   6
ENDBRANCH   4   5
ENDBRANCH   3   4
ENDBRANCH   2   3
ENDBRANCH   1   2
BRANCH   1  10
ATOM     10  C   UNL     1     -96.743 148.596 240.755  1.00  0.00     0.000 C 
BRANCH  10  11
ATOM     11  C   UNL     1     -95.376 148.104 240.257  1.00  0.00    -0.000 C 
BRANCH  11  12
ATOM     12  C   UNL     1     -94.613 149.232 239.546  1.00  0.00    -0.000 C 
BRANCH  12  13
ATOM     13  C   UNL     1     -93.888 148.756 238.274  1.00  0.00    -0.000 C 
BRANCH  13  14
ATOM     14  C   UNL     1     -94.806 148.466 237.070  1.00  0.00    -0.000 C 
BRANCH  14  15
ATOM     15  C   UNL     1     -95.598 149.679 236.542  1.00  0.00    -0.000 C 
BRANCH  15  16
ATOM     16  C   UNL     1     -97.127 149.513 236.569  1.00  0.00    -0.003 C 
ATOM     17  C   UNL     1     -97.571 148.196 237.204  1.00  0.00     0.004 C 
ENDBRANCH  15  16
ENDBRANCH  14  15
ENDBRANCH  13  14
ENDBRANCH  12  13
ENDBRANCH  11  12
ENDBRANCH  10  11
ENDBRANCH   1  10
TORSDOF 13
ENDMDL
MODEL 7
REMARK VINA RESULT:    -3.135      2.157      3.248
REMARK INTER + INTRA:          -7.671
REMARK INTER:                  -5.466
REMARK INTRA:                  -2.206
REMARK UNBOUND:                -2.154
REMARK SMILES CCCCCCCCCCCCCCC(=O)[O-]
REMARK SMILES IDX 9 1 10 2 11 3 12 4 13 5 14 6 15 7 16 8 17 9 8 10 7 11 6 12
REMARK SMILES IDX 5 13 4 14 3 15 2 16 1 17
REMARK H PARENT
REMARK Flexibility Score: inf
ROOT
ATOM      1  C   UNL     1     -94.555 147.085 239.236  1.00  0.00     0.000 C 
ENDROOT
BRANCH   1   2
ATOM      2  C   UNL     1     -95.223 148.046 240.235  1.00  0.00     0.000 C 
BRANCH   2   3
ATOM      3  C   UNL     1     -95.200 149.506 239.754  1.00  0.00     0.000 C 
BRANCH   3   4
ATOM      4  C   UNL     1     -96.348 150.342 240.339  1.00  0.00     0.000 C 
BRANCH   4   5
ATOM      5  C   UNL     1     -97.315 149.462 241.140  1.00  0.00     0.006 C 
BRANCH   5   6
ATOM      6  C   UNL     1     -98.319 150.316 241.920  1.00  0.00     0.053 C 
BRANCH   6   7
ATOM      7  C   UNL     1     -99.714 150.039 241.457  1.00  0.00     0.041 C 
ATOM      8  O   UNL     1    -100.020 150.181 240.244  1.00  0.00    -0.550 OA
ATOM      9  O   UNL     1    -100.666 149.575 242.357  1.00  0.00    -0.550 OA
ENDBRANCH   6   7
ENDBRANCH   5   6
ENDBRANCH   4   5
ENDBRANCH   3   4
ENDBRANCH   2   3
ENDBRANCH   1   2
BRANCH   1  10
ATOM     10  C   UNL     1     -93.636 147.812 238.240  1.00  0.00     0.000 C 
BRANCH  10  11
ATOM     11  C   UNL     1     -93.566 147.110 236.876  1.00  0.00    -0.000 C 
BRANCH  11  12
ATOM     12  C   UNL     1     -94.873 147.303 236.093  1.00  0.00    -0.000 C 
BRANCH  12  13
ATOM     13  C   UNL     1     -95.084 148.756 235.629  1.00  0.00    -0.000 C 
BRANCH  13  14
ATOM     14  C   UNL     1     -96.290 149.476 236.265  1.00  0.00    -0.000 C 
BRANCH  14  15
ATOM     15  C   UNL     1     -97.591 148.651 236.321  1.00  0.00    -0.000 C 
BRANCH  15  16
ATOM     16  C   UNL     1     -98.179 148.466 237.731  1.00  0.00    -0.003 C 
ATOM     17  C   UNL     1     -98.186 147.008 238.185  1.00  0.00     0.004 C 
ENDBRANCH  15  16
ENDBRANCH  14  15
ENDBRANCH  13  14
ENDBRANCH  12  13
ENDBRANCH  11  12
ENDBRANCH  10  11
ENDBRANCH   1  10
TORSDOF 13
ENDMDL
MODEL 8
REMARK VINA RESULT:    -3.118      2.307      4.629
REMARK INTER + INTRA:          -7.643
REMARK INTER:                  -6.166
REMARK INTRA:                  -1.476
REMARK UNBOUND:                -2.154
REMARK SMILES CCCCCCCCCCCCCCC(=O)[O-]
REMARK SMILES IDX 9 1 10 2 11 3 12 4 13 5 14 6 15 7 16 8 17 9 8 10 7 11 6 12
REMARK SMILES IDX 5 13 4 14 3 15 2 16 1 17
REMARK H PARENT
REMARK Flexibility Score: inf
ROOT
ATOM      1  C   UNL     1     -94.380 148.603 238.006  1.00  0.00     0.000 C 
ENDROOT
BRANCH   1   2
ATOM      2  C   UNL     1     -94.988 149.588 236.993  1.00  0.00     0.000 C 
BRANCH   2   3
ATOM      3  C   UNL     1     -96.415 149.200 236.575  1.00  0.00     0.000 C 
BRANCH   3   4
ATOM      4  C   UNL     1     -96.978 150.104 235.468  1.00  0.00     0.000 C 
BRANCH   4   5
ATOM      5  C   UNL     1     -95.849 150.683 234.606  1.00  0.00     0.006 C 
BRANCH   5   6
ATOM      6  C   UNL     1     -96.047 152.184 234.374  1.00  0.00     0.053 C 
BRANCH   6   7
ATOM      7  C   UNL     1     -96.754 152.425 233.079  1.00  0.00     0.041 C 
ATOM      8  O   UNL     1     -97.998 152.615 233.061  1.00  0.00    -0.550 OA
ATOM      9  O   UNL     1     -96.031 152.491 231.894  1.00  0.00    -0.550 OA
ENDBRANCH   6   7
ENDBRANCH   5   6
ENDBRANCH   4   5
ENDBRANCH   3   4
ENDBRANCH   2   3
ENDBRANCH   1   2
BRANCH   1  10
ATOM     10  C   UNL     1     -94.520 149.090 239.459  1.00  0.00     0.000 C 
BRANCH  10  11
ATOM     11  C   UNL     1     -95.393 148.160 240.315  1.00  0.00    -0.000 C 
BRANCH  11  12
ATOM     12  C   UNL     1     -96.754 148.806 240.612  1.00  0.00    -0.000 C 
BRANCH  12  13
ATOM     13  C   UNL     1     -96.742 150.335 240.434  1.00  0.00    -0.000 C 
BRANCH  13  14
ATOM     14  C   UNL     1     -98.122 150.972 240.174  1.00  0.00    -0.000 C 
BRANCH  14  15
ATOM     15  C   UNL     1     -98.883 150.413 238.956  1.00  0.00    -0.000 C 
BRANCH  15  16
ATOM     16  C   UNL     1    -100.016 151.314 238.432  1.00  0.00    -0.003 C 
ATOM     17  C   UNL     1     -99.624 152.092 237.177  1.00  0.00     0.004 C 
ENDBRANCH  15  16
ENDBRANCH  14  15
ENDBRANCH  13  14
ENDBRANCH  12  13
ENDBRANCH  11  12
ENDBRANCH  10  11
ENDBRANCH   1  10
TORSDOF 13
ENDMDL
MODEL 9
REMARK VINA RESULT:    -3.093      3.253      4.119
REMARK INTER + INTRA:          -7.598
REMARK INTER:                  -5.592
REMARK INTRA:                  -2.006
REMARK UNBOUND:                -2.154
REMARK SMILES CCCCCCCCCCCCCCC(=O)[O-]
REMARK SMILES IDX 9 1 10 2 11 3 12 4 13 5 14 6 15 7 16 8 17 9 8 10 7 11 6 12
REMARK SMILES IDX 5 13 4 14 3 15 2 16 1 17
REMARK H PARENT
REMARK Flexibility Score: inf
ROOT
ATOM      1  C   UNL     1     -95.239 148.449 240.289  1.00  0.00     0.000 C 
ENDROOT
BRANCH   1   2
ATOM      2  C   UNL     1     -95.702 149.884 239.984  1.00  0.00     0.000 C 
BRANCH   2   3
ATOM      3  C   UNL     1     -97.010 150.248 240.705  1.00  0.00     0.000 C 
BRANCH   3   4
ATOM      4  C   UNL     1     -97.608 149.067 241.482  1.00  0.00     0.000 C 
BRANCH   4   5
ATOM      5  C   UNL     1     -98.927 149.465 242.156  1.00  0.00     0.006 C 
BRANCH   5   6
ATOM      6  C   UNL     1     -98.725 150.648 243.107  1.00  0.00     0.053 C 
BRANCH   6   7
ATOM      7  C   UNL     1     -99.416 150.398 244.409  1.00  0.00     0.041 C 
ATOM      8  O   UNL     1     -99.239 151.178 245.381  1.00  0.00    -0.550 OA
ATOM      9  O   UNL     1    -100.297 149.330 244.536  1.00  0.00    -0.550 OA
ENDBRANCH   6   7
ENDBRANCH   5   6
ENDBRANCH   4   5
ENDBRANCH   3   4
ENDBRANCH   2   3
ENDBRANCH   1   2
BRANCH   1  10
ATOM     10  C   UNL     1     -94.751 147.706 239.034  1.00  0.00     0.000 C 
BRANCH  10  11
ATOM     11  C   UNL     1     -94.077 148.639 238.017  1.00  0.00    -0.000 C 
BRANCH  11  12
ATOM     12  C   UNL     1     -94.661 148.431 236.612  1.00  0.00    -0.000 C 
BRANCH  12  13
ATOM     13  C   UNL     1     -95.600 149.571 236.179  1.00  0.00    -0.000 C 
BRANCH  13  14
ATOM     14  C   UNL     1     -97.086 149.179 236.050  1.00  0.00    -0.000 C 
BRANCH  14  15
ATOM     15  C   UNL     1     -98.010 149.741 237.149  1.00  0.00    -0.000 C 
BRANCH  15  16
ATOM     16  C   UNL     1     -98.819 148.681 237.917  1.00  0.00    -0.003 C 
ATOM     17  C   UNL     1     -98.166 147.300 237.889  1.00  0.00     0.004 C 
ENDBRANCH  15  16
ENDBRANCH  14  15
ENDBRANCH  13  14
ENDBRANCH  12  13
ENDBRANCH  11  12
ENDBRANCH  10  11
ENDBRANCH   1  10
TORSDOF 13
ENDMDL
