MODEL 1
REMARK VINA RESULT:    -3.789      0.000      0.000
REMARK INTER + INTRA:          -5.738
REMARK INTER:                  -5.340
REMARK INTRA:                  -0.398
REMARK UNBOUND:                -0.398
REMARK SMILES CCCCCCCCC(=O)[O-]
REMARK SMILES IDX 6 1 7 2 8 3 9 4 10 5 11 6 5 7 4 8 3 9 2 10 1 11
REMARK H PARENT
REMARK Flexibility Score: inf
ROOT
ATOM      1  C   UNL     1     -17.129  14.363 -15.049  1.00  0.00     0.000 C 
ENDROOT
BRANCH   1   2
ATOM      2  C   UNL     1     -16.536  13.453 -13.958  1.00  0.00     0.006 C 
BRANCH   2   3
ATOM      3  C   UNL     1     -16.775  11.951 -14.186  1.00  0.00     0.053 C 
BRANCH   3   4
ATOM      4  C   UNL     1     -16.147  11.468 -15.457  1.00  0.00     0.041 C 
ATOM      5  O   UNL     1     -14.898  11.512 -15.602  1.00  0.00    -0.550 OA
ATOM      6  O   UNL     1     -16.941  10.937 -16.466  1.00  0.00    -0.550 OA
ENDBRANCH   3   4
ENDBRANCH   2   3
ENDBRANCH   1   2
BRANCH   1   7
ATOM      7  C   UNL     1     -17.407  15.789 -14.550  1.00  0.00     0.000 C 
BRANCH   7   8
ATOM      8  C   UNL     1     -16.486  16.147 -13.373  1.00  0.00    -0.000 C 
BRANCH   8   9
ATOM      9  C   UNL     1     -17.266  16.541 -12.110  1.00  0.00    -0.000 C 
BRANCH   9  10
ATOM     10  C   UNL     1     -16.858  15.715 -10.881  1.00  0.00    -0.003 C 
ATOM     11  C   UNL     1     -17.682  16.106  -9.658  1.00  0.00     0.004 C 
ENDBRANCH   9  10
ENDBRANCH   8   9
ENDBRANCH   7   8
ENDBRANCH   1   7
TORSDOF 7
ENDMDL
MODEL 2
REMARK VINA RESULT:    -3.756     13.499     14.510
REMARK INTER + INTRA:          -5.691
REMARK INTER:                  -5.352
REMARK INTRA:                  -0.339
REMARK UNBOUND:                -0.398
REMARK SMILES CCCCCCCCC(=O)[O-]
REMARK SMILES IDX 6 1 7 2 8 3 9 4 10 5 11 6 5 7 4 8 3 9 2 10 1 11
REMARK H PARENT
REMARK Flexibility Score: inf
ROOT
ATOM      1  C   UNL     1      -4.208   9.031  -9.880  1.00  0.00     0.000 C 
ENDROOT
BRANCH   1   2
ATOM      2  C   UNL     1      -5.294   9.731 -10.717  1.00  0.00     0.006 C 
BRANCH   2   3
ATOM      3  C   UNL     1      -6.615   8.951 -10.821  1.00  0.00     0.053 C 
BRANCH   3   4
ATOM      4  C   UNL     1      -7.751   9.679 -10.170  1.00  0.00     0.041 C 
ATOM      5  O   UNL     1      -7.624  10.887  -9.841  1.00  0.00    -0.550 OA
ATOM      6  O   UNL     1      -8.961   9.030  -9.958  1.00  0.00    -0.550 OA
ENDBRANCH   3   4
ENDBRANCH   2   3
ENDBRANCH   1   2
BRANCH   1   7
ATOM      7  C   UNL     1      -3.616   9.938  -8.791  1.00  0.00     0.000 C 
BRANCH   7   8
ATOM      8  C   UNL     1      -2.175  10.344  -9.137  1.00  0.00    -0.000 C 
BRANCH   8   9
ATOM      9  C   UNL     1      -1.129   9.441  -8.467  1.00  0.00    -0.000 C 
BRANCH   9  10
ATOM     10  C   UNL     1      -0.681   8.283  -9.372  1.00  0.00    -0.003 C 
ATOM     11  C   UNL     1      -0.969   6.933  -8.721  1.00  0.00     0.004 C 
ENDBRANCH   9  10
ENDBRANCH   8   9
ENDBRANCH   7   8
ENDBRANCH   1   7
TORSDOF 7
ENDMDL
MODEL 3
REMARK VINA RESULT:    -3.750     15.010     15.949
REMARK INTER + INTRA:          -5.683
REMARK INTER:                  -5.272
REMARK INTRA:                  -0.411
REMARK UNBOUND:                -0.398
REMARK SMILES CCCCCCCCC(=O)[O-]
REMARK SMILES IDX 6 1 7 2 8 3 9 4 10 5 11 6 5 7 4 8 3 9 2 10 1 11
REMARK H PARENT
REMARK Flexibility Score: inf
ROOT
ATOM      1  C   UNL     1      -1.975  10.465  -8.268  1.00  0.00     0.000 C 
ENDROOT
BRANCH   1   2
ATOM      2  C   UNL     1      -0.627   9.909  -8.761  1.00  0.00     0.006 C 
BRANCH   2   3
ATOM      3  C   UNL     1      -0.744   8.678  -9.675  1.00  0.00     0.053 C 
BRANCH   3   4
ATOM      4  C   UNL     1      -0.969   7.418  -8.896  1.00  0.00     0.041 C 
ATOM      5  O   UNL     1       0.011   6.762  -8.458  1.00  0.00    -0.550 OA
ATOM      6  O   UNL     1      -2.262   6.990  -8.625  1.00  0.00    -0.550 OA
ENDBRANCH   3   4
ENDBRANCH   2   3
ENDBRANCH   1   2
BRANCH   1   7
ATOM      7  C   UNL     1      -2.722  11.261  -9.349  1.00  0.00     0.000 C 
BRANCH   7   8
ATOM      8  C   UNL     1      -4.184  10.800  -9.458  1.00  0.00    -0.000 C 
BRANCH   8   9
ATOM      9  C   UNL     1      -4.322   9.427 -10.133  1.00  0.00    -0.000 C 
BRANCH   9  10
ATOM     10  C   UNL     1      -5.739   9.172 -10.671  1.00  0.00    -0.003 C 
ATOM     11  C   UNL     1      -6.222   7.772 -10.305  1.00  0.00     0.004 C 
ENDBRANCH   9  10
ENDBRANCH   8   9
ENDBRANCH   7   8
ENDBRANCH   1   7
TORSDOF 7
ENDMDL
MODEL 4
REMARK VINA RESULT:    -3.734      1.498      2.539
REMARK INTER + INTRA:          -5.660
REMARK INTER:                  -5.041
REMARK INTRA:                  -0.619
REMARK UNBOUND:                -0.398
REMARK SMILES CCCCCCCCC(=O)[O-]
REMARK SMILES IDX 6 1 7 2 8 3 9 4 10 5 11 6 5 7 4 8 3 9 2 10 1 11
REMARK H PARENT
REMARK Flexibility Score: inf
ROOT
ATOM      1  C   UNL     1     -16.811  14.472 -13.208  1.00  0.00     0.000 C 
ENDROOT
BRANCH   1   2
ATOM      2  C   UNL     1     -16.151  14.519 -14.599  1.00  0.00     0.006 C 
BRANCH   2   3
ATOM      3  C   UNL     1     -16.816  13.612 -15.647  1.00  0.00     0.053 C 
BRANCH   3   4
ATOM      4  C   UNL     1     -16.699  12.162 -15.291  1.00  0.00     0.041 C 
ATOM      5  O   UNL     1     -15.582  11.675 -14.976  1.00  0.00    -0.550 OA
ATOM      6  O   UNL     1     -17.832  11.357 -15.275  1.00  0.00    -0.550 OA
ENDBRANCH   3   4
ENDBRANCH   2   3
ENDBRANCH   1   2
BRANCH   1   7
ATOM      7  C   UNL     1     -16.459  15.690 -12.340  1.00  0.00     0.000 C 
BRANCH   7   8
ATOM      8  C   UNL     1     -16.787  17.000 -13.074  1.00  0.00    -0.000 C 
BRANCH   8   9
ATOM      9  C   UNL     1     -18.089  17.647 -12.578  1.00  0.00    -0.000 C 
BRANCH   9  10
ATOM     10  C   UNL     1     -19.205  17.614 -13.632  1.00  0.00    -0.003 C 
ATOM     11  C   UNL     1     -18.640  17.336 -15.022  1.00  0.00     0.004 C 
ENDBRANCH   9  10
ENDBRANCH   8   9
ENDBRANCH   7   8
ENDBRANCH   1   7
TORSDOF 7
ENDMDL
MODEL 5
REMARK VINA RESULT:    -3.693      7.310      8.667
REMARK INTER + INTRA:          -5.602
REMARK INTER:                  -5.201
REMARK INTRA:                  -0.401
REMARK UNBOUND:                -0.398
REMARK SMILES CCCCCCCCC(=O)[O-]
REMARK SMILES IDX 6 1 7 2 8 3 9 4 10 5 11 6 5 7 4 8 3 9 2 10 1 11
REMARK H PARENT
REMARK Flexibility Score: inf
ROOT
ATOM      1  C   UNL     1     -16.445  16.869 -20.748  1.00  0.00     0.000 C 
ENDROOT
BRANCH   1   2
ATOM      2  C   UNL     1     -17.287  17.581 -21.823  1.00  0.00     0.006 C 
BRANCH   2   3
ATOM      3  C   UNL     1     -18.806  17.486 -21.603  1.00  0.00     0.053 C 
BRANCH   3   4
ATOM      4  C   UNL     1     -19.248  18.246 -20.391  1.00  0.00     0.041 C 
ATOM      5  O   UNL     1     -19.063  19.489 -20.320  1.00  0.00    -0.550 OA
ATOM      6  O   UNL     1     -19.896  17.585 -19.355  1.00  0.00    -0.550 OA
ENDBRANCH   3   4
ENDBRANCH   2   3
ENDBRANCH   1   2
BRANCH   1   7
ATOM      7  C   UNL     1     -15.253  16.100 -21.338  1.00  0.00     0.000 C 
BRANCH   7   8
ATOM      8  C   UNL     1     -14.287  15.653 -20.231  1.00  0.00    -0.000 C 
BRANCH   8   9
ATOM      9  C   UNL     1     -12.942  16.395 -20.282  1.00  0.00    -0.000 C 
BRANCH   9  10
ATOM     10  C   UNL     1     -12.977  17.734 -19.530  1.00  0.00    -0.003 C 
ATOM     11  C   UNL     1     -13.447  17.544 -18.091  1.00  0.00     0.004 C 
ENDBRANCH   9  10
ENDBRANCH   8   9
ENDBRANCH   7   8
ENDBRANCH   1   7
TORSDOF 7
ENDMDL
MODEL 6
REMARK VINA RESULT:    -3.673      6.947      8.637
REMARK INTER + INTRA:          -5.574
REMARK INTER:                  -5.241
REMARK INTRA:                  -0.333
REMARK UNBOUND:                -0.398
REMARK SMILES CCCCCCCCC(=O)[O-]
REMARK SMILES IDX 6 1 7 2 8 3 9 4 10 5 11 6 5 7 4 8 3 9 2 10 1 11
REMARK H PARENT
REMARK Flexibility Score: inf
ROOT
ATOM      1  C   UNL     1     -16.008  17.408 -19.657  1.00  0.00     0.000 C 
ENDROOT
BRANCH   1   2
ATOM      2  C   UNL     1     -14.815  16.752 -18.936  1.00  0.00     0.006 C 
BRANCH   2   3
ATOM      3  C   UNL     1     -13.450  17.372 -19.278  1.00  0.00     0.053 C 
BRANCH   3   4
ATOM      4  C   UNL     1     -12.587  16.434 -20.065  1.00  0.00     0.041 C 
ATOM      5  O   UNL     1     -12.563  16.500 -21.321  1.00  0.00    -0.550 OA
ATOM      6  O   UNL     1     -11.783  15.512 -19.407  1.00  0.00    -0.550 OA
ENDBRANCH   3   4
ENDBRANCH   2   3
ENDBRANCH   1   2
BRANCH   1   7
ATOM      7  C   UNL     1     -16.283  16.792 -21.037  1.00  0.00     0.000 C 
BRANCH   7   8
ATOM      8  C   UNL     1     -17.475  17.481 -21.717  1.00  0.00    -0.000 C 
BRANCH   8   9
ATOM      9  C   UNL     1     -18.708  17.568 -20.806  1.00  0.00    -0.000 C 
BRANCH   9  10
ATOM     10  C   UNL     1     -20.005  17.167 -21.525  1.00  0.00    -0.003 C 
ATOM     11  C   UNL     1     -19.884  17.375 -23.032  1.00  0.00     0.004 C 
ENDBRANCH   9  10
ENDBRANCH   8   9
ENDBRANCH   7   8
ENDBRANCH   1   7
TORSDOF 7
ENDMDL
MODEL 7
REMARK VINA RESULT:    -3.657      9.877     11.082
REMARK INTER + INTRA:          -5.551
REMARK INTER:                  -5.221
REMARK INTRA:                  -0.331
REMARK UNBOUND:                -0.398
REMARK SMILES CCCCCCCCC(=O)[O-]
REMARK SMILES IDX 6 1 7 2 8 3 9 4 10 5 11 6 5 7 4 8 3 9 2 10 1 11
REMARK H PARENT
REMARK Flexibility Score: inf
ROOT
ATOM      1  C   UNL     1      -7.942  16.425  -9.677  1.00  0.00     0.000 C 
ENDROOT
BRANCH   1   2
ATOM      2  C   UNL     1      -7.846  15.281  -8.651  1.00  0.00     0.006 C 
BRANCH   2   3
ATOM      3  C   UNL     1      -6.473  14.589  -8.600  1.00  0.00     0.053 C 
BRANCH   3   4
ATOM      4  C   UNL     1      -5.778  14.814  -7.292  1.00  0.00     0.041 C 
ATOM      5  O   UNL     1      -6.232  15.653  -6.471  1.00  0.00    -0.550 OA
ATOM      6  O   UNL     1      -4.650  14.072  -6.968  1.00  0.00    -0.550 OA
ENDBRANCH   3   4
ENDBRANCH   2   3
ENDBRANCH   1   2
BRANCH   1   7
ATOM      7  C   UNL     1      -7.065  16.190 -10.916  1.00  0.00     0.000 C 
BRANCH   7   8
ATOM      8  C   UNL     1      -7.919  15.748 -12.115  1.00  0.00    -0.000 C 
BRANCH   8   9
ATOM      9  C   UNL     1      -9.223  16.550 -12.242  1.00  0.00    -0.000 C 
BRANCH   9  10
ATOM     10  C   UNL     1     -10.127  16.036 -13.372  1.00  0.00    -0.003 C 
ATOM     11  C   UNL     1     -11.257  17.019 -13.663  1.00  0.00     0.004 C 
ENDBRANCH   9  10
ENDBRANCH   8   9
ENDBRANCH   7   8
ENDBRANCH   1   7
TORSDOF 7
ENDMDL
MODEL 8
REMARK VINA RESULT:    -3.651     12.841     13.887
REMARK INTER + INTRA:          -5.544
REMARK INTER:                  -4.922
REMARK INTRA:                  -0.622
REMARK UNBOUND:                -0.398
REMARK SMILES CCCCCCCCC(=O)[O-]
REMARK SMILES IDX 6 1 7 2 8 3 9 4 10 5 11 6 5 7 4 8 3 9 2 10 1 11
REMARK H PARENT
REMARK Flexibility Score: inf
ROOT
ATOM      1  C   UNL     1      -2.312  11.288 -14.076  1.00  0.00     0.000 C 
ENDROOT
BRANCH   1   2
ATOM      2  C   UNL     1      -2.084  10.092 -15.018  1.00  0.00     0.006 C 
BRANCH   2   3
ATOM      3  C   UNL     1      -2.129  10.445 -16.514  1.00  0.00     0.053 C 
BRANCH   3   4
ATOM      4  C   UNL     1      -3.382   9.953 -17.171  1.00  0.00     0.041 C 
ATOM      5  O   UNL     1      -4.432  10.646 -17.133  1.00  0.00    -0.550 OA
ATOM      6  O   UNL     1      -3.378   8.744 -17.855  1.00  0.00    -0.550 OA
ENDBRANCH   3   4
ENDBRANCH   2   3
ENDBRANCH   1   2
BRANCH   1   7
ATOM      7  C   UNL     1      -3.752  11.366 -13.549  1.00  0.00     0.000 C 
BRANCH   7   8
ATOM      8  C   UNL     1      -4.313  12.789 -13.694  1.00  0.00    -0.000 C 
BRANCH   8   9
ATOM      9  C   UNL     1      -4.055  13.389 -15.084  1.00  0.00    -0.000 C 
BRANCH   9  10
ATOM     10  C   UNL     1      -3.680  14.878 -15.025  1.00  0.00    -0.003 C 
ATOM     11  C   UNL     1      -3.240  15.279 -13.620  1.00  0.00     0.004 C 
ENDBRANCH   9  10
ENDBRANCH   8   9
ENDBRANCH   7   8
ENDBRANCH   1   7
TORSDOF 7
ENDMDL
MODEL 9
REMARK VINA RESULT:    -3.638      3.820      5.780
REMARK INTER + INTRA:          -5.526
REMARK INTER:                  -5.018
REMARK INTRA:                  -0.508
REMARK UNBOUND:                -0.398
REMARK SMILES CCCCCCCCC(=O)[O-]
REMARK SMILES IDX 6 1 7 2 8 3 9 4 10 5 11 6 5 7 4 8 3 9 2 10 1 11
REMARK H PARENT
REMARK Flexibility Score: inf
ROOT
ATOM      1  C   UNL     1     -16.543  14.777 -14.821  1.00  0.00     0.000 C 
ENDROOT
BRANCH   1   2
ATOM      2  C   UNL     1     -17.791  15.597 -15.196  1.00  0.00     0.006 C 
BRANCH   2   3
ATOM      3  C   UNL     1     -17.690  17.095 -14.859  1.00  0.00     0.053 C 
BRANCH   3   4
ATOM      4  C   UNL     1     -18.616  17.485 -13.748  1.00  0.00     0.041 C 
ATOM      5  O   UNL     1     -18.169  17.661 -12.585  1.00  0.00    -0.550 OA
ATOM      6  O   UNL     1     -19.966  17.686 -14.006  1.00  0.00    -0.550 OA
ENDBRANCH   3   4
ENDBRANCH   2   3
ENDBRANCH   1   2
BRANCH   1   7
ATOM      7  C   UNL     1     -16.766  13.880 -13.594  1.00  0.00     0.000 C 
BRANCH   7   8
ATOM      8  C   UNL     1     -16.860  12.403 -14.005  1.00  0.00    -0.000 C 
BRANCH   8   9
ATOM      9  C   UNL     1     -16.595  12.186 -15.503  1.00  0.00    -0.000 C 
BRANCH   9  10
ATOM     10  C   UNL     1     -17.689  11.349 -16.182  1.00  0.00    -0.003 C 
ATOM     11  C   UNL     1     -18.638  12.233 -16.986  1.00  0.00     0.004 C 
ENDBRANCH   9  10
ENDBRANCH   8   9
ENDBRANCH   7   8
ENDBRANCH   1   7
TORSDOF 7
ENDMDL
