MODEL 1
REMARK VINA RESULT:    -3.987      0.000      0.000
REMARK INTER + INTRA:          -5.515
REMARK INTER:                  -5.152
REMARK INTRA:                  -0.363
REMARK UNBOUND:                -0.363
REMARK SMILES CCCCCCC(=O)[O-]
REMARK SMILES IDX 5 1 6 2 7 3 8 4 9 5 4 6 3 7 2 8 1 9
REMARK H PARENT
REMARK Flexibility Score: inf
ROOT
ATOM      1  C   UNL     1      20.077  69.410  34.030  1.00  0.00     0.006 C 
ENDROOT
BRANCH   1   2
ATOM      2  C   UNL     1      19.016  70.171  34.842  1.00  0.00     0.053 C 
BRANCH   2   3
ATOM      3  C   UNL     1      17.626  69.859  34.381  1.00  0.00     0.041 C 
ATOM      4  O   UNL     1      16.899  69.073  35.045  1.00  0.00    -0.550 OA
ATOM      5  O   UNL     1      17.144  70.409  33.199  1.00  0.00    -0.550 OA
ENDBRANCH   2   3
ENDBRANCH   1   2
BRANCH   1   6
ATOM      6  C   UNL     1      19.987  67.877  34.149  1.00  0.00     0.000 C 
BRANCH   6   7
ATOM      7  C   UNL     1      19.555  67.202  32.839  1.00  0.00    -0.000 C 
BRANCH   7   8
ATOM      8  C   UNL     1      18.421  66.201  33.088  1.00  0.00    -0.003 C 
ATOM      9  C   UNL     1      18.305  65.855  34.570  1.00  0.00     0.004 C 
ENDBRANCH   7   8
ENDBRANCH   6   7
ENDBRANCH   1   6
TORSDOF 5
ENDMDL
MODEL 2
REMARK VINA RESULT:    -3.967     17.177     18.097
REMARK INTER + INTRA:          -5.489
REMARK INTER:                  -5.231
REMARK INTRA:                  -0.258
REMARK UNBOUND:                -0.363
REMARK SMILES CCCCCCC(=O)[O-]
REMARK SMILES IDX 5 1 6 2 7 3 8 4 9 5 4 6 3 7 2 8 1 9
REMARK H PARENT
REMARK Flexibility Score: inf
ROOT
ATOM      1  C   UNL     1      19.020  76.994  18.919  1.00  0.00     0.006 C 
ENDROOT
BRANCH   1   2
ATOM      2  C   UNL     1      20.399  76.447  19.326  1.00  0.00     0.053 C 
BRANCH   2   3
ATOM      3  C   UNL     1      20.305  75.077  19.925  1.00  0.00     0.041 C 
ATOM      4  O   UNL     1      20.598  74.893  21.135  1.00  0.00    -0.550 OA
ATOM      5  O   UNL     1      19.925  73.997  19.137  1.00  0.00    -0.550 OA
ENDBRANCH   2   3
ENDBRANCH   1   2
BRANCH   1   6
ATOM      6  C   UNL     1      18.975  77.615  17.511  1.00  0.00     0.000 C 
BRANCH   6   7
ATOM      7  C   UNL     1      20.318  78.225  17.086  1.00  0.00    -0.000 C 
BRANCH   7   8
ATOM      8  C   UNL     1      20.205  79.747  16.937  1.00  0.00    -0.003 C 
ATOM      9  C   UNL     1      20.592  80.458  18.231  1.00  0.00     0.004 C 
ENDBRANCH   7   8
ENDBRANCH   6   7
ENDBRANCH   1   6
TORSDOF 5
ENDMDL
MODEL 3
REMARK VINA RESULT:    -3.964     17.235     18.168
REMARK INTER + INTRA:          -5.486
REMARK INTER:                  -5.269
REMARK INTRA:                  -0.217
REMARK UNBOUND:                -0.363
REMARK SMILES CCCCCCC(=O)[O-]
REMARK SMILES IDX 5 1 6 2 7 3 8 4 9 5 4 6 3 7 2 8 1 9
REMARK H PARENT
REMARK Flexibility Score: inf
ROOT
ATOM      1  C   UNL     1      21.046  76.853  18.465  1.00  0.00     0.006 C 
ENDROOT
BRANCH   1   2
ATOM      2  C   UNL     1      19.871  76.381  19.338  1.00  0.00     0.053 C 
BRANCH   2   3
ATOM      3  C   UNL     1      20.128  75.036  19.946  1.00  0.00     0.041 C 
ATOM      4  O   UNL     1      19.966  73.990  19.264  1.00  0.00    -0.550 OA
ATOM      5  O   UNL     1      20.515  74.937  21.277  1.00  0.00    -0.550 OA
ENDBRANCH   2   3
ENDBRANCH   1   2
BRANCH   1   6
ATOM      6  C   UNL     1      20.632  77.405  17.089  1.00  0.00     0.000 C 
BRANCH   6   7
ATOM      7  C   UNL     1      19.584  78.523  17.186  1.00  0.00    -0.000 C 
BRANCH   7   8
ATOM      8  C   UNL     1      20.224  79.895  16.941  1.00  0.00    -0.003 C 
ATOM      9  C   UNL     1      20.663  80.541  18.252  1.00  0.00     0.004 C 
ENDBRANCH   7   8
ENDBRANCH   6   7
ENDBRANCH   1   6
TORSDOF 5
ENDMDL
MODEL 4
REMARK VINA RESULT:    -3.951      2.169      4.077
REMARK INTER + INTRA:          -5.469
REMARK INTER:                  -5.033
REMARK INTRA:                  -0.436
REMARK UNBOUND:                -0.363
REMARK SMILES CCCCCCC(=O)[O-]
REMARK SMILES IDX 5 1 6 2 7 3 8 4 9 5 4 6 3 7 2 8 1 9
REMARK H PARENT
REMARK Flexibility Score: inf
ROOT
ATOM      1  C   UNL     1      17.285  67.863  35.374  1.00  0.00     0.006 C 
ENDROOT
BRANCH   1   2
ATOM      2  C   UNL     1      17.704  66.541  34.709  1.00  0.00     0.053 C 
BRANCH   2   3
ATOM      3  C   UNL     1      18.974  66.685  33.926  1.00  0.00     0.041 C 
ATOM      4  O   UNL     1      18.964  66.557  32.673  1.00  0.00    -0.550 OA
ATOM      5  O   UNL     1      20.173  66.927  34.584  1.00  0.00    -0.550 OA
ENDBRANCH   2   3
ENDBRANCH   1   2
BRANCH   1   6
ATOM      6  C   UNL     1      17.182  69.055  34.405  1.00  0.00     0.000 C 
BRANCH   6   7
ATOM      7  C   UNL     1      17.785  70.345  34.981  1.00  0.00    -0.000 C 
BRANCH   7   8
ATOM      8  C   UNL     1      19.314  70.327  34.879  1.00  0.00    -0.003 C 
ATOM      9  C   UNL     1      19.769  70.302  33.422  1.00  0.00     0.004 C 
ENDBRANCH   7   8
ENDBRANCH   6   7
ENDBRANCH   1   6
TORSDOF 5
ENDMDL
MODEL 5
REMARK VINA RESULT:    -3.947      1.950      2.870
REMARK INTER + INTRA:          -5.463
REMARK INTER:                  -5.057
REMARK INTRA:                  -0.407
REMARK UNBOUND:                -0.363
REMARK SMILES CCCCCCC(=O)[O-]
REMARK SMILES IDX 5 1 6 2 7 3 8 4 9 5 4 6 3 7 2 8 1 9
REMARK H PARENT
REMARK Flexibility Score: inf
ROOT
ATOM      1  C   UNL     1      17.329  69.881  33.925  1.00  0.00     0.006 C 
ENDROOT
BRANCH   1   2
ATOM      2  C   UNL     1      18.524  70.286  34.805  1.00  0.00     0.053 C 
BRANCH   2   3
ATOM      3  C   UNL     1      19.834  69.928  34.173  1.00  0.00     0.041 C 
ATOM      4  O   UNL     1      20.202  70.496  33.112  1.00  0.00    -0.550 OA
ATOM      5  O   UNL     1      20.632  68.941  34.738  1.00  0.00    -0.550 OA
ENDBRANCH   2   3
ENDBRANCH   1   2
BRANCH   1   6
ATOM      6  C   UNL     1      16.983  68.382  33.978  1.00  0.00     0.000 C 
BRANCH   6   7
ATOM      7  C   UNL     1      17.144  67.782  35.382  1.00  0.00    -0.000 C 
BRANCH   7   8
ATOM      8  C   UNL     1      17.845  66.420  35.318  1.00  0.00    -0.003 C 
ATOM      9  C   UNL     1      18.313  66.107  33.899  1.00  0.00     0.004 C 
ENDBRANCH   7   8
ENDBRANCH   6   7
ENDBRANCH   1   6
TORSDOF 5
ENDMDL
MODEL 6
REMARK VINA RESULT:    -3.835      2.084      3.379
REMARK INTER + INTRA:          -5.319
REMARK INTER:                  -4.869
REMARK INTRA:                  -0.449
REMARK UNBOUND:                -0.363
REMARK SMILES CCCCCCC(=O)[O-]
REMARK SMILES IDX 5 1 6 2 7 3 8 4 9 5 4 6 3 7 2 8 1 9
REMARK H PARENT
REMARK Flexibility Score: inf
ROOT
ATOM      1  C   UNL     1      17.380  69.919  33.818  1.00  0.00     0.006 C 
ENDROOT
BRANCH   1   2
ATOM      2  C   UNL     1      16.798  68.516  33.577  1.00  0.00     0.053 C 
BRANCH   2   3
ATOM      3  C   UNL     1      17.560  67.458  34.314  1.00  0.00     0.041 C 
ATOM      4  O   UNL     1      17.228  67.136  35.485  1.00  0.00    -0.550 OA
ATOM      5  O   UNL     1      18.660  66.851  33.720  1.00  0.00    -0.550 OA
ENDBRANCH   2   3
ENDBRANCH   1   2
BRANCH   1   6
ATOM      6  C   UNL     1      18.459  70.341  32.804  1.00  0.00     0.000 C 
BRANCH   6   7
ATOM      7  C   UNL     1      19.874  70.327  33.400  1.00  0.00    -0.000 C 
BRANCH   7   8
ATOM      8  C   UNL     1      19.823  70.321  34.932  1.00  0.00    -0.003 C 
ATOM      9  C   UNL     1      20.723  69.232  35.510  1.00  0.00     0.004 C 
ENDBRANCH   7   8
ENDBRANCH   6   7
ENDBRANCH   1   6
TORSDOF 5
ENDMDL
MODEL 7
REMARK VINA RESULT:    -3.818     17.761     18.749
REMARK INTER + INTRA:          -5.297
REMARK INTER:                  -5.068
REMARK INTRA:                  -0.229
REMARK UNBOUND:                -0.363
REMARK SMILES CCCCCCC(=O)[O-]
REMARK SMILES IDX 5 1 6 2 7 3 8 4 9 5 4 6 3 7 2 8 1 9
REMARK H PARENT
REMARK Flexibility Score: inf
ROOT
ATOM      1  C   UNL     1      20.986  76.694  18.796  1.00  0.00     0.006 C 
ENDROOT
BRANCH   1   2
ATOM      2  C   UNL     1      20.199  75.387  18.995  1.00  0.00     0.053 C 
BRANCH   2   3
ATOM      3  C   UNL     1      20.238  74.518  17.776  1.00  0.00     0.041 C 
ATOM      4  O   UNL     1      20.949  74.841  16.789  1.00  0.00    -0.550 OA
ATOM      5  O   UNL     1      19.461  73.367  17.717  1.00  0.00    -0.550 OA
ENDBRANCH   2   3
ENDBRANCH   1   2
BRANCH   1   6
ATOM      6  C   UNL     1      20.105  77.930  18.535  1.00  0.00     0.000 C 
BRANCH   6   7
ATOM      7  C   UNL     1      20.087  78.347  17.057  1.00  0.00    -0.000 C 
BRANCH   7   8
ATOM      8  C   UNL     1      20.206  79.869  16.917  1.00  0.00    -0.003 C 
ATOM      9  C   UNL     1      20.635  80.512  18.233  1.00  0.00     0.004 C 
ENDBRANCH   7   8
ENDBRANCH   6   7
ENDBRANCH   1   6
TORSDOF 5
ENDMDL
MODEL 8
REMARK VINA RESULT:    -3.748      1.887      2.128
REMARK INTER + INTRA:          -5.206
REMARK INTER:                  -4.976
REMARK INTRA:                  -0.230
REMARK UNBOUND:                -0.363
REMARK SMILES CCCCCCC(=O)[O-]
REMARK SMILES IDX 5 1 6 2 7 3 8 4 9 5 4 6 3 7 2 8 1 9
REMARK H PARENT
REMARK Flexibility Score: inf
ROOT
ATOM      1  C   UNL     1      17.545  68.009  35.502  1.00  0.00     0.006 C 
ENDROOT
BRANCH   1   2
ATOM      2  C   UNL     1      17.292  69.448  35.024  1.00  0.00     0.053 C 
BRANCH   2   3
ATOM      3  C   UNL     1      17.465  69.586  33.542  1.00  0.00     0.041 C 
ATOM      4  O   UNL     1      16.533  69.258  32.762  1.00  0.00    -0.550 OA
ATOM      5  O   UNL     1      18.668  70.046  33.022  1.00  0.00    -0.550 OA
ENDBRANCH   2   3
ENDBRANCH   1   2
BRANCH   1   6
ATOM      6  C   UNL     1      19.026  67.679  35.762  1.00  0.00     0.000 C 
BRANCH   6   7
ATOM      7  C   UNL     1      19.487  66.401  35.047  1.00  0.00    -0.000 C 
BRANCH   7   8
ATOM      8  C   UNL     1      18.353  65.371  34.982  1.00  0.00    -0.003 C 
ATOM      9  C   UNL     1      18.680  64.136  35.815  1.00  0.00     0.004 C 
ENDBRANCH   7   8
ENDBRANCH   6   7
ENDBRANCH   1   6
TORSDOF 5
ENDMDL
MODEL 9
REMARK VINA RESULT:    -3.745      1.653      3.524
REMARK INTER + INTRA:          -5.202
REMARK INTER:                  -4.808
REMARK INTRA:                  -0.394
REMARK UNBOUND:                -0.363
REMARK SMILES CCCCCCC(=O)[O-]
REMARK SMILES IDX 5 1 6 2 7 3 8 4 9 5 4 6 3 7 2 8 1 9
REMARK H PARENT
REMARK Flexibility Score: inf
ROOT
ATOM      1  C   UNL     1      19.860  67.316  33.623  1.00  0.00     0.006 C 
ENDROOT
BRANCH   1   2
ATOM      2  C   UNL     1      18.444  66.724  33.526  1.00  0.00     0.053 C 
BRANCH   2   3
ATOM      3  C   UNL     1      17.885  66.381  34.873  1.00  0.00     0.041 C 
ATOM      4  O   UNL     1      18.241  65.324  35.456  1.00  0.00    -0.550 OA
ATOM      5  O   UNL     1      16.945  67.213  35.468  1.00  0.00    -0.550 OA
ENDBRANCH   2   3
ENDBRANCH   1   2
BRANCH   1   6
ATOM      6  C   UNL     1      19.983  68.509  34.589  1.00  0.00     0.000 C 
BRANCH   6   7
ATOM      7  C   UNL     1      19.628  69.849  33.928  1.00  0.00    -0.000 C 
BRANCH   7   8
ATOM      8  C   UNL     1      18.222  70.305  34.336  1.00  0.00    -0.003 C 
ATOM      9  C   UNL     1      17.254  70.226  33.160  1.00  0.00     0.004 C 
ENDBRANCH   7   8
ENDBRANCH   6   7
ENDBRANCH   1   6
TORSDOF 5
ENDMDL
