MODEL 1
REMARK VINA RESULT:    -3.883      0.000      0.000
REMARK INTER + INTRA:          -5.565
REMARK INTER:                  -5.132
REMARK INTRA:                  -0.433
REMARK UNBOUND:                -0.433
REMARK SMILES C=C[C@@H](O)CCCCC
REMARK SMILES IDX 6 1 7 2 8 3 9 4 5 5 3 6 2 7 1 8 4 9
REMARK H PARENT 4 10
REMARK Flexibility Score: inf
ROOT
ATOM      1  C   UNL     1     -39.349  23.378   7.439  1.00  0.00     0.003 C 
ENDROOT
BRANCH   1   2
ATOM      2  C   UNL     1     -38.191  22.511   7.977  1.00  0.00    -0.000 C 
BRANCH   2   3
ATOM      3  C   UNL     1     -36.858  23.269   8.097  1.00  0.00    -0.003 C 
ATOM      4  C   UNL     1     -36.564  24.158   6.890  1.00  0.00     0.004 C 
ENDBRANCH   2   3
ENDBRANCH   1   2
BRANCH   1   5
ATOM      5  C   UNL     1     -40.124  22.673   6.307  1.00  0.00     0.036 C 
BRANCH   5   6
ATOM      6  C   UNL     1     -39.725  23.162   4.899  1.00  0.00     0.136 C 
BRANCH   6   7
ATOM      7  C   UNL     1     -39.589  24.663   4.841  1.00  0.00    -0.004 C 
ATOM      8  C   UNL     1     -39.622  25.315   3.676  1.00  0.00     0.007 C 
ENDBRANCH   6   7
BRANCH   6   9
ATOM      9  O   UNL     1     -38.520  22.564   4.491  1.00  0.00    -0.389 OA
ATOM     10  H   UNL     1     -38.741  21.639   4.204  1.00  0.00     0.211 HD
ENDBRANCH   6   9
ENDBRANCH   5   6
ENDBRANCH   1   5
TORSDOF 6
ENDMDL
MODEL 2
REMARK VINA RESULT:    -3.847      1.758      4.133
REMARK INTER + INTRA:          -5.517
REMARK INTER:                  -5.305
REMARK INTRA:                  -0.212
REMARK UNBOUND:                -0.433
REMARK SMILES C=C[C@@H](O)CCCCC
REMARK SMILES IDX 6 1 7 2 8 3 9 4 5 5 3 6 2 7 1 8 4 9
REMARK H PARENT 4 10
REMARK Flexibility Score: inf
ROOT
ATOM      1  C   UNL     1     -37.912  24.113   5.586  1.00  0.00     0.003 C 
ENDROOT
BRANCH   1   2
ATOM      2  C   UNL     1     -39.001  23.736   4.560  1.00  0.00    -0.000 C 
BRANCH   2   3
ATOM      3  C   UNL     1     -39.474  24.919   3.699  1.00  0.00    -0.003 C 
ATOM      4  C   UNL     1     -40.125  26.032   4.518  1.00  0.00     0.004 C 
ENDBRANCH   2   3
ENDBRANCH   1   2
BRANCH   1   5
ATOM      5  C   UNL     1     -38.480  24.249   7.012  1.00  0.00     0.036 C 
BRANCH   5   6
ATOM      6  C   UNL     1     -37.890  23.225   8.005  1.00  0.00     0.136 C 
BRANCH   6   7
ATOM      7  C   UNL     1     -38.633  21.913   7.968  1.00  0.00    -0.004 C 
ATOM      8  C   UNL     1     -39.962  21.867   8.093  1.00  0.00     0.007 C 
ENDBRANCH   6   7
BRANCH   6   9
ATOM      9  O   UNL     1     -36.528  23.004   7.736  1.00  0.00    -0.389 OA
ATOM     10  H   UNL     1     -36.046  23.829   8.004  1.00  0.00     0.211 HD
ENDBRANCH   6   9
ENDBRANCH   5   6
ENDBRANCH   1   5
TORSDOF 6
ENDMDL
MODEL 3
REMARK VINA RESULT:    -3.831      1.663      3.923
REMARK INTER + INTRA:          -5.496
REMARK INTER:                  -5.159
REMARK INTRA:                  -0.337
REMARK UNBOUND:                -0.433
REMARK SMILES C=C[C@@H](O)CCCCC
REMARK SMILES IDX 6 1 7 2 8 3 9 4 5 5 3 6 2 7 1 8 4 9
REMARK H PARENT 4 10
REMARK Flexibility Score: inf
ROOT
ATOM      1  C   UNL     1     -38.751  23.761   4.665  1.00  0.00     0.003 C 
ENDROOT
BRANCH   1   2
ATOM      2  C   UNL     1     -40.056  24.342   4.079  1.00  0.00    -0.000 C 
BRANCH   2   3
ATOM      3  C   UNL     1     -40.125  25.877   4.133  1.00  0.00    -0.003 C 
ATOM      4  C   UNL     1     -40.072  26.429   5.557  1.00  0.00     0.004 C 
ENDBRANCH   2   3
ENDBRANCH   1   2
BRANCH   1   5
ATOM      5  C   UNL     1     -39.022  22.769   5.813  1.00  0.00     0.036 C 
BRANCH   5   6
ATOM      6  C   UNL     1     -38.481  23.250   7.176  1.00  0.00     0.136 C 
BRANCH   6   7
ATOM      7  C   UNL     1     -37.490  24.377   7.022  1.00  0.00    -0.004 C 
ATOM      8  C   UNL     1     -36.179  24.137   6.930  1.00  0.00     0.007 C 
ENDBRANCH   6   7
BRANCH   6   9
ATOM      9  O   UNL     1     -39.534  23.660   8.010  1.00  0.00    -0.389 OA
ATOM     10  H   UNL     1     -40.374  23.335   7.592  1.00  0.00     0.211 HD
ENDBRANCH   6   9
ENDBRANCH   5   6
ENDBRANCH   1   5
TORSDOF 6
ENDMDL
MODEL 4
REMARK VINA RESULT:    -2.906      1.761      2.673
REMARK INTER + INTRA:          -4.274
REMARK INTER:                  -4.032
REMARK INTRA:                  -0.243
REMARK UNBOUND:                -0.433
REMARK SMILES C=C[C@@H](O)CCCCC
REMARK SMILES IDX 6 1 7 2 8 3 9 4 5 5 3 6 2 7 1 8 4 9
REMARK H PARENT 4 10
REMARK Flexibility Score: inf
ROOT
ATOM      1  C   UNL     1     -38.942  22.528   5.141  1.00  0.00     0.003 C 
ENDROOT
BRANCH   1   2
ATOM      2  C   UNL     1     -40.120  22.521   6.138  1.00  0.00    -0.000 C 
BRANCH   2   3
ATOM      3  C   UNL     1     -39.780  21.875   7.491  1.00  0.00    -0.003 C 
ATOM      4  C   UNL     1     -38.441  22.344   8.058  1.00  0.00     0.004 C 
ENDBRANCH   2   3
ENDBRANCH   1   2
BRANCH   1   5
ATOM      5  C   UNL     1     -38.578  23.954   4.682  1.00  0.00     0.036 C 
BRANCH   5   6
ATOM      6  C   UNL     1     -39.812  24.826   4.366  1.00  0.00     0.136 C 
BRANCH   6   7
ATOM      7  C   UNL     1     -40.124  25.787   5.486  1.00  0.00    -0.004 C 
ATOM      8  C   UNL     1     -39.260  25.990   6.484  1.00  0.00     0.007 C 
ENDBRANCH   6   7
BRANCH   6   9
ATOM      9  O   UNL     1     -39.619  25.542   3.172  1.00  0.00    -0.389 OA
ATOM     10  H   UNL     1     -39.665  24.882   2.432  1.00  0.00     0.211 HD
ENDBRANCH   6   9
ENDBRANCH   5   6
ENDBRANCH   1   5
TORSDOF 6
ENDMDL
MODEL 5
REMARK VINA RESULT:    -2.854      1.535      3.587
REMARK INTER + INTRA:          -4.206
REMARK INTER:                  -3.802
REMARK INTRA:                  -0.403
REMARK UNBOUND:                -0.433
REMARK SMILES C=C[C@@H](O)CCCCC
REMARK SMILES IDX 6 1 7 2 8 3 9 4 5 5 3 6 2 7 1 8 4 9
REMARK H PARENT 4 10
REMARK Flexibility Score: inf
ROOT
ATOM      1  C   UNL     1     -39.973  22.320   6.798  1.00  0.00     0.003 C 
ENDROOT
BRANCH   1   2
ATOM      2  C   UNL     1     -39.673  22.327   5.284  1.00  0.00    -0.000 C 
BRANCH   2   3
ATOM      3  C   UNL     1     -40.123  23.614   4.573  1.00  0.00    -0.003 C 
ATOM      4  C   UNL     1     -38.954  24.457   4.067  1.00  0.00     0.004 C 
ENDBRANCH   2   3
ENDBRANCH   1   2
BRANCH   1   5
ATOM      5  C   UNL     1     -38.701  22.100   7.640  1.00  0.00     0.036 C 
BRANCH   5   6
ATOM      6  C   UNL     1     -37.835  23.370   7.781  1.00  0.00     0.136 C 
BRANCH   6   7
ATOM      7  C   UNL     1     -36.721  23.407   6.764  1.00  0.00    -0.004 C 
ATOM      8  C   UNL     1     -35.874  24.438   6.705  1.00  0.00     0.007 C 
ENDBRANCH   6   7
BRANCH   6   9
ATOM      9  O   UNL     1     -38.626  24.524   7.655  1.00  0.00    -0.389 OA
ATOM     10  H   UNL     1     -38.056  25.293   7.920  1.00  0.00     0.211 HD
ENDBRANCH   6   9
ENDBRANCH   5   6
ENDBRANCH   1   5
TORSDOF 6
ENDMDL
MODEL 6
REMARK VINA RESULT:    -2.653     16.609     18.353
REMARK INTER + INTRA:          -3.939
REMARK INTER:                  -3.913
REMARK INTRA:                  -0.026
REMARK UNBOUND:                -0.433
REMARK SMILES C=C[C@@H](O)CCCCC
REMARK SMILES IDX 6 1 7 2 8 3 9 4 5 5 3 6 2 7 1 8 4 9
REMARK H PARENT 4 10
REMARK Flexibility Score: inf
ROOT
ATOM      1  C   UNL     1     -22.744  17.982   7.071  1.00  0.00     0.003 C 
ENDROOT
BRANCH   1   2
ATOM      2  C   UNL     1     -22.898  16.864   8.124  1.00  0.00    -0.000 C 
BRANCH   2   3
ATOM      3  C   UNL     1     -24.287  16.205   8.125  1.00  0.00    -0.003 C 
ATOM      4  C   UNL     1     -25.430  17.219   8.125  1.00  0.00     0.004 C 
ENDBRANCH   2   3
ENDBRANCH   1   2
BRANCH   1   5
ATOM      5  C   UNL     1     -21.711  17.619   5.985  1.00  0.00     0.036 C 
BRANCH   5   6
ATOM      6  C   UNL     1     -20.746  16.494   6.413  1.00  0.00     0.136 C 
BRANCH   6   7
ATOM      7  C   UNL     1     -19.936  15.975   5.252  1.00  0.00    -0.004 C 
ATOM      8  C   UNL     1     -20.186  16.373   4.002  1.00  0.00     0.007 C 
ENDBRANCH   6   7
BRANCH   6   9
ATOM      9  O   UNL     1     -19.883  16.941   7.428  1.00  0.00    -0.389 OA
ATOM     10  H   UNL     1     -19.983  17.928   7.474  1.00  0.00     0.211 HD
ENDBRANCH   6   9
ENDBRANCH   5   6
ENDBRANCH   1   5
TORSDOF 6
ENDMDL
MODEL 7
REMARK VINA RESULT:    -2.335     20.251     21.033
REMARK INTER + INTRA:          -3.519
REMARK INTER:                  -3.256
REMARK INTRA:                  -0.263
REMARK UNBOUND:                -0.433
REMARK SMILES C=C[C@@H](O)CCCCC
REMARK SMILES IDX 6 1 7 2 8 3 9 4 5 5 3 6 2 7 1 8 4 9
REMARK H PARENT 4 10
REMARK Flexibility Score: inf
ROOT
ATOM      1  C   UNL     1     -36.140  34.246 -10.780  1.00  0.00     0.003 C 
ENDROOT
BRANCH   1   2
ATOM      2  C   UNL     1     -35.169  34.381 -11.972  1.00  0.00    -0.000 C 
BRANCH   2   3
ATOM      3  C   UNL     1     -34.570  35.788 -12.125  1.00  0.00    -0.003 C 
ATOM      4  C   UNL     1     -33.043  35.793 -12.125  1.00  0.00     0.004 C 
ENDBRANCH   2   3
ENDBRANCH   1   2
BRANCH   1   5
ATOM      5  C   UNL     1     -37.027  35.496 -10.611  1.00  0.00     0.036 C 
BRANCH   5   6
ATOM      6  C   UNL     1     -38.507  35.246 -10.967  1.00  0.00     0.136 C 
BRANCH   6   7
ATOM      7  C   UNL     1     -38.746  33.827 -11.419  1.00  0.00    -0.004 C 
ATOM      8  C   UNL     1     -39.930  33.447 -11.907  1.00  0.00     0.007 C 
ENDBRANCH   6   7
BRANCH   6   9
ATOM      9  O   UNL     1     -39.336  35.537  -9.870  1.00  0.00    -0.389 OA
ATOM     10  H   UNL     1     -39.883  34.726  -9.702  1.00  0.00     0.211 HD
ENDBRANCH   6   9
ENDBRANCH   5   6
ENDBRANCH   1   5
TORSDOF 6
ENDMDL
MODEL 8
REMARK VINA RESULT:    -1.344     16.652     18.623
REMARK INTER + INTRA:          -2.209
REMARK INTER:                  -2.460
REMARK INTRA:                   0.251
REMARK UNBOUND:                -0.433
REMARK SMILES C=C[C@@H](O)CCCCC
REMARK SMILES IDX 6 1 7 2 8 3 9 4 5 5 3 6 2 7 1 8 4 9
REMARK H PARENT 4 10
REMARK Flexibility Score: inf
ROOT
ATOM      1  C   UNL     1     -20.615  29.900   7.803  1.00  0.00     0.003 C 
ENDROOT
BRANCH   1   2
ATOM      2  C   UNL     1     -19.984  31.272   8.121  1.00  0.00    -0.000 C 
BRANCH   2   3
ATOM      3  C   UNL     1     -20.995  32.430   8.125  1.00  0.00    -0.003 C 
ATOM      4  C   UNL     1     -20.347  33.792   7.883  1.00  0.00     0.004 C 
ENDBRANCH   2   3
ENDBRANCH   1   2
BRANCH   1   5
ATOM      5  C   UNL     1     -22.134  30.001   7.562  1.00  0.00     0.036 C 
BRANCH   5   6
ATOM      6  C   UNL     1     -22.496  30.671   6.219  1.00  0.00     0.136 C 
BRANCH   6   7
ATOM      7  C   UNL     1     -22.527  29.677   5.085  1.00  0.00    -0.004 C 
ATOM      8  C   UNL     1     -23.328  28.609   5.124  1.00  0.00     0.007 C 
ENDBRANCH   6   7
BRANCH   6   9
ATOM      9  O   UNL     1     -23.737  31.322   6.310  1.00  0.00    -0.389 OA
ATOM     10  H   UNL     1     -24.423  30.615   6.437  1.00  0.00     0.211 HD
ENDBRANCH   6   9
ENDBRANCH   5   6
ENDBRANCH   1   5
TORSDOF 6
ENDMDL
