MODEL 1
REMARK VINA RESULT:    -4.257      0.000      0.000
REMARK INTER + INTRA:          -9.465
REMARK INTER:                  -7.492
REMARK INTRA:                  -1.973
REMARK UNBOUND:                -1.973
REMARK SMILES CCCCCCC=CCCCCCCCC(=O)[O-]
REMARK SMILES IDX 10 1 11 2 12 3 13 4 14 5 15 6 16 7 17 8 18 9 9 10 8 11 7 12
REMARK SMILES IDX 6 13 5 14 4 15 3 16 2 17 1 18
REMARK H PARENT
REMARK Flexibility Score: inf
ROOT
ATOM      1  C   UNL     1     101.304   3.947  26.675  1.00  0.00     0.004 C 
ENDROOT
BRANCH   1   2
ATOM      2  C   UNL     1     100.658   4.277  25.324  1.00  0.00     0.000 C 
BRANCH   2   3
ATOM      3  C   UNL     1      99.213   4.755  25.507  1.00  0.00     0.000 C 
BRANCH   3   4
ATOM      4  C   UNL     1      98.465   3.874  26.515  1.00  0.00     0.000 C 
BRANCH   4   5
ATOM      5  C   UNL     1      97.142   3.364  25.926  1.00  0.00     0.006 C 
BRANCH   5   6
ATOM      6  C   UNL     1      96.783   4.065  24.608  1.00  0.00     0.053 C 
BRANCH   6   7
ATOM      7  C   UNL     1      95.741   5.121  24.805  1.00  0.00     0.041 C 
ATOM      8  O   UNL     1      95.188   5.265  25.927  1.00  0.00    -0.550 OA
ATOM      9  O   UNL     1      95.355   5.925  23.740  1.00  0.00    -0.550 OA
ENDBRANCH   6   7
ENDBRANCH   5   6
ENDBRANCH   4   5
ENDBRANCH   3   4
ENDBRANCH   2   3
ENDBRANCH   1   2
BRANCH   1  10
ATOM     10  C   UNL     1     102.513   3.020  26.494  1.00  0.00     0.027 C 
BRANCH  10  11
ATOM     11  C   UNL     1     102.582   2.485  25.090  1.00  0.00    -0.031 C 
ATOM     12  C   UNL     1     103.419   1.491  24.756  1.00  0.00    -0.031 C 
BRANCH  12  13
ATOM     13  C   UNL     1     103.488   0.957  23.352  1.00  0.00     0.027 C 
BRANCH  13  14
ATOM     14  C   UNL     1     102.913  -0.466  23.273  1.00  0.00     0.004 C 
BRANCH  14  15
ATOM     15  C   UNL     1     101.385  -0.477  23.114  1.00  0.00     0.000 C 
BRANCH  15  16
ATOM     16  C   UNL     1     100.666  -1.014  24.361  1.00  0.00    -0.000 C 
BRANCH  16  17
ATOM     17  C   UNL     1      99.816   0.081  25.017  1.00  0.00    -0.003 C 
ATOM     18  C   UNL     1      99.270   1.054  23.976  1.00  0.00     0.004 C 
ENDBRANCH  16  17
ENDBRANCH  15  16
ENDBRANCH  14  15
ENDBRANCH  13  14
ENDBRANCH  12  13
ENDBRANCH  10  11
ENDBRANCH   1  10
TORSDOF 13
ENDMDL
MODEL 2
REMARK VINA RESULT:    -4.237      3.303      6.819
REMARK INTER + INTRA:          -9.430
REMARK INTER:                  -7.188
REMARK INTRA:                  -2.242
REMARK UNBOUND:                -1.973
REMARK SMILES CCCCCCC=CCCCCCCCC(=O)[O-]
REMARK SMILES IDX 10 1 11 2 12 3 13 4 14 5 15 6 16 7 17 8 18 9 9 10 8 11 7 12
REMARK SMILES IDX 6 13 5 14 4 15 3 16 2 17 1 18
REMARK H PARENT
REMARK Flexibility Score: inf
ROOT
ATOM      1  C   UNL     1      98.283   4.857  25.960  1.00  0.00     0.004 C 
ENDROOT
BRANCH   1   2
ATOM      2  C   UNL     1      97.180   3.827  26.233  1.00  0.00     0.000 C 
BRANCH   2   3
ATOM      3  C   UNL     1      96.119   3.849  25.126  1.00  0.00     0.000 C 
BRANCH   3   4
ATOM      4  C   UNL     1      96.533   2.960  23.948  1.00  0.00     0.000 C 
BRANCH   4   5
ATOM      5  C   UNL     1      97.188   1.662  24.441  1.00  0.00     0.006 C 
BRANCH   5   6
ATOM      6  C   UNL     1      98.652   1.544  23.995  1.00  0.00     0.053 C 
BRANCH   6   7
ATOM      7  C   UNL     1      99.528   1.026  25.094  1.00  0.00     0.041 C 
ATOM      8  O   UNL     1     100.075   1.826  25.898  1.00  0.00    -0.550 OA
ATOM      9  O   UNL     1      99.768  -0.337  25.209  1.00  0.00    -0.550 OA
ENDBRANCH   6   7
ENDBRANCH   5   6
ENDBRANCH   4   5
ENDBRANCH   3   4
ENDBRANCH   2   3
ENDBRANCH   1   2
BRANCH   1  10
ATOM     10  C   UNL     1      98.099   6.103  26.834  1.00  0.00     0.027 C 
BRANCH  10  11
ATOM     11  C   UNL     1      97.643   7.279  26.014  1.00  0.00    -0.031 C 
ATOM     12  C   UNL     1      96.368   7.406  25.615  1.00  0.00    -0.031 C 
BRANCH  12  13
ATOM     13  C   UNL     1      95.913   8.582  24.796  1.00  0.00     0.027 C 
BRANCH  13  14
ATOM     14  C   UNL     1      95.927   8.249  23.296  1.00  0.00     0.004 C 
BRANCH  14  15
ATOM     15  C   UNL     1      95.397   6.837  23.000  1.00  0.00     0.000 C 
BRANCH  15  16
ATOM     16  C   UNL     1      96.299   6.059  22.030  1.00  0.00    -0.000 C 
BRANCH  16  17
ATOM     17  C   UNL     1      97.720   6.635  22.020  1.00  0.00    -0.003 C 
ATOM     18  C   UNL     1      98.737   5.603  22.498  1.00  0.00     0.004 C 
ENDBRANCH  16  17
ENDBRANCH  15  16
ENDBRANCH  14  15
ENDBRANCH  13  14
ENDBRANCH  12  13
ENDBRANCH  10  11
ENDBRANCH   1  10
TORSDOF 13
ENDMDL
MODEL 3
REMARK VINA RESULT:    -4.229      2.787      5.699
REMARK INTER + INTRA:          -9.415
REMARK INTER:                  -6.948
REMARK INTRA:                  -2.467
REMARK UNBOUND:                -1.973
REMARK SMILES CCCCCCC=CCCCCCCCC(=O)[O-]
REMARK SMILES IDX 10 1 11 2 12 3 13 4 14 5 15 6 16 7 17 8 18 9 9 10 8 11 7 12
REMARK SMILES IDX 6 13 5 14 4 15 3 16 2 17 1 18
REMARK H PARENT
REMARK Flexibility Score: inf
ROOT
ATOM      1  C   UNL     1      99.560   5.600  27.025  1.00  0.00     0.004 C 
ENDROOT
BRANCH   1   2
ATOM      2  C   UNL     1     101.086   5.493  27.132  1.00  0.00     0.000 C 
BRANCH   2   3
ATOM      3  C   UNL     1     101.568   4.090  26.746  1.00  0.00     0.000 C 
BRANCH   3   4
ATOM      4  C   UNL     1     101.323   3.814  25.258  1.00  0.00     0.000 C 
BRANCH   4   5
ATOM      5  C   UNL     1     101.415   2.312  24.953  1.00  0.00     0.006 C 
BRANCH   5   6
ATOM      6  C   UNL     1     100.521   1.901  23.775  1.00  0.00     0.053 C 
BRANCH   6   7
ATOM      7  C   UNL     1      99.891   0.561  23.996  1.00  0.00     0.041 C 
ATOM      8  O   UNL     1      99.420   0.260  25.125  1.00  0.00    -0.550 OA
ATOM      9  O   UNL     1      99.853  -0.369  22.965  1.00  0.00    -0.550 OA
ENDBRANCH   6   7
ENDBRANCH   5   6
ENDBRANCH   4   5
ENDBRANCH   3   4
ENDBRANCH   2   3
ENDBRANCH   1   2
BRANCH   1  10
ATOM     10  C   UNL     1      98.872   4.607  27.969  1.00  0.00     0.027 C 
BRANCH  10  11
ATOM     11  C   UNL     1      97.729   3.909  27.284  1.00  0.00    -0.031 C 
ATOM     12  C   UNL     1      97.889   3.286  26.106  1.00  0.00    -0.031 C 
BRANCH  12  13
ATOM     13  C   UNL     1      96.745   2.589  25.421  1.00  0.00     0.027 C 
BRANCH  13  14
ATOM     14  C   UNL     1      96.684   2.960  23.932  1.00  0.00     0.004 C 
BRANCH  14  15
ATOM     15  C   UNL     1      97.575   4.163  23.586  1.00  0.00     0.000 C 
BRANCH  15  16
ATOM     16  C   UNL     1      96.763   5.422  23.247  1.00  0.00    -0.000 C 
BRANCH  16  17
ATOM     17  C   UNL     1      96.858   6.456  24.375  1.00  0.00    -0.003 C 
ATOM     18  C   UNL     1      95.675   6.338  25.332  1.00  0.00     0.004 C 
ENDBRANCH  16  17
ENDBRANCH  15  16
ENDBRANCH  14  15
ENDBRANCH  13  14
ENDBRANCH  12  13
ENDBRANCH  10  11
ENDBRANCH   1  10
TORSDOF 13
ENDMDL
MODEL 4
REMARK VINA RESULT:    -4.228      3.009      5.480
REMARK INTER + INTRA:          -9.413
REMARK INTER:                  -7.397
REMARK INTRA:                  -2.016
REMARK UNBOUND:                -1.973
REMARK SMILES CCCCCCC=CCCCCCCCC(=O)[O-]
REMARK SMILES IDX 10 1 11 2 12 3 13 4 14 5 15 6 16 7 17 8 18 9 9 10 8 11 7 12
REMARK SMILES IDX 6 13 5 14 4 15 3 16 2 17 1 18
REMARK H PARENT
REMARK Flexibility Score: inf
ROOT
ATOM      1  C   UNL     1     103.541   3.143  25.209  1.00  0.00     0.004 C 
ENDROOT
BRANCH   1   2
ATOM      2  C   UNL     1     103.913   1.705  24.828  1.00  0.00     0.000 C 
BRANCH   2   3
ATOM      3  C   UNL     1     102.974   1.161  23.746  1.00  0.00     0.000 C 
BRANCH   3   4
ATOM      4  C   UNL     1     101.923   2.207  23.352  1.00  0.00     0.000 C 
BRANCH   4   5
ATOM      5  C   UNL     1     100.503   1.689  23.621  1.00  0.00     0.006 C 
BRANCH   5   6
ATOM      6  C   UNL     1     100.451   0.728  24.816  1.00  0.00     0.053 C 
BRANCH   6   7
ATOM      7  C   UNL     1     100.261  -0.692  24.380  1.00  0.00     0.041 C 
ATOM      8  O   UNL     1     100.236  -1.619  25.232  1.00  0.00    -0.550 OA
ATOM      9  O   UNL     1     100.147  -0.996  23.029  1.00  0.00    -0.550 OA
ENDBRANCH   6   7
ENDBRANCH   5   6
ENDBRANCH   4   5
ENDBRANCH   3   4
ENDBRANCH   2   3
ENDBRANCH   1   2
BRANCH   1  10
ATOM     10  C   UNL     1     103.225   3.251  26.706  1.00  0.00     0.027 C 
BRANCH  10  11
ATOM     11  C   UNL     1     101.767   3.543  26.933  1.00  0.00    -0.031 C 
ATOM     12  C   UNL     1     101.105   4.443  26.189  1.00  0.00    -0.031 C 
BRANCH  12  13
ATOM     13  C   UNL     1      99.648   4.735  26.418  1.00  0.00     0.027 C 
BRANCH  13  14
ATOM     14  C   UNL     1      98.858   3.440  26.665  1.00  0.00     0.004 C 
BRANCH  14  15
ATOM     15  C   UNL     1      97.395   3.545  26.206  1.00  0.00     0.000 C 
BRANCH  15  16
ATOM     16  C   UNL     1      97.252   4.228  24.838  1.00  0.00    -0.000 C 
BRANCH  16  17
ATOM     17  C   UNL     1      96.349   3.409  23.908  1.00  0.00    -0.003 C 
ATOM     18  C   UNL     1      96.516   1.912  24.155  1.00  0.00     0.004 C 
ENDBRANCH  16  17
ENDBRANCH  15  16
ENDBRANCH  14  15
ENDBRANCH  13  14
ENDBRANCH  12  13
ENDBRANCH  10  11
ENDBRANCH   1  10
TORSDOF 13
ENDMDL
MODEL 5
REMARK VINA RESULT:    -4.204      3.147      5.943
REMARK INTER + INTRA:          -9.372
REMARK INTER:                  -7.369
REMARK INTRA:                  -2.003
REMARK UNBOUND:                -1.973
REMARK SMILES CCCCCCC=CCCCCCCCC(=O)[O-]
REMARK SMILES IDX 10 1 11 2 12 3 13 4 14 5 15 6 16 7 17 8 18 9 9 10 8 11 7 12
REMARK SMILES IDX 6 13 5 14 4 15 3 16 2 17 1 18
REMARK H PARENT
REMARK Flexibility Score: inf
ROOT
ATOM      1  C   UNL     1     101.979   3.483  26.702  1.00  0.00     0.004 C 
ENDROOT
BRANCH   1   2
ATOM      2  C   UNL     1     103.052   3.354  25.615  1.00  0.00     0.000 C 
BRANCH   2   3
ATOM      3  C   UNL     1     103.163   1.908  25.119  1.00  0.00     0.000 C 
BRANCH   3   4
ATOM      4  C   UNL     1     102.884   1.818  23.614  1.00  0.00     0.000 C 
BRANCH   4   5
ATOM      5  C   UNL     1     101.420   1.441  23.347  1.00  0.00     0.006 C 
BRANCH   5   6
ATOM      6  C   UNL     1     100.817   0.605  24.484  1.00  0.00     0.053 C 
BRANCH   6   7
ATOM      7  C   UNL     1     100.548  -0.805  24.055  1.00  0.00     0.041 C 
ATOM      8  O   UNL     1     100.362  -1.073  22.839  1.00  0.00    -0.550 OA
ATOM      9  O   UNL     1     100.467  -1.816  25.004  1.00  0.00    -0.550 OA
ENDBRANCH   6   7
ENDBRANCH   5   6
ENDBRANCH   4   5
ENDBRANCH   3   4
ENDBRANCH   2   3
ENDBRANCH   1   2
BRANCH   1  10
ATOM     10  C   UNL     1     101.102   4.719  26.465  1.00  0.00     0.027 C 
BRANCH  10  11
ATOM     11  C   UNL     1      99.884   4.372  25.652  1.00  0.00    -0.031 C 
ATOM     12  C   UNL     1      99.897   4.415  24.311  1.00  0.00    -0.031 C 
BRANCH  12  13
ATOM     13  C   UNL     1      98.679   4.069  23.500  1.00  0.00     0.027 C 
BRANCH  13  14
ATOM     14  C   UNL     1      97.821   3.014  24.215  1.00  0.00     0.004 C 
BRANCH  14  15
ATOM     15  C   UNL     1      96.329   3.380  24.234  1.00  0.00     0.000 C 
BRANCH  15  16
ATOM     16  C   UNL     1      95.964   4.310  25.401  1.00  0.00    -0.000 C 
BRANCH  16  17
ATOM     17  C   UNL     1      95.564   5.699  24.891  1.00  0.00    -0.003 C 
ATOM     18  C   UNL     1      96.640   6.734  25.208  1.00  0.00     0.004 C 
ENDBRANCH  16  17
ENDBRANCH  15  16
ENDBRANCH  14  15
ENDBRANCH  13  14
ENDBRANCH  12  13
ENDBRANCH  10  11
ENDBRANCH   1  10
TORSDOF 13
ENDMDL
MODEL 6
REMARK VINA RESULT:    -4.168      3.776      6.139
REMARK INTER + INTRA:          -9.308
REMARK INTER:                  -7.162
REMARK INTRA:                  -2.146
REMARK UNBOUND:                -1.973
REMARK SMILES CCCCCCC=CCCCCCCCC(=O)[O-]
REMARK SMILES IDX 10 1 11 2 12 3 13 4 14 5 15 6 16 7 17 8 18 9 9 10 8 11 7 12
REMARK SMILES IDX 6 13 5 14 4 15 3 16 2 17 1 18
REMARK H PARENT
REMARK Flexibility Score: inf
ROOT
ATOM      1  C   UNL     1      96.223   6.802  24.886  1.00  0.00     0.004 C 
ENDROOT
BRANCH   1   2
ATOM      2  C   UNL     1      95.546   7.343  23.621  1.00  0.00     0.000 C 
BRANCH   2   3
ATOM      3  C   UNL     1      96.580   7.920  22.647  1.00  0.00     0.000 C 
BRANCH   3   4
ATOM      4  C   UNL     1      97.917   7.179  22.760  1.00  0.00     0.000 C 
BRANCH   4   5
ATOM      5  C   UNL     1      98.209   6.371  21.487  1.00  0.00     0.006 C 
BRANCH   5   6
ATOM      6  C   UNL     1      97.325   6.802  20.309  1.00  0.00     0.053 C 
BRANCH   6   7
ATOM      7  C   UNL     1      98.114   7.512  19.252  1.00  0.00     0.041 C 
ATOM      8  O   UNL     1      98.304   8.754  19.331  1.00  0.00    -0.550 OA
ATOM      9  O   UNL     1      98.608   6.807  18.162  1.00  0.00    -0.550 OA
ENDBRANCH   6   7
ENDBRANCH   5   6
ENDBRANCH   4   5
ENDBRANCH   3   4
ENDBRANCH   2   3
ENDBRANCH   1   2
BRANCH   1  10
ATOM     10  C   UNL     1      95.322   5.786  25.600  1.00  0.00     0.027 C 
BRANCH  10  11
ATOM     11  C   UNL     1      95.815   4.381  25.388  1.00  0.00    -0.031 C 
ATOM     12  C   UNL     1      96.118   3.918  24.165  1.00  0.00    -0.031 C 
BRANCH  12  13
ATOM     13  C   UNL     1      96.610   2.512  23.955  1.00  0.00     0.027 C 
BRANCH  13  14
ATOM     14  C   UNL     1      98.100   2.390  24.310  1.00  0.00     0.004 C 
BRANCH  14  15
ATOM     15  C   UNL     1      98.940   3.540  23.736  1.00  0.00     0.000 C 
BRANCH  15  16
ATOM     16  C   UNL     1      99.993   4.057  24.728  1.00  0.00    -0.000 C 
BRANCH  16  17
ATOM     17  C   UNL     1      99.359   5.002  25.756  1.00  0.00    -0.003 C 
ATOM     18  C   UNL     1      99.220   4.325  27.117  1.00  0.00     0.004 C 
ENDBRANCH  16  17
ENDBRANCH  15  16
ENDBRANCH  14  15
ENDBRANCH  13  14
ENDBRANCH  12  13
ENDBRANCH  10  11
ENDBRANCH   1  10
TORSDOF 13
ENDMDL
MODEL 7
REMARK VINA RESULT:    -4.153      2.768      6.249
REMARK INTER + INTRA:          -9.282
REMARK INTER:                  -7.417
REMARK INTRA:                  -1.865
REMARK UNBOUND:                -1.973
REMARK SMILES CCCCCCC=CCCCCCCCC(=O)[O-]
REMARK SMILES IDX 10 1 11 2 12 3 13 4 14 5 15 6 16 7 17 8 18 9 9 10 8 11 7 12
REMARK SMILES IDX 6 13 5 14 4 15 3 16 2 17 1 18
REMARK H PARENT
REMARK Flexibility Score: inf
ROOT
ATOM      1  C   UNL     1     100.567   3.912  25.986  1.00  0.00     0.004 C 
ENDROOT
BRANCH   1   2
ATOM      2  C   UNL     1     101.930   3.911  26.688  1.00  0.00     0.000 C 
BRANCH   2   3
ATOM      3  C   UNL     1     103.066   3.682  25.684  1.00  0.00     0.000 C 
BRANCH   3   4
ATOM      4  C   UNL     1     103.407   2.192  25.567  1.00  0.00     0.000 C 
BRANCH   4   5
ATOM      5  C   UNL     1     103.686   1.803  24.109  1.00  0.00     0.006 C 
BRANCH   5   6
ATOM      6  C   UNL     1     102.775   0.667  23.625  1.00  0.00     0.053 C 
BRANCH   6   7
ATOM      7  C   UNL     1     101.416   1.167  23.244  1.00  0.00     0.041 C 
ATOM      8  O   UNL     1     100.413   0.411  23.335  1.00  0.00    -0.550 OA
ATOM      9  O   UNL     1     101.261   2.459  22.756  1.00  0.00    -0.550 OA
ENDBRANCH   6   7
ENDBRANCH   5   6
ENDBRANCH   4   5
ENDBRANCH   3   4
ENDBRANCH   2   3
ENDBRANCH   1   2
BRANCH   1  10
ATOM     10  C   UNL     1      99.867   2.556  26.141  1.00  0.00     0.027 C 
BRANCH  10  11
ATOM     11  C   UNL     1      98.423   2.640  25.731  1.00  0.00    -0.031 C 
ATOM     12  C   UNL     1      98.065   2.844  24.454  1.00  0.00    -0.031 C 
BRANCH  12  13
ATOM     13  C   UNL     1      96.620   2.927  24.045  1.00  0.00     0.027 C 
BRANCH  13  14
ATOM     14  C   UNL     1      96.170   4.390  23.902  1.00  0.00     0.004 C 
BRANCH  14  15
ATOM     15  C   UNL     1      95.579   4.955  25.202  1.00  0.00     0.000 C 
BRANCH  15  16
ATOM     16  C   UNL     1      96.127   6.349  25.543  1.00  0.00    -0.000 C 
BRANCH  16  17
ATOM     17  C   UNL     1      97.521   6.252  26.174  1.00  0.00    -0.003 C 
ATOM     18  C   UNL     1      97.463   5.567  27.537  1.00  0.00     0.004 C 
ENDBRANCH  16  17
ENDBRANCH  15  16
ENDBRANCH  14  15
ENDBRANCH  13  14
ENDBRANCH  12  13
ENDBRANCH  10  11
ENDBRANCH   1  10
TORSDOF 13
ENDMDL
MODEL 8
REMARK VINA RESULT:    -4.148      2.714      6.249
REMARK INTER + INTRA:          -9.273
REMARK INTER:                  -7.375
REMARK INTRA:                  -1.898
REMARK UNBOUND:                -1.973
REMARK SMILES CCCCCCC=CCCCCCCCC(=O)[O-]
REMARK SMILES IDX 10 1 11 2 12 3 13 4 14 5 15 6 16 7 17 8 18 9 9 10 8 11 7 12
REMARK SMILES IDX 6 13 5 14 4 15 3 16 2 17 1 18
REMARK H PARENT
REMARK Flexibility Score: inf
ROOT
ATOM      1  C   UNL     1     100.025   4.213  26.554  1.00  0.00     0.004 C 
ENDROOT
BRANCH   1   2
ATOM      2  C   UNL     1     101.405   3.564  26.713  1.00  0.00     0.000 C 
BRANCH   2   3
ATOM      3  C   UNL     1     102.169   3.562  25.383  1.00  0.00     0.000 C 
BRANCH   3   4
ATOM      4  C   UNL     1     102.204   2.157  24.770  1.00  0.00     0.000 C 
BRANCH   4   5
ATOM      5  C   UNL     1     101.279   2.067  23.548  1.00  0.00     0.006 C 
BRANCH   5   6
ATOM      6  C   UNL     1     100.808   0.632  23.279  1.00  0.00     0.053 C 
BRANCH   6   7
ATOM      7  C   UNL     1      99.662   0.247  24.162  1.00  0.00     0.041 C 
ATOM      8  O   UNL     1      98.529   0.771  23.994  1.00  0.00    -0.550 OA
ATOM      9  O   UNL     1      99.853  -0.664  25.193  1.00  0.00    -0.550 OA
ENDBRANCH   6   7
ENDBRANCH   5   6
ENDBRANCH   4   5
ENDBRANCH   3   4
ENDBRANCH   2   3
ENDBRANCH   1   2
BRANCH   1  10
ATOM     10  C   UNL     1      98.913   3.159  26.604  1.00  0.00     0.027 C 
BRANCH  10  11
ATOM     11  C   UNL     1      97.580   3.757  26.247  1.00  0.00    -0.031 C 
ATOM     12  C   UNL     1      97.259   5.015  26.591  1.00  0.00    -0.031 C 
BRANCH  12  13
ATOM     13  C   UNL     1      95.926   5.612  26.234  1.00  0.00     0.027 C 
BRANCH  13  14
ATOM     14  C   UNL     1      95.454   5.125  24.855  1.00  0.00     0.004 C 
BRANCH  14  15
ATOM     15  C   UNL     1      95.685   6.168  23.750  1.00  0.00     0.000 C 
BRANCH  15  16
ATOM     16  C   UNL     1      96.556   5.631  22.605  1.00  0.00    -0.000 C 
BRANCH  16  17
ATOM     17  C   UNL     1      98.005   6.113  22.747  1.00  0.00    -0.003 C 
ATOM     18  C   UNL     1      98.949   4.946  23.027  1.00  0.00     0.004 C 
ENDBRANCH  16  17
ENDBRANCH  15  16
ENDBRANCH  14  15
ENDBRANCH  13  14
ENDBRANCH  12  13
ENDBRANCH  10  11
ENDBRANCH   1  10
TORSDOF 13
ENDMDL
MODEL 9
REMARK VINA RESULT:    -4.129      1.322      2.616
REMARK INTER + INTRA:          -9.241
REMARK INTER:                  -7.467
REMARK INTRA:                  -1.773
REMARK UNBOUND:                -1.973
REMARK SMILES CCCCCCC=CCCCCCCCC(=O)[O-]
REMARK SMILES IDX 10 1 11 2 12 3 13 4 14 5 15 6 16 7 17 8 18 9 9 10 8 11 7 12
REMARK SMILES IDX 6 13 5 14 4 15 3 16 2 17 1 18
REMARK H PARENT
REMARK Flexibility Score: inf
ROOT
ATOM      1  C   UNL     1      99.451   4.019  23.999  1.00  0.00     0.004 C 
ENDROOT
BRANCH   1   2
ATOM      2  C   UNL     1      98.182   3.158  24.003  1.00  0.00     0.000 C 
BRANCH   2   3
ATOM      3  C   UNL     1      96.926   4.028  23.885  1.00  0.00     0.000 C 
BRANCH   3   4
ATOM      4  C   UNL     1      96.136   4.037  25.199  1.00  0.00     0.000 C 
BRANCH   4   5
ATOM      5  C   UNL     1      95.422   5.381  25.403  1.00  0.00     0.006 C 
BRANCH   5   6
ATOM      6  C   UNL     1      96.272   6.569  24.934  1.00  0.00     0.053 C 
BRANCH   6   7
ATOM      7  C   UNL     1      95.604   7.329  23.830  1.00  0.00     0.041 C 
ATOM      8  O   UNL     1      95.864   8.548  23.653  1.00  0.00    -0.550 OA
ATOM      9  O   UNL     1      94.668   6.700  23.019  1.00  0.00    -0.550 OA
ENDBRANCH   6   7
ENDBRANCH   5   6
ENDBRANCH   4   5
ENDBRANCH   3   4
ENDBRANCH   2   3
ENDBRANCH   1   2
BRANCH   1  10
ATOM     10  C   UNL     1      99.815   4.467  25.420  1.00  0.00     0.027 C 
BRANCH  10  11
ATOM     11  C   UNL     1     101.003   3.706  25.942  1.00  0.00    -0.031 C 
ATOM     12  C   UNL     1     102.068   3.446  25.168  1.00  0.00    -0.031 C 
BRANCH  12  13
ATOM     13  C   UNL     1     103.254   2.684  25.691  1.00  0.00     0.027 C 
BRANCH  13  14
ATOM     14  C   UNL     1     103.652   1.553  24.730  1.00  0.00     0.004 C 
BRANCH  14  15
ATOM     15  C   UNL     1     102.678   1.410  23.550  1.00  0.00     0.000 C 
BRANCH  15  16
ATOM     16  C   UNL     1     101.954   0.056  23.542  1.00  0.00    -0.000 C 
BRANCH  16  17
ATOM     17  C   UNL     1     100.434   0.247  23.608  1.00  0.00    -0.003 C 
ATOM     18  C   UNL     1      99.914   0.053  25.030  1.00  0.00     0.004 C 
ENDBRANCH  16  17
ENDBRANCH  15  16
ENDBRANCH  14  15
ENDBRANCH  13  14
ENDBRANCH  12  13
ENDBRANCH  10  11
ENDBRANCH   1  10
TORSDOF 13
ENDMDL
