MODEL 1
REMARK VINA RESULT:    -3.053      0.000      0.000
REMARK INTER + INTRA:          -4.834
REMARK INTER:                  -4.659
REMARK INTRA:                  -0.175
REMARK UNBOUND:                -0.175
REMARK SMILES CC1=CCC[C@H](C)C(=O)C[C@H](C(C)C)C(=O)C1
REMARK SMILES IDX 8 1 9 2 6 3 7 4 5 5 4 6 3 7 2 8 1 9 10 11 11 12 15 13 16 14
REMARK SMILES IDX 17 15 12 17 13 18 14 19
REMARK H PARENT
REMARK Flexibility Score: 70.00
ROOT
ATOM      1  C   UNL     1      14.293  26.567  24.941  1.00  0.00     0.136 C 
ATOM      2  O   UNL     1      13.501  25.689  24.631  1.00  0.00    -0.299 OA
ENDROOT
BRANCH   1   3
ATOM      3  C   UNL     1      15.657  26.135  25.450  1.00  0.00     0.053 C 
ATOM      4  C   UNL     1      16.777  27.182  25.330  1.00  0.00     0.016 C 
BRANCH   3   5
ATOM      5  C   UNL     1      15.560  25.437  26.830  1.00  0.00     0.015 C 
BRANCH   5   6
ATOM      6  C   UNL     1      14.539  25.937  27.884  1.00  0.00     0.028 C 
BRANCH   6   7
ATOM      7  C   UNL     1      14.621  27.366  28.368  1.00  0.00    -0.028 C 
ATOM      8  C   UNL     1      13.611  28.264  28.387  1.00  0.00    -0.070 CG0
ATOM      9  C   UNL     1      13.798  29.504  29.226  1.00  0.00     0.039 C 
ATOM     10  G   UNL     1      12.285  28.035  27.695  1.00  0.00     0.000 G0
ENDBRANCH   6   7
ENDBRANCH   5   6
ENDBRANCH   3   5
ENDBRANCH   1   3
BRANCH   1  11
ATOM     11  C   UNL     1      13.897  28.010  24.718  1.00  0.00     0.087 C 
BRANCH  11  12
ATOM     12  C   UNL     1      12.392  28.289  25.021  1.00  0.00     0.066 C 
BRANCH  12  13
ATOM     13  C   UNL     1      12.111  28.840  26.427  1.00  0.00     0.140 C 
ATOM     14  O   UNL     1      11.646  29.967  26.524  1.00  0.00    -0.299 OA
BRANCH  13  15
ATOM     15  C   UNL     1      12.278  28.049  27.712  1.00  0.00     0.106 CG0
ATOM     16  G   UNL     1      13.618  28.292  28.371  1.00  0.00     0.000 G0
ENDBRANCH  13  15
ENDBRANCH  12  13
BRANCH  12  17
ATOM     17  C   UNL     1      11.716  29.173  23.916  1.00  0.00    -0.006 C 
ATOM     18  C   UNL     1      12.645  30.250  23.341  1.00  0.00     0.008 C 
ATOM     19  C   UNL     1      11.104  28.335  22.779  1.00  0.00     0.008 C 
ENDBRANCH  12  17
ENDBRANCH  11  12
ENDBRANCH   1  11
TORSDOF 1
ENDMDL
MODEL 2
REMARK VINA RESULT:    -3.033      5.066      7.263
REMARK INTER + INTRA:          -4.804
REMARK INTER:                  -4.614
REMARK INTRA:                  -0.190
REMARK UNBOUND:                -0.175
REMARK SMILES CC1=CCC[C@H](C)C(=O)C[C@H](C(C)C)C(=O)C1
REMARK SMILES IDX 8 1 9 2 6 3 7 4 5 5 4 6 3 7 2 8 1 9 10 11 11 12 15 13 16 14
REMARK SMILES IDX 17 15 12 17 13 18 14 19
REMARK H PARENT
REMARK Flexibility Score: 70.00
ROOT
ATOM      1  C   UNL     1      15.379  24.794  33.736  1.00  0.00     0.136 C 
ATOM      2  O   UNL     1      15.407  25.544  34.703  1.00  0.00    -0.299 OA
ENDROOT
BRANCH   1   3
ATOM      3  C   UNL     1      16.644  24.018  33.412  1.00  0.00     0.053 C 
ATOM      4  C   UNL     1      16.433  22.614  32.823  1.00  0.00     0.016 C 
BRANCH   3   5
ATOM      5  C   UNL     1      17.679  24.895  32.662  1.00  0.00     0.015 C 
BRANCH   5   6
ATOM      6  C   UNL     1      17.207  26.121  31.839  1.00  0.00     0.028 C 
BRANCH   6   7
ATOM      7  C   UNL     1      16.889  25.945  30.373  1.00  0.00    -0.028 C 
ATOM      8  C   UNL     1      15.856  26.504  29.705  1.00  0.00    -0.070 CG0
ATOM      9  C   UNL     1      15.916  26.497  28.198  1.00  0.00     0.039 C 
ATOM     10  G   UNL     1      14.710  27.213  30.393  1.00  0.00     0.000 G0
ENDBRANCH   6   7
ENDBRANCH   5   6
ENDBRANCH   3   5
ENDBRANCH   1   3
BRANCH   1  11
ATOM     11  C   UNL     1      14.075  24.627  32.989  1.00  0.00     0.087 C 
BRANCH  11  12
ATOM     12  C   UNL     1      13.478  25.976  32.482  1.00  0.00     0.066 C 
BRANCH  12  13
ATOM     13  C   UNL     1      13.671  26.241  30.982  1.00  0.00     0.140 C 
ATOM     14  O   UNL     1      12.907  25.699  30.195  1.00  0.00    -0.299 OA
BRANCH  13  15
ATOM     15  C   UNL     1      14.686  27.210  30.401  1.00  0.00     0.106 CG0
ATOM     16  G   UNL     1      15.826  26.502  29.701  1.00  0.00     0.000 G0
ENDBRANCH  13  15
ENDBRANCH  12  13
BRANCH  12  17
ATOM     17  C   UNL     1      11.980  26.161  32.906  1.00  0.00    -0.006 C 
ATOM     18  C   UNL     1      11.709  25.794  34.371  1.00  0.00     0.008 C 
ATOM     19  C   UNL     1      11.449  27.574  32.606  1.00  0.00     0.008 C 
ENDBRANCH  12  17
ENDBRANCH  11  12
ENDBRANCH   1  11
TORSDOF 1
ENDMDL
MODEL 3
REMARK VINA RESULT:    -3.018      5.205      8.144
REMARK INTER + INTRA:          -4.781
REMARK INTER:                  -4.492
REMARK INTRA:                  -0.289
REMARK UNBOUND:                -0.175
REMARK SMILES CC1=CCC[C@H](C)C(=O)C[C@H](C(C)C)C(=O)C1
REMARK SMILES IDX 8 1 9 2 6 3 7 4 5 5 4 6 3 7 2 8 1 9 10 11 11 12 15 13 16 14
REMARK SMILES IDX 17 15 12 17 13 18 14 19
REMARK H PARENT
REMARK Flexibility Score: 70.00
ROOT
ATOM      1  C   UNL     1      14.999  26.055  33.718  1.00  0.00     0.136 C 
ATOM      2  O   UNL     1      15.147  27.269  33.748  1.00  0.00    -0.299 OA
ENDROOT
BRANCH   1   3
ATOM      3  C   UNL     1      13.579  25.522  33.649  1.00  0.00     0.053 C 
ATOM      4  C   UNL     1      12.852  25.383  34.997  1.00  0.00     0.016 C 
BRANCH   3   5
ATOM      5  C   UNL     1      12.759  26.214  32.532  1.00  0.00     0.015 C 
BRANCH   5   6
ATOM      6  C   UNL     1      13.012  25.854  31.045  1.00  0.00     0.028 C 
BRANCH   6   7
ATOM      7  C   UNL     1      13.806  26.806  30.182  1.00  0.00    -0.028 C 
ATOM      8  C   UNL     1      14.966  26.533  29.545  1.00  0.00    -0.070 CG0
ATOM      9  C   UNL     1      15.407  27.485  28.462  1.00  0.00     0.039 C 
ATOM     10  G   UNL     1      15.775  25.279  29.798  1.00  0.00     0.000 G0
ENDBRANCH   6   7
ENDBRANCH   5   6
ENDBRANCH   3   5
ENDBRANCH   1   3
BRANCH   1  11
ATOM     11  C   UNL     1      16.231  25.179  33.664  1.00  0.00     0.087 C 
BRANCH  11  12
ATOM     12  C   UNL     1      16.398  24.435  32.304  1.00  0.00     0.066 C 
BRANCH  12  13
ATOM     13  C   UNL     1      16.606  25.353  31.090  1.00  0.00     0.140 C 
ATOM     14  O   UNL     1      17.539  26.143  31.115  1.00  0.00    -0.299 OA
BRANCH  13  15
ATOM     15  C   UNL     1      15.793  25.287  29.809  1.00  0.00     0.106 CG0
ATOM     16  G   UNL     1      14.996  26.550  29.565  1.00  0.00     0.000 G0
ENDBRANCH  13  15
ENDBRANCH  12  13
BRANCH  12  17
ATOM     17  C   UNL     1      17.495  23.316  32.367  1.00  0.00    -0.006 C 
ATOM     18  C   UNL     1      17.880  22.918  33.798  1.00  0.00     0.008 C 
ATOM     19  C   UNL     1      17.115  22.067  31.551  1.00  0.00     0.008 C 
ENDBRANCH  12  17
ENDBRANCH  11  12
ENDBRANCH   1  11
TORSDOF 1
ENDMDL
MODEL 4
REMARK VINA RESULT:    -2.976      1.883      3.914
REMARK INTER + INTRA:          -4.716
REMARK INTER:                  -4.300
REMARK INTRA:                  -0.416
REMARK UNBOUND:                -0.175
REMARK SMILES CC1=CCC[C@H](C)C(=O)C[C@H](C(C)C)C(=O)C1
REMARK SMILES IDX 8 1 9 2 6 3 7 4 5 5 4 6 3 7 2 8 1 9 10 11 11 12 15 13 16 14
REMARK SMILES IDX 17 15 12 17 13 18 14 19
REMARK H PARENT
REMARK Flexibility Score: 70.00
ROOT
ATOM      1  C   UNL     1      12.325  29.620  24.960  1.00  0.00     0.136 C 
ATOM      2  O   UNL     1      12.358  30.686  24.360  1.00  0.00    -0.299 OA
ENDROOT
BRANCH   1   3
ATOM      3  C   UNL     1      11.853  28.396  24.193  1.00  0.00     0.053 C 
ATOM      4  C   UNL     1      10.834  28.662  23.073  1.00  0.00     0.016 C 
BRANCH   3   5
ATOM      5  C   UNL     1      13.036  27.476  23.798  1.00  0.00     0.015 C 
BRANCH   5   6
ATOM      6  C   UNL     1      13.399  26.255  24.681  1.00  0.00     0.028 C 
BRANCH   6   7
ATOM      7  C   UNL     1      14.635  26.314  25.546  1.00  0.00    -0.028 C 
ATOM      8  C   UNL     1      14.678  26.194  26.892  1.00  0.00    -0.070 CG0
ATOM      9  C   UNL     1      16.021  25.925  27.525  1.00  0.00     0.039 C 
ATOM     10  G   UNL     1      13.443  26.218  27.766  1.00  0.00     0.000 G0
ENDBRANCH   6   7
ENDBRANCH   5   6
ENDBRANCH   3   5
ENDBRANCH   1   3
BRANCH   1  11
ATOM     11  C   UNL     1      12.833  29.577  26.383  1.00  0.00     0.087 C 
BRANCH  11  12
ATOM     12  C   UNL     1      12.102  28.519  27.267  1.00  0.00     0.066 C 
BRANCH  12  13
ATOM     13  C   UNL     1      13.030  27.645  28.123  1.00  0.00     0.140 C 
ATOM     14  O   UNL     1      13.405  28.082  29.202  1.00  0.00    -0.299 OA
BRANCH  13  15
ATOM     15  C   UNL     1      13.444  26.227  27.772  1.00  0.00     0.106 CG0
ATOM     16  G   UNL     1      14.670  26.185  26.885  1.00  0.00     0.000 G0
ENDBRANCH  13  15
ENDBRANCH  12  13
BRANCH  12  17
ATOM     17  C   UNL     1      10.957  29.152  28.131  1.00  0.00    -0.006 C 
ATOM     18  C   UNL     1      11.066  30.676  28.269  1.00  0.00     0.008 C 
ATOM     19  C   UNL     1       9.554  28.762  27.633  1.00  0.00     0.008 C 
ENDBRANCH  12  17
ENDBRANCH  11  12
ENDBRANCH   1  11
TORSDOF 1
ENDMDL
MODEL 5
REMARK VINA RESULT:    -2.843      1.817      2.177
REMARK INTER + INTRA:          -4.514
REMARK INTER:                  -3.998
REMARK INTRA:                  -0.516
REMARK UNBOUND:                -0.175
REMARK SMILES CC1=CCC[C@H](C)C(=O)C[C@H](C(C)C)C(=O)C1
REMARK SMILES IDX 8 1 9 2 6 3 7 4 5 5 4 6 3 7 2 8 1 9 10 11 11 12 15 13 16 14
REMARK SMILES IDX 17 15 12 17 13 18 14 19
REMARK H PARENT
REMARK Flexibility Score: 70.00
ROOT
ATOM      1  C   UNL     1      16.000  28.595  25.841  1.00  0.00     0.136 C 
ATOM      2  O   UNL     1      17.003  29.262  25.627  1.00  0.00    -0.299 OA
ENDROOT
BRANCH   1   3
ATOM      3  C   UNL     1      16.189  27.122  26.156  1.00  0.00     0.053 C 
ATOM      4  C   UNL     1      16.647  26.242  24.982  1.00  0.00     0.016 C 
BRANCH   3   5
ATOM      5  C   UNL     1      16.974  26.913  27.476  1.00  0.00     0.015 C 
BRANCH   5   6
ATOM      6  C   UNL     1      16.338  27.316  28.831  1.00  0.00     0.028 C 
BRANCH   6   7
ATOM      7  C   UNL     1      15.109  26.583  29.314  1.00  0.00    -0.028 C 
ATOM      8  C   UNL     1      13.828  26.995  29.185  1.00  0.00    -0.070 CG0
ATOM      9  C   UNL     1      12.742  25.972  29.407  1.00  0.00     0.039 C 
ATOM     10  G   UNL     1      13.446  28.389  28.737  1.00  0.00     0.000 G0
ENDBRANCH   6   7
ENDBRANCH   5   6
ENDBRANCH   3   5
ENDBRANCH   1   3
BRANCH   1  11
ATOM     11  C   UNL     1      14.659  29.295  25.864  1.00  0.00     0.087 C 
BRANCH  11  12
ATOM     12  C   UNL     1      13.456  28.317  26.033  1.00  0.00     0.066 C 
BRANCH  12  13
ATOM     13  C   UNL     1      12.731  28.416  27.384  1.00  0.00     0.140 C 
ATOM     14  O   UNL     1      11.508  28.425  27.385  1.00  0.00    -0.299 OA
BRANCH  13  15
ATOM     15  C   UNL     1      13.422  28.407  28.736  1.00  0.00     0.106 CG0
ATOM     16  G   UNL     1      13.831  27.015  29.167  1.00  0.00     0.000 G0
ENDBRANCH  13  15
ENDBRANCH  12  13
BRANCH  12  17
ATOM     17  C   UNL     1      12.446  28.400  24.837  1.00  0.00    -0.006 C 
ATOM     18  C   UNL     1      12.476  29.749  24.105  1.00  0.00     0.008 C 
ATOM     19  C   UNL     1      12.619  27.247  23.833  1.00  0.00     0.008 C 
ENDBRANCH  12  17
ENDBRANCH  11  12
ENDBRANCH   1  11
TORSDOF 1
ENDMDL
MODEL 6
REMARK VINA RESULT:    -2.828      2.051      4.496
REMARK INTER + INTRA:          -4.491
REMARK INTER:                  -4.099
REMARK INTRA:                  -0.391
REMARK UNBOUND:                -0.175
REMARK SMILES CC1=CCC[C@H](C)C(=O)C[C@H](C(C)C)C(=O)C1
REMARK SMILES IDX 8 1 9 2 6 3 7 4 5 5 4 6 3 7 2 8 1 9 10 11 11 12 15 13 16 14
REMARK SMILES IDX 17 15 12 17 13 18 14 19
REMARK H PARENT
REMARK Flexibility Score: 70.00
ROOT
ATOM      1  C   UNL     1      15.686  25.661  26.899  1.00  0.00     0.136 C 
ATOM      2  O   UNL     1      15.336  24.565  26.481  1.00  0.00    -0.299 OA
ENDROOT
BRANCH   1   3
ATOM      3  C   UNL     1      15.950  26.752  25.875  1.00  0.00     0.053 C 
ATOM      4  C   UNL     1      17.179  26.541  24.977  1.00  0.00     0.016 C 
BRANCH   3   5
ATOM      5  C   UNL     1      14.656  27.163  25.128  1.00  0.00     0.015 C 
BRANCH   5   6
ATOM      6  C   UNL     1      13.848  28.401  25.597  1.00  0.00     0.028 C 
BRANCH   6   7
ATOM      7  C   UNL     1      12.629  28.198  26.466  1.00  0.00    -0.028 C 
ATOM      8  C   UNL     1      12.487  28.591  27.751  1.00  0.00    -0.070 CG0
ATOM      9  C   UNL     1      11.090  28.617  28.321  1.00  0.00     0.039 C 
ATOM     10  G   UNL     1      13.637  29.093  28.596  1.00  0.00     0.000 G0
ENDBRANCH   6   7
ENDBRANCH   5   6
ENDBRANCH   3   5
ENDBRANCH   1   3
BRANCH   1  11
ATOM     11  C   UNL     1      15.746  25.879  28.394  1.00  0.00     0.087 C 
BRANCH  11  12
ATOM     12  C   UNL     1      15.756  27.385  28.798  1.00  0.00     0.066 C 
BRANCH  12  13
ATOM     13  C   UNL     1      14.401  27.934  29.268  1.00  0.00     0.140 C 
ATOM     14  O   UNL     1      13.917  27.481  30.295  1.00  0.00    -0.299 OA
BRANCH  13  15
ATOM     15  C   UNL     1      13.655  29.075  28.599  1.00  0.00     0.106 CG0
ATOM     16  G   UNL     1      12.487  28.593  27.767  1.00  0.00     0.000 G0
ENDBRANCH  13  15
ENDBRANCH  12  13
BRANCH  12  17
ATOM     17  C   UNL     1      16.894  27.721  29.824  1.00  0.00    -0.006 C 
ATOM     18  C   UNL     1      18.150  26.858  29.646  1.00  0.00     0.008 C 
ATOM     19  C   UNL     1      17.269  29.213  29.827  1.00  0.00     0.008 C 
ENDBRANCH  12  17
ENDBRANCH  11  12
ENDBRANCH   1  11
TORSDOF 1
ENDMDL
MODEL 7
REMARK VINA RESULT:    -2.753      2.749      4.563
REMARK INTER + INTRA:          -4.377
REMARK INTER:                  -4.290
REMARK INTRA:                  -0.087
REMARK UNBOUND:                -0.175
REMARK SMILES CC1=CCC[C@H](C)C(=O)C[C@H](C(C)C)C(=O)C1
REMARK SMILES IDX 8 1 9 2 6 3 7 4 5 5 4 6 3 7 2 8 1 9 10 11 11 12 15 13 16 14
REMARK SMILES IDX 17 15 12 17 13 18 14 19
REMARK H PARENT
REMARK Flexibility Score: 70.00
ROOT
ATOM      1  C   UNL     1      16.316  27.245  25.526  1.00  0.00     0.136 C 
ATOM      2  O   UNL     1      17.410  27.236  24.979  1.00  0.00    -0.299 OA
ENDROOT
BRANCH   1   3
ATOM      3  C   UNL     1      15.400  26.058  25.287  1.00  0.00     0.053 C 
ATOM      4  C   UNL     1      15.552  24.888  26.273  1.00  0.00     0.016 C 
BRANCH   3   5
ATOM      5  C   UNL     1      13.940  26.503  25.020  1.00  0.00     0.015 C 
BRANCH   5   6
ATOM      6  C   UNL     1      13.657  27.767  24.167  1.00  0.00     0.028 C 
BRANCH   6   7
ATOM      7  C   UNL     1      12.694  28.806  24.688  1.00  0.00    -0.028 C 
ATOM      8  C   UNL     1      12.906  30.140  24.741  1.00  0.00    -0.070 CG0
ATOM      9  C   UNL     1      11.705  31.028  24.956  1.00  0.00     0.039 C 
ATOM     10  G   UNL     1      14.257  30.775  24.495  1.00  0.00     0.000 G0
ENDBRANCH   6   7
ENDBRANCH   5   6
ENDBRANCH   3   5
ENDBRANCH   1   3
BRANCH   1  11
ATOM     11  C   UNL     1      15.987  28.386  26.463  1.00  0.00     0.087 C 
BRANCH  11  12
ATOM     12  C   UNL     1      16.344  29.787  25.877  1.00  0.00     0.066 C 
BRANCH  12  13
ATOM     13  C   UNL     1      15.151  30.742  25.719  1.00  0.00     0.140 C 
ATOM     14  O   UNL     1      14.955  31.573  26.594  1.00  0.00    -0.299 OA
BRANCH  13  15
ATOM     15  C   UNL     1      14.246  30.795  24.502  1.00  0.00     0.106 CG0
ATOM     16  G   UNL     1      12.906  30.134  24.749  1.00  0.00     0.000 G0
ENDBRANCH  13  15
ENDBRANCH  12  13
BRANCH  12  17
ATOM     17  C   UNL     1      17.525  30.473  26.649  1.00  0.00    -0.006 C 
ATOM     18  C   UNL     1      17.754  29.896  28.053  1.00  0.00     0.008 C 
ATOM     19  C   UNL     1      18.840  30.465  25.850  1.00  0.00     0.008 C 
ENDBRANCH  12  17
ENDBRANCH  11  12
ENDBRANCH   1  11
TORSDOF 1
ENDMDL
MODEL 8
REMARK VINA RESULT:    -2.743      2.557      4.376
REMARK INTER + INTRA:          -4.361
REMARK INTER:                  -4.111
REMARK INTRA:                  -0.250
REMARK UNBOUND:                -0.175
REMARK SMILES CC1=CCC[C@H](C)C(=O)C[C@H](C(C)C)C(=O)C1
REMARK SMILES IDX 8 1 9 2 6 3 7 4 5 5 4 6 3 7 2 8 1 9 10 11 11 12 15 13 16 14
REMARK SMILES IDX 17 15 12 17 13 18 14 19
REMARK H PARENT
REMARK Flexibility Score: 70.00
ROOT
ATOM      1  C   UNL     1      13.442  27.855  26.444  1.00  0.00     0.136 C 
ATOM      2  O   UNL     1      12.710  28.538  25.742  1.00  0.00    -0.299 OA
ENDROOT
BRANCH   1   3
ATOM      3  C   UNL     1      14.350  26.854  25.750  1.00  0.00     0.053 C 
ATOM      4  C   UNL     1      13.697  26.023  24.634  1.00  0.00     0.016 C 
BRANCH   3   5
ATOM      5  C   UNL     1      15.720  27.479  25.385  1.00  0.00     0.015 C 
BRANCH   5   6
ATOM      6  C   UNL     1      16.985  27.109  26.201  1.00  0.00     0.028 C 
BRANCH   6   7
ATOM      7  C   UNL     1      17.236  27.794  27.523  1.00  0.00    -0.028 C 
ATOM      8  C   UNL     1      16.898  27.326  28.745  1.00  0.00    -0.070 CG0
ATOM      9  C   UNL     1      17.544  27.976  29.943  1.00  0.00     0.039 C 
ATOM     10  G   UNL     1      15.993  26.131  28.954  1.00  0.00     0.000 G0
ENDBRANCH   6   7
ENDBRANCH   5   6
ENDBRANCH   3   5
ENDBRANCH   1   3
BRANCH   1  11
ATOM     11  C   UNL     1      13.458  28.111  27.935  1.00  0.00     0.087 C 
BRANCH  11  12
ATOM     12  C   UNL     1      13.387  26.806  28.786  1.00  0.00     0.066 C 
BRANCH  12  13
ATOM     13  C   UNL     1      14.658  26.492  29.588  1.00  0.00     0.140 C 
ATOM     14  O   UNL     1      14.578  26.456  30.808  1.00  0.00    -0.299 OA
BRANCH  13  15
ATOM     15  C   UNL     1      15.997  26.125  28.973  1.00  0.00     0.106 CG0
ATOM     16  G   UNL     1      16.880  27.333  28.748  1.00  0.00     0.000 G0
ENDBRANCH  13  15
ENDBRANCH  12  13
BRANCH  12  17
ATOM     17  C   UNL     1      12.111  26.755  29.696  1.00  0.00    -0.006 C 
ATOM     18  C   UNL     1      10.965  27.643  29.192  1.00  0.00     0.008 C 
ATOM     19  C   UNL     1      11.608  25.320  29.932  1.00  0.00     0.008 C 
ENDBRANCH  12  17
ENDBRANCH  11  12
ENDBRANCH   1  11
TORSDOF 1
ENDMDL
MODEL 9
REMARK VINA RESULT:    -2.740      2.976      5.254
REMARK INTER + INTRA:          -4.356
REMARK INTER:                  -4.114
REMARK INTRA:                  -0.241
REMARK UNBOUND:                -0.175
REMARK SMILES CC1=CCC[C@H](C)C(=O)C[C@H](C(C)C)C(=O)C1
REMARK SMILES IDX 8 1 9 2 6 3 7 4 5 5 4 6 3 7 2 8 1 9 10 11 11 12 15 13 16 14
REMARK SMILES IDX 17 15 12 17 13 18 14 19
REMARK H PARENT
REMARK Flexibility Score: 70.00
ROOT
ATOM      1  C   UNL     1      12.749  27.564  27.552  1.00  0.00     0.136 C 
ATOM      2  O   UNL     1      12.996  28.116  26.488  1.00  0.00    -0.299 OA
ENDROOT
BRANCH   1   3
ATOM      3  C   UNL     1      11.620  28.132  28.394  1.00  0.00     0.053 C 
ATOM      4  C   UNL     1      10.463  28.776  27.612  1.00  0.00     0.016 C 
BRANCH   3   5
ATOM      5  C   UNL     1      11.188  27.150  29.512  1.00  0.00     0.015 C 
BRANCH   5   6
ATOM      6  C   UNL     1      11.777  27.290  30.939  1.00  0.00     0.028 C 
BRANCH   6   7
ATOM      7  C   UNL     1      12.340  26.069  31.626  1.00  0.00    -0.028 C 
ATOM      8  C   UNL     1      13.648  25.793  31.826  1.00  0.00    -0.070 CG0
ATOM      9  C   UNL     1      13.989  24.721  32.831  1.00  0.00     0.039 C 
ATOM     10  G   UNL     1      14.768  26.571  31.169  1.00  0.00     0.000 G0
ENDBRANCH   6   7
ENDBRANCH   5   6
ENDBRANCH   3   5
ENDBRANCH   1   3
BRANCH   1  11
ATOM     11  C   UNL     1      13.520  26.314  27.913  1.00  0.00     0.087 C 
BRANCH  11  12
ATOM     12  C   UNL     1      14.943  26.609  28.480  1.00  0.00     0.066 C 
BRANCH  12  13
ATOM     13  C   UNL     1      15.228  25.992  29.857  1.00  0.00     0.140 C 
ATOM     14  O   UNL     1      15.930  24.992  29.909  1.00  0.00    -0.299 OA
BRANCH  13  15
ATOM     15  C   UNL     1      14.779  26.589  31.179  1.00  0.00     0.106 CG0
ATOM     16  G   UNL     1      13.661  25.797  31.821  1.00  0.00     0.000 G0
ENDBRANCH  13  15
ENDBRANCH  12  13
BRANCH  12  17
ATOM     17  C   UNL     1      16.078  26.263  27.454  1.00  0.00    -0.006 C 
ATOM     18  C   UNL     1      15.636  25.278  26.364  1.00  0.00     0.008 C 
ATOM     19  C   UNL     1      16.703  27.516  26.817  1.00  0.00     0.008 C 
ENDBRANCH  12  17
ENDBRANCH  11  12
ENDBRANCH   1  11
TORSDOF 1
ENDMDL
