MODEL 1
REMARK VINA RESULT:    -4.487      0.000      0.000
REMARK INTER + INTRA:          -5.411
REMARK INTER:                  -5.143
REMARK INTRA:                  -0.268
REMARK UNBOUND:                -0.268
REMARK SMILES COc1ccc(C=O)c(O)c1
REMARK SMILES IDX 3 1 11 2 9 3 6 4 5 5 4 6 2 7 1 8 10 9 7 11 8 12
REMARK H PARENT 10 10
REMARK Flexibility Score: inf
ROOT
ATOM      1  C   UNL     1     -16.261  44.453  33.129  1.00  0.00     0.122 A 
ATOM      2  C   UNL     1     -15.265  44.432  34.108  1.00  0.00     0.093 A 
ATOM      3  C   UNL     1     -13.908  44.470  33.763  1.00  0.00     0.129 A 
ATOM      4  C   UNL     1     -13.530  44.522  32.397  1.00  0.00     0.056 A 
ATOM      5  C   UNL     1     -14.542  44.547  31.418  1.00  0.00     0.019 A 
ATOM      6  C   UNL     1     -15.890  44.514  31.776  1.00  0.00     0.047 A 
ENDROOT
BRANCH   1   7
ATOM      7  O   UNL     1     -17.602  44.414  33.541  1.00  0.00    -0.497 OA
ATOM      8  C   UNL     1     -18.655  43.813  32.795  1.00  0.00     0.278 C 
ENDBRANCH   1   7
BRANCH   3   9
ATOM      9  O   UNL     1     -12.980  44.465  34.809  1.00  0.00    -0.507 OA
ATOM     10  H   UNL     1     -13.212  44.635  35.776  1.00  0.00     0.293 HD
ENDBRANCH   3   9
BRANCH   4  11
ATOM     11  C   UNL     1     -12.111  44.533  31.967  1.00  0.00     0.263 C 
ATOM     12  O   UNL     1     -11.269  43.765  32.504  1.00  0.00    -0.298 OA
ENDBRANCH   4  11
TORSDOF 3
ENDMDL
MODEL 2
REMARK VINA RESULT:    -4.360      1.564      4.977
REMARK INTER + INTRA:          -5.266
REMARK INTER:                  -4.997
REMARK INTRA:                  -0.269
REMARK UNBOUND:                -0.268
REMARK SMILES COc1ccc(C=O)c(O)c1
REMARK SMILES IDX 3 1 11 2 9 3 6 4 5 5 4 6 2 7 1 8 10 9 7 11 8 12
REMARK H PARENT 10 10
REMARK Flexibility Score: inf
ROOT
ATOM      1  C   UNL     1     -14.434  44.547  31.857  1.00  0.00     0.122 A 
ATOM      2  C   UNL     1     -15.540  44.663  31.012  1.00  0.00     0.093 A 
ATOM      3  C   UNL     1     -16.845  44.653  31.519  1.00  0.00     0.129 A 
ATOM      4  C   UNL     1     -17.058  44.511  32.914  1.00  0.00     0.056 A 
ATOM      5  C   UNL     1     -15.937  44.398  33.759  1.00  0.00     0.019 A 
ATOM      6  C   UNL     1     -14.641  44.416  33.240  1.00  0.00     0.047 A 
ENDROOT
BRANCH   1   7
ATOM      7  O   UNL     1     -13.153  44.566  31.286  1.00  0.00    -0.497 OA
ATOM      8  C   UNL     1     -11.956  44.239  31.986  1.00  0.00     0.278 C 
ENDBRANCH   1   7
BRANCH   3   9
ATOM      9  O   UNL     1     -17.891  44.795  30.601  1.00  0.00    -0.507 OA
ATOM     10  H   UNL     1     -17.810  45.272  29.715  1.00  0.00     0.293 HD
ENDBRANCH   3   9
BRANCH   4  11
ATOM     11  C   UNL     1     -18.415  44.462  33.507  1.00  0.00     0.263 C 
ATOM     12  O   UNL     1     -19.356  43.868  32.917  1.00  0.00    -0.298 OA
ENDBRANCH   4  11
TORSDOF 3
ENDMDL
MODEL 3
REMARK VINA RESULT:    -4.354      2.400      5.131
REMARK INTER + INTRA:          -5.259
REMARK INTER:                  -4.998
REMARK INTRA:                  -0.260
REMARK UNBOUND:                -0.268
REMARK SMILES COc1ccc(C=O)c(O)c1
REMARK SMILES IDX 3 1 11 2 9 3 6 4 5 5 4 6 2 7 1 8 10 9 7 11 8 12
REMARK H PARENT 10 10
REMARK Flexibility Score: inf
ROOT
ATOM      1  C   UNL     1     -15.530  44.419  31.332  1.00  0.00     0.122 A 
ATOM      2  C   UNL     1     -16.868  44.458  30.934  1.00  0.00     0.093 A 
ATOM      3  C   UNL     1     -17.878  43.904  31.730  1.00  0.00     0.129 A 
ATOM      4  C   UNL     1     -17.544  43.280  32.959  1.00  0.00     0.056 A 
ATOM      5  C   UNL     1     -16.192  43.249  33.354  1.00  0.00     0.019 A 
ATOM      6  C   UNL     1     -15.197  43.811  32.554  1.00  0.00     0.047 A 
ENDROOT
BRANCH   1   7
ATOM      7  O   UNL     1     -14.566  44.994  30.491  1.00  0.00    -0.497 OA
ATOM      8  C   UNL     1     -13.204  44.582  30.428  1.00  0.00     0.278 C 
ENDBRANCH   1   7
BRANCH   3   9
ATOM      9  O   UNL     1     -19.192  44.006  31.262  1.00  0.00    -0.507 OA
ATOM     10  H   UNL     1     -19.888  43.282  31.357  1.00  0.00     0.293 HD
ENDBRANCH   3   9
BRANCH   4  11
ATOM     11  C   UNL     1     -18.564  42.649  33.830  1.00  0.00     0.263 C 
ATOM     12  O   UNL     1     -19.392  41.824  33.359  1.00  0.00    -0.298 OA
ENDBRANCH   4  11
TORSDOF 3
ENDMDL
MODEL 4
REMARK VINA RESULT:    -4.305      4.124      5.574
REMARK INTER + INTRA:          -5.202
REMARK INTER:                  -4.958
REMARK INTRA:                  -0.245
REMARK UNBOUND:                -0.268
REMARK SMILES COc1ccc(C=O)c(O)c1
REMARK SMILES IDX 3 1 11 2 9 3 6 4 5 5 4 6 2 7 1 8 10 9 7 11 8 12
REMARK H PARENT 10 10
REMARK Flexibility Score: inf
ROOT
ATOM      1  C   UNL     1     -17.092  41.285  31.281  1.00  0.00     0.122 A 
ATOM      2  C   UNL     1     -17.152  42.618  30.868  1.00  0.00     0.093 A 
ATOM      3  C   UNL     1     -17.896  43.567  31.580  1.00  0.00     0.129 A 
ATOM      4  C   UNL     1     -18.614  43.172  32.738  1.00  0.00     0.056 A 
ATOM      5  C   UNL     1     -18.545  41.827  33.149  1.00  0.00     0.019 A 
ATOM      6  C   UNL     1     -17.794  40.894  32.432  1.00  0.00     0.047 A 
ENDROOT
BRANCH   1   7
ATOM      7  O   UNL     1     -16.327  40.385  30.524  1.00  0.00    -0.497 OA
ATOM      8  C   UNL     1     -16.360  38.971  30.683  1.00  0.00     0.278 C 
ENDBRANCH   1   7
BRANCH   3   9
ATOM      9  O   UNL     1     -17.882  44.881  31.105  1.00  0.00    -0.507 OA
ATOM     10  H   UNL     1     -18.640  45.537  31.224  1.00  0.00     0.293 HD
ENDBRANCH   3   9
BRANCH   4  11
ATOM     11  C   UNL     1     -19.444  44.122  33.517  1.00  0.00     0.263 C 
ATOM     12  O   UNL     1     -18.939  45.164  34.012  1.00  0.00    -0.298 OA
ENDBRANCH   4  11
TORSDOF 3
ENDMDL
MODEL 5
REMARK VINA RESULT:    -4.234      2.242      3.218
REMARK INTER + INTRA:          -5.121
REMARK INTER:                  -5.067
REMARK INTRA:                  -0.054
REMARK UNBOUND:                -0.268
REMARK SMILES COc1ccc(C=O)c(O)c1
REMARK SMILES IDX 3 1 11 2 9 3 6 4 5 5 4 6 2 7 1 8 10 9 7 11 8 12
REMARK H PARENT 10 10
REMARK Flexibility Score: inf
ROOT
ATOM      1  C   UNL     1     -17.738  43.859  32.937  1.00  0.00     0.122 A 
ATOM      2  C   UNL     1     -17.932  44.395  31.662  1.00  0.00     0.093 A 
ATOM      3  C   UNL     1     -16.847  44.713  30.835  1.00  0.00     0.129 A 
ATOM      4  C   UNL     1     -15.524  44.501  31.299  1.00  0.00     0.056 A 
ATOM      5  C   UNL     1     -15.338  43.958  32.584  1.00  0.00     0.019 A 
ATOM      6  C   UNL     1     -16.429  43.639  33.394  1.00  0.00     0.047 A 
ENDROOT
BRANCH   1   7
ATOM      7  O   UNL     1     -18.867  43.560  33.714  1.00  0.00    -0.497 OA
ATOM      8  C   UNL     1     -19.382  42.248  33.911  1.00  0.00     0.278 C 
ENDBRANCH   1   7
BRANCH   3   9
ATOM      9  O   UNL     1     -17.136  45.226  29.567  1.00  0.00    -0.507 OA
ATOM     10  H   UNL     1     -17.077  46.203  29.321  1.00  0.00     0.293 HD
ENDBRANCH   3   9
BRANCH   4  11
ATOM     11  C   UNL     1     -14.334  44.846  30.484  1.00  0.00     0.263 C 
ATOM     12  O   UNL     1     -13.506  43.960  30.144  1.00  0.00    -0.298 OA
ENDBRANCH   4  11
TORSDOF 3
ENDMDL
MODEL 6
REMARK VINA RESULT:    -4.222      2.196      4.555
REMARK INTER + INTRA:          -5.108
REMARK INTER:                  -4.840
REMARK INTRA:                  -0.267
REMARK UNBOUND:                -0.268
REMARK SMILES COc1ccc(C=O)c(O)c1
REMARK SMILES IDX 3 1 11 2 9 3 6 4 5 5 4 6 2 7 1 8 10 9 7 11 8 12
REMARK H PARENT 10 10
REMARK Flexibility Score: inf
ROOT
ATOM      1  C   UNL     1     -15.498  44.571  31.238  1.00  0.00     0.122 A 
ATOM      2  C   UNL     1     -15.283  43.855  32.418  1.00  0.00     0.093 A 
ATOM      3  C   UNL     1     -16.354  43.389  33.190  1.00  0.00     0.129 A 
ATOM      4  C   UNL     1     -17.685  43.655  32.780  1.00  0.00     0.056 A 
ATOM      5  C   UNL     1     -17.893  44.374  31.587  1.00  0.00     0.019 A 
ATOM      6  C   UNL     1     -16.815  44.827  30.824  1.00  0.00     0.047 A 
ENDROOT
BRANCH   1   7
ATOM      7  O   UNL     1     -14.382  45.008  30.509  1.00  0.00    -0.497 OA
ATOM      8  C   UNL     1     -13.265  44.188  30.181  1.00  0.00     0.278 C 
ENDBRANCH   1   7
BRANCH   3   9
ATOM      9  O   UNL     1     -16.044  42.664  34.345  1.00  0.00    -0.507 OA
ATOM     10  H   UNL     1     -15.105  42.453  34.650  1.00  0.00     0.293 HD
ENDBRANCH   3   9
BRANCH   4  11
ATOM     11  C   UNL     1     -18.860  43.216  33.570  1.00  0.00     0.263 C 
ATOM     12  O   UNL     1     -18.884  42.078  34.112  1.00  0.00    -0.298 OA
ENDBRANCH   4  11
TORSDOF 3
ENDMDL
MODEL 7
REMARK VINA RESULT:    -4.205      1.499      4.345
REMARK INTER + INTRA:          -5.087
REMARK INTER:                  -4.829
REMARK INTRA:                  -0.258
REMARK UNBOUND:                -0.268
REMARK SMILES COc1ccc(C=O)c(O)c1
REMARK SMILES IDX 3 1 11 2 9 3 6 4 5 5 4 6 2 7 1 8 10 9 7 11 8 12
REMARK H PARENT 10 10
REMARK Flexibility Score: inf
ROOT
ATOM      1  C   UNL     1     -12.389  44.500  31.177  1.00  0.00     0.122 A 
ATOM      2  C   UNL     1     -12.317  44.225  32.544  1.00  0.00     0.093 A 
ATOM      3  C   UNL     1     -13.476  44.057  33.313  1.00  0.00     0.129 A 
ATOM      4  C   UNL     1     -14.750  44.178  32.701  1.00  0.00     0.056 A 
ATOM      5  C   UNL     1     -14.812  44.452  31.321  1.00  0.00     0.019 A 
ATOM      6  C   UNL     1     -13.649  44.610  30.567  1.00  0.00     0.047 A 
ENDROOT
BRANCH   1   7
ATOM      7  O   UNL     1     -11.191  44.655  30.463  1.00  0.00    -0.497 OA
ATOM      8  C   UNL     1     -11.116  44.949  29.072  1.00  0.00     0.278 C 
ENDBRANCH   1   7
BRANCH   3   9
ATOM      9  O   UNL     1     -13.309  43.764  34.670  1.00  0.00    -0.507 OA
ATOM     10  H   UNL     1     -13.344  44.451  35.409  1.00  0.00     0.293 HD
ENDBRANCH   3   9
BRANCH   4  11
ATOM     11  C   UNL     1     -16.012  44.042  33.467  1.00  0.00     0.263 C 
ATOM     12  O   UNL     1     -16.232  43.021  34.172  1.00  0.00    -0.298 OA
ENDBRANCH   4  11
TORSDOF 3
ENDMDL
MODEL 8
REMARK VINA RESULT:    -4.145      1.395      2.156
REMARK INTER + INTRA:          -5.019
REMARK INTER:                  -4.750
REMARK INTRA:                  -0.268
REMARK UNBOUND:                -0.268
REMARK SMILES COc1ccc(C=O)c(O)c1
REMARK SMILES IDX 3 1 11 2 9 3 6 4 5 5 4 6 2 7 1 8 10 9 7 11 8 12
REMARK H PARENT 10 10
REMARK Flexibility Score: inf
ROOT
ATOM      1  C   UNL     1     -16.931  44.064  32.547  1.00  0.00     0.122 A 
ATOM      2  C   UNL     1     -16.139  44.533  31.496  1.00  0.00     0.093 A 
ATOM      3  C   UNL     1     -14.754  44.677  31.639  1.00  0.00     0.129 A 
ATOM      4  C   UNL     1     -14.137  44.354  32.875  1.00  0.00     0.056 A 
ATOM      5  C   UNL     1     -14.942  43.879  33.927  1.00  0.00     0.019 A 
ATOM      6  C   UNL     1     -16.321  43.734  33.768  1.00  0.00     0.047 A 
ENDROOT
BRANCH   1   7
ATOM      7  O   UNL     1     -18.313  43.940  32.338  1.00  0.00    -0.497 OA
ATOM      8  C   UNL     1     -19.292  44.018  33.368  1.00  0.00     0.278 C 
ENDBRANCH   1   7
BRANCH   3   9
ATOM      9  O   UNL     1     -14.038  45.134  30.528  1.00  0.00    -0.507 OA
ATOM     10  H   UNL     1     -14.303  45.932  29.970  1.00  0.00     0.293 HD
ENDBRANCH   3   9
BRANCH   4  11
ATOM     11  C   UNL     1     -12.680  44.515  33.098  1.00  0.00     0.263 C 
ATOM     12  O   UNL     1     -11.851  44.196  32.204  1.00  0.00    -0.298 OA
ENDBRANCH   4  11
TORSDOF 3
ENDMDL
MODEL 9
REMARK VINA RESULT:    -4.114      2.482      3.135
REMARK INTER + INTRA:          -4.983
REMARK INTER:                  -4.734
REMARK INTRA:                  -0.249
REMARK UNBOUND:                -0.268
REMARK SMILES COc1ccc(C=O)c(O)c1
REMARK SMILES IDX 3 1 11 2 9 3 6 4 5 5 4 6 2 7 1 8 10 9 7 11 8 12
REMARK H PARENT 10 10
REMARK Flexibility Score: inf
ROOT
ATOM      1  C   UNL     1     -16.570  42.078  31.959  1.00  0.00     0.122 A 
ATOM      2  C   UNL     1     -15.263  41.973  32.439  1.00  0.00     0.093 A 
ATOM      3  C   UNL     1     -14.699  42.977  33.235  1.00  0.00     0.129 A 
ATOM      4  C   UNL     1     -15.459  44.131  33.556  1.00  0.00     0.056 A 
ATOM      5  C   UNL     1     -16.778  44.226  33.071  1.00  0.00     0.019 A 
ATOM      6  C   UNL     1     -17.329  43.214  32.284  1.00  0.00     0.047 A 
ENDROOT
BRANCH   1   7
ATOM      7  O   UNL     1     -17.077  41.036  31.168  1.00  0.00    -0.497 OA
ATOM      8  C   UNL     1     -16.548  39.714  31.145  1.00  0.00     0.278 C 
ENDBRANCH   1   7
BRANCH   3   9
ATOM      9  O   UNL     1     -13.391  42.779  33.687  1.00  0.00    -0.507 OA
ATOM     10  H   UNL     1     -12.851  43.469  34.189  1.00  0.00     0.293 HD
ENDBRANCH   3   9
BRANCH   4  11
ATOM     11  C   UNL     1     -14.908  45.242  34.369  1.00  0.00     0.263 C 
ATOM     12  O   UNL     1     -13.664  45.413  34.467  1.00  0.00    -0.298 OA
ENDBRANCH   4  11
TORSDOF 3
ENDMDL
