MODEL 1
REMARK VINA RESULT:    -3.230      0.000      0.000
REMARK INTER + INTRA:          -4.142
REMARK INTER:                  -4.741
REMARK INTRA:                   0.598
REMARK UNBOUND:                 0.598
REMARK SMILES C=C1CC=CC(C)(C)CC=C(C)CCC1
REMARK SMILES IDX 2 1 1 2 15 3 14 4 13 5 11 6 12 7 10 8 3 10 4 11 5 12 6 13
REMARK SMILES IDX 7 14 8 15 9 16
REMARK H PARENT
REMARK Flexibility Score: 60.00
ROOT
ATOM      1  C   UNL     1      30.342   7.115  26.184  1.00  0.00    -0.074 C 
ATOM      2  C   UNL     1      29.547   6.411  25.358  1.00  0.00     0.008 C 
ENDROOT
BRANCH   1   3
ATOM      3  C   UNL     1      30.974   6.419  27.379  1.00  0.00     0.031 C 
BRANCH   3   4
ATOM      4  C   UNL     1      31.292   7.370  28.544  1.00  0.00     0.009 C 
BRANCH   4   5
ATOM      5  C   UNL     1      30.086   7.636  29.468  1.00  0.00     0.030 C 
BRANCH   5   6
ATOM      6  C   UNL     1      30.085   9.072  29.971  1.00  0.00    -0.077 C 
ATOM      7  C   UNL     1      30.777   9.387  31.271  1.00  0.00     0.039 C 
ATOM      8  C   UNL     1      29.508  10.093  29.289  1.00  0.00    -0.027 CG0
ATOM      9  G   UNL     1      28.740   9.939  27.993  1.00  0.00     0.000 G0
ENDBRANCH   5   6
ENDBRANCH   4   5
ENDBRANCH   3   4
ENDBRANCH   1   3
BRANCH   1  10
ATOM     10  C   UNL     1      30.767   8.533  25.833  1.00  0.00     0.057 C 
BRANCH  10  11
ATOM     11  C   UNL     1      29.730   9.359  25.091  1.00  0.00    -0.026 C 
ATOM     12  C   UNL     1      28.998  10.413  25.533  1.00  0.00    -0.024 C 
BRANCH  12  13
ATOM     13  C   UNL     1      28.957  11.048  26.931  1.00  0.00    -0.014 C 
ATOM     14  C   UNL     1      30.223  11.904  27.181  1.00  0.00     0.016 C 
ATOM     15  C   UNL     1      27.747  12.014  26.973  1.00  0.00     0.016 C 
BRANCH  13  16
ATOM     16  C   UNL     1      28.727   9.937  28.002  1.00  0.00     0.038 CG0
ATOM     17  G   UNL     1      29.502  10.125  29.289  1.00  0.00     0.000 G0
ENDBRANCH  13  16
ENDBRANCH  12  13
ENDBRANCH  10  11
ENDBRANCH   1  10
TORSDOF 0
ENDMDL
MODEL 2
REMARK VINA RESULT:    -3.179      1.703      2.440
REMARK INTER + INTRA:          -4.067
REMARK INTER:                  -4.761
REMARK INTRA:                   0.694
REMARK UNBOUND:                 0.598
REMARK SMILES C=C1CC=CC(C)(C)CC=C(C)CCC1
REMARK SMILES IDX 2 1 1 2 15 3 14 4 13 5 11 6 12 7 10 8 3 10 4 11 5 12 6 13
REMARK SMILES IDX 7 14 8 15 9 16
REMARK H PARENT
REMARK Flexibility Score: 60.00
ROOT
ATOM      1  C   UNL     1      30.483   7.484  29.052  1.00  0.00    -0.074 C 
ATOM      2  C   UNL     1      31.485   6.921  28.352  1.00  0.00     0.008 C 
ENDROOT
BRANCH   1   3
ATOM      3  C   UNL     1      30.522   7.442  30.571  1.00  0.00     0.031 C 
BRANCH   3   4
ATOM      4  C   UNL     1      31.227   8.654  31.201  1.00  0.00     0.009 C 
BRANCH   4   5
ATOM      5  C   UNL     1      30.256   9.749  31.684  1.00  0.00     0.030 C 
BRANCH   5   6
ATOM      6  C   UNL     1      30.650  11.114  31.140  1.00  0.00    -0.077 C 
ATOM      7  C   UNL     1      31.849  11.813  31.728  1.00  0.00     0.039 C 
ATOM      8  C   UNL     1      29.987  11.726  30.127  1.00  0.00    -0.027 CG0
ATOM      9  G   UNL     1      28.743  11.180  29.457  1.00  0.00     0.000 G0
ENDBRANCH   5   6
ENDBRANCH   4   5
ENDBRANCH   3   4
ENDBRANCH   1   3
BRANCH   1  10
ATOM     10  C   UNL     1      29.422   8.324  28.353  1.00  0.00     0.057 C 
BRANCH  10  11
ATOM     11  C   UNL     1      29.948   9.316  27.330  1.00  0.00    -0.026 C 
ATOM     12  C   UNL     1      29.637  10.628  27.170  1.00  0.00    -0.024 C 
BRANCH  12  13
ATOM     13  C   UNL     1      28.618  11.484  27.936  1.00  0.00    -0.014 C 
ATOM     14  C   UNL     1      28.769  12.979  27.564  1.00  0.00     0.016 C 
ATOM     15  C   UNL     1      27.202  11.049  27.482  1.00  0.00     0.016 C 
BRANCH  13  16
ATOM     16  C   UNL     1      28.743  11.200  29.465  1.00  0.00     0.038 CG0
ATOM     17  G   UNL     1      30.000  11.746  30.111  1.00  0.00     0.000 G0
ENDBRANCH  13  16
ENDBRANCH  12  13
ENDBRANCH  10  11
ENDBRANCH   1  10
TORSDOF 0
ENDMDL
MODEL 3
REMARK VINA RESULT:    -3.032      3.549      4.752
REMARK INTER + INTRA:          -3.852
REMARK INTER:                  -4.431
REMARK INTRA:                   0.578
REMARK UNBOUND:                 0.598
REMARK SMILES C=C1CC=CC(C)(C)CC=C(C)CCC1
REMARK SMILES IDX 2 1 1 2 15 3 14 4 13 5 11 6 12 7 10 8 3 10 4 11 5 12 6 13
REMARK SMILES IDX 7 14 8 15 9 16
REMARK H PARENT
REMARK Flexibility Score: 60.00
ROOT
ATOM      1  C   UNL     1      30.882   7.298  31.507  1.00  0.00    -0.074 C 
ATOM      2  C   UNL     1      30.083   6.410  30.887  1.00  0.00     0.008 C 
ENDROOT
BRANCH   1   3
ATOM      3  C   UNL     1      31.623   6.879  32.766  1.00  0.00     0.031 C 
BRANCH   3   4
ATOM      4  C   UNL     1      30.853   7.182  34.061  1.00  0.00     0.009 C 
BRANCH   4   5
ATOM      5  C   UNL     1      29.842   8.339  33.920  1.00  0.00     0.030 C 
BRANCH   5   6
ATOM      6  C   UNL     1      30.479   9.672  34.283  1.00  0.00    -0.077 C 
ATOM      7  C   UNL     1      31.522   9.708  35.370  1.00  0.00     0.039 C 
ATOM      8  C   UNL     1      30.169  10.834  33.655  1.00  0.00    -0.027 CG0
ATOM      9  G   UNL     1      29.117  10.977  32.575  1.00  0.00     0.000 G0
ENDBRANCH   5   6
ENDBRANCH   4   5
ENDBRANCH   3   4
ENDBRANCH   1   3
BRANCH   1  10
ATOM     10  C   UNL     1      31.199   8.641  30.863  1.00  0.00     0.057 C 
BRANCH  10  11
ATOM     11  C   UNL     1      30.093   9.228  30.003  1.00  0.00    -0.026 C 
ATOM     12  C   UNL     1      29.458  10.422  30.120  1.00  0.00    -0.024 C 
BRANCH  12  13
ATOM     13  C   UNL     1      29.627  11.510  31.191  1.00  0.00    -0.014 C 
ATOM     14  C   UNL     1      31.090  12.017  31.230  1.00  0.00     0.016 C 
ATOM     15  C   UNL     1      28.746  12.715  30.779  1.00  0.00     0.016 C 
BRANCH  13  16
ATOM     16  C   UNL     1      29.109  10.977  32.562  1.00  0.00     0.038 CG0
ATOM     17  G   UNL     1      30.168  10.854  33.637  1.00  0.00     0.000 G0
ENDBRANCH  13  16
ENDBRANCH  12  13
ENDBRANCH  10  11
ENDBRANCH   1  10
TORSDOF 0
ENDMDL
MODEL 4
REMARK VINA RESULT:    -3.005      1.793      4.150
REMARK INTER + INTRA:          -3.812
REMARK INTER:                  -4.472
REMARK INTRA:                   0.660
REMARK UNBOUND:                 0.598
REMARK SMILES C=C1CC=CC(C)(C)CC=C(C)CCC1
REMARK SMILES IDX 2 1 1 2 15 3 14 4 13 5 11 6 12 7 10 8 3 10 4 11 5 12 6 13
REMARK SMILES IDX 7 14 8 15 9 16
REMARK H PARENT
REMARK Flexibility Score: 60.00
ROOT
ATOM      1  C   UNL     1      29.473  13.195  27.077  1.00  0.00    -0.074 C 
ATOM      2  C   UNL     1      28.636  14.139  27.543  1.00  0.00     0.008 C 
ENDROOT
BRANCH   1   3
ATOM      3  C   UNL     1      30.482  12.564  28.024  1.00  0.00     0.031 C 
BRANCH   3   4
ATOM      4  C   UNL     1      29.836  11.728  29.140  1.00  0.00     0.009 C 
BRANCH   4   5
ATOM      5  C   UNL     1      28.756  10.751  28.631  1.00  0.00     0.030 C 
BRANCH   5   6
ATOM      6  C   UNL     1      29.364   9.411  28.247  1.00  0.00    -0.077 C 
ATOM      7  C   UNL     1      30.176   8.661  29.271  1.00  0.00     0.039 C 
ATOM      8  C   UNL     1      29.189   8.841  27.028  1.00  0.00    -0.027 CG0
ATOM      9  G   UNL     1      28.438   9.480  25.879  1.00  0.00     0.000 G0
ENDBRANCH   5   6
ENDBRANCH   4   5
ENDBRANCH   3   4
ENDBRANCH   1   3
BRANCH   1  10
ATOM     10  C   UNL     1      29.296  12.619  25.680  1.00  0.00     0.057 C 
BRANCH  10  11
ATOM     11  C   UNL     1      30.441  11.753  25.183  1.00  0.00    -0.026 C 
ATOM     12  C   UNL     1      30.408  10.492  24.682  1.00  0.00    -0.024 C 
BRANCH  12  13
ATOM     13  C   UNL     1      29.211   9.542  24.524  1.00  0.00    -0.014 C 
ATOM     14  C   UNL     1      28.329   9.968  23.325  1.00  0.00     0.016 C 
ATOM     15  C   UNL     1      29.768   8.135  24.195  1.00  0.00     0.016 C 
BRANCH  13  16
ATOM     16  C   UNL     1      28.435   9.451  25.875  1.00  0.00     0.038 CG0
ATOM     17  G   UNL     1      29.217   8.832  27.015  1.00  0.00     0.000 G0
ENDBRANCH  13  16
ENDBRANCH  12  13
ENDBRANCH  10  11
ENDBRANCH   1  10
TORSDOF 0
ENDMDL
MODEL 5
REMARK VINA RESULT:    -2.955      1.748      3.924
REMARK INTER + INTRA:          -3.739
REMARK INTER:                  -4.072
REMARK INTRA:                   0.333
REMARK UNBOUND:                 0.598
REMARK SMILES C=C1CC=CC(C)(C)CC=C(C)CCC1
REMARK SMILES IDX 2 1 1 2 15 3 14 4 13 5 11 6 12 7 10 8 3 10 4 11 5 12 6 13
REMARK SMILES IDX 7 14 8 15 9 16
REMARK H PARENT
REMARK Flexibility Score: 60.00
ROOT
ATOM      1  C   UNL     1      29.824   7.609  26.526  1.00  0.00    -0.074 C 
ATOM      2  C   UNL     1      29.537   6.377  26.069  1.00  0.00     0.008 C 
ENDROOT
BRANCH   1   3
ATOM      3  C   UNL     1      31.019   8.354  25.952  1.00  0.00     0.031 C 
BRANCH   3   4
ATOM      4  C   UNL     1      30.857   8.721  24.468  1.00  0.00     0.009 C 
BRANCH   4   5
ATOM      5  C   UNL     1      30.630  10.228  24.227  1.00  0.00     0.030 C 
BRANCH   5   6
ATOM      6  C   UNL     1      29.148  10.572  24.261  1.00  0.00    -0.077 C 
ATOM      7  C   UNL     1      28.271  10.126  23.120  1.00  0.00     0.039 C 
ATOM      8  C   UNL     1      28.569  11.244  25.288  1.00  0.00    -0.027 CG0
ATOM      9  G   UNL     1      29.314  11.796  26.486  1.00  0.00     0.000 G0
ENDBRANCH   5   6
ENDBRANCH   4   5
ENDBRANCH   3   4
ENDBRANCH   1   3
BRANCH   1  10
ATOM     10  C   UNL     1      28.866   8.336  27.459  1.00  0.00     0.057 C 
BRANCH  10  11
ATOM     11  C   UNL     1      29.522   9.216  28.509  1.00  0.00    -0.026 C 
ATOM     12  C   UNL     1      29.405  10.555  28.701  1.00  0.00    -0.024 C 
BRANCH  12  13
ATOM     13  C   UNL     1      28.622  11.588  27.878  1.00  0.00    -0.014 C 
ATOM     14  C   UNL     1      27.132  11.184  27.767  1.00  0.00     0.016 C 
ATOM     15  C   UNL     1      28.667  12.933  28.646  1.00  0.00     0.016 C 
BRANCH  13  16
ATOM     16  C   UNL     1      29.322  11.795  26.499  1.00  0.00     0.038 CG0
ATOM     17  G   UNL     1      28.568  11.232  25.312  1.00  0.00     0.000 G0
ENDBRANCH  13  16
ENDBRANCH  12  13
ENDBRANCH  10  11
ENDBRANCH   1  10
TORSDOF 0
ENDMDL
MODEL 6
REMARK VINA RESULT:    -2.856      6.273      9.245
REMARK INTER + INTRA:          -3.593
REMARK INTER:                  -4.031
REMARK INTRA:                   0.439
REMARK UNBOUND:                 0.598
REMARK SMILES C=C1CC=CC(C)(C)CC=C(C)CCC1
REMARK SMILES IDX 2 1 1 2 15 3 14 4 13 5 11 6 12 7 10 8 3 10 4 11 5 12 6 13
REMARK SMILES IDX 7 14 8 15 9 16
REMARK H PARENT
REMARK Flexibility Score: 60.00
ROOT
ATOM      1  C   UNL     1      30.606   9.286  38.541  1.00  0.00    -0.074 C 
ATOM      2  C   UNL     1      30.660  10.390  39.307  1.00  0.00     0.008 C 
ENDROOT
BRANCH   1   3
ATOM      3  C   UNL     1      29.474   8.292  38.747  1.00  0.00     0.031 C 
BRANCH   3   4
ATOM      4  C   UNL     1      28.128   8.772  38.179  1.00  0.00     0.009 C 
BRANCH   4   5
ATOM      5  C   UNL     1      27.950   8.471  36.677  1.00  0.00     0.030 C 
BRANCH   5   6
ATOM      6  C   UNL     1      28.092   9.735  35.842  1.00  0.00    -0.077 C 
ATOM      7  C   UNL     1      27.477  11.014  36.349  1.00  0.00     0.039 C 
ATOM      8  C   UNL     1      28.771   9.774  34.669  1.00  0.00    -0.027 CG0
ATOM      9  G   UNL     1      29.409   8.573  34.002  1.00  0.00     0.000 G0
ENDBRANCH   5   6
ENDBRANCH   4   5
ENDBRANCH   3   4
ENDBRANCH   1   3
BRANCH   1  10
ATOM     10  C   UNL     1      31.545   9.116  37.354  1.00  0.00     0.057 C 
BRANCH  10  11
ATOM     11  C   UNL     1      31.480   7.765  36.661  1.00  0.00    -0.026 C 
ATOM     12  C   UNL     1      31.261   7.483  35.352  1.00  0.00    -0.024 C 
BRANCH  12  13
ATOM     13  C   UNL     1      30.956   8.442  34.190  1.00  0.00    -0.014 C 
ATOM     14  C   UNL     1      31.669   9.800  34.400  1.00  0.00     0.016 C 
ATOM     15  C   UNL     1      31.546   7.820  32.900  1.00  0.00     0.016 C 
BRANCH  13  16
ATOM     16  C   UNL     1      29.412   8.563  34.006  1.00  0.00     0.038 CG0
ATOM     17  G   UNL     1      28.786   9.774  34.667  1.00  0.00     0.000 G0
ENDBRANCH  13  16
ENDBRANCH  12  13
ENDBRANCH  10  11
ENDBRANCH   1  10
TORSDOF 0
ENDMDL
MODEL 7
REMARK VINA RESULT:    -2.843      2.312      4.616
REMARK INTER + INTRA:          -3.575
REMARK INTER:                  -4.232
REMARK INTRA:                   0.658
REMARK UNBOUND:                 0.598
REMARK SMILES C=C1CC=CC(C)(C)CC=C(C)CCC1
REMARK SMILES IDX 2 1 1 2 15 3 14 4 13 5 11 6 12 7 10 8 3 10 4 11 5 12 6 13
REMARK SMILES IDX 7 14 8 15 9 16
REMARK H PARENT
REMARK Flexibility Score: 60.00
ROOT
ATOM      1  C   UNL     1      28.994  11.576  26.568  1.00  0.00    -0.074 C 
ATOM      2  C   UNL     1      27.991  12.459  26.726  1.00  0.00     0.008 C 
ENDROOT
BRANCH   1   3
ATOM      3  C   UNL     1      29.473  10.774  27.767  1.00  0.00     0.031 C 
BRANCH   3   4
ATOM      4  C   UNL     1      29.057   9.295  27.721  1.00  0.00     0.009 C 
BRANCH   4   5
ATOM      5  C   UNL     1      30.202   8.346  27.310  1.00  0.00     0.030 C 
BRANCH   5   6
ATOM      6  C   UNL     1      29.697   7.237  26.399  1.00  0.00    -0.077 C 
ATOM      7  C   UNL     1      28.982   6.061  27.012  1.00  0.00     0.039 C 
ATOM      8  C   UNL     1      29.838   7.267  25.050  1.00  0.00    -0.027 CG0
ATOM      9  G   UNL     1      30.565   8.353  24.284  1.00  0.00     0.000 G0
ENDBRANCH   5   6
ENDBRANCH   4   5
ENDBRANCH   3   4
ENDBRANCH   1   3
BRANCH   1  10
ATOM     10  C   UNL     1      29.519  11.235  25.181  1.00  0.00     0.057 C 
BRANCH  10  11
ATOM     11  C   UNL     1      28.491  10.667  24.217  1.00  0.00    -0.026 C 
ATOM     12  C   UNL     1      28.624   9.659  23.318  1.00  0.00    -0.024 C 
BRANCH  12  13
ATOM     13  C   UNL     1      29.869   8.831  22.965  1.00  0.00    -0.014 C 
ATOM     14  C   UNL     1      29.504   7.681  21.994  1.00  0.00     0.016 C 
ATOM     15  C   UNL     1      30.852   9.760  22.211  1.00  0.00     0.016 C 
BRANCH  13  16
ATOM     16  C   UNL     1      30.565   8.351  24.276  1.00  0.00     0.038 CG0
ATOM     17  G   UNL     1      29.825   7.263  25.027  1.00  0.00     0.000 G0
ENDBRANCH  13  16
ENDBRANCH  12  13
ENDBRANCH  10  11
ENDBRANCH   1  10
TORSDOF 0
ENDMDL
MODEL 8
REMARK VINA RESULT:    -2.814      3.002      5.357
REMARK INTER + INTRA:          -3.532
REMARK INTER:                  -4.067
REMARK INTRA:                   0.536
REMARK UNBOUND:                 0.598
REMARK SMILES C=C1CC=CC(C)(C)CC=C(C)CCC1
REMARK SMILES IDX 2 1 1 2 15 3 14 4 13 5 11 6 12 7 10 8 3 10 4 11 5 12 6 13
REMARK SMILES IDX 7 14 8 15 9 16
REMARK H PARENT
REMARK Flexibility Score: 60.00
ROOT
ATOM      1  C   UNL     1      30.263  11.942  24.193  1.00  0.00    -0.074 C 
ATOM      2  C   UNL     1      29.411  12.971  24.358  1.00  0.00     0.008 C 
ENDROOT
BRANCH   1   3
ATOM      3  C   UNL     1      30.806  11.224  25.418  1.00  0.00     0.031 C 
BRANCH   3   4
ATOM      4  C   UNL     1      29.710  10.738  26.380  1.00  0.00     0.009 C 
BRANCH   4   5
ATOM      5  C   UNL     1      28.899   9.543  25.837  1.00  0.00     0.030 C 
BRANCH   5   6
ATOM      6  C   UNL     1      29.777   8.310  25.679  1.00  0.00    -0.077 C 
ATOM      7  C   UNL     1      30.450   7.735  26.898  1.00  0.00     0.039 C 
ATOM      8  C   UNL     1      29.964   7.683  24.491  1.00  0.00    -0.027 CG0
ATOM      9  G   UNL     1      29.394   8.154  23.169  1.00  0.00     0.000 G0
ENDBRANCH   5   6
ENDBRANCH   4   5
ENDBRANCH   3   4
ENDBRANCH   1   3
BRANCH   1  10
ATOM     10  C   UNL     1      30.535  11.371  22.809  1.00  0.00     0.057 C 
BRANCH  10  11
ATOM     11  C   UNL     1      31.666  10.360  22.733  1.00  0.00    -0.026 C 
ATOM     12  C   UNL     1      31.625   9.053  22.369  1.00  0.00    -0.024 C 
BRANCH  12  13
ATOM     13  C   UNL     1      30.413   8.191  21.984  1.00  0.00    -0.014 C 
ATOM     14  C   UNL     1      29.801   8.674  20.646  1.00  0.00     0.016 C 
ATOM     15  C   UNL     1      30.920   6.746  21.750  1.00  0.00     0.016 C 
BRANCH  13  16
ATOM     16  C   UNL     1      29.397   8.161  23.167  1.00  0.00     0.038 CG0
ATOM     17  G   UNL     1      29.967   7.672  24.482  1.00  0.00     0.000 G0
ENDBRANCH  13  16
ENDBRANCH  12  13
ENDBRANCH  10  11
ENDBRANCH   1  10
TORSDOF 0
ENDMDL
MODEL 9
REMARK VINA RESULT:    -2.673      2.227      5.257
REMARK INTER + INTRA:          -3.325
REMARK INTER:                  -4.103
REMARK INTRA:                   0.778
REMARK UNBOUND:                 0.598
REMARK SMILES C=C1CC=CC(C)(C)CC=C(C)CCC1
REMARK SMILES IDX 2 1 1 2 15 3 14 4 13 5 11 6 12 7 10 8 3 10 4 11 5 12 6 13
REMARK SMILES IDX 7 14 8 15 9 16
REMARK H PARENT
REMARK Flexibility Score: 60.00
ROOT
ATOM      1  C   UNL     1      28.496  13.312  23.980  1.00  0.00    -0.074 C 
ATOM      2  C   UNL     1      28.070  14.303  23.175  1.00  0.00     0.008 C 
ENDROOT
BRANCH   1   3
ATOM      3  C   UNL     1      29.358  12.202  23.401  1.00  0.00     0.031 C 
BRANCH   3   4
ATOM      4  C   UNL     1      28.580  11.226  22.504  1.00  0.00     0.009 C 
BRANCH   4   5
ATOM      5  C   UNL     1      28.252   9.885  23.193  1.00  0.00     0.030 C 
BRANCH   5   6
ATOM      6  C   UNL     1      29.417   9.407  24.047  1.00  0.00    -0.077 C 
ATOM      7  C   UNL     1      30.611   8.789  23.368  1.00  0.00     0.039 C 
ATOM      8  C   UNL     1      29.444   9.534  25.397  1.00  0.00    -0.027 CG0
ATOM      9  G   UNL     1      28.311  10.093  26.233  1.00  0.00     0.000 G0
ENDBRANCH   5   6
ENDBRANCH   4   5
ENDBRANCH   3   4
ENDBRANCH   1   3
BRANCH   1  10
ATOM     10  C   UNL     1      28.288  13.391  25.486  1.00  0.00     0.057 C 
BRANCH  10  11
ATOM     11  C   UNL     1      29.506  13.050  26.329  1.00  0.00    -0.026 C 
ATOM     12  C   UNL     1      29.707  11.992  27.155  1.00  0.00    -0.024 C 
BRANCH  12  13
ATOM     13  C   UNL     1      28.743  10.856  27.530  1.00  0.00    -0.014 C 
ATOM     14  C   UNL     1      29.371   9.938  28.607  1.00  0.00     0.016 C 
ATOM     15  C   UNL     1      27.486  11.498  28.167  1.00  0.00     0.016 C 
BRANCH  13  16
ATOM     16  C   UNL     1      28.300  10.101  26.239  1.00  0.00     0.038 CG0
ATOM     17  G   UNL     1      29.436   9.546  25.406  1.00  0.00     0.000 G0
ENDBRANCH  13  16
ENDBRANCH  12  13
ENDBRANCH  10  11
ENDBRANCH   1  10
TORSDOF 0
ENDMDL
