MODEL 1
REMARK VINA RESULT:    -4.191      0.000      0.000
REMARK INTER + INTRA:          -7.264
REMARK INTER:                  -6.397
REMARK INTRA:                  -0.868
REMARK UNBOUND:                -0.868
REMARK SMILES CCCCCCCCCCC(=O)[O-]
REMARK SMILES IDX 7 1 8 2 9 3 10 4 11 5 12 6 13 7 6 8 5 9 4 10 3 11 2 12 1 13
REMARK H PARENT
REMARK Flexibility Score: inf
ROOT
ATOM      1  C   UNL     1      16.443 -31.892  21.329  1.00  0.00     0.000 C 
ENDROOT
BRANCH   1   2
ATOM      2  C   UNL     1      16.416 -33.164  22.193  1.00  0.00     0.000 C 
BRANCH   2   3
ATOM      3  C   UNL     1      15.344 -34.172  21.736  1.00  0.00     0.006 C 
BRANCH   3   4
ATOM      4  C   UNL     1      15.144 -34.239  20.214  1.00  0.00     0.053 C 
BRANCH   4   5
ATOM      5  C   UNL     1      16.259 -34.968  19.529  1.00  0.00     0.041 C 
ATOM      6  O   UNL     1      17.065 -34.342  18.791  1.00  0.00    -0.550 OA
ATOM      7  O   UNL     1      16.428 -36.331  19.733  1.00  0.00    -0.550 OA
ENDBRANCH   4   5
ENDBRANCH   3   4
ENDBRANCH   2   3
ENDBRANCH   1   2
BRANCH   1   8
ATOM      8  C   UNL     1      15.616 -30.748  21.935  1.00  0.00     0.000 C 
BRANCH   8   9
ATOM      9  C   UNL     1      14.226 -30.609  21.290  1.00  0.00    -0.000 C 
BRANCH   9  10
ATOM     10  C   UNL     1      13.090 -30.949  22.279  1.00  0.00    -0.000 C 
BRANCH  10  11
ATOM     11  C   UNL     1      13.429 -30.620  23.743  1.00  0.00    -0.000 C 
BRANCH  11  12
ATOM     12  C   UNL     1      13.051 -29.185  24.135  1.00  0.00    -0.003 C 
ATOM     13  C   UNL     1      11.724 -28.774  23.503  1.00  0.00     0.004 C 
ENDBRANCH  11  12
ENDBRANCH  10  11
ENDBRANCH   9  10
ENDBRANCH   8   9
ENDBRANCH   1   8
TORSDOF 9
ENDMDL
MODEL 2
REMARK VINA RESULT:    -4.187      1.623      3.010
REMARK INTER + INTRA:          -7.257
REMARK INTER:                  -6.266
REMARK INTRA:                  -0.991
REMARK UNBOUND:                -0.868
REMARK SMILES CCCCCCCCCCC(=O)[O-]
REMARK SMILES IDX 7 1 8 2 9 3 10 4 11 5 12 6 13 7 6 8 5 9 4 10 3 11 2 12 1 13
REMARK H PARENT
REMARK Flexibility Score: inf
ROOT
ATOM      1  C   UNL     1      13.666 -32.258  24.376  1.00  0.00     0.000 C 
ENDROOT
BRANCH   1   2
ATOM      2  C   UNL     1      14.815 -33.146  23.872  1.00  0.00     0.000 C 
BRANCH   2   3
ATOM      3  C   UNL     1      14.916 -33.178  22.336  1.00  0.00     0.006 C 
BRANCH   3   4
ATOM      4  C   UNL     1      15.618 -34.423  21.771  1.00  0.00     0.053 C 
BRANCH   4   5
ATOM      5  C   UNL     1      15.376 -34.590  20.302  1.00  0.00     0.041 C 
ATOM      6  O   UNL     1      15.991 -35.479  19.657  1.00  0.00    -0.550 OA
ATOM      7  O   UNL     1      14.447 -33.787  19.654  1.00  0.00    -0.550 OA
ENDBRANCH   4   5
ENDBRANCH   3   4
ENDBRANCH   2   3
ENDBRANCH   1   2
BRANCH   1   8
ATOM      8  C   UNL     1      13.312 -31.133  23.390  1.00  0.00     0.000 C 
BRANCH   8   9
ATOM      9  C   UNL     1      13.289 -29.744  24.052  1.00  0.00    -0.000 C 
BRANCH   9  10
ATOM     10  C   UNL     1      14.099 -28.705  23.249  1.00  0.00    -0.000 C 
BRANCH  10  11
ATOM     11  C   UNL     1      15.180 -29.328  22.348  1.00  0.00    -0.000 C 
BRANCH  11  12
ATOM     12  C   UNL     1      16.601 -29.120  22.889  1.00  0.00    -0.003 C 
ATOM     13  C   UNL     1      17.088 -30.354  23.643  1.00  0.00     0.004 C 
ENDBRANCH  11  12
ENDBRANCH  10  11
ENDBRANCH   9  10
ENDBRANCH   8   9
ENDBRANCH   1   8
TORSDOF 9
ENDMDL
MODEL 3
REMARK VINA RESULT:    -4.159      1.639      2.230
REMARK INTER + INTRA:          -7.215
REMARK INTER:                  -5.881
REMARK INTRA:                  -1.334
REMARK UNBOUND:                -0.868
REMARK SMILES CCCCCCCCCCC(=O)[O-]
REMARK SMILES IDX 7 1 8 2 9 3 10 4 11 5 12 6 13 7 6 8 5 9 4 10 3 11 2 12 1 13
REMARK H PARENT
REMARK Flexibility Score: inf
ROOT
ATOM      1  C   UNL     1      17.102 -32.109  23.636  1.00  0.00     0.000 C 
ENDROOT
BRANCH   1   2
ATOM      2  C   UNL     1      15.824 -32.699  24.255  1.00  0.00     0.000 C 
BRANCH   2   3
ATOM      3  C   UNL     1      15.008 -33.536  23.253  1.00  0.00     0.006 C 
BRANCH   3   4
ATOM      4  C   UNL     1      15.856 -34.289  22.215  1.00  0.00     0.053 C 
BRANCH   4   5
ATOM      5  C   UNL     1      15.210 -34.305  20.864  1.00  0.00     0.041 C 
ATOM      6  O   UNL     1      15.440 -35.250  20.064  1.00  0.00    -0.550 OA
ATOM      7  O   UNL     1      14.327 -33.296  20.501  1.00  0.00    -0.550 OA
ENDBRANCH   4   5
ENDBRANCH   3   4
ENDBRANCH   2   3
ENDBRANCH   1   2
BRANCH   1   8
ATOM      8  C   UNL     1      16.915 -30.659  23.163  1.00  0.00     0.000 C 
BRANCH   8   9
ATOM      9  C   UNL     1      16.423 -30.564  21.708  1.00  0.00    -0.000 C 
BRANCH   9  10
ATOM     10  C   UNL     1      14.999 -29.976  21.613  1.00  0.00    -0.000 C 
BRANCH  10  11
ATOM     11  C   UNL     1      14.474 -29.418  22.947  1.00  0.00    -0.000 C 
BRANCH  11  12
ATOM     12  C   UNL     1      13.221 -30.149  23.448  1.00  0.00    -0.003 C 
ATOM     13  C   UNL     1      12.479 -30.820  22.296  1.00  0.00     0.004 C 
ENDBRANCH  11  12
ENDBRANCH  10  11
ENDBRANCH   9  10
ENDBRANCH   8   9
ENDBRANCH   1   8
TORSDOF 9
ENDMDL
MODEL 4
REMARK VINA RESULT:    -4.148      1.207      2.380
REMARK INTER + INTRA:          -7.198
REMARK INTER:                  -5.843
REMARK INTRA:                  -1.356
REMARK UNBOUND:                -0.868
REMARK SMILES CCCCCCCCCCC(=O)[O-]
REMARK SMILES IDX 7 1 8 2 9 3 10 4 11 5 12 6 13 7 6 8 5 9 4 10 3 11 2 12 1 13
REMARK H PARENT
REMARK Flexibility Score: inf
ROOT
ATOM      1  C   UNL     1      15.969 -33.492  23.775  1.00  0.00     0.000 C 
ENDROOT
BRANCH   1   2
ATOM      2  C   UNL     1      16.480 -33.877  22.377  1.00  0.00     0.000 C 
BRANCH   2   3
ATOM      3  C   UNL     1      15.363 -34.408  21.459  1.00  0.00     0.006 C 
BRANCH   3   4
ATOM      4  C   UNL     1      15.570 -34.104  19.966  1.00  0.00     0.053 C 
BRANCH   4   5
ATOM      5  C   UNL     1      16.706 -34.886  19.383  1.00  0.00     0.041 C 
ATOM      6  O   UNL     1      17.707 -34.289  18.906  1.00  0.00    -0.550 OA
ATOM      7  O   UNL     1      16.676 -36.275  19.398  1.00  0.00    -0.550 OA
ENDBRANCH   4   5
ENDBRANCH   3   4
ENDBRANCH   2   3
ENDBRANCH   1   2
BRANCH   1   8
ATOM      8  C   UNL     1      14.436 -33.421  23.845  1.00  0.00     0.000 C 
BRANCH   8   9
ATOM      9  C   UNL     1      13.930 -32.180  24.603  1.00  0.00    -0.000 C 
BRANCH   9  10
ATOM     10  C   UNL     1      13.724 -30.971  23.665  1.00  0.00    -0.000 C 
BRANCH  10  11
ATOM     11  C   UNL     1      13.196 -31.356  22.272  1.00  0.00    -0.000 C 
BRANCH  11  12
ATOM     12  C   UNL     1      14.101 -30.864  21.134  1.00  0.00    -0.003 C 
ATOM     13  C   UNL     1      15.418 -30.317  21.677  1.00  0.00     0.004 C 
ENDBRANCH  11  12
ENDBRANCH  10  11
ENDBRANCH   9  10
ENDBRANCH   8   9
ENDBRANCH   1   8
TORSDOF 9
ENDMDL
MODEL 5
REMARK VINA RESULT:    -4.075      3.980      6.764
REMARK INTER + INTRA:          -7.086
REMARK INTER:                  -6.557
REMARK INTRA:                  -0.530
REMARK UNBOUND:                -0.868
REMARK SMILES CCCCCCCCCCC(=O)[O-]
REMARK SMILES IDX 7 1 8 2 9 3 10 4 11 5 12 6 13 7 6 8 5 9 4 10 3 11 2 12 1 13
REMARK H PARENT
REMARK Flexibility Score: inf
ROOT
ATOM      1  C   UNL     1      15.117 -33.023  23.723  1.00  0.00     0.000 C 
ENDROOT
BRANCH   1   2
ATOM      2  C   UNL     1      14.871 -31.581  23.251  1.00  0.00     0.000 C 
BRANCH   2   3
ATOM      3  C   UNL     1      13.617 -30.952  23.886  1.00  0.00     0.006 C 
BRANCH   3   4
ATOM      4  C   UNL     1      12.761 -30.123  22.914  1.00  0.00     0.053 C 
BRANCH   4   5
ATOM      5  C   UNL     1      12.213 -28.887  23.558  1.00  0.00     0.041 C 
ATOM      6  O   UNL     1      11.136 -28.382  23.145  1.00  0.00    -0.550 OA
ATOM      7  O   UNL     1      12.873 -28.312  24.637  1.00  0.00    -0.550 OA
ENDBRANCH   4   5
ENDBRANCH   3   4
ENDBRANCH   2   3
ENDBRANCH   1   2
BRANCH   1   8
ATOM      8  C   UNL     1      15.335 -33.999  22.557  1.00  0.00     0.000 C 
BRANCH   8   9
ATOM      9  C   UNL     1      15.328 -33.300  21.185  1.00  0.00    -0.000 C 
BRANCH   9  10
ATOM     10  C   UNL     1      15.163 -34.303  20.024  1.00  0.00    -0.000 C 
BRANCH  10  11
ATOM     11  C   UNL     1      16.499 -34.806  19.450  1.00  0.00    -0.000 C 
BRANCH  11  12
ATOM     12  C   UNL     1      16.708 -36.313  19.656  1.00  0.00    -0.003 C 
ATOM     13  C   UNL     1      17.584 -36.583  20.876  1.00  0.00     0.004 C 
ENDBRANCH  11  12
ENDBRANCH  10  11
ENDBRANCH   9  10
ENDBRANCH   8   9
ENDBRANCH   1   8
TORSDOF 9
ENDMDL
MODEL 6
REMARK VINA RESULT:    -4.074      1.416      2.645
REMARK INTER + INTRA:          -7.086
REMARK INTER:                  -6.094
REMARK INTRA:                  -0.992
REMARK UNBOUND:                -0.868
REMARK SMILES CCCCCCCCCCC(=O)[O-]
REMARK SMILES IDX 7 1 8 2 9 3 10 4 11 5 12 6 13 7 6 8 5 9 4 10 3 11 2 12 1 13
REMARK H PARENT
REMARK Flexibility Score: inf
ROOT
ATOM      1  C   UNL     1      14.230 -32.874  20.858  1.00  0.00     0.000 C 
ENDROOT
BRANCH   1   2
ATOM      2  C   UNL     1      15.005 -33.513  22.023  1.00  0.00     0.000 C 
BRANCH   2   3
ATOM      3  C   UNL     1      15.960 -34.630  21.562  1.00  0.00     0.006 C 
BRANCH   3   4
ATOM      4  C   UNL     1      15.691 -35.148  20.140  1.00  0.00     0.053 C 
BRANCH   4   5
ATOM      5  C   UNL     1      16.958 -35.454  19.402  1.00  0.00     0.041 C 
ATOM      6  O   UNL     1      17.685 -34.518  18.978  1.00  0.00    -0.550 OA
ATOM      7  O   UNL     1      17.352 -36.772  19.213  1.00  0.00    -0.550 OA
ENDBRANCH   4   5
ENDBRANCH   3   4
ENDBRANCH   2   3
ENDBRANCH   1   2
BRANCH   1   8
ATOM      8  C   UNL     1      13.626 -31.510  21.228  1.00  0.00     0.000 C 
BRANCH   8   9
ATOM      9  C   UNL     1      13.601 -31.260  22.746  1.00  0.00    -0.000 C 
BRANCH   9  10
ATOM     10  C   UNL     1      14.435 -30.024  23.144  1.00  0.00    -0.000 C 
BRANCH  10  11
ATOM     11  C   UNL     1      15.339 -29.501  22.014  1.00  0.00    -0.000 C 
BRANCH  11  12
ATOM     12  C   UNL     1      16.829 -29.767  22.270  1.00  0.00    -0.003 C 
ATOM     13  C   UNL     1      17.393 -30.757  21.256  1.00  0.00     0.004 C 
ENDBRANCH  11  12
ENDBRANCH  10  11
ENDBRANCH   9  10
ENDBRANCH   8   9
ENDBRANCH   1   8
TORSDOF 9
ENDMDL
MODEL 7
REMARK VINA RESULT:    -4.047      1.549      2.114
REMARK INTER + INTRA:          -7.043
REMARK INTER:                  -6.506
REMARK INTRA:                  -0.537
REMARK UNBOUND:                -0.868
REMARK SMILES CCCCCCCCCCC(=O)[O-]
REMARK SMILES IDX 7 1 8 2 9 3 10 4 11 5 12 6 13 7 6 8 5 9 4 10 3 11 2 12 1 13
REMARK H PARENT
REMARK Flexibility Score: inf
ROOT
ATOM      1  C   UNL     1      13.847 -32.504  20.577  1.00  0.00     0.000 C 
ENDROOT
BRANCH   1   2
ATOM      2  C   UNL     1      14.797 -33.399  21.391  1.00  0.00     0.000 C 
BRANCH   2   3
ATOM      3  C   UNL     1      15.272 -34.635  20.606  1.00  0.00     0.006 C 
BRANCH   3   4
ATOM      4  C   UNL     1      16.478 -34.379  19.688  1.00  0.00     0.053 C 
BRANCH   4   5
ATOM      5  C   UNL     1      17.737 -34.140  20.465  1.00  0.00     0.041 C 
ATOM      6  O   UNL     1      18.129 -34.987  21.310  1.00  0.00    -0.550 OA
ATOM      7  O   UNL     1      18.493 -32.999  20.231  1.00  0.00    -0.550 OA
ENDBRANCH   4   5
ENDBRANCH   3   4
ENDBRANCH   2   3
ENDBRANCH   1   2
BRANCH   1   8
ATOM      8  C   UNL     1      13.572 -31.157  21.261  1.00  0.00     0.000 C 
BRANCH   8   9
ATOM      9  C   UNL     1      13.474 -31.273  22.792  1.00  0.00    -0.000 C 
BRANCH   9  10
ATOM     10  C   UNL     1      14.315 -30.196  23.511  1.00  0.00    -0.000 C 
BRANCH  10  11
ATOM     11  C   UNL     1      13.639 -28.815  23.555  1.00  0.00    -0.000 C 
BRANCH  11  12
ATOM     12  C   UNL     1      12.244 -28.854  24.195  1.00  0.00    -0.003 C 
ATOM     13  C   UNL     1      11.172 -28.408  23.205  1.00  0.00     0.004 C 
ENDBRANCH  11  12
ENDBRANCH  10  11
ENDBRANCH   9  10
ENDBRANCH   8   9
ENDBRANCH   1   8
TORSDOF 9
ENDMDL
MODEL 8
REMARK VINA RESULT:    -4.041      3.950      5.737
REMARK INTER + INTRA:          -7.035
REMARK INTER:                  -5.945
REMARK INTRA:                  -1.090
REMARK UNBOUND:                -0.868
REMARK SMILES CCCCCCCCCCC(=O)[O-]
REMARK SMILES IDX 7 1 8 2 9 3 10 4 11 5 12 6 13 7 6 8 5 9 4 10 3 11 2 12 1 13
REMARK H PARENT
REMARK Flexibility Score: inf
ROOT
ATOM      1  C   UNL     1      13.852 -32.463  20.507  1.00  0.00     0.000 C 
ENDROOT
BRANCH   1   2
ATOM      2  C   UNL     1      14.013 -31.127  21.250  1.00  0.00     0.000 C 
BRANCH   2   3
ATOM      3  C   UNL     1      12.761 -30.740  22.059  1.00  0.00     0.006 C 
BRANCH   3   4
ATOM      4  C   UNL     1      13.058 -30.201  23.468  1.00  0.00     0.053 C 
BRANCH   4   5
ATOM      5  C   UNL     1      12.527 -28.814  23.665  1.00  0.00     0.041 C 
ATOM      6  O   UNL     1      11.311 -28.566  23.450  1.00  0.00    -0.550 OA
ATOM      7  O   UNL     1      13.366 -27.805  24.119  1.00  0.00    -0.550 OA
ENDBRANCH   4   5
ENDBRANCH   3   4
ENDBRANCH   2   3
ENDBRANCH   1   2
BRANCH   1   8
ATOM      8  C   UNL     1      14.862 -33.524  20.971  1.00  0.00     0.000 C 
BRANCH   8   9
ATOM      9  C   UNL     1      15.002 -33.585  22.502  1.00  0.00    -0.000 C 
BRANCH   9  10
ATOM     10  C   UNL     1      16.479 -33.656  22.947  1.00  0.00    -0.000 C 
BRANCH  10  11
ATOM     11  C   UNL     1      17.203 -32.300  22.896  1.00  0.00    -0.000 C 
BRANCH  11  12
ATOM     12  C   UNL     1      16.624 -31.275  23.881  1.00  0.00    -0.003 C 
ATOM     13  C   UNL     1      16.781 -29.853  23.351  1.00  0.00     0.004 C 
ENDBRANCH  11  12
ENDBRANCH  10  11
ENDBRANCH   9  10
ENDBRANCH   8   9
ENDBRANCH   1   8
TORSDOF 9
ENDMDL
MODEL 9
REMARK VINA RESULT:    -4.012      3.861      5.778
REMARK INTER + INTRA:          -6.991
REMARK INTER:                  -5.656
REMARK INTRA:                  -1.335
REMARK UNBOUND:                -0.868
REMARK SMILES CCCCCCCCCCC(=O)[O-]
REMARK SMILES IDX 7 1 8 2 9 3 10 4 11 5 12 6 13 7 6 8 5 9 4 10 3 11 2 12 1 13
REMARK H PARENT
REMARK Flexibility Score: inf
ROOT
ATOM      1  C   UNL     1      14.648 -33.260  24.145  1.00  0.00     0.000 C 
ENDROOT
BRANCH   1   2
ATOM      2  C   UNL     1      13.903 -31.918  24.224  1.00  0.00     0.000 C 
BRANCH   2   3
ATOM      3  C   UNL     1      13.576 -31.335  22.836  1.00  0.00     0.006 C 
BRANCH   3   4
ATOM      4  C   UNL     1      13.644 -29.801  22.760  1.00  0.00     0.053 C 
BRANCH   4   5
ATOM      5  C   UNL     1      12.451 -29.152  23.392  1.00  0.00     0.041 C 
ATOM      6  O   UNL     1      12.542 -28.644  24.542  1.00  0.00    -0.550 OA
ATOM      7  O   UNL     1      11.250 -29.076  22.700  1.00  0.00    -0.550 OA
ENDBRANCH   4   5
ENDBRANCH   3   4
ENDBRANCH   2   3
ENDBRANCH   1   2
BRANCH   1   8
ATOM      8  C   UNL     1      15.013 -33.651  22.705  1.00  0.00     0.000 C 
BRANCH   8   9
ATOM      9  C   UNL     1      16.466 -34.137  22.569  1.00  0.00    -0.000 C 
BRANCH   9  10
ATOM     10  C   UNL     1      17.458 -32.965  22.411  1.00  0.00    -0.000 C 
BRANCH  10  11
ATOM     11  C   UNL     1      17.056 -31.960  21.318  1.00  0.00    -0.000 C 
BRANCH  11  12
ATOM     12  C   UNL     1      17.190 -30.500  21.770  1.00  0.00    -0.003 C 
ATOM     13  C   UNL     1      17.303 -30.404  23.289  1.00  0.00     0.004 C 
ENDBRANCH  11  12
ENDBRANCH  10  11
ENDBRANCH   9  10
ENDBRANCH   8   9
ENDBRANCH   1   8
TORSDOF 9
ENDMDL
