MODEL 1
REMARK VINA RESULT:    -3.106      0.000      0.000
REMARK INTER + INTRA:          -6.149
REMARK INTER:                  -4.922
REMARK INTRA:                  -1.227
REMARK UNBOUND:                -1.227
REMARK SMILES CCCCCCCCCCCC(=O)[O-]
REMARK SMILES IDX 7 1 8 2 9 3 10 4 11 5 12 6 13 7 14 8 6 9 5 10 4 11 3 12 2 13
REMARK SMILES IDX 1 14
REMARK H PARENT
REMARK Flexibility Score: inf
ROOT
ATOM      1  C   UNL     1      17.594  19.125  48.906  1.00  0.00     0.000 C 
ENDROOT
BRANCH   1   2
ATOM      2  C   UNL     1      16.154  19.286  49.415  1.00  0.00     0.000 C 
BRANCH   2   3
ATOM      3  C   UNL     1      15.674  18.007  50.118  1.00  0.00     0.000 C 
BRANCH   3   4
ATOM      4  C   UNL     1      15.737  18.109  51.654  1.00  0.00     0.006 C 
BRANCH   4   5
ATOM      5  C   UNL     1      16.718  17.128  52.315  1.00  0.00     0.053 C 
BRANCH   5   6
ATOM      6  C   UNL     1      18.145  17.520  52.088  1.00  0.00     0.041 C 
ATOM      7  O   UNL     1      18.629  18.521  52.679  1.00  0.00    -0.550 OA
ATOM      8  O   UNL     1      18.932  16.799  51.197  1.00  0.00    -0.550 OA
ENDBRANCH   5   6
ENDBRANCH   4   5
ENDBRANCH   3   4
ENDBRANCH   2   3
ENDBRANCH   1   2
BRANCH   1   9
ATOM      9  C   UNL     1      17.708  18.097  47.768  1.00  0.00     0.000 C 
BRANCH   9  10
ATOM     10  C   UNL     1      17.989  18.749  46.406  1.00  0.00    -0.000 C 
BRANCH  10  11
ATOM     11  C   UNL     1      16.827  18.505  45.431  1.00  0.00    -0.000 C 
BRANCH  11  12
ATOM     12  C   UNL     1      15.571  19.324  45.778  1.00  0.00    -0.000 C 
BRANCH  12  13
ATOM     13  C   UNL     1      14.338  18.487  46.166  1.00  0.00    -0.003 C 
ATOM     14  C   UNL     1      14.574  16.982  46.046  1.00  0.00     0.004 C 
ENDBRANCH  12  13
ENDBRANCH  11  12
ENDBRANCH  10  11
ENDBRANCH   9  10
ENDBRANCH   1   9
TORSDOF 10
ENDMDL
MODEL 2
REMARK VINA RESULT:    -3.049      2.734      5.420
REMARK INTER + INTRA:          -6.058
REMARK INTER:                  -4.764
REMARK INTRA:                  -1.293
REMARK UNBOUND:                -1.227
REMARK SMILES CCCCCCCCCCCC(=O)[O-]
REMARK SMILES IDX 7 1 8 2 9 3 10 4 11 5 12 6 13 7 14 8 6 9 5 10 4 11 3 12 2 13
REMARK SMILES IDX 1 14
REMARK H PARENT
REMARK Flexibility Score: inf
ROOT
ATOM      1  C   UNL     1      15.427  19.713  49.195  1.00  0.00     0.000 C 
ENDROOT
BRANCH   1   2
ATOM      2  C   UNL     1      14.830  18.408  48.651  1.00  0.00     0.000 C 
BRANCH   2   3
ATOM      3  C   UNL     1      13.831  18.691  47.519  1.00  0.00     0.000 C 
BRANCH   3   4
ATOM      4  C   UNL     1      14.339  18.224  46.142  1.00  0.00     0.006 C 
BRANCH   4   5
ATOM      5  C   UNL     1      15.781  17.691  46.146  1.00  0.00     0.053 C 
BRANCH   5   6
ATOM      6  C   UNL     1      16.742  18.663  45.533  1.00  0.00     0.041 C 
ATOM      7  O   UNL     1      16.330  19.768  45.090  1.00  0.00    -0.550 OA
ATOM      8  O   UNL     1      18.088  18.334  45.420  1.00  0.00    -0.550 OA
ENDBRANCH   5   6
ENDBRANCH   4   5
ENDBRANCH   3   4
ENDBRANCH   2   3
ENDBRANCH   1   2
BRANCH   1   9
ATOM      9  C   UNL     1      16.965  19.705  49.201  1.00  0.00     0.000 C 
BRANCH   9  10
ATOM     10  C   UNL     1      17.548  18.294  49.373  1.00  0.00    -0.000 C 
BRANCH  10  11
ATOM     11  C   UNL     1      18.349  18.187  50.680  1.00  0.00    -0.000 C 
BRANCH  11  12
ATOM     12  C   UNL     1      17.833  17.075  51.611  1.00  0.00    -0.000 C 
BRANCH  12  13
ATOM     13  C   UNL     1      16.310  17.072  51.834  1.00  0.00    -0.003 C 
ATOM     14  C   UNL     1      15.826  18.251  52.676  1.00  0.00     0.004 C 
ENDBRANCH  12  13
ENDBRANCH  11  12
ENDBRANCH  10  11
ENDBRANCH   9  10
ENDBRANCH   1   9
TORSDOF 10
ENDMDL
MODEL 3
REMARK VINA RESULT:    -3.030      2.803      5.751
REMARK INTER + INTRA:          -6.028
REMARK INTER:                  -4.816
REMARK INTRA:                  -1.212
REMARK UNBOUND:                -1.227
REMARK SMILES CCCCCCCCCCCC(=O)[O-]
REMARK SMILES IDX 7 1 8 2 9 3 10 4 11 5 12 6 13 7 14 8 6 9 5 10 4 11 3 12 2 13
REMARK SMILES IDX 1 14
REMARK H PARENT
REMARK Flexibility Score: inf
ROOT
ATOM      1  C   UNL     1      16.367  20.052  49.197  1.00  0.00     0.000 C 
ENDROOT
BRANCH   1   2
ATOM      2  C   UNL     1      17.663  19.480  48.605  1.00  0.00     0.000 C 
BRANCH   2   3
ATOM      3  C   UNL     1      17.415  18.102  47.972  1.00  0.00     0.000 C 
BRANCH   3   4
ATOM      4  C   UNL     1      17.270  18.164  46.440  1.00  0.00     0.006 C 
BRANCH   4   5
ATOM      5  C   UNL     1      15.934  18.748  45.954  1.00  0.00     0.053 C 
BRANCH   5   6
ATOM      6  C   UNL     1      14.777  17.856  46.280  1.00  0.00     0.041 C 
ATOM      7  O   UNL     1      13.821  18.286  46.978  1.00  0.00    -0.550 OA
ATOM      8  O   UNL     1      14.770  16.536  45.843  1.00  0.00    -0.550 OA
ENDBRANCH   5   6
ENDBRANCH   4   5
ENDBRANCH   3   4
ENDBRANCH   2   3
ENDBRANCH   1   2
BRANCH   1   9
ATOM      9  C   UNL     1      16.237  19.787  50.706  1.00  0.00     0.000 C 
BRANCH   9  10
ATOM     10  C   UNL     1      15.201  18.699  51.029  1.00  0.00    -0.000 C 
BRANCH  10  11
ATOM     11  C   UNL     1      15.885  17.346  51.278  1.00  0.00    -0.000 C 
BRANCH  11  12
ATOM     12  C   UNL     1      17.144  17.463  52.155  1.00  0.00    -0.000 C 
BRANCH  12  13
ATOM     13  C   UNL     1      18.463  17.108  51.446  1.00  0.00    -0.003 C 
ATOM     14  C   UNL     1      19.544  18.173  51.625  1.00  0.00     0.004 C 
ENDBRANCH  12  13
ENDBRANCH  11  12
ENDBRANCH  10  11
ENDBRANCH   9  10
ENDBRANCH   1   9
TORSDOF 10
ENDMDL
MODEL 4
REMARK VINA RESULT:    -2.972     12.097     13.976
REMARK INTER + INTRA:          -5.937
REMARK INTER:                  -4.659
REMARK INTRA:                  -1.278
REMARK UNBOUND:                -1.227
REMARK SMILES CCCCCCCCCCCC(=O)[O-]
REMARK SMILES IDX 7 1 8 2 9 3 10 4 11 5 12 6 13 7 14 8 6 9 5 10 4 11 3 12 2 13
REMARK SMILES IDX 1 14
REMARK H PARENT
REMARK Flexibility Score: inf
ROOT
ATOM      1  C   UNL     1      19.061  27.798  55.721  1.00  0.00     0.000 C 
ENDROOT
BRANCH   1   2
ATOM      2  C   UNL     1      17.999  28.879  55.970  1.00  0.00     0.000 C 
BRANCH   2   3
ATOM      3  C   UNL     1      16.684  28.530  55.257  1.00  0.00     0.000 C 
BRANCH   3   4
ATOM      4  C   UNL     1      16.310  29.547  54.162  1.00  0.00     0.006 C 
BRANCH   4   5
ATOM      5  C   UNL     1      17.512  30.245  53.507  1.00  0.00     0.053 C 
BRANCH   5   6
ATOM      6  C   UNL     1      17.944  29.560  52.248  1.00  0.00     0.041 C 
ATOM      7  O   UNL     1      18.009  30.202  51.166  1.00  0.00    -0.550 OA
ATOM      8  O   UNL     1      18.242  28.202  52.262  1.00  0.00    -0.550 OA
ENDBRANCH   5   6
ENDBRANCH   4   5
ENDBRANCH   3   4
ENDBRANCH   2   3
ENDBRANCH   1   2
BRANCH   1   9
ATOM      9  C   UNL     1      20.360  28.369  55.127  1.00  0.00     0.000 C 
BRANCH   9  10
ATOM     10  C   UNL     1      20.563  29.853  55.464  1.00  0.00    -0.000 C 
BRANCH  10  11
ATOM     11  C   UNL     1      21.775  30.045  56.389  1.00  0.00    -0.000 C 
BRANCH  11  12
ATOM     12  C   UNL     1      21.379  30.460  57.818  1.00  0.00    -0.000 C 
BRANCH  12  13
ATOM     13  C   UNL     1      20.825  29.321  58.693  1.00  0.00    -0.003 C 
ATOM     14  C   UNL     1      21.672  28.051  58.630  1.00  0.00     0.004 C 
ENDBRANCH  12  13
ENDBRANCH  11  12
ENDBRANCH  10  11
ENDBRANCH   9  10
ENDBRANCH   1   9
TORSDOF 10
ENDMDL
MODEL 5
REMARK VINA RESULT:    -2.960      3.366      7.062
REMARK INTER + INTRA:          -5.917
REMARK INTER:                  -5.351
REMARK INTRA:                  -0.566
REMARK UNBOUND:                -1.227
REMARK SMILES CCCCCCCCCCCC(=O)[O-]
REMARK SMILES IDX 7 1 8 2 9 3 10 4 11 5 12 6 13 7 14 8 6 9 5 10 4 11 3 12 2 13
REMARK SMILES IDX 1 14
REMARK H PARENT
REMARK Flexibility Score: inf
ROOT
ATOM      1  C   UNL     1      17.059  17.122  51.689  1.00  0.00     0.000 C 
ENDROOT
BRANCH   1   2
ATOM      2  C   UNL     1      18.124  17.495  50.648  1.00  0.00     0.000 C 
BRANCH   2   3
ATOM      3  C   UNL     1      17.587  18.548  49.667  1.00  0.00     0.000 C 
BRANCH   3   4
ATOM      4  C   UNL     1      17.526  18.038  48.215  1.00  0.00     0.006 C 
BRANCH   4   5
ATOM      5  C   UNL     1      16.202  18.336  47.493  1.00  0.00     0.053 C 
BRANCH   5   6
ATOM      6  C   UNL     1      16.196  17.812  46.090  1.00  0.00     0.041 C 
ATOM      7  O   UNL     1      17.053  18.214  45.259  1.00  0.00    -0.550 OA
ATOM      8  O   UNL     1      15.221  16.906  45.689  1.00  0.00    -0.550 OA
ENDBRANCH   5   6
ENDBRANCH   4   5
ENDBRANCH   3   4
ENDBRANCH   2   3
ENDBRANCH   1   2
BRANCH   1   9
ATOM      9  C   UNL     1      15.842  18.062  51.655  1.00  0.00     0.000 C 
BRANCH   9  10
ATOM     10  C   UNL     1      15.592  18.756  53.002  1.00  0.00    -0.000 C 
BRANCH  10  11
ATOM     11  C   UNL     1      16.620  18.306  54.051  1.00  0.00    -0.000 C 
BRANCH  11  12
ATOM     12  C   UNL     1      16.046  18.273  55.479  1.00  0.00    -0.000 C 
BRANCH  12  13
ATOM     13  C   UNL     1      16.793  17.348  56.457  1.00  0.00    -0.003 C 
ATOM     14  C   UNL     1      16.102  17.229  57.814  1.00  0.00     0.004 C 
ENDBRANCH  12  13
ENDBRANCH  11  12
ENDBRANCH  10  11
ENDBRANCH   9  10
ENDBRANCH   1   9
TORSDOF 10
ENDMDL
MODEL 6
REMARK VINA RESULT:    -2.933     11.930     13.894
REMARK INTER + INTRA:          -5.875
REMARK INTER:                  -4.538
REMARK INTRA:                  -1.336
REMARK UNBOUND:                -1.227
REMARK SMILES CCCCCCCCCCCC(=O)[O-]
REMARK SMILES IDX 7 1 8 2 9 3 10 4 11 5 12 6 13 7 14 8 6 9 5 10 4 11 3 12 2 13
REMARK SMILES IDX 1 14
REMARK H PARENT
REMARK Flexibility Score: inf
ROOT
ATOM      1  C   UNL     1      19.698  27.938  55.057  1.00  0.00     0.000 C 
ENDROOT
BRANCH   1   2
ATOM      2  C   UNL     1      19.406  29.388  54.647  1.00  0.00     0.000 C 
BRANCH   2   3
ATOM      3  C   UNL     1      18.387  29.439  53.499  1.00  0.00     0.000 C 
BRANCH   3   4
ATOM      4  C   UNL     1      17.095  30.188  53.878  1.00  0.00     0.006 C 
BRANCH   4   5
ATOM      5  C   UNL     1      16.266  29.505  54.977  1.00  0.00     0.053 C 
BRANCH   5   6
ATOM      6  C   UNL     1      15.632  28.235  54.497  1.00  0.00     0.041 C 
ATOM      7  O   UNL     1      14.733  28.269  53.615  1.00  0.00    -0.550 OA
ATOM      8  O   UNL     1      16.010  27.017  55.048  1.00  0.00    -0.550 OA
ENDBRANCH   5   6
ENDBRANCH   4   5
ENDBRANCH   3   4
ENDBRANCH   2   3
ENDBRANCH   1   2
BRANCH   1   9
ATOM      9  C   UNL     1      19.199  27.610  56.474  1.00  0.00     0.000 C 
BRANCH   9  10
ATOM     10  C   UNL     1      19.304  28.807  57.431  1.00  0.00    -0.000 C 
BRANCH  10  11
ATOM     11  C   UNL     1      20.710  28.898  58.043  1.00  0.00    -0.000 C 
BRANCH  11  12
ATOM     12  C   UNL     1      21.382  30.262  57.805  1.00  0.00    -0.000 C 
BRANCH  12  13
ATOM     13  C   UNL     1      22.572  30.237  56.829  1.00  0.00    -0.003 C 
ATOM     14  C   UNL     1      23.054  28.823  56.509  1.00  0.00     0.004 C 
ENDBRANCH  12  13
ENDBRANCH  11  12
ENDBRANCH  10  11
ENDBRANCH   9  10
ENDBRANCH   1   9
TORSDOF 10
ENDMDL
MODEL 7
REMARK VINA RESULT:    -2.931      1.343      2.628
REMARK INTER + INTRA:          -5.871
REMARK INTER:                  -5.001
REMARK INTRA:                  -0.870
REMARK UNBOUND:                -1.227
REMARK SMILES CCCCCCCCCCCC(=O)[O-]
REMARK SMILES IDX 7 1 8 2 9 3 10 4 11 5 12 6 13 7 14 8 6 9 5 10 4 11 3 12 2 13
REMARK SMILES IDX 1 14
REMARK H PARENT
REMARK Flexibility Score: inf
ROOT
ATOM      1  C   UNL     1      15.155  18.286  49.246  1.00  0.00     0.000 C 
ENDROOT
BRANCH   1   2
ATOM      2  C   UNL     1      16.350  18.932  49.961  1.00  0.00     0.000 C 
BRANCH   2   3
ATOM      3  C   UNL     1      17.635  18.127  49.721  1.00  0.00     0.000 C 
BRANCH   3   4
ATOM      4  C   UNL     1      18.097  17.350  50.968  1.00  0.00     0.006 C 
BRANCH   4   5
ATOM      5  C   UNL     1      17.028  17.219  52.065  1.00  0.00     0.053 C 
BRANCH   5   6
ATOM      6  C   UNL     1      17.436  17.906  53.332  1.00  0.00     0.041 C 
ATOM      7  O   UNL     1      18.475  18.617  53.362  1.00  0.00    -0.550 OA
ATOM      8  O   UNL     1      16.686  17.732  54.490  1.00  0.00    -0.550 OA
ENDBRANCH   5   6
ENDBRANCH   4   5
ENDBRANCH   3   4
ENDBRANCH   2   3
ENDBRANCH   1   2
BRANCH   1   9
ATOM      9  C   UNL     1      14.319  19.302  48.451  1.00  0.00     0.000 C 
BRANCH   9  10
ATOM     10  C   UNL     1      14.575  19.225  46.938  1.00  0.00    -0.000 C 
BRANCH  10  11
ATOM     11  C   UNL     1      14.582  17.767  46.456  1.00  0.00    -0.000 C 
BRANCH  11  12
ATOM     12  C   UNL     1      15.867  17.393  45.695  1.00  0.00    -0.000 C 
BRANCH  12  13
ATOM     13  C   UNL     1      17.101  18.240  46.052  1.00  0.00    -0.003 C 
ATOM     14  C   UNL     1      17.926  18.642  44.831  1.00  0.00     0.004 C 
ENDBRANCH  12  13
ENDBRANCH  11  12
ENDBRANCH  10  11
ENDBRANCH   9  10
ENDBRANCH   1   9
TORSDOF 10
ENDMDL
MODEL 8
REMARK VINA RESULT:    -2.928     11.411     12.834
REMARK INTER + INTRA:          -5.867
REMARK INTER:                  -4.313
REMARK INTRA:                  -1.553
REMARK UNBOUND:                -1.227
REMARK SMILES CCCCCCCCCCCC(=O)[O-]
REMARK SMILES IDX 7 1 8 2 9 3 10 4 11 5 12 6 13 7 14 8 6 9 5 10 4 11 3 12 2 13
REMARK SMILES IDX 1 14
REMARK H PARENT
REMARK Flexibility Score: inf
ROOT
ATOM      1  C   UNL     1      18.533  29.845  53.569  1.00  0.00     0.000 C 
ENDROOT
BRANCH   1   2
ATOM      2  C   UNL     1      19.177  29.864  54.963  1.00  0.00     0.000 C 
BRANCH   2   3
ATOM      3  C   UNL     1      20.133  28.675  55.142  1.00  0.00     0.000 C 
BRANCH   3   4
ATOM      4  C   UNL     1      19.831  27.849  56.406  1.00  0.00     0.006 C 
BRANCH   4   5
ATOM      5  C   UNL     1      19.467  28.690  57.640  1.00  0.00     0.053 C 
BRANCH   5   6
ATOM      6  C   UNL     1      20.678  29.104  58.417  1.00  0.00     0.041 C 
ATOM      7  O   UNL     1      21.555  28.254  58.727  1.00  0.00    -0.550 OA
ATOM      8  O   UNL     1      20.823  30.424  58.828  1.00  0.00    -0.550 OA
ENDBRANCH   5   6
ENDBRANCH   4   5
ENDBRANCH   3   4
ENDBRANCH   2   3
ENDBRANCH   1   2
BRANCH   1   9
ATOM      9  C   UNL     1      17.013  30.069  53.616  1.00  0.00     0.000 C 
BRANCH   9  10
ATOM     10  C   UNL     1      16.380  29.568  54.923  1.00  0.00    -0.000 C 
BRANCH  10  11
ATOM     11  C   UNL     1      15.703  28.204  54.717  1.00  0.00    -0.000 C 
BRANCH  11  12
ATOM     12  C   UNL     1      16.451  27.052  55.411  1.00  0.00    -0.000 C 
BRANCH  12  13
ATOM     13  C   UNL     1      16.804  25.864  54.498  1.00  0.00    -0.003 C 
ATOM     14  C   UNL     1      17.889  26.197  53.475  1.00  0.00     0.004 C 
ENDBRANCH  12  13
ENDBRANCH  11  12
ENDBRANCH  10  11
ENDBRANCH   9  10
ENDBRANCH   1   9
TORSDOF 10
ENDMDL
MODEL 9
REMARK VINA RESULT:    -2.893     12.402     14.276
REMARK INTER + INTRA:          -5.811
REMARK INTER:                  -4.533
REMARK INTRA:                  -1.278
REMARK UNBOUND:                -1.227
REMARK SMILES CCCCCCCCCCCC(=O)[O-]
REMARK SMILES IDX 7 1 8 2 9 3 10 4 11 5 12 6 13 7 14 8 6 9 5 10 4 11 3 12 2 13
REMARK SMILES IDX 1 14
REMARK H PARENT
REMARK Flexibility Score: inf
ROOT
ATOM      1  C   UNL     1      21.645  28.586  54.863  1.00  0.00     0.000 C 
ENDROOT
BRANCH   1   2
ATOM      2  C   UNL     1      20.174  28.148  54.805  1.00  0.00     0.000 C 
BRANCH   2   3
ATOM      3  C   UNL     1      19.239  29.322  55.136  1.00  0.00     0.000 C 
BRANCH   3   4
ATOM      4  C   UNL     1      17.876  28.864  55.686  1.00  0.00     0.006 C 
BRANCH   4   5
ATOM      5  C   UNL     1      16.664  29.418  54.920  1.00  0.00     0.053 C 
BRANCH   5   6
ATOM      6  C   UNL     1      16.992  29.719  53.490  1.00  0.00     0.041 C 
ATOM      7  O   UNL     1      17.324  30.885  53.147  1.00  0.00    -0.550 OA
ATOM      8  O   UNL     1      16.898  28.719  52.529  1.00  0.00    -0.550 OA
ENDBRANCH   5   6
ENDBRANCH   4   5
ENDBRANCH   3   4
ENDBRANCH   2   3
ENDBRANCH   1   2
BRANCH   1   9
ATOM      9  C   UNL     1      21.825  29.977  55.493  1.00  0.00     0.000 C 
BRANCH   9  10
ATOM     10  C   UNL     1      22.487  29.920  56.877  1.00  0.00    -0.000 C 
BRANCH  10  11
ATOM     11  C   UNL     1      21.619  30.626  57.930  1.00  0.00    -0.000 C 
BRANCH  11  12
ATOM     12  C   UNL     1      20.584  29.690  58.580  1.00  0.00    -0.000 C 
BRANCH  12  13
ATOM     13  C   UNL     1      20.938  28.193  58.521  1.00  0.00    -0.003 C 
ATOM     14  C   UNL     1      19.707  27.288  58.490  1.00  0.00     0.004 C 
ENDBRANCH  12  13
ENDBRANCH  11  12
ENDBRANCH  10  11
ENDBRANCH   9  10
ENDBRANCH   1   9
TORSDOF 10
ENDMDL
