MODEL 1
REMARK VINA RESULT:    -6.786      0.000      0.000
REMARK INTER + INTRA:          -7.502
REMARK INTER:                  -7.382
REMARK INTRA:                  -0.120
REMARK UNBOUND:                -0.120
REMARK SMILES CC(=O)[C@H]1CC[C@H]2[C@@H]3CC=C4C[C@H](O)CC[C@@]4(C)[C@@H]3CC[C@]12C
REMARK SMILES IDX 4 1 5 2 6 3 7 4 22 5 21 6 20 7 19 8 8 9 9 10 10 11 11 12
REMARK SMILES IDX 17 13 16 14 15 15 13 16 12 17 18 18 23 19 2 20 1 21 3 22
REMARK SMILES IDX 14 23
REMARK H PARENT 14 24
REMARK Flexibility Score: inf
ROOT
ATOM      1  C   UNL     1      47.694   6.126  25.869  1.00  0.00     0.062 C 
ATOM      2  C   UNL     1      47.497   7.358  24.952  1.00  0.00     0.012 C 
ATOM      3  C   UNL     1      48.024   6.956  23.564  1.00  0.00     0.005 C 
ATOM      4  C   UNL     1      48.431   5.496  23.708  1.00  0.00    -0.001 C 
ATOM      5  C   UNL     1      48.836   5.335  25.184  1.00  0.00    -0.020 C 
ATOM      6  C   UNL     1      48.887   3.819  25.539  1.00  0.00     0.008 C 
ATOM      7  C   UNL     1      49.109   2.893  24.313  1.00  0.00     0.005 C 
ATOM      8  C   UNL     1      50.004   3.524  23.194  1.00  0.00     0.003 C 
ATOM      9  C   UNL     1      49.495   4.947  22.735  1.00  0.00     0.000 C 
ATOM     10  C   UNL     1      48.972   4.945  21.294  1.00  0.00     0.031 C 
ATOM     11  C   UNL     1      50.013   4.374  20.385  1.00  0.00    -0.027 C 
ATOM     12  C   UNL     1      50.701   3.266  20.719  1.00  0.00    -0.065 C 
ATOM     13  C   UNL     1      50.358   2.512  22.013  1.00  0.00    -0.008 C 
ATOM     14  C   UNL     1      51.584   1.650  22.460  1.00  0.00     0.014 C 
ATOM     15  C   UNL     1      52.234   0.865  21.316  1.00  0.00     0.033 C 
ATOM     16  C   UNL     1      52.737   1.825  20.241  1.00  0.00     0.118 C 
ATOM     17  C   UNL     1      51.571   2.624  19.651  1.00  0.00     0.063 C 
ATOM     18  C   UNL     1      49.173   1.564  21.687  1.00  0.00     0.016 C 
ATOM     19  C   UNL     1      50.210   6.000  25.507  1.00  0.00     0.012 C 
ENDROOT
BRANCH   1  20
ATOM     20  C   UNL     1      47.908   6.399  27.354  1.00  0.00     0.133 C 
ATOM     21  C   UNL     1      48.120   7.768  27.945  1.00  0.00     0.088 C 
ATOM     22  O   UNL     1      47.876   5.450  28.125  1.00  0.00    -0.300 OA
ENDBRANCH   1  20
BRANCH  16  23
ATOM     23  O   UNL     1      53.371   1.091  19.228  1.00  0.00    -0.393 OA
ATOM     24  H   UNL     1      52.860   0.246  19.121  1.00  0.00     0.210 HD
ENDBRANCH  16  23
TORSDOF 2
ENDMDL
MODEL 2
REMARK VINA RESULT:    -6.647      4.192      6.400
REMARK INTER + INTRA:          -7.350
REMARK INTER:                  -7.221
REMARK INTRA:                  -0.129
REMARK UNBOUND:                -0.120
REMARK SMILES CC(=O)[C@H]1CC[C@H]2[C@@H]3CC=C4C[C@H](O)CC[C@@]4(C)[C@@H]3CC[C@]12C
REMARK SMILES IDX 4 1 5 2 6 3 7 4 22 5 21 6 20 7 19 8 8 9 9 10 10 11 11 12
REMARK SMILES IDX 17 13 16 14 15 15 13 16 12 17 18 18 23 19 2 20 1 21 3 22
REMARK SMILES IDX 14 23
REMARK H PARENT 14 24
REMARK Flexibility Score: inf
ROOT
ATOM      1  C   UNL     1      45.235   2.665  22.841  1.00  0.00     0.062 C 
ATOM      2  C   UNL     1      46.434   1.687  22.797  1.00  0.00     0.012 C 
ATOM      3  C   UNL     1      47.660   2.521  22.389  1.00  0.00     0.005 C 
ATOM      4  C   UNL     1      47.146   3.951  22.288  1.00  0.00    -0.001 C 
ATOM      5  C   UNL     1      45.664   3.817  21.898  1.00  0.00    -0.020 C 
ATOM      6  C   UNL     1      44.943   5.175  22.154  1.00  0.00     0.008 C 
ATOM      7  C   UNL     1      45.893   6.402  22.150  1.00  0.00     0.005 C 
ATOM      8  C   UNL     1      47.102   6.266  21.165  1.00  0.00     0.003 C 
ATOM      9  C   UNL     1      47.916   4.929  21.378  1.00  0.00     0.000 C 
ATOM     10  C   UNL     1      49.328   5.184  21.916  1.00  0.00     0.031 C 
ATOM     11  C   UNL     1      50.032   6.164  21.032  1.00  0.00    -0.027 C 
ATOM     12  C   UNL     1      49.410   7.269  20.580  1.00  0.00    -0.065 C 
ATOM     13  C   UNL     1      47.983   7.591  21.048  1.00  0.00    -0.008 C 
ATOM     14  C   UNL     1      47.295   8.545  20.017  1.00  0.00     0.014 C 
ATOM     15  C   UNL     1      48.186   9.706  19.564  1.00  0.00     0.033 C 
ATOM     16  C   UNL     1      49.448   9.167  18.894  1.00  0.00     0.118 C 
ATOM     17  C   UNL     1      50.256   8.321  19.881  1.00  0.00     0.063 C 
ATOM     18  C   UNL     1      48.104   8.328  22.408  1.00  0.00     0.016 C 
ATOM     19  C   UNL     1      45.468   3.387  20.411  1.00  0.00     0.012 C 
ENDROOT
BRANCH   1  20
ATOM     20  C   UNL     1      43.857   2.080  22.548  1.00  0.00     0.133 C 
ATOM     21  C   UNL     1      43.619   0.697  22.001  1.00  0.00     0.088 C 
ATOM     22  O   UNL     1      42.875   2.764  22.801  1.00  0.00    -0.300 OA
ENDBRANCH   1  20
BRANCH  16  23
ATOM     23  O   UNL     1      50.225  10.244  18.442  1.00  0.00    -0.393 OA
ATOM     24  H   UNL     1      51.056   9.857  18.057  1.00  0.00     0.210 HD
ENDBRANCH  16  23
TORSDOF 2
ENDMDL
MODEL 3
REMARK VINA RESULT:    -6.579      2.855      6.622
REMARK INTER + INTRA:          -7.277
REMARK INTER:                  -7.144
REMARK INTRA:                  -0.133
REMARK UNBOUND:                -0.120
REMARK SMILES CC(=O)[C@H]1CC[C@H]2[C@@H]3CC=C4C[C@H](O)CC[C@@]4(C)[C@@H]3CC[C@]12C
REMARK SMILES IDX 4 1 5 2 6 3 7 4 22 5 21 6 20 7 19 8 8 9 9 10 10 11 11 12
REMARK SMILES IDX 17 13 16 14 15 15 13 16 12 17 18 18 23 19 2 20 1 21 3 22
REMARK SMILES IDX 14 23
REMARK H PARENT 14 24
REMARK Flexibility Score: inf
ROOT
ATOM      1  C   UNL     1      48.110   0.891  21.320  1.00  0.00     0.062 C 
ATOM      2  C   UNL     1      46.631   0.910  20.866  1.00  0.00     0.012 C 
ATOM      3  C   UNL     1      46.185   2.382  20.900  1.00  0.00     0.005 C 
ATOM      4  C   UNL     1      47.434   3.161  21.293  1.00  0.00    -0.001 C 
ATOM      5  C   UNL     1      48.258   2.188  22.154  1.00  0.00    -0.020 C 
ATOM      6  C   UNL     1      49.716   2.724  22.279  1.00  0.00     0.008 C 
ATOM      7  C   UNL     1      49.843   4.256  22.063  1.00  0.00     0.005 C 
ATOM      8  C   UNL     1      48.603   5.072  22.559  1.00  0.00     0.003 C 
ATOM      9  C   UNL     1      47.241   4.536  21.966  1.00  0.00     0.000 C 
ATOM     10  C   UNL     1      46.591   5.532  21.000  1.00  0.00     0.031 C 
ATOM     11  C   UNL     1      46.453   6.862  21.670  1.00  0.00    -0.027 C 
ATOM     12  C   UNL     1      47.457   7.383  22.401  1.00  0.00    -0.065 C 
ATOM     13  C   UNL     1      48.806   6.653  22.480  1.00  0.00    -0.008 C 
ATOM     14  C   UNL     1      49.576   7.110  23.762  1.00  0.00     0.014 C 
ATOM     15  C   UNL     1      49.562   8.626  23.981  1.00  0.00     0.033 C 
ATOM     16  C   UNL     1      48.124   9.119  24.129  1.00  0.00     0.118 C 
ATOM     17  C   UNL     1      47.325   8.827  22.856  1.00  0.00     0.063 C 
ATOM     18  C   UNL     1      49.625   7.070  21.230  1.00  0.00     0.016 C 
ATOM     19  C   UNL     1      47.649   1.977  23.576  1.00  0.00     0.012 C 
ENDROOT
BRANCH   1  20
ATOM     20  C   UNL     1      48.602  -0.374  22.016  1.00  0.00     0.133 C 
ATOM     21  C   UNL     1      47.700  -1.458  22.547  1.00  0.00     0.088 C 
ATOM     22  O   UNL     1      49.809  -0.541  22.125  1.00  0.00    -0.300 OA
ENDBRANCH   1  20
BRANCH  16  23
ATOM     23  O   UNL     1      48.134  10.500  24.378  1.00  0.00    -0.393 OA
ATOM     24  H   UNL     1      48.734  10.910  23.701  1.00  0.00     0.210 HD
ENDBRANCH  16  23
TORSDOF 2
ENDMDL
MODEL 4
REMARK VINA RESULT:    -6.430      2.550      3.952
REMARK INTER + INTRA:          -7.114
REMARK INTER:                  -7.012
REMARK INTRA:                  -0.103
REMARK UNBOUND:                -0.120
REMARK SMILES CC(=O)[C@H]1CC[C@H]2[C@@H]3CC=C4C[C@H](O)CC[C@@]4(C)[C@@H]3CC[C@]12C
REMARK SMILES IDX 4 1 5 2 6 3 7 4 22 5 21 6 20 7 19 8 8 9 9 10 10 11 11 12
REMARK SMILES IDX 17 13 16 14 15 15 13 16 12 17 18 18 23 19 2 20 1 21 3 22
REMARK SMILES IDX 14 23
REMARK H PARENT 14 24
REMARK Flexibility Score: inf
ROOT
ATOM      1  C   UNL     1      48.776   8.546  23.712  1.00  0.00     0.062 C 
ATOM      2  C   UNL     1      49.527   8.241  25.031  1.00  0.00     0.012 C 
ATOM      3  C   UNL     1      49.872   6.742  24.996  1.00  0.00     0.005 C 
ATOM      4  C   UNL     1      49.382   6.258  23.639  1.00  0.00    -0.001 C 
ATOM      5  C   UNL     1      48.195   7.173  23.291  1.00  0.00    -0.020 C 
ATOM      6  C   UNL     1      47.871   7.037  21.772  1.00  0.00     0.008 C 
ATOM      7  C   UNL     1      48.346   5.699  21.146  1.00  0.00     0.005 C 
ATOM      8  C   UNL     1      48.290   4.482  22.128  1.00  0.00     0.003 C 
ATOM      9  C   UNL     1      49.043   4.760  23.489  1.00  0.00     0.000 C 
ATOM     10  C   UNL     1      50.298   3.895  23.650  1.00  0.00     0.031 C 
ATOM     11  C   UNL     1      49.941   2.455  23.463  1.00  0.00    -0.027 C 
ATOM     12  C   UNL     1      49.129   2.061  22.464  1.00  0.00    -0.065 C 
ATOM     13  C   UNL     1      48.628   3.086  21.435  1.00  0.00    -0.008 C 
ATOM     14  C   UNL     1      47.324   2.552  20.755  1.00  0.00     0.014 C 
ATOM     15  C   UNL     1      47.409   1.083  20.329  1.00  0.00     0.033 C 
ATOM     16  C   UNL     1      47.666   0.199  21.548  1.00  0.00     0.118 C 
ATOM     17  C   UNL     1      48.999   0.569  22.204  1.00  0.00     0.063 C 
ATOM     18  C   UNL     1      49.733   3.227  20.355  1.00  0.00     0.016 C 
ATOM     19  C   UNL     1      46.921   6.855  24.134  1.00  0.00     0.012 C 
ENDROOT
BRANCH   1  20
ATOM     20  C   UNL     1      47.761   9.685  23.745  1.00  0.00     0.133 C 
ATOM     21  C   UNL     1      47.126  10.293  22.522  1.00  0.00     0.088 C 
ATOM     22  O   UNL     1      47.413  10.116  24.835  1.00  0.00    -0.300 OA
ENDBRANCH   1  20
BRANCH  16  23
ATOM     23  O   UNL     1      47.692  -1.145  21.145  1.00  0.00    -0.393 OA
ATOM     24  H   UNL     1      46.988  -1.251  20.451  1.00  0.00     0.210 HD
ENDBRANCH  16  23
TORSDOF 2
ENDMDL
MODEL 5
REMARK VINA RESULT:    -6.304      3.126      4.439
REMARK INTER + INTRA:          -6.977
REMARK INTER:                  -6.848
REMARK INTRA:                  -0.129
REMARK UNBOUND:                -0.120
REMARK SMILES CC(=O)[C@H]1CC[C@H]2[C@@H]3CC=C4C[C@H](O)CC[C@@]4(C)[C@@H]3CC[C@]12C
REMARK SMILES IDX 4 1 5 2 6 3 7 4 22 5 21 6 20 7 19 8 8 9 9 10 10 11 11 12
REMARK SMILES IDX 17 13 16 14 15 15 13 16 12 17 18 18 23 19 2 20 1 21 3 22
REMARK SMILES IDX 14 23
REMARK H PARENT 14 24
REMARK Flexibility Score: inf
ROOT
ATOM      1  C   UNL     1      47.715   8.171  21.971  1.00  0.00     0.062 C 
ATOM      2  C   UNL     1      49.261   8.241  21.958  1.00  0.00     0.012 C 
ATOM      3  C   UNL     1      49.760   6.799  21.769  1.00  0.00     0.005 C 
ATOM      4  C   UNL     1      48.496   5.966  21.603  1.00  0.00    -0.001 C 
ATOM      5  C   UNL     1      47.414   6.714  22.401  1.00  0.00    -0.020 C 
ATOM      6  C   UNL     1      46.010   6.183  21.983  1.00  0.00     0.008 C 
ATOM      7  C   UNL     1      46.031   4.751  21.386  1.00  0.00     0.005 C 
ATOM      8  C   UNL     1      47.129   3.822  22.004  1.00  0.00     0.003 C 
ATOM      9  C   UNL     1      48.570   4.467  21.959  1.00  0.00     0.000 C 
ATOM     10  C   UNL     1      49.515   3.723  21.009  1.00  0.00     0.031 C 
ATOM     11  C   UNL     1      49.535   2.269  21.359  1.00  0.00    -0.027 C 
ATOM     12  C   UNL     1      48.399   1.602  21.636  1.00  0.00    -0.065 C 
ATOM     13  C   UNL     1      47.043   2.310  21.502  1.00  0.00    -0.008 C 
ATOM     14  C   UNL     1      45.975   1.568  22.372  1.00  0.00     0.014 C 
ATOM     15  C   UNL     1      46.012   0.044  22.225  1.00  0.00     0.033 C 
ATOM     16  C   UNL     1      47.378  -0.490  22.650  1.00  0.00     0.118 C 
ATOM     17  C   UNL     1      48.479   0.089  21.757  1.00  0.00     0.063 C 
ATOM     18  C   UNL     1      46.624   2.217  20.011  1.00  0.00     0.016 C 
ATOM     19  C   UNL     1      47.595   6.568  23.944  1.00  0.00     0.012 C 
ENDROOT
BRANCH   1  20
ATOM     20  C   UNL     1      46.983   9.238  22.778  1.00  0.00     0.133 C 
ATOM     21  C   UNL     1      47.621  10.080  23.851  1.00  0.00     0.088 C 
ATOM     22  O   UNL     1      45.806   9.451  22.519  1.00  0.00    -0.300 OA
ENDBRANCH   1  20
BRANCH  16  23
ATOM     23  O   UNL     1      47.376  -1.890  22.554  1.00  0.00    -0.393 OA
ATOM     24  H   UNL     1      46.424  -2.174  22.507  1.00  0.00     0.210 HD
ENDBRANCH  16  23
TORSDOF 2
ENDMDL
MODEL 6
REMARK VINA RESULT:    -6.299      2.587      6.830
REMARK INTER + INTRA:          -6.972
REMARK INTER:                  -6.841
REMARK INTRA:                  -0.131
REMARK UNBOUND:                -0.120
REMARK SMILES CC(=O)[C@H]1CC[C@H]2[C@@H]3CC=C4C[C@H](O)CC[C@@]4(C)[C@@H]3CC[C@]12C
REMARK SMILES IDX 4 1 5 2 6 3 7 4 22 5 21 6 20 7 19 8 8 9 9 10 10 11 11 12
REMARK SMILES IDX 17 13 16 14 15 15 13 16 12 17 18 18 23 19 2 20 1 21 3 22
REMARK SMILES IDX 14 23
REMARK H PARENT 14 24
REMARK Flexibility Score: inf
ROOT
ATOM      1  C   UNL     1      50.244   2.449  22.612  1.00  0.00     0.062 C 
ATOM      2  C   UNL     1      50.121   2.541  21.072  1.00  0.00     0.012 C 
ATOM      3  C   UNL     1      49.673   3.978  20.756  1.00  0.00     0.005 C 
ATOM      4  C   UNL     1      49.629   4.680  22.107  1.00  0.00    -0.001 C 
ATOM      5  C   UNL     1      49.308   3.572  23.125  1.00  0.00    -0.020 C 
ATOM      6  C   UNL     1      49.627   4.087  24.561  1.00  0.00     0.008 C 
ATOM      7  C   UNL     1      49.604   5.633  24.693  1.00  0.00     0.005 C 
ATOM      8  C   UNL     1      48.560   6.335  23.763  1.00  0.00     0.003 C 
ATOM      9  C   UNL     1      48.704   5.906  22.250  1.00  0.00     0.000 C 
ATOM     10  C   UNL     1      49.180   7.059  21.358  1.00  0.00     0.031 C 
ATOM     11  C   UNL     1      48.284   8.242  21.548  1.00  0.00    -0.027 C 
ATOM     12  C   UNL     1      47.887   8.626  22.775  1.00  0.00    -0.065 C 
ATOM     13  C   UNL     1      48.430   7.905  24.018  1.00  0.00    -0.008 C 
ATOM     14  C   UNL     1      47.455   8.124  25.220  1.00  0.00     0.014 C 
ATOM     15  C   UNL     1      46.985   9.574  25.375  1.00  0.00     0.033 C 
ATOM     16  C   UNL     1      46.243  10.021  24.117  1.00  0.00     0.118 C 
ATOM     17  C   UNL     1      47.172   9.961  22.901  1.00  0.00     0.063 C 
ATOM     18  C   UNL     1      49.799   8.551  24.360  1.00  0.00     0.016 C 
ATOM     19  C   UNL     1      47.822   3.098  23.052  1.00  0.00     0.012 C 
ENDROOT
BRANCH   1  20
ATOM     20  C   UNL     1      50.005   1.081  23.243  1.00  0.00     0.133 C 
ATOM     21  C   UNL     1      49.364  -0.082  22.534  1.00  0.00     0.088 C 
ATOM     22  O   UNL     1      50.385   0.902  24.392  1.00  0.00    -0.300 OA
ENDBRANCH   1  20
BRANCH  16  23
ATOM     23  O   UNL     1      45.779  11.332  24.297  1.00  0.00    -0.393 OA
ATOM     24  H   UNL     1      44.908  11.398  23.821  1.00  0.00     0.210 HD
ENDBRANCH  16  23
TORSDOF 2
ENDMDL
MODEL 7
REMARK VINA RESULT:    -6.195      2.276      3.021
REMARK INTER + INTRA:          -6.858
REMARK INTER:                  -6.733
REMARK INTRA:                  -0.126
REMARK UNBOUND:                -0.120
REMARK SMILES CC(=O)[C@H]1CC[C@H]2[C@@H]3CC=C4C[C@H](O)CC[C@@]4(C)[C@@H]3CC[C@]12C
REMARK SMILES IDX 4 1 5 2 6 3 7 4 22 5 21 6 20 7 19 8 8 9 9 10 10 11 11 12
REMARK SMILES IDX 17 13 16 14 15 15 13 16 12 17 18 18 23 19 2 20 1 21 3 22
REMARK SMILES IDX 14 23
REMARK H PARENT 14 24
REMARK Flexibility Score: inf
ROOT
ATOM      1  C   UNL     1      47.870   7.371  22.622  1.00  0.00     0.062 C 
ATOM      2  C   UNL     1      48.897   7.885  21.583  1.00  0.00     0.012 C 
ATOM      3  C   UNL     1      49.664   6.650  21.083  1.00  0.00     0.005 C 
ATOM      4  C   UNL     1      49.007   5.469  21.785  1.00  0.00    -0.001 C 
ATOM      5  C   UNL     1      48.481   6.036  23.115  1.00  0.00    -0.020 C 
ATOM      6  C   UNL     1      47.457   5.034  23.729  1.00  0.00     0.008 C 
ATOM      7  C   UNL     1      47.640   3.572  23.243  1.00  0.00     0.005 C 
ATOM      8  C   UNL     1      49.127   3.180  22.954  1.00  0.00     0.003 C 
ATOM      9  C   UNL     1      49.845   4.188  21.973  1.00  0.00     0.000 C 
ATOM     10  C   UNL     1      50.182   3.549  20.621  1.00  0.00     0.031 C 
ATOM     11  C   UNL     1      50.961   2.292  20.841  1.00  0.00    -0.027 C 
ATOM     12  C   UNL     1      50.606   1.408  21.792  1.00  0.00    -0.065 C 
ATOM     13  C   UNL     1      49.325   1.634  22.609  1.00  0.00    -0.008 C 
ATOM     14  C   UNL     1      49.415   0.843  23.955  1.00  0.00     0.014 C 
ATOM     15  C   UNL     1      49.922  -0.594  23.792  1.00  0.00     0.033 C 
ATOM     16  C   UNL     1      51.325  -0.587  23.188  1.00  0.00     0.118 C 
ATOM     17  C   UNL     1      51.306   0.058  21.800  1.00  0.00     0.063 C 
ATOM     18  C   UNL     1      48.145   1.071  21.775  1.00  0.00     0.016 C 
ATOM     19  C   UNL     1      49.621   6.321  24.142  1.00  0.00     0.012 C 
ENDROOT
BRANCH   1  20
ATOM     20  C   UNL     1      47.468   8.337  23.731  1.00  0.00     0.133 C 
ATOM     21  C   UNL     1      48.153   9.651  24.005  1.00  0.00     0.088 C 
ATOM     22  O   UNL     1      46.506   8.047  24.429  1.00  0.00    -0.300 OA
ENDBRANCH   1  20
BRANCH  16  23
ATOM     23  O   UNL     1      51.791  -1.907  23.093  1.00  0.00    -0.393 OA
ATOM     24  H   UNL     1      52.039  -2.193  24.012  1.00  0.00     0.210 HD
ENDBRANCH  16  23
TORSDOF 2
ENDMDL
MODEL 8
REMARK VINA RESULT:    -6.163      4.180      7.020
REMARK INTER + INTRA:          -6.824
REMARK INTER:                  -6.741
REMARK INTRA:                  -0.083
REMARK UNBOUND:                -0.120
REMARK SMILES CC(=O)[C@H]1CC[C@H]2[C@@H]3CC=C4C[C@H](O)CC[C@@]4(C)[C@@H]3CC[C@]12C
REMARK SMILES IDX 4 1 5 2 6 3 7 4 22 5 21 6 20 7 19 8 8 9 9 10 10 11 11 12
REMARK SMILES IDX 17 13 16 14 15 15 13 16 12 17 18 18 23 19 2 20 1 21 3 22
REMARK SMILES IDX 14 23
REMARK H PARENT 14 24
REMARK Flexibility Score: inf
ROOT
ATOM      1  C   UNL     1      48.062   5.675  26.896  1.00  0.00     0.062 C 
ATOM      2  C   UNL     1      48.043   6.663  28.088  1.00  0.00     0.012 C 
ATOM      3  C   UNL     1      47.611   8.024  27.518  1.00  0.00     0.005 C 
ATOM      4  C   UNL     1      47.323   7.759  26.046  1.00  0.00    -0.001 C 
ATOM      5  C   UNL     1      48.248   6.591  25.661  1.00  0.00    -0.020 C 
ATOM      6  C   UNL     1      47.764   5.977  24.312  1.00  0.00     0.008 C 
ATOM      7  C   UNL     1      46.937   6.957  23.437  1.00  0.00     0.005 C 
ATOM      8  C   UNL     1      47.378   8.453  23.568  1.00  0.00     0.003 C 
ATOM      9  C   UNL     1      47.425   8.947  25.068  1.00  0.00     0.000 C 
ATOM     10  C   UNL     1      46.352  10.000  25.370  1.00  0.00     0.031 C 
ATOM     11  C   UNL     1      46.456  11.118  24.382  1.00  0.00    -0.027 C 
ATOM     12  C   UNL     1      46.631  10.876  23.070  1.00  0.00    -0.065 C 
ATOM     13  C   UNL     1      46.633   9.430  22.551  1.00  0.00    -0.008 C 
ATOM     14  C   UNL     1      47.381   9.366  21.178  1.00  0.00     0.014 C 
ATOM     15  C   UNL     1      46.981  10.482  20.207  1.00  0.00     0.033 C 
ATOM     16  C   UNL     1      47.295  11.845  20.819  1.00  0.00     0.118 C 
ATOM     17  C   UNL     1      46.498  12.047  22.110  1.00  0.00     0.063 C 
ATOM     18  C   UNL     1      45.153   9.021  22.333  1.00  0.00     0.016 C 
ATOM     19  C   UNL     1      49.743   7.021  25.539  1.00  0.00     0.012 C 
ENDROOT
BRANCH   1  20
ATOM     20  C   UNL     1      49.044   4.511  26.981  1.00  0.00     0.133 C 
ATOM     21  C   UNL     1      48.913   3.229  26.201  1.00  0.00     0.088 C 
ATOM     22  O   UNL     1      50.022   4.633  27.706  1.00  0.00    -0.300 OA
ENDBRANCH   1  20
BRANCH  16  23
ATOM     23  O   UNL     1      46.969  12.850  19.896  1.00  0.00    -0.393 OA
ATOM     24  H   UNL     1      46.204  13.357  20.280  1.00  0.00     0.210 HD
ENDBRANCH  16  23
TORSDOF 2
ENDMDL
MODEL 9
REMARK VINA RESULT:    -6.138      2.749      4.373
REMARK INTER + INTRA:          -6.796
REMARK INTER:                  -6.720
REMARK INTRA:                  -0.076
REMARK UNBOUND:                -0.120
REMARK SMILES CC(=O)[C@H]1CC[C@H]2[C@@H]3CC=C4C[C@H](O)CC[C@@]4(C)[C@@H]3CC[C@]12C
REMARK SMILES IDX 4 1 5 2 6 3 7 4 22 5 21 6 20 7 19 8 8 9 9 10 10 11 11 12
REMARK SMILES IDX 17 13 16 14 15 15 13 16 12 17 18 18 23 19 2 20 1 21 3 22
REMARK SMILES IDX 14 23
REMARK H PARENT 14 24
REMARK Flexibility Score: inf
ROOT
ATOM      1  C   UNL     1      49.600   6.104  25.754  1.00  0.00     0.062 C 
ATOM      2  C   UNL     1      49.346   5.779  27.246  1.00  0.00     0.012 C 
ATOM      3  C   UNL     1      49.253   4.247  27.348  1.00  0.00     0.005 C 
ATOM      4  C   UNL     1      49.532   3.743  25.938  1.00  0.00    -0.001 C 
ATOM      5  C   UNL     1      49.043   4.867  25.007  1.00  0.00    -0.020 C 
ATOM      6  C   UNL     1      49.632   4.643  23.581  1.00  0.00     0.008 C 
ATOM      7  C   UNL     1      50.023   3.170  23.286  1.00  0.00     0.005 C 
ATOM      8  C   UNL     1      49.104   2.116  23.990  1.00  0.00     0.003 C 
ATOM      9  C   UNL     1      48.975   2.359  25.545  1.00  0.00     0.000 C 
ATOM     10  C   UNL     1      49.637   1.248  26.368  1.00  0.00     0.031 C 
ATOM     11  C   UNL     1      49.102  -0.080  25.937  1.00  0.00    -0.027 C 
ATOM     12  C   UNL     1      48.947  -0.381  24.634  1.00  0.00    -0.065 C 
ATOM     13  C   UNL     1      49.411   0.611  23.558  1.00  0.00    -0.008 C 
ATOM     14  C   UNL     1      48.655   0.325  22.219  1.00  0.00     0.014 C 
ATOM     15  C   UNL     1      48.593  -1.161  21.852  1.00  0.00     0.033 C 
ATOM     16  C   UNL     1      47.866  -1.940  22.946  1.00  0.00     0.118 C 
ATOM     17  C   UNL     1      48.617  -1.821  24.275  1.00  0.00     0.063 C 
ATOM     18  C   UNL     1      50.927   0.370  23.337  1.00  0.00     0.016 C 
ATOM     19  C   UNL     1      47.487   4.950  24.928  1.00  0.00     0.012 C 
ENDROOT
BRANCH   1  20
ATOM     20  C   UNL     1      49.082   7.444  25.243  1.00  0.00     0.133 C 
ATOM     21  C   UNL     1      49.624   8.160  24.034  1.00  0.00     0.088 C 
ATOM     22  O   UNL     1      48.144   7.963  25.832  1.00  0.00    -0.300 OA
ENDBRANCH   1  20
BRANCH  16  23
ATOM     23  O   UNL     1      47.777  -3.288  22.569  1.00  0.00    -0.393 OA
ATOM     24  H   UNL     1      47.419  -3.784  23.353  1.00  0.00     0.210 HD
ENDBRANCH  16  23
TORSDOF 2
ENDMDL
