MODEL 1
REMARK VINA RESULT:    -4.115      0.000      0.000
REMARK INTER + INTRA:          -5.627
REMARK INTER:                  -5.318
REMARK INTRA:                  -0.309
REMARK UNBOUND:                -0.309
REMARK SMILES CCCCCCC(=O)[O-]
REMARK SMILES IDX 5 1 6 2 7 3 8 4 9 5 4 6 3 7 2 8 1 9
REMARK H PARENT
REMARK Flexibility Score: inf
ROOT
ATOM      1  C   UNL     1      16.690  42.950   5.655  1.00  0.00     0.006 C 
ENDROOT
BRANCH   1   2
ATOM      2  C   UNL     1      17.672  43.823   6.449  1.00  0.00     0.053 C 
BRANCH   2   3
ATOM      3  C   UNL     1      16.964  44.719   7.417  1.00  0.00     0.041 C 
ATOM      4  O   UNL     1      16.138  45.575   7.002  1.00  0.00    -0.550 OA
ATOM      5  O   UNL     1      17.236  44.628   8.776  1.00  0.00    -0.550 OA
ENDBRANCH   2   3
ENDBRANCH   1   2
BRANCH   1   6
ATOM      6  C   UNL     1      16.671  43.310   4.160  1.00  0.00     0.000 C 
BRANCH   6   7
ATOM      7  C   UNL     1      15.273  43.714   3.659  1.00  0.00    -0.000 C 
BRANCH   7   8
ATOM      8  C   UNL     1      15.007  45.230   3.632  1.00  0.00    -0.003 C 
ATOM      9  C   UNL     1      13.674  45.614   4.274  1.00  0.00     0.004 C 
ENDBRANCH   7   8
ENDBRANCH   6   7
ENDBRANCH   1   6
TORSDOF 5
ENDMDL
MODEL 2
REMARK VINA RESULT:    -4.032      1.454      3.790
REMARK INTER + INTRA:          -5.519
REMARK INTER:                  -5.218
REMARK INTRA:                  -0.301
REMARK UNBOUND:                -0.309
REMARK SMILES CCCCCCC(=O)[O-]
REMARK SMILES IDX 5 1 6 2 7 3 8 4 9 5 4 6 3 7 2 8 1 9
REMARK H PARENT
REMARK Flexibility Score: inf
ROOT
ATOM      1  C   UNL     1      15.024  45.230   3.615  1.00  0.00     0.006 C 
ENDROOT
BRANCH   1   2
ATOM      2  C   UNL     1      13.659  45.587   4.219  1.00  0.00     0.053 C 
BRANCH   2   3
ATOM      3  C   UNL     1      13.798  46.250   5.554  1.00  0.00     0.041 C 
ATOM      4  O   UNL     1      14.779  45.982   6.297  1.00  0.00    -0.550 OA
ATOM      5  O   UNL     1      12.828  47.145   5.990  1.00  0.00    -0.550 OA
ENDBRANCH   2   3
ENDBRANCH   1   2
BRANCH   1   6
ATOM      6  C   UNL     1      15.278  43.713   3.610  1.00  0.00     0.000 C 
BRANCH   6   7
ATOM      7  C   UNL     1      16.651  43.333   4.192  1.00  0.00    -0.000 C 
BRANCH   7   8
ATOM      8  C   UNL     1      16.653  43.021   5.699  1.00  0.00    -0.003 C 
ATOM      9  C   UNL     1      17.721  43.799   6.468  1.00  0.00     0.004 C 
ENDBRANCH   7   8
ENDBRANCH   6   7
ENDBRANCH   1   6
TORSDOF 5
ENDMDL
MODEL 3
REMARK VINA RESULT:    -3.940      0.944      1.480
REMARK INTER + INTRA:          -5.400
REMARK INTER:                  -5.039
REMARK INTRA:                  -0.361
REMARK UNBOUND:                -0.309
REMARK SMILES CCCCCCC(=O)[O-]
REMARK SMILES IDX 5 1 6 2 7 3 8 4 9 5 4 6 3 7 2 8 1 9
REMARK H PARENT
REMARK Flexibility Score: inf
ROOT
ATOM      1  C   UNL     1      16.619  43.367   4.429  1.00  0.00     0.006 C 
ENDROOT
BRANCH   1   2
ATOM      2  C   UNL     1      16.275  43.015   5.882  1.00  0.00     0.053 C 
BRANCH   2   3
ATOM      3  C   UNL     1      17.078  43.822   6.855  1.00  0.00     0.041 C 
ATOM      4  O   UNL     1      17.091  45.079   6.780  1.00  0.00    -0.550 OA
ATOM      5  O   UNL     1      17.835  43.183   7.830  1.00  0.00    -0.550 OA
ENDBRANCH   2   3
ENDBRANCH   1   2
BRANCH   1   6
ATOM      6  C   UNL     1      15.369  43.727   3.607  1.00  0.00     0.000 C 
BRANCH   6   7
ATOM      7  C   UNL     1      15.046  45.231   3.633  1.00  0.00    -0.000 C 
BRANCH   7   8
ATOM      8  C   UNL     1      13.749  45.603   4.373  1.00  0.00    -0.003 C 
ATOM      9  C   UNL     1      13.999  46.392   5.658  1.00  0.00     0.004 C 
ENDBRANCH   7   8
ENDBRANCH   6   7
ENDBRANCH   1   6
TORSDOF 5
ENDMDL
MODEL 4
REMARK VINA RESULT:    -3.862      1.558      2.540
REMARK INTER + INTRA:          -5.300
REMARK INTER:                  -4.992
REMARK INTRA:                  -0.308
REMARK UNBOUND:                -0.309
REMARK SMILES CCCCCCC(=O)[O-]
REMARK SMILES IDX 5 1 6 2 7 3 8 4 9 5 4 6 3 7 2 8 1 9
REMARK H PARENT
REMARK Flexibility Score: inf
ROOT
ATOM      1  C   UNL     1      15.309  43.661   3.662  1.00  0.00     0.006 C 
ENDROOT
BRANCH   1   2
ATOM      2  C   UNL     1      16.710  43.295   4.170  1.00  0.00     0.053 C 
BRANCH   2   3
ATOM      3  C   UNL     1      16.782  43.311   5.665  1.00  0.00     0.041 C 
ATOM      4  O   UNL     1      17.514  44.149   6.256  1.00  0.00    -0.550 OA
ATOM      5  O   UNL     1      16.060  42.384   6.406  1.00  0.00    -0.550 OA
ENDBRANCH   2   3
ENDBRANCH   1   2
BRANCH   1   6
ATOM      6  C   UNL     1      15.099  45.183   3.584  1.00  0.00     0.000 C 
BRANCH   6   7
ATOM      7  C   UNL     1      13.661  45.608   3.928  1.00  0.00    -0.000 C 
BRANCH   7   8
ATOM      8  C   UNL     1      13.531  46.515   5.165  1.00  0.00    -0.003 C 
ATOM      9  C   UNL     1      14.117  45.889   6.429  1.00  0.00     0.004 C 
ENDBRANCH   7   8
ENDBRANCH   6   7
ENDBRANCH   1   6
TORSDOF 5
ENDMDL
MODEL 5
REMARK VINA RESULT:    -3.777      1.918      2.521
REMARK INTER + INTRA:          -5.189
REMARK INTER:                  -4.858
REMARK INTRA:                  -0.331
REMARK UNBOUND:                -0.309
REMARK SMILES CCCCCCC(=O)[O-]
REMARK SMILES IDX 5 1 6 2 7 3 8 4 9 5 4 6 3 7 2 8 1 9
REMARK H PARENT
REMARK Flexibility Score: inf
ROOT
ATOM      1  C   UNL     1      14.598  45.147   5.599  1.00  0.00     0.006 C 
ENDROOT
BRANCH   1   2
ATOM      2  C   UNL     1      15.713  45.172   6.653  1.00  0.00     0.053 C 
BRANCH   2   3
ATOM      3  C   UNL     1      16.485  43.889   6.677  1.00  0.00     0.041 C 
ATOM      4  O   UNL     1      17.745  43.906   6.673  1.00  0.00    -0.550 OA
ATOM      5  O   UNL     1      15.813  42.673   6.677  1.00  0.00    -0.550 OA
ENDBRANCH   2   3
ENDBRANCH   1   2
BRANCH   1   6
ATOM      6  C   UNL     1      15.153  45.163   4.165  1.00  0.00     0.000 C 
BRANCH   6   7
ATOM      7  C   UNL     1      14.790  43.898   3.367  1.00  0.00    -0.000 C 
BRANCH   7   8
ATOM      8  C   UNL     1      13.610  43.089   3.935  1.00  0.00    -0.003 C 
ATOM      9  C   UNL     1      12.678  42.550   2.851  1.00  0.00     0.004 C 
ENDBRANCH   7   8
ENDBRANCH   6   7
ENDBRANCH   1   6
TORSDOF 5
ENDMDL
MODEL 6
REMARK VINA RESULT:    -3.739      1.700      2.697
REMARK INTER + INTRA:          -5.141
REMARK INTER:                  -4.812
REMARK INTRA:                  -0.329
REMARK UNBOUND:                -0.309
REMARK SMILES CCCCCCC(=O)[O-]
REMARK SMILES IDX 5 1 6 2 7 3 8 4 9 5 4 6 3 7 2 8 1 9
REMARK H PARENT
REMARK Flexibility Score: inf
ROOT
ATOM      1  C   UNL     1      14.529  45.148   6.786  1.00  0.00     0.006 C 
ENDROOT
BRANCH   1   2
ATOM      2  C   UNL     1      16.033  45.100   7.090  1.00  0.00     0.053 C 
BRANCH   2   3
ATOM      3  C   UNL     1      16.595  43.725   6.908  1.00  0.00     0.041 C 
ATOM      4  O   UNL     1      17.834  43.525   7.017  1.00  0.00    -0.550 OA
ATOM      5  O   UNL     1      15.753  42.666   6.589  1.00  0.00    -0.550 OA
ENDBRANCH   2   3
ENDBRANCH   1   2
BRANCH   1   6
ATOM      6  C   UNL     1      14.170  46.279   5.808  1.00  0.00     0.000 C 
BRANCH   6   7
ATOM      7  C   UNL     1      13.806  45.765   4.404  1.00  0.00    -0.000 C 
BRANCH   7   8
ATOM      8  C   UNL     1      14.958  45.081   3.645  1.00  0.00    -0.003 C 
ATOM      9  C   UNL     1      14.699  43.599   3.376  1.00  0.00     0.004 C 
ENDBRANCH   7   8
ENDBRANCH   6   7
ENDBRANCH   1   6
TORSDOF 5
ENDMDL
MODEL 7
REMARK VINA RESULT:    -3.657      1.390      1.897
REMARK INTER + INTRA:          -5.035
REMARK INTER:                  -4.696
REMARK INTRA:                  -0.339
REMARK UNBOUND:                -0.309
REMARK SMILES CCCCCCC(=O)[O-]
REMARK SMILES IDX 5 1 6 2 7 3 8 4 9 5 4 6 3 7 2 8 1 9
REMARK H PARENT
REMARK Flexibility Score: inf
ROOT
ATOM      1  C   UNL     1      15.979  42.601   6.274  1.00  0.00     0.006 C 
ENDROOT
BRANCH   1   2
ATOM      2  C   UNL     1      16.730  42.956   7.564  1.00  0.00     0.053 C 
BRANCH   2   3
ATOM      3  C   UNL     1      16.758  44.434   7.802  1.00  0.00     0.041 C 
ATOM      4  O   UNL     1      16.313  44.912   8.879  1.00  0.00    -0.550 OA
ATOM      5  O   UNL     1      17.251  45.288   6.822  1.00  0.00    -0.550 OA
ENDBRANCH   2   3
ENDBRANCH   1   2
BRANCH   1   6
ATOM      6  C   UNL     1      14.457  42.774   6.422  1.00  0.00     0.000 C 
BRANCH   6   7
ATOM      7  C   UNL     1      13.846  43.667   5.327  1.00  0.00    -0.000 C 
BRANCH   7   8
ATOM      8  C   UNL     1      14.680  43.774   4.037  1.00  0.00    -0.003 C 
ATOM      9  C   UNL     1      15.075  45.211   3.698  1.00  0.00     0.004 C 
ENDBRANCH   7   8
ENDBRANCH   6   7
ENDBRANCH   1   6
TORSDOF 5
ENDMDL
MODEL 8
REMARK VINA RESULT:    -3.636      2.497      3.957
REMARK INTER + INTRA:          -5.007
REMARK INTER:                  -4.725
REMARK INTRA:                  -0.282
REMARK UNBOUND:                -0.309
REMARK SMILES CCCCCCC(=O)[O-]
REMARK SMILES IDX 5 1 6 2 7 3 8 4 9 5 4 6 3 7 2 8 1 9
REMARK H PARENT
REMARK Flexibility Score: inf
ROOT
ATOM      1  C   UNL     1      15.660  44.312   3.983  1.00  0.00     0.006 C 
ENDROOT
BRANCH   1   2
ATOM      2  C   UNL     1      14.385  43.556   3.587  1.00  0.00     0.053 C 
BRANCH   2   3
ATOM      3  C   UNL     1      13.418  43.462   4.726  1.00  0.00     0.041 C 
ATOM      4  O   UNL     1      12.522  44.336   4.873  1.00  0.00    -0.550 OA
ATOM      5  O   UNL     1      13.522  42.423   5.643  1.00  0.00    -0.550 OA
ENDBRANCH   2   3
ENDBRANCH   1   2
BRANCH   1   6
ATOM      6  C   UNL     1      16.792  43.360   4.404  1.00  0.00     0.000 C 
BRANCH   6   7
ATOM      7  C   UNL     1      17.380  43.702   5.785  1.00  0.00    -0.000 C 
BRANCH   7   8
ATOM      8  C   UNL     1      16.508  44.630   6.649  1.00  0.00    -0.003 C 
ATOM      9  C   UNL     1      17.107  44.897   8.030  1.00  0.00     0.004 C 
ENDBRANCH   7   8
ENDBRANCH   6   7
ENDBRANCH   1   6
TORSDOF 5
ENDMDL
MODEL 9
REMARK VINA RESULT:    -3.625      2.775      3.847
REMARK INTER + INTRA:          -4.993
REMARK INTER:                  -4.585
REMARK INTRA:                  -0.408
REMARK UNBOUND:                -0.309
REMARK SMILES CCCCCCC(=O)[O-]
REMARK SMILES IDX 5 1 6 2 7 3 8 4 9 5 4 6 3 7 2 8 1 9
REMARK H PARENT
REMARK Flexibility Score: inf
ROOT
ATOM      1  C   UNL     1      12.998  45.705   3.987  1.00  0.00     0.006 C 
ENDROOT
BRANCH   1   2
ATOM      2  C   UNL     1      13.070  46.514   5.289  1.00  0.00     0.053 C 
BRANCH   2   3
ATOM      3  C   UNL     1      13.110  45.627   6.494  1.00  0.00     0.041 C 
ATOM      4  O   UNL     1      12.109  44.926   6.800  1.00  0.00    -0.550 OA
ATOM      5  O   UNL     1      14.244  45.594   7.296  1.00  0.00    -0.550 OA
ENDBRANCH   2   3
ENDBRANCH   1   2
BRANCH   1   6
ATOM      6  C   UNL     1      14.341  45.040   3.641  1.00  0.00     0.000 C 
BRANCH   6   7
ATOM      7  C   UNL     1      14.284  43.504   3.703  1.00  0.00    -0.000 C 
BRANCH   7   8
ATOM      8  C   UNL     1      12.876  42.900   3.546  1.00  0.00    -0.003 C 
ATOM      9  C   UNL     1      12.456  42.045   4.741  1.00  0.00     0.004 C 
ENDBRANCH   7   8
ENDBRANCH   6   7
ENDBRANCH   1   6
TORSDOF 5
ENDMDL
