MODEL 1
REMARK VINA RESULT:    22.387      0.000      0.000
REMARK INTER + INTRA:          26.698
REMARK INTER:                  26.968
REMARK INTRA:                  -0.270
REMARK UNBOUND:                -0.270
REMARK SMILES O=c1c(O)c(-c2ccc(O)c(O)c2)oc2cc(O)cc(O)c12
REMARK SMILES IDX 5 1 3 2 2 3 1 4 22 5 20 6 19 7 17 8 16 9 15 10 14 11 6 12
REMARK SMILES IDX 7 13 8 14 9 15 13 16 11 17 10 18 12 20 4 22 21 24 18 26
REMARK H PARENT 10 19 12 21 4 23 21 25 18 27
REMARK Flexibility Score: inf
ROOT
ATOM      1  C   UNL     1     -37.220  23.307   5.487  1.00  0.00     0.180 A 
ATOM      2  C   UNL     1     -37.707  24.552   5.924  1.00  0.00     0.208 A 
ATOM      3  C   UNL     1     -37.729  25.628   5.022  1.00  0.00     0.238 A 
ATOM      4  O   UNL     1     -38.115  26.753   5.433  1.00  0.00    -0.285 OA
ATOM      5  C   UNL     1     -37.281  25.442   3.692  1.00  0.00     0.111 A 
ATOM      6  C   UNL     1     -37.297  26.452   2.683  1.00  0.00     0.134 A 
ATOM      7  C   UNL     1     -36.707  26.195   1.439  1.00  0.00     0.093 A 
ATOM      8  C   UNL     1     -36.162  24.942   1.147  1.00  0.00     0.123 A 
ATOM      9  C   UNL     1     -36.196  23.931   2.104  1.00  0.00     0.094 A 
ATOM     10  C   UNL     1     -36.744  24.170   3.367  1.00  0.00     0.146 A 
ATOM     11  O   UNL     1     -36.746  23.182   4.254  1.00  0.00    -0.452 OA
ENDROOT
BRANCH   1  12
ATOM     12  C   UNL     1     -37.188  22.120   6.373  1.00  0.00     0.025 A 
ATOM     13  C   UNL     1     -38.118  21.075   6.230  1.00  0.00     0.016 A 
ATOM     14  C   UNL     1     -38.053  19.953   7.060  1.00  0.00     0.051 A 
ATOM     15  C   UNL     1     -37.052  19.851   8.034  1.00  0.00     0.157 A 
ATOM     16  C   UNL     1     -36.174  22.003   7.336  1.00  0.00     0.062 A 
ATOM     17  C   UNL     1     -36.106  20.881   8.171  1.00  0.00     0.158 A 
BRANCH  15  18
ATOM     18  O   UNL     1     -36.991  18.732   8.862  1.00  0.00    -0.504 OA
ATOM     19  H   UNL     1     -37.053  17.792   8.489  1.00  0.00     0.293 HD
ENDBRANCH  15  18
BRANCH  17  20
ATOM     20  O   UNL     1     -35.093  20.806   9.125  1.00  0.00    -0.504 OA
ATOM     21  H   UNL     1     -34.659  21.634   9.516  1.00  0.00     0.293 HD
ENDBRANCH  17  20
ENDBRANCH   1  12
BRANCH   2  22
ATOM     22  O   UNL     1     -38.124  24.719   7.247  1.00  0.00    -0.502 OA
ATOM     23  H   UNL     1     -37.863  25.526   7.802  1.00  0.00     0.293 HD
ENDBRANCH   2  22
BRANCH   6  24
ATOM     24  O   UNL     1     -37.898  27.704   2.842  1.00  0.00    -0.507 OA
ATOM     25  H   UNL     1     -38.069  28.151   3.729  1.00  0.00     0.293 HD
ENDBRANCH   6  24
BRANCH   8  26
ATOM     26  O   UNL     1     -35.592  24.689  -0.100  1.00  0.00    -0.508 OA
ATOM     27  H   UNL     1     -35.797  23.842  -0.615  1.00  0.00     0.293 HD
ENDBRANCH   8  26
TORSDOF 6
ENDMDL
