MODEL 1
REMARK VINA RESULT:    -5.252      0.000      0.000
REMARK INTER + INTRA:          -6.357
REMARK INTER:                  -6.020
REMARK INTRA:                  -0.337
REMARK UNBOUND:                -0.337
REMARK SMILES COc1ccc(C(C)=O)c(O)c1
REMARK SMILES IDX 6 1 10 2 12 3 3 4 4 5 5 6 7 7 8 8 9 9 11 10 2 12 1 13
REMARK H PARENT 11 11
REMARK Flexibility Score: inf
ROOT
ATOM      1  C   UNL     1      18.843 -11.013  68.118  1.00  0.00     0.059 A 
ATOM      2  C   UNL     1      18.678  -9.817  67.377  1.00  0.00     0.130 A 
ATOM      3  C   UNL     1      17.684  -9.741  66.394  1.00  0.00     0.093 A 
ATOM      4  C   UNL     1      16.869 -10.839  66.105  1.00  0.00     0.122 A 
ATOM      5  C   UNL     1      17.052 -12.034  66.819  1.00  0.00     0.047 A 
ATOM      6  C   UNL     1      18.028 -12.118  67.814  1.00  0.00     0.019 A 
ENDROOT
BRANCH   1   7
ATOM      7  C   UNL     1      19.819 -11.122  69.227  1.00  0.00     0.163 C 
ATOM      8  C   UNL     1      20.722 -12.311  69.351  1.00  0.00     0.093 C 
ATOM      9  O   UNL     1      19.845 -10.244  70.132  1.00  0.00    -0.294 OA
ENDBRANCH   1   7
BRANCH   2  10
ATOM     10  O   UNL     1      19.496  -8.701  67.566  1.00  0.00    -0.507 OA
ATOM     11  H   UNL     1      19.315  -7.801  67.144  1.00  0.00     0.293 HD
ENDBRANCH   2  10
BRANCH   4  12
ATOM     12  O   UNL     1      15.897 -10.701  65.103  1.00  0.00    -0.497 OA
ATOM     13  C   UNL     1      14.762 -11.550  64.962  1.00  0.00     0.278 C 
ENDBRANCH   4  12
TORSDOF 3
ENDMDL
MODEL 2
REMARK VINA RESULT:    -4.957      1.563      4.992
REMARK INTER + INTRA:          -6.019
REMARK INTER:                  -5.677
REMARK INTRA:                  -0.341
REMARK UNBOUND:                -0.337
REMARK SMILES COc1ccc(C(C)=O)c(O)c1
REMARK SMILES IDX 6 1 10 2 12 3 3 4 4 5 5 6 7 7 8 8 9 9 11 10 2 12 1 13
REMARK H PARENT 11 11
REMARK Flexibility Score: inf
ROOT
ATOM      1  C   UNL     1      17.697 -10.978  66.779  1.00  0.00     0.059 A 
ATOM      2  C   UNL     1      18.170 -12.278  67.085  1.00  0.00     0.130 A 
ATOM      3  C   UNL     1      19.088 -12.455  68.128  1.00  0.00     0.093 A 
ATOM      4  C   UNL     1      19.574 -11.365  68.854  1.00  0.00     0.122 A 
ATOM      5  C   UNL     1      19.127 -10.073  68.532  1.00  0.00     0.047 A 
ATOM      6  C   UNL     1      18.199  -9.884  67.506  1.00  0.00     0.019 A 
ENDROOT
BRANCH   1   7
ATOM      7  C   UNL     1      16.663 -10.742  65.744  1.00  0.00     0.163 C 
ATOM      8  C   UNL     1      16.790  -9.617  64.764  1.00  0.00     0.093 C 
ATOM      9  O   UNL     1      15.616 -11.445  65.729  1.00  0.00    -0.294 OA
ENDBRANCH   1   7
BRANCH   2  10
ATOM     10  O   UNL     1      17.778 -13.407  66.362  1.00  0.00    -0.507 OA
ATOM     11  H   UNL     1      16.970 -13.966  66.598  1.00  0.00     0.293 HD
ENDBRANCH   2  10
BRANCH   4  12
ATOM     12  O   UNL     1      20.497 -11.608  69.883  1.00  0.00    -0.497 OA
ATOM     13  C   UNL     1      21.365 -12.736  69.933  1.00  0.00     0.278 C 
ENDBRANCH   4  12
TORSDOF 3
ENDMDL
MODEL 3
REMARK VINA RESULT:    -4.936      1.598      1.747
REMARK INTER + INTRA:          -5.995
REMARK INTER:                  -5.833
REMARK INTRA:                  -0.162
REMARK UNBOUND:                -0.337
REMARK SMILES COc1ccc(C(C)=O)c(O)c1
REMARK SMILES IDX 6 1 10 2 12 3 3 4 4 5 5 6 7 7 8 8 9 9 11 10 2 12 1 13
REMARK H PARENT 11 11
REMARK Flexibility Score: inf
ROOT
ATOM      1  C   UNL     1      19.226 -10.310  67.708  1.00  0.00     0.059 A 
ATOM      2  C   UNL     1      20.003  -9.817  66.631  1.00  0.00     0.130 A 
ATOM      3  C   UNL     1      19.394  -9.555  65.398  1.00  0.00     0.093 A 
ATOM      4  C   UNL     1      18.034  -9.803  65.198  1.00  0.00     0.122 A 
ATOM      5  C   UNL     1      17.269 -10.320  66.256  1.00  0.00     0.047 A 
ATOM      6  C   UNL     1      17.860 -10.570  67.496  1.00  0.00     0.019 A 
ENDROOT
BRANCH   1   7
ATOM      7  C   UNL     1      19.799 -10.524  69.057  1.00  0.00     0.163 C 
ATOM      8  C   UNL     1      20.474 -11.812  69.417  1.00  0.00     0.093 C 
ATOM      9  O   UNL     1      19.653  -9.645  69.950  1.00  0.00    -0.294 OA
ENDBRANCH   1   7
BRANCH   2  10
ATOM     10  O   UNL     1      21.380  -9.604  66.737  1.00  0.00    -0.507 OA
ATOM     11  H   UNL     1      22.072 -10.260  66.402  1.00  0.00     0.293 HD
ENDBRANCH   2  10
BRANCH   4  12
ATOM     12  O   UNL     1      17.485  -9.526  63.937  1.00  0.00    -0.497 OA
ATOM     13  C   UNL     1      16.871 -10.498  63.096  1.00  0.00     0.278 C 
ENDBRANCH   4  12
TORSDOF 3
ENDMDL
MODEL 4
REMARK VINA RESULT:    -4.927      1.397      4.644
REMARK INTER + INTRA:          -5.984
REMARK INTER:                  -5.644
REMARK INTRA:                  -0.340
REMARK UNBOUND:                -0.337
REMARK SMILES COc1ccc(C(C)=O)c(O)c1
REMARK SMILES IDX 6 1 10 2 12 3 3 4 4 5 5 6 7 7 8 8 9 9 11 10 2 12 1 13
REMARK H PARENT 11 11
REMARK Flexibility Score: inf
ROOT
ATOM      1  C   UNL     1      18.615 -10.820  66.931  1.00  0.00     0.059 A 
ATOM      2  C   UNL     1      19.474  -9.924  67.614  1.00  0.00     0.130 A 
ATOM      3  C   UNL     1      20.252 -10.386  68.682  1.00  0.00     0.093 A 
ATOM      4  C   UNL     1      20.173 -11.714  69.111  1.00  0.00     0.122 A 
ATOM      5  C   UNL     1      19.300 -12.596  68.453  1.00  0.00     0.047 A 
ATOM      6  C   UNL     1      18.531 -12.152  67.376  1.00  0.00     0.019 A 
ENDROOT
BRANCH   1   7
ATOM      7  C   UNL     1      17.834 -10.407  65.742  1.00  0.00     0.163 C 
ATOM      8  C   UNL     1      16.432 -10.888  65.530  1.00  0.00     0.093 C 
ATOM      9  O   UNL     1      18.376  -9.703  64.846  1.00  0.00    -0.294 OA
ENDBRANCH   1   7
BRANCH   2  10
ATOM     10  O   UNL     1      19.559  -8.569  67.283  1.00  0.00    -0.507 OA
ATOM     11  H   UNL     1      19.771  -8.237  66.352  1.00  0.00     0.293 HD
ENDBRANCH   2  10
BRANCH   4  12
ATOM     12  O   UNL     1      20.974 -12.114  70.192  1.00  0.00    -0.497 OA
ATOM     13  C   UNL     1      21.715 -13.330  70.237  1.00  0.00     0.278 C 
ENDBRANCH   4  12
TORSDOF 3
ENDMDL
MODEL 5
REMARK VINA RESULT:    -4.875      2.110      5.110
REMARK INTER + INTRA:          -5.924
REMARK INTER:                  -5.587
REMARK INTRA:                  -0.337
REMARK UNBOUND:                -0.337
REMARK SMILES COc1ccc(C(C)=O)c(O)c1
REMARK SMILES IDX 6 1 10 2 12 3 3 4 4 5 5 6 7 7 8 8 9 9 11 10 2 12 1 13
REMARK H PARENT 11 11
REMARK Flexibility Score: inf
ROOT
ATOM      1  C   UNL     1      17.455 -10.587  64.490  1.00  0.00     0.059 A 
ATOM      2  C   UNL     1      18.766 -10.056  64.434  1.00  0.00     0.130 A 
ATOM      3  C   UNL     1      19.404  -9.653  65.614  1.00  0.00     0.093 A 
ATOM      4  C   UNL     1      18.754  -9.735  66.849  1.00  0.00     0.122 A 
ATOM      5  C   UNL     1      17.443 -10.235  66.901  1.00  0.00     0.047 A 
ATOM      6  C   UNL     1      16.802 -10.656  65.734  1.00  0.00     0.019 A 
ENDROOT
BRANCH   1   7
ATOM      7  C   UNL     1      16.766 -11.107  63.285  1.00  0.00     0.163 C 
ATOM      8  C   UNL     1      15.326 -10.792  63.020  1.00  0.00     0.093 C 
ATOM      9  O   UNL     1      17.368 -11.893  62.506  1.00  0.00    -0.294 OA
ENDBRANCH   1   7
BRANCH   2  10
ATOM     10  O   UNL     1      19.454  -9.884  63.230  1.00  0.00    -0.507 OA
ATOM     11  H   UNL     1      20.442 -10.067  63.123  1.00  0.00     0.293 HD
ENDBRANCH   2  10
BRANCH   4  12
ATOM     12  O   UNL     1      19.445  -9.310  67.993  1.00  0.00    -0.497 OA
ATOM     13  C   UNL     1      19.501 -10.039  69.216  1.00  0.00     0.278 C 
ENDBRANCH   4  12
TORSDOF 3
ENDMDL
MODEL 6
REMARK VINA RESULT:    -4.873      1.197      2.004
REMARK INTER + INTRA:          -5.923
REMARK INTER:                  -5.813
REMARK INTRA:                  -0.110
REMARK UNBOUND:                -0.337
REMARK SMILES COc1ccc(C(C)=O)c(O)c1
REMARK SMILES IDX 6 1 10 2 12 3 3 4 4 5 5 6 7 7 8 8 9 9 11 10 2 12 1 13
REMARK H PARENT 11 11
REMARK Flexibility Score: inf
ROOT
ATOM      1  C   UNL     1      18.832 -11.058  68.072  1.00  0.00     0.059 A 
ATOM      2  C   UNL     1      17.758 -11.947  67.820  1.00  0.00     0.130 A 
ATOM      3  C   UNL     1      16.931 -11.740  66.710  1.00  0.00     0.093 A 
ATOM      4  C   UNL     1      17.125 -10.649  65.859  1.00  0.00     0.122 A 
ATOM      5  C   UNL     1      18.172  -9.750  66.125  1.00  0.00     0.047 A 
ATOM      6  C   UNL     1      19.014  -9.954  67.219  1.00  0.00     0.019 A 
ENDROOT
BRANCH   1   7
ATOM      7  C   UNL     1      19.789 -11.276  69.182  1.00  0.00     0.163 C 
ATOM      8  C   UNL     1      20.724 -12.447  69.179  1.00  0.00     0.093 C 
ATOM      9  O   UNL     1      19.771 -10.517  70.187  1.00  0.00    -0.294 OA
ENDBRANCH   1   7
BRANCH   2  10
ATOM     10  O   UNL     1      17.464 -13.023  68.662  1.00  0.00    -0.507 OA
ATOM     11  H   UNL     1      17.533 -13.989  68.374  1.00  0.00     0.293 HD
ENDBRANCH   2  10
BRANCH   4  12
ATOM     12  O   UNL     1      16.258 -10.493  64.767  1.00  0.00    -0.497 OA
ATOM     13  C   UNL     1      15.085 -11.274  64.554  1.00  0.00     0.278 C 
ENDBRANCH   4  12
TORSDOF 3
ENDMDL
MODEL 7
REMARK VINA RESULT:    -4.747     16.633     18.698
REMARK INTER + INTRA:          -5.778
REMARK INTER:                  -5.442
REMARK INTRA:                  -0.336
REMARK UNBOUND:                -0.337
REMARK SMILES COc1ccc(C(C)=O)c(O)c1
REMARK SMILES IDX 6 1 10 2 12 3 3 4 4 5 5 6 7 7 8 8 9 9 11 10 2 12 1 13
REMARK H PARENT 11 11
REMARK Flexibility Score: inf
ROOT
ATOM      1  C   UNL     1      12.934   3.609  56.125  1.00  0.00     0.059 A 
ATOM      2  C   UNL     1      12.359   2.354  55.811  1.00  0.00     0.130 A 
ATOM      3  C   UNL     1      13.072   1.178  56.072  1.00  0.00     0.093 A 
ATOM      4  C   UNL     1      14.362   1.220  56.608  1.00  0.00     0.122 A 
ATOM      5  C   UNL     1      14.945   2.466  56.893  1.00  0.00     0.047 A 
ATOM      6  C   UNL     1      14.237   3.646  56.653  1.00  0.00     0.019 A 
ENDROOT
BRANCH   1   7
ATOM      7  C   UNL     1      12.192   4.879  55.951  1.00  0.00     0.163 C 
ATOM      8  C   UNL     1      12.236   5.953  56.995  1.00  0.00     0.093 C 
ATOM      9  O   UNL     1      11.444   5.039  54.948  1.00  0.00    -0.294 OA
ENDBRANCH   1   7
BRANCH   2  10
ATOM     10  O   UNL     1      11.101   2.235  55.215  1.00  0.00    -0.507 OA
ATOM     11  H   UNL     1      10.765   1.381  54.792  1.00  0.00     0.293 HD
ENDBRANCH   2  10
BRANCH   4  12
ATOM     12  O   UNL     1      15.028   0.007  56.840  1.00  0.00    -0.497 OA
ATOM     13  C   UNL     1      16.038  -0.180  57.826  1.00  0.00     0.278 C 
ENDBRANCH   4  12
TORSDOF 3
ENDMDL
MODEL 8
REMARK VINA RESULT:    -4.649     16.138     18.027
REMARK INTER + INTRA:          -5.666
REMARK INTER:                  -5.342
REMARK INTRA:                  -0.323
REMARK UNBOUND:                -0.337
REMARK SMILES COc1ccc(C(C)=O)c(O)c1
REMARK SMILES IDX 6 1 10 2 12 3 3 4 4 5 5 6 7 7 8 8 9 9 11 10 2 12 1 13
REMARK H PARENT 11 11
REMARK Flexibility Score: inf
ROOT
ATOM      1  C   UNL     1      14.670   3.378  56.004  1.00  0.00     0.059 A 
ATOM      2  C   UNL     1      15.845   2.713  56.433  1.00  0.00     0.130 A 
ATOM      3  C   UNL     1      15.747   1.631  57.317  1.00  0.00     0.093 A 
ATOM      4  C   UNL     1      14.508   1.213  57.812  1.00  0.00     0.122 A 
ATOM      5  C   UNL     1      13.346   1.891  57.409  1.00  0.00     0.047 A 
ATOM      6  C   UNL     1      13.428   2.961  56.515  1.00  0.00     0.019 A 
ENDROOT
BRANCH   1   7
ATOM      7  C   UNL     1      14.708   4.472  55.005  1.00  0.00     0.163 C 
ATOM      8  C   UNL     1      14.036   5.784  55.269  1.00  0.00     0.093 C 
ATOM      9  O   UNL     1      15.242   4.279  53.880  1.00  0.00    -0.294 OA
ENDBRANCH   1   7
BRANCH   2  10
ATOM     10  O   UNL     1      17.122   3.113  56.031  1.00  0.00    -0.507 OA
ATOM     11  H   UNL     1      17.889   3.252  56.674  1.00  0.00     0.293 HD
ENDBRANCH   2  10
BRANCH   4  12
ATOM     12  O   UNL     1      14.478   0.127  58.699  1.00  0.00    -0.497 OA
ATOM     13  C   UNL     1      15.374  -0.041  59.794  1.00  0.00     0.278 C 
ENDBRANCH   4  12
TORSDOF 3
ENDMDL
MODEL 9
REMARK VINA RESULT:    -4.521      2.339      3.098
REMARK INTER + INTRA:          -5.519
REMARK INTER:                  -5.178
REMARK INTRA:                  -0.341
REMARK UNBOUND:                -0.337
REMARK SMILES COc1ccc(C(C)=O)c(O)c1
REMARK SMILES IDX 6 1 10 2 12 3 3 4 4 5 5 6 7 7 8 8 9 9 11 10 2 12 1 13
REMARK H PARENT 11 11
REMARK Flexibility Score: inf
ROOT
ATOM      1  C   UNL     1      17.821 -11.744  66.846  1.00  0.00     0.059 A 
ATOM      2  C   UNL     1      17.791 -12.656  65.762  1.00  0.00     0.130 A 
ATOM      3  C   UNL     1      17.478 -12.197  64.477  1.00  0.00     0.093 A 
ATOM      4  C   UNL     1      17.162 -10.856  64.247  1.00  0.00     0.122 A 
ATOM      5  C   UNL     1      17.163  -9.957  65.326  1.00  0.00     0.047 A 
ATOM      6  C   UNL     1      17.489 -10.398  66.610  1.00  0.00     0.019 A 
ENDROOT
BRANCH   1   7
ATOM      7  C   UNL     1      18.228 -12.157  68.209  1.00  0.00     0.163 C 
ATOM      8  C   UNL     1      19.405 -11.529  68.890  1.00  0.00     0.093 C 
ATOM      9  O   UNL     1      17.631 -13.108  68.783  1.00  0.00    -0.294 OA
ENDBRANCH   1   7
BRANCH   2  10
ATOM     10  O   UNL     1      18.034 -14.022  65.926  1.00  0.00    -0.507 OA
ATOM     11  H   UNL     1      17.306 -14.699  66.105  1.00  0.00     0.293 HD
ENDBRANCH   2  10
BRANCH   4  12
ATOM     12  O   UNL     1      16.850 -10.460  62.937  1.00  0.00    -0.497 OA
ATOM     13  C   UNL     1      16.579  -9.117  62.546  1.00  0.00     0.278 C 
ENDBRANCH   4  12
TORSDOF 3
ENDMDL
