MODEL 1
REMARK VINA RESULT:    -8.277      0.000      0.000
REMARK INTER + INTRA:          -9.160
REMARK INTER:                  -9.002
REMARK INTRA:                  -0.157
REMARK UNBOUND:                -0.157
REMARK SMILES C[C@H]1[C@H](C)CC[C@]2(C(=O)[O-])CC[C@@]3(C)C(=CC[C@@H]4[C@]5(C)CC[C@@H](O)C(C)(C)[C@@H]5CC[C@@]43C)[C@H]12
REMARK SMILES IDX 7 1 6 2 11 3 33 4 5 5 12 6 15 7 2 8 3 9 13 10 16 11 1 12
REMARK SMILES IDX 4 13 14 14 31 15 17 16 18 17 30 18 32 19 19 20 29 21 28 22
REMARK SMILES IDX 21 23 20 24 25 25 22 26 23 27 26 28 27 29 8 30 9 31 10 32
REMARK SMILES IDX 24 33
REMARK H PARENT 24 34
REMARK Flexibility Score: inf
ROOT
ATOM      1  C   UNL     1     267.458 -34.319  45.155  1.00  0.00     0.017 C 
ATOM      2  C   UNL     1     265.945 -34.657  45.043  1.00  0.00     0.014 C 
ATOM      3  C   UNL     1     268.128 -35.303  46.173  1.00  0.00     0.014 C 
ATOM      4  C   UNL     1     267.580 -32.775  45.540  1.00  0.00     0.030 C 
ATOM      5  C   UNL     1     265.248 -33.906  43.886  1.00  0.00     0.004 C 
ATOM      6  C   UNL     1     268.056 -34.895  47.649  1.00  0.00     0.013 C 
ATOM      7  C   UNL     1     267.608 -32.577  47.084  1.00  0.00    -0.063 C 
ATOM      8  C   UNL     1     266.502 -31.881  44.785  1.00  0.00    -0.003 C 
ATOM      9  C   UNL     1     265.920 -32.558  43.517  1.00  0.00    -0.011 C 
ATOM     10  C   UNL     1     268.557 -33.448  47.909  1.00  0.00    -0.006 C 
ATOM     11  C   UNL     1     266.770 -31.732  47.719  1.00  0.00    -0.027 C 
ATOM     12  C   UNL     1     267.095 -30.490  44.476  1.00  0.00     0.008 C 
ATOM     13  C   UNL     1     264.903 -31.673  42.772  1.00  0.00     0.008 C 
ATOM     14  C   UNL     1     270.013 -33.274  47.336  1.00  0.00     0.017 C 
ATOM     15  C   UNL     1     268.540 -33.075  49.490  1.00  0.00    -0.020 C 
ATOM     16  C   UNL     1     266.269 -31.951  49.116  1.00  0.00     0.032 C 
ATOM     17  C   UNL     1     267.061 -32.945  50.023  1.00  0.00     0.006 C 
ATOM     18  C   UNL     1     269.263 -31.706  49.750  1.00  0.00     0.008 C 
ATOM     19  C   UNL     1     269.299 -34.201  50.268  1.00  0.00     0.012 C 
ATOM     20  C   UNL     1     266.922 -32.596  51.598  1.00  0.00    -0.025 C 
ATOM     21  C   UNL     1     268.709 -30.833  50.905  1.00  0.00     0.005 C 
ATOM     22  C   UNL     1     268.108 -31.637  52.091  1.00  0.00     0.003 C 
ATOM     23  C   UNL     1     265.476 -32.023  51.918  1.00  0.00     0.010 C 
ATOM     24  C   UNL     1     267.003 -33.918  52.430  1.00  0.00     0.012 C 
ATOM     25  C   UNL     1     267.846 -30.776  53.433  1.00  0.00    -0.006 C 
ATOM     26  C   UNL     1     265.478 -30.615  52.499  1.00  0.00     0.033 C 
ATOM     27  C   UNL     1     266.317 -30.591  53.769  1.00  0.00     0.120 C 
ATOM     28  C   UNL     1     268.573 -31.468  54.626  1.00  0.00     0.014 C 
ATOM     29  C   UNL     1     268.461 -29.346  53.362  1.00  0.00     0.014 C 
ENDROOT
BRANCH   1  30
ATOM     30  C   UNL     1     268.143 -34.624  43.824  1.00  0.00     0.048 C 
ATOM     31  O   UNL     1     267.913 -35.710  43.228  1.00  0.00    -0.550 OA
ATOM     32  O   UNL     1     269.099 -33.766  43.294  1.00  0.00    -0.550 OA
ENDBRANCH   1  30
BRANCH  27  33
ATOM     33  O   UNL     1     265.835 -31.572  54.662  1.00  0.00    -0.393 OA
ATOM     34  H   UNL     1     265.603 -32.374  54.125  1.00  0.00     0.210 HD
ENDBRANCH  27  33
TORSDOF 2
ENDMDL
MODEL 2
REMARK VINA RESULT:    -7.914      1.760      8.091
REMARK INTER + INTRA:          -8.765
REMARK INTER:                  -8.607
REMARK INTRA:                  -0.158
REMARK UNBOUND:                -0.157
REMARK SMILES C[C@H]1[C@H](C)CC[C@]2(C(=O)[O-])CC[C@@]3(C)C(=CC[C@@H]4[C@]5(C)CC[C@@H](O)C(C)(C)[C@@H]5CC[C@@]43C)[C@H]12
REMARK SMILES IDX 7 1 6 2 11 3 33 4 5 5 12 6 15 7 2 8 3 9 13 10 16 11 1 12
REMARK SMILES IDX 4 13 14 14 31 15 17 16 18 17 30 18 32 19 19 20 29 21 28 22
REMARK SMILES IDX 21 23 20 24 25 25 22 26 23 27 26 28 27 29 8 30 9 31 10 32
REMARK SMILES IDX 24 33
REMARK H PARENT 24 34
REMARK Flexibility Score: inf
ROOT
ATOM      1  C   UNL     1     267.783 -32.226  51.800  1.00  0.00     0.017 C 
ATOM      2  C   UNL     1     266.329 -32.712  52.057  1.00  0.00     0.014 C 
ATOM      3  C   UNL     1     267.737 -30.841  51.068  1.00  0.00     0.014 C 
ATOM      4  C   UNL     1     268.543 -33.378  50.999  1.00  0.00     0.030 C 
ATOM      5  C   UNL     1     266.266 -33.944  52.987  1.00  0.00     0.004 C 
ATOM      6  C   UNL     1     267.618 -30.891  49.541  1.00  0.00     0.013 C 
ATOM      7  C   UNL     1     268.401 -33.188  49.460  1.00  0.00    -0.063 C 
ATOM      8  C   UNL     1     268.148 -34.830  51.519  1.00  0.00    -0.003 C 
ATOM      9  C   UNL     1     267.539 -34.829  52.945  1.00  0.00    -0.011 C 
ATOM     10  C   UNL     1     268.683 -31.803  48.874  1.00  0.00    -0.006 C 
ATOM     11  C   UNL     1     267.959 -34.170  48.650  1.00  0.00    -0.027 C 
ATOM     12  C   UNL     1     269.362 -35.777  51.409  1.00  0.00     0.008 C 
ATOM     13  C   UNL     1     267.190 -36.240  53.454  1.00  0.00     0.008 C 
ATOM     14  C   UNL     1     270.125 -31.361  49.321  1.00  0.00     0.017 C 
ATOM     15  C   UNL     1     268.577 -31.775  47.252  1.00  0.00    -0.020 C 
ATOM     16  C   UNL     1     267.188 -33.922  47.386  1.00  0.00     0.032 C 
ATOM     17  C   UNL     1     267.263 -32.494  46.759  1.00  0.00     0.006 C 
ATOM     18  C   UNL     1     269.799 -32.512  46.598  1.00  0.00     0.008 C 
ATOM     19  C   UNL     1     268.583 -30.280  46.788  1.00  0.00     0.012 C 
ATOM     20  C   UNL     1     267.041 -32.505  45.156  1.00  0.00    -0.025 C 
ATOM     21  C   UNL     1     269.530 -33.262  45.269  1.00  0.00     0.005 C 
ATOM     22  C   UNL     1     268.436 -32.618  44.374  1.00  0.00     0.003 C 
ATOM     23  C   UNL     1     265.997 -33.629  44.745  1.00  0.00     0.010 C 
ATOM     24  C   UNL     1     266.357 -31.168  44.718  1.00  0.00     0.012 C 
ATOM     25  C   UNL     1     268.384 -33.173  42.857  1.00  0.00    -0.006 C 
ATOM     26  C   UNL     1     266.556 -34.684  43.798  1.00  0.00     0.033 C 
ATOM     27  C   UNL     1     267.084 -34.008  42.540  1.00  0.00     0.120 C 
ATOM     28  C   UNL     1     268.494 -31.967  41.875  1.00  0.00     0.014 C 
ATOM     29  C   UNL     1     269.595 -34.089  42.508  1.00  0.00     0.014 C 
ENDROOT
BRANCH   1  30
ATOM     30  C   UNL     1     268.459 -31.927  53.136  1.00  0.00     0.048 C 
ATOM     31  O   UNL     1     267.858 -31.250  54.013  1.00  0.00    -0.550 OA
ATOM     32  O   UNL     1     269.773 -32.308  53.379  1.00  0.00    -0.550 OA
ENDBRANCH   1  30
BRANCH  27  33
ATOM     33  O   UNL     1     266.060 -33.221  41.971  1.00  0.00    -0.393 OA
ATOM     34  H   UNL     1     265.616 -33.772  41.274  1.00  0.00     0.210 HD
ENDBRANCH  27  33
TORSDOF 2
ENDMDL
MODEL 3
REMARK VINA RESULT:    -7.673      5.058     10.644
REMARK INTER + INTRA:          -8.503
REMARK INTER:                  -8.347
REMARK INTRA:                  -0.156
REMARK UNBOUND:                -0.157
REMARK SMILES C[C@H]1[C@H](C)CC[C@]2(C(=O)[O-])CC[C@@]3(C)C(=CC[C@@H]4[C@]5(C)CC[C@@H](O)C(C)(C)[C@@H]5CC[C@@]43C)[C@H]12
REMARK SMILES IDX 7 1 6 2 11 3 33 4 5 5 12 6 15 7 2 8 3 9 13 10 16 11 1 12
REMARK SMILES IDX 4 13 14 14 31 15 17 16 18 17 30 18 32 19 19 20 29 21 28 22
REMARK SMILES IDX 21 23 20 24 25 25 22 26 23 27 26 28 27 29 8 30 9 31 10 32
REMARK SMILES IDX 24 33
REMARK H PARENT 24 34
REMARK Flexibility Score: inf
ROOT
ATOM      1  C   UNL     1     264.428 -25.970  57.100  1.00  0.00     0.017 C 
ATOM      2  C   UNL     1     265.063 -24.755  56.369  1.00  0.00     0.014 C 
ATOM      3  C   UNL     1     265.535 -26.700  57.935  1.00  0.00     0.014 C 
ATOM      4  C   UNL     1     263.716 -26.879  55.998  1.00  0.00     0.030 C 
ATOM      5  C   UNL     1     264.009 -23.831  55.718  1.00  0.00     0.004 C 
ATOM      6  C   UNL     1     266.365 -27.746  57.182  1.00  0.00     0.013 C 
ATOM      7  C   UNL     1     264.690 -27.957  55.437  1.00  0.00    -0.063 C 
ATOM      8  C   UNL     1     262.989 -26.008  54.881  1.00  0.00    -0.003 C 
ATOM      9  C   UNL     1     262.693 -24.554  55.331  1.00  0.00    -0.011 C 
ATOM     10  C   UNL     1     265.495 -28.793  56.433  1.00  0.00    -0.006 C 
ATOM     11  C   UNL     1     264.907 -28.115  54.115  1.00  0.00    -0.027 C 
ATOM     12  C   UNL     1     261.717 -26.733  54.394  1.00  0.00     0.008 C 
ATOM     13  C   UNL     1     261.959 -23.727  54.258  1.00  0.00     0.008 C 
ATOM     14  C   UNL     1     264.490 -29.472  57.435  1.00  0.00     0.017 C 
ATOM     15  C   UNL     1     266.403 -29.930  55.709  1.00  0.00    -0.020 C 
ATOM     16  C   UNL     1     266.208 -28.588  53.537  1.00  0.00     0.032 C 
ATOM     17  C   UNL     1     267.201 -29.325  54.491  1.00  0.00     0.006 C 
ATOM     18  C   UNL     1     265.507 -31.097  55.161  1.00  0.00     0.008 C 
ATOM     19  C   UNL     1     267.395 -30.513  56.770  1.00  0.00     0.012 C 
ATOM     20  C   UNL     1     268.160 -30.367  53.706  1.00  0.00    -0.025 C 
ATOM     21  C   UNL     1     265.984 -31.789  53.858  1.00  0.00     0.005 C 
ATOM     22  C   UNL     1     267.526 -31.839  53.681  1.00  0.00     0.003 C 
ATOM     23  C   UNL     1     268.522 -29.814  52.263  1.00  0.00     0.010 C 
ATOM     24  C   UNL     1     269.539 -30.455  54.440  1.00  0.00     0.012 C 
ATOM     25  C   UNL     1     268.046 -32.842  52.526  1.00  0.00    -0.006 C 
ATOM     26  C   UNL     1     268.073 -30.714  51.118  1.00  0.00     0.033 C 
ATOM     27  C   UNL     1     268.686 -32.098  51.293  1.00  0.00     0.120 C 
ATOM     28  C   UNL     1     269.080 -33.832  53.146  1.00  0.00     0.014 C 
ATOM     29  C   UNL     1     266.912 -33.748  51.959  1.00  0.00     0.014 C 
ENDROOT
BRANCH   1  30
ATOM     30  C   UNL     1     263.434 -25.468  58.145  1.00  0.00     0.048 C 
ATOM     31  O   UNL     1     263.756 -24.534  58.927  1.00  0.00    -0.550 OA
ATOM     32  O   UNL     1     262.201 -26.085  58.320  1.00  0.00    -0.550 OA
ENDBRANCH   1  30
BRANCH  27  33
ATOM     33  O   UNL     1     270.088 -31.975  51.400  1.00  0.00    -0.393 OA
ATOM     34  H   UNL     1     270.465 -32.064  50.486  1.00  0.00     0.210 HD
ENDBRANCH  27  33
TORSDOF 2
ENDMDL
MODEL 4
REMARK VINA RESULT:    -7.580      3.934      6.414
REMARK INTER + INTRA:          -8.401
REMARK INTER:                  -8.247
REMARK INTRA:                  -0.155
REMARK UNBOUND:                -0.157
REMARK SMILES C[C@H]1[C@H](C)CC[C@]2(C(=O)[O-])CC[C@@]3(C)C(=CC[C@@H]4[C@]5(C)CC[C@@H](O)C(C)(C)[C@@H]5CC[C@@]43C)[C@H]12
REMARK SMILES IDX 7 1 6 2 11 3 33 4 5 5 12 6 15 7 2 8 3 9 13 10 16 11 1 12
REMARK SMILES IDX 4 13 14 14 31 15 17 16 18 17 30 18 32 19 19 20 29 21 28 22
REMARK SMILES IDX 21 23 20 24 25 25 22 26 23 27 26 28 27 29 8 30 9 31 10 32
REMARK SMILES IDX 24 33
REMARK H PARENT 24 34
REMARK Flexibility Score: inf
ROOT
ATOM      1  C   UNL     1     267.658 -31.917  50.957  1.00  0.00     0.017 C 
ATOM      2  C   UNL     1     266.412 -32.622  50.354  1.00  0.00     0.014 C 
ATOM      3  C   UNL     1     267.632 -32.077  52.516  1.00  0.00     0.014 C 
ATOM      4  C   UNL     1     267.655 -30.407  50.442  1.00  0.00     0.030 C 
ATOM      5  C   UNL     1     266.473 -32.733  48.813  1.00  0.00     0.004 C 
ATOM      6  C   UNL     1     266.822 -31.029  53.285  1.00  0.00     0.013 C 
ATOM      7  C   UNL     1     266.881 -29.476  51.420  1.00  0.00    -0.063 C 
ATOM      8  C   UNL     1     267.191 -30.293  48.923  1.00  0.00    -0.003 C 
ATOM      9  C   UNL     1     267.321 -31.623  48.138  1.00  0.00    -0.011 C 
ATOM     10  C   UNL     1     267.201 -29.569  52.913  1.00  0.00    -0.006 C 
ATOM     11  C   UNL     1     265.889 -28.661  51.008  1.00  0.00    -0.027 C 
ATOM     12  C   UNL     1     267.943 -29.137  48.229  1.00  0.00     0.008 C 
ATOM     13  C   UNL     1     266.902 -31.497  46.661  1.00  0.00     0.008 C 
ATOM     14  C   UNL     1     268.748 -29.351  53.102  1.00  0.00     0.017 C 
ATOM     15  C   UNL     1     266.379 -28.483  53.801  1.00  0.00    -0.020 C 
ATOM     16  C   UNL     1     264.717 -28.279  51.863  1.00  0.00     0.032 C 
ATOM     17  C   UNL     1     264.852 -28.472  53.407  1.00  0.00     0.006 C 
ATOM     18  C   UNL     1     266.942 -27.035  53.575  1.00  0.00     0.008 C 
ATOM     19  C   UNL     1     266.547 -28.859  55.311  1.00  0.00     0.012 C 
ATOM     20  C   UNL     1     263.930 -27.440  54.247  1.00  0.00    -0.025 C 
ATOM     21  C   UNL     1     265.919 -25.872  53.643  1.00  0.00     0.005 C 
ATOM     22  C   UNL     1     264.738 -26.108  54.623  1.00  0.00     0.003 C 
ATOM     23  C   UNL     1     262.570 -27.155  53.478  1.00  0.00     0.010 C 
ATOM     24  C   UNL     1     263.480 -28.117  55.583  1.00  0.00     0.012 C 
ATOM     25  C   UNL     1     263.864 -24.792  54.964  1.00  0.00    -0.006 C 
ATOM     26  C   UNL     1     262.353 -25.691  53.115  1.00  0.00     0.033 C 
ATOM     27  C   UNL     1     262.401 -24.843  54.380  1.00  0.00     0.120 C 
ATOM     28  C   UNL     1     263.813 -24.607  56.511  1.00  0.00     0.014 C 
ATOM     29  C   UNL     1     264.512 -23.481  54.424  1.00  0.00     0.014 C 
ENDROOT
BRANCH   1  30
ATOM     30  C   UNL     1     268.919 -32.660  50.520  1.00  0.00     0.048 C 
ATOM     31  O   UNL     1     268.960 -33.919  50.565  1.00  0.00    -0.550 OA
ATOM     32  O   UNL     1     270.071 -31.972  50.158  1.00  0.00    -0.550 OA
ENDBRANCH   1  30
BRANCH  27  33
ATOM     33  O   UNL     1     261.462 -25.341  55.309  1.00  0.00    -0.393 OA
ATOM     34  H   UNL     1     260.782 -25.852  54.797  1.00  0.00     0.210 HD
ENDBRANCH  27  33
TORSDOF 2
ENDMDL
MODEL 5
REMARK VINA RESULT:    -7.548      9.579     13.054
REMARK INTER + INTRA:          -8.367
REMARK INTER:                  -8.215
REMARK INTRA:                  -0.152
REMARK UNBOUND:                -0.157
REMARK SMILES C[C@H]1[C@H](C)CC[C@]2(C(=O)[O-])CC[C@@]3(C)C(=CC[C@@H]4[C@]5(C)CC[C@@H](O)C(C)(C)[C@@H]5CC[C@@]43C)[C@H]12
REMARK SMILES IDX 7 1 6 2 11 3 33 4 5 5 12 6 15 7 2 8 3 9 13 10 16 11 1 12
REMARK SMILES IDX 4 13 14 14 31 15 17 16 18 17 30 18 32 19 19 20 29 21 28 22
REMARK SMILES IDX 21 23 20 24 25 25 22 26 23 27 26 28 27 29 8 30 9 31 10 32
REMARK SMILES IDX 24 33
REMARK H PARENT 24 34
REMARK Flexibility Score: inf
ROOT
ATOM      1  C   UNL     1     265.147 -27.494  57.215  1.00  0.00     0.017 C 
ATOM      2  C   UNL     1     266.219 -27.174  58.294  1.00  0.00     0.014 C 
ATOM      3  C   UNL     1     265.863 -27.768  55.848  1.00  0.00     0.014 C 
ATOM      4  C   UNL     1     264.108 -26.284  57.194  1.00  0.00     0.030 C 
ATOM      5  C   UNL     1     265.636 -27.132  59.724  1.00  0.00     0.004 C 
ATOM      6  C   UNL     1     266.173 -26.534  54.994  1.00  0.00     0.013 C 
ATOM      7  C   UNL     1     264.538 -25.185  56.178  1.00  0.00    -0.063 C 
ATOM      8  C   UNL     1     263.792 -25.738  58.655  1.00  0.00    -0.003 C 
ATOM      9  C   UNL     1     264.133 -26.752  59.777  1.00  0.00    -0.011 C 
ATOM     10  C   UNL     1     264.938 -25.620  54.767  1.00  0.00    -0.006 C 
ATOM     11  C   UNL     1     264.652 -23.887  56.525  1.00  0.00    -0.027 C 
ATOM     12  C   UNL     1     262.327 -25.259  58.734  1.00  0.00     0.008 C 
ATOM     13  C   UNL     1     263.794 -26.230  61.187  1.00  0.00     0.008 C 
ATOM     14  C   UNL     1     263.755 -26.459  54.155  1.00  0.00     0.017 C 
ATOM     15  C   UNL     1     265.282 -24.363  53.796  1.00  0.00    -0.020 C 
ATOM     16  C   UNL     1     265.632 -22.941  55.896  1.00  0.00     0.032 C 
ATOM     17  C   UNL     1     266.242 -23.340  54.515  1.00  0.00     0.006 C 
ATOM     18  C   UNL     1     263.975 -23.591  53.395  1.00  0.00     0.008 C 
ATOM     19  C   UNL     1     265.957 -24.919  52.497  1.00  0.00     0.012 C 
ATOM     20  C   UNL     1     266.672 -22.055  53.629  1.00  0.00    -0.025 C 
ATOM     21  C   UNL     1     264.104 -22.059  53.196  1.00  0.00     0.005 C 
ATOM     22  C   UNL     1     265.484 -21.592  52.658  1.00  0.00     0.003 C 
ATOM     23  C   UNL     1     267.211 -20.889  54.562  1.00  0.00     0.010 C 
ATOM     24  C   UNL     1     267.899 -22.429  52.735  1.00  0.00     0.012 C 
ATOM     25  C   UNL     1     265.525 -20.068  52.123  1.00  0.00    -0.006 C 
ATOM     26  C   UNL     1     266.413 -19.594  54.467  1.00  0.00     0.033 C 
ATOM     27  C   UNL     1     266.399 -19.113  53.022  1.00  0.00     0.120 C 
ATOM     28  C   UNL     1     266.063 -20.061  50.659  1.00  0.00     0.014 C 
ATOM     29  C   UNL     1     264.109 -19.422  52.034  1.00  0.00     0.014 C 
ENDROOT
BRANCH   1  30
ATOM     30  C   UNL     1     264.466 -28.817  57.558  1.00  0.00     0.048 C 
ATOM     31  O   UNL     1     265.153 -29.809  57.921  1.00  0.00    -0.550 OA
ATOM     32  O   UNL     1     263.097 -28.987  57.388  1.00  0.00    -0.550 OA
ENDBRANCH   1  30
BRANCH  27  33
ATOM     33  O   UNL     1     267.727 -18.996  52.558  1.00  0.00    -0.393 OA
ATOM     34  H   UNL     1     267.817 -18.100  52.140  1.00  0.00     0.210 HD
ENDBRANCH  27  33
TORSDOF 2
ENDMDL
MODEL 6
REMARK VINA RESULT:    -7.529      1.518      2.585
REMARK INTER + INTRA:          -8.346
REMARK INTER:                  -8.219
REMARK INTRA:                  -0.127
REMARK UNBOUND:                -0.157
REMARK SMILES C[C@H]1[C@H](C)CC[C@]2(C(=O)[O-])CC[C@@]3(C)C(=CC[C@@H]4[C@]5(C)CC[C@@H](O)C(C)(C)[C@@H]5CC[C@@]43C)[C@H]12
REMARK SMILES IDX 7 1 6 2 11 3 33 4 5 5 12 6 15 7 2 8 3 9 13 10 16 11 1 12
REMARK SMILES IDX 4 13 14 14 31 15 17 16 18 17 30 18 32 19 19 20 29 21 28 22
REMARK SMILES IDX 21 23 20 24 25 25 22 26 23 27 26 28 27 29 8 30 9 31 10 32
REMARK SMILES IDX 24 33
REMARK H PARENT 24 34
REMARK Flexibility Score: inf
ROOT
ATOM      1  C   UNL     1     268.870 -33.923  44.837  1.00  0.00     0.017 C 
ATOM      2  C   UNL     1     268.994 -35.412  45.261  1.00  0.00     0.014 C 
ATOM      3  C   UNL     1     270.056 -33.112  45.462  1.00  0.00     0.014 C 
ATOM      4  C   UNL     1     267.418 -33.418  45.266  1.00  0.00     0.030 C 
ATOM      5  C   UNL     1     268.016 -36.336  44.499  1.00  0.00     0.004 C 
ATOM      6  C   UNL     1     269.838 -32.594  46.888  1.00  0.00     0.013 C 
ATOM      7  C   UNL     1     267.428 -32.819  46.703  1.00  0.00    -0.063 C 
ATOM      8  C   UNL     1     266.302 -34.528  45.027  1.00  0.00    -0.003 C 
ATOM      9  C   UNL     1     266.729 -35.621  44.012  1.00  0.00    -0.011 C 
ATOM     10  C   UNL     1     268.513 -31.801  47.055  1.00  0.00    -0.006 C 
ATOM     11  C   UNL     1     266.573 -33.230  47.662  1.00  0.00    -0.027 C 
ATOM     12  C   UNL     1     264.970 -33.859  44.628  1.00  0.00     0.008 C 
ATOM     13  C   UNL     1     265.632 -36.673  43.760  1.00  0.00     0.008 C 
ATOM     14  C   UNL     1     268.453 -30.630  46.005  1.00  0.00     0.017 C 
ATOM     15  C   UNL     1     268.349 -31.201  48.557  1.00  0.00    -0.020 C 
ATOM     16  C   UNL     1     266.906 -33.239  49.125  1.00  0.00     0.032 C 
ATOM     17  C   UNL     1     268.102 -32.356  49.602  1.00  0.00     0.006 C 
ATOM     18  C   UNL     1     267.130 -30.216  48.636  1.00  0.00     0.008 C 
ATOM     19  C   UNL     1     269.655 -30.416  48.916  1.00  0.00     0.012 C 
ATOM     20  C   UNL     1     267.947 -31.875  51.140  1.00  0.00    -0.025 C 
ATOM     21  C   UNL     1     266.351 -30.178  49.977  1.00  0.00     0.005 C 
ATOM     22  C   UNL     1     267.219 -30.450  51.235  1.00  0.00     0.003 C 
ATOM     23  C   UNL     1     267.240 -33.001  52.008  1.00  0.00     0.010 C 
ATOM     24  C   UNL     1     269.365 -31.729  51.783  1.00  0.00     0.012 C 
ATOM     25  C   UNL     1     266.514 -30.079  52.641  1.00  0.00    -0.006 C 
ATOM     26  C   UNL     1     265.931 -32.563  52.653  1.00  0.00     0.033 C 
ATOM     27  C   UNL     1     266.181 -31.340  53.526  1.00  0.00     0.120 C 
ATOM     28  C   UNL     1     267.443 -29.106  53.430  1.00  0.00     0.014 C 
ATOM     29  C   UNL     1     265.177 -29.299  52.458  1.00  0.00     0.014 C 
ENDROOT
BRANCH   1  30
ATOM     30  C   UNL     1     269.084 -33.807  43.329  1.00  0.00     0.048 C 
ATOM     31  O   UNL     1     270.125 -34.280  42.799  1.00  0.00    -0.550 OA
ATOM     32  O   UNL     1     268.195 -33.102  42.528  1.00  0.00    -0.550 OA
ENDBRANCH   1  30
BRANCH  27  33
ATOM     33  O   UNL     1     267.200 -31.635  54.457  1.00  0.00    -0.393 OA
ATOM     34  H   UNL     1     267.860 -32.219  54.000  1.00  0.00     0.210 HD
ENDBRANCH  27  33
TORSDOF 2
ENDMDL
MODEL 7
REMARK VINA RESULT:    -7.504      2.889      4.721
REMARK INTER + INTRA:          -8.319
REMARK INTER:                  -8.172
REMARK INTRA:                  -0.147
REMARK UNBOUND:                -0.157
REMARK SMILES C[C@H]1[C@H](C)CC[C@]2(C(=O)[O-])CC[C@@]3(C)C(=CC[C@@H]4[C@]5(C)CC[C@@H](O)C(C)(C)[C@@H]5CC[C@@]43C)[C@H]12
REMARK SMILES IDX 7 1 6 2 11 3 33 4 5 5 12 6 15 7 2 8 3 9 13 10 16 11 1 12
REMARK SMILES IDX 4 13 14 14 31 15 17 16 18 17 30 18 32 19 19 20 29 21 28 22
REMARK SMILES IDX 21 23 20 24 25 25 22 26 23 27 26 28 27 29 8 30 9 31 10 32
REMARK SMILES IDX 24 33
REMARK H PARENT 24 34
REMARK Flexibility Score: inf
ROOT
ATOM      1  C   UNL     1     268.632 -32.726  44.081  1.00  0.00     0.017 C 
ATOM      2  C   UNL     1     269.977 -33.387  44.490  1.00  0.00     0.014 C 
ATOM      3  C   UNL     1     268.902 -31.249  43.633  1.00  0.00     0.014 C 
ATOM      4  C   UNL     1     267.625 -32.877  45.310  1.00  0.00     0.030 C 
ATOM      5  C   UNL     1     269.853 -34.911  44.712  1.00  0.00     0.004 C 
ATOM      6  C   UNL     1     268.930 -30.203  44.753  1.00  0.00     0.013 C 
ATOM      7  C   UNL     1     267.720 -31.658  46.273  1.00  0.00    -0.063 C 
ATOM      8  C   UNL     1     267.763 -34.291  46.027  1.00  0.00    -0.003 C 
ATOM      9  C   UNL     1     268.434 -35.370  45.138  1.00  0.00    -0.011 C 
ATOM     10  C   UNL     1     267.678 -30.253  45.670  1.00  0.00    -0.006 C 
ATOM     11  C   UNL     1     267.925 -31.800  47.599  1.00  0.00    -0.027 C 
ATOM     12  C   UNL     1     266.387 -34.751  46.553  1.00  0.00     0.008 C 
ATOM     13  C   UNL     1     268.533 -36.744  45.826  1.00  0.00     0.008 C 
ATOM     14  C   UNL     1     266.371 -30.128  44.801  1.00  0.00     0.017 C 
ATOM     15  C   UNL     1     267.703 -29.083  46.797  1.00  0.00    -0.020 C 
ATOM     16  C   UNL     1     268.662 -30.799  48.439  1.00  0.00     0.032 C 
ATOM     17  C   UNL     1     268.828 -29.355  47.868  1.00  0.00     0.006 C 
ATOM     18  C   UNL     1     266.330 -29.007  47.556  1.00  0.00     0.008 C 
ATOM     19  C   UNL     1     267.957 -27.716  46.079  1.00  0.00     0.012 C 
ATOM     20  C   UNL     1     268.960 -28.237  49.031  1.00  0.00    -0.025 C 
ATOM     21  C   UNL     1     266.382 -28.601  49.051  1.00  0.00     0.005 C 
ATOM     22  C   UNL     1     267.531 -27.621  49.414  1.00  0.00     0.003 C 
ATOM     23  C   UNL     1     269.748 -28.821  50.280  1.00  0.00     0.010 C 
ATOM     24  C   UNL     1     269.863 -27.065  48.523  1.00  0.00     0.012 C 
ATOM     25  C   UNL     1     267.397 -26.924  50.866  1.00  0.00    -0.006 C 
ATOM     26  C   UNL     1     268.950 -28.820  51.578  1.00  0.00     0.033 C 
ATOM     27  C   UNL     1     268.495 -27.400  51.892  1.00  0.00     0.120 C 
ATOM     28  C   UNL     1     267.467 -25.377  50.692  1.00  0.00     0.014 C 
ATOM     29  C   UNL     1     266.017 -27.192  51.538  1.00  0.00     0.014 C 
ENDROOT
BRANCH   1  30
ATOM     30  C   UNL     1     268.095 -33.411  42.825  1.00  0.00     0.048 C 
ATOM     31  O   UNL     1     268.874 -33.692  41.875  1.00  0.00    -0.550 OA
ATOM     32  O   UNL     1     266.736 -33.650  42.661  1.00  0.00    -0.550 OA
ENDBRANCH   1  30
BRANCH  27  33
ATOM     33  O   UNL     1     269.620 -26.548  51.918  1.00  0.00    -0.393 OA
ATOM     34  H   UNL     1     269.839 -26.375  52.871  1.00  0.00     0.210 HD
ENDBRANCH  27  33
TORSDOF 2
ENDMDL
MODEL 8
REMARK VINA RESULT:    -7.372      4.517      7.954
REMARK INTER + INTRA:          -8.175
REMARK INTER:                  -8.018
REMARK INTRA:                  -0.157
REMARK UNBOUND:                -0.157
REMARK SMILES C[C@H]1[C@H](C)CC[C@]2(C(=O)[O-])CC[C@@]3(C)C(=CC[C@@H]4[C@]5(C)CC[C@@H](O)C(C)(C)[C@@H]5CC[C@@]43C)[C@H]12
REMARK SMILES IDX 7 1 6 2 11 3 33 4 5 5 12 6 15 7 2 8 3 9 13 10 16 11 1 12
REMARK SMILES IDX 4 13 14 14 31 15 17 16 18 17 30 18 32 19 19 20 29 21 28 22
REMARK SMILES IDX 21 23 20 24 25 25 22 26 23 27 26 28 27 29 8 30 9 31 10 32
REMARK SMILES IDX 24 33
REMARK H PARENT 24 34
REMARK Flexibility Score: inf
ROOT
ATOM      1  C   UNL     1     267.983 -29.607  51.078  1.00  0.00     0.017 C 
ATOM      2  C   UNL     1     269.126 -30.363  51.812  1.00  0.00     0.014 C 
ATOM      3  C   UNL     1     268.173 -28.066  51.286  1.00  0.00     0.014 C 
ATOM      4  C   UNL     1     266.597 -30.187  51.616  1.00  0.00     0.030 C 
ATOM      5  C   UNL     1     269.168 -31.868  51.465  1.00  0.00     0.004 C 
ATOM      6  C   UNL     1     267.568 -27.481  52.567  1.00  0.00     0.013 C 
ATOM      7  C   UNL     1     266.088 -29.385  52.850  1.00  0.00    -0.063 C 
ATOM      8  C   UNL     1     266.651 -31.763  51.835  1.00  0.00    -0.003 C 
ATOM      9  C   UNL     1     267.793 -32.455  51.048  1.00  0.00    -0.011 C 
ATOM     10  C   UNL     1     266.074 -27.858  52.765  1.00  0.00    -0.006 C 
ATOM     11  C   UNL     1     265.746 -29.985  54.008  1.00  0.00    -0.027 C 
ATOM     12  C   UNL     1     265.274 -32.385  51.522  1.00  0.00     0.008 C 
ATOM     13  C   UNL     1     267.819 -33.983  51.238  1.00  0.00     0.008 C 
ATOM     14  C   UNL     1     265.243 -27.441  51.495  1.00  0.00     0.017 C 
ATOM     15  C   UNL     1     265.442 -27.161  54.090  1.00  0.00    -0.020 C 
ATOM     16  C   UNL     1     265.898 -29.340  55.355  1.00  0.00     0.032 C 
ATOM     17  C   UNL     1     266.051 -27.787  55.403  1.00  0.00     0.006 C 
ATOM     18  C   UNL     1     263.886 -27.364  54.141  1.00  0.00     0.008 C 
ATOM     19  C   UNL     1     265.748 -25.626  54.029  1.00  0.00     0.012 C 
ATOM     20  C   UNL     1     265.509 -27.150  56.789  1.00  0.00    -0.025 C 
ATOM     21  C   UNL     1     263.249 -27.510  55.547  1.00  0.00     0.005 C 
ATOM     22  C   UNL     1     263.970 -26.716  56.669  1.00  0.00     0.003 C 
ATOM     23  C   UNL     1     265.792 -28.133  58.003  1.00  0.00     0.010 C 
ATOM     24  C   UNL     1     266.340 -25.869  57.130  1.00  0.00     0.012 C 
ATOM     25  C   UNL     1     263.138 -26.576  58.047  1.00  0.00    -0.006 C 
ATOM     26  C   UNL     1     264.539 -28.593  58.739  1.00  0.00     0.033 C 
ATOM     27  C   UNL     1     263.774 -27.378  59.246  1.00  0.00     0.120 C 
ATOM     28  C   UNL     1     263.025 -25.066  58.417  1.00  0.00     0.014 C 
ATOM     29  C   UNL     1     261.666 -27.070  57.915  1.00  0.00     0.014 C 
ENDROOT
BRANCH   1  30
ATOM     30  C   UNL     1     268.132 -29.808  49.572  1.00  0.00     0.048 C 
ATOM     31  O   UNL     1     269.252 -29.642  49.018  1.00  0.00    -0.550 OA
ATOM     32  O   UNL     1     267.030 -30.080  48.769  1.00  0.00    -0.550 OA
ENDBRANCH   1  30
BRANCH  27  33
ATOM     33  O   UNL     1     264.635 -26.584  60.034  1.00  0.00    -0.393 OA
ATOM     34  H   UNL     1     265.096 -27.189  60.672  1.00  0.00     0.210 HD
ENDBRANCH  27  33
TORSDOF 2
ENDMDL
MODEL 9
REMARK VINA RESULT:    -7.279      8.901     11.406
REMARK INTER + INTRA:          -8.074
REMARK INTER:                  -7.917
REMARK INTRA:                  -0.157
REMARK UNBOUND:                -0.157
REMARK SMILES C[C@H]1[C@H](C)CC[C@]2(C(=O)[O-])CC[C@@]3(C)C(=CC[C@@H]4[C@]5(C)CC[C@@H](O)C(C)(C)[C@@H]5CC[C@@]43C)[C@H]12
REMARK SMILES IDX 7 1 6 2 11 3 33 4 5 5 12 6 15 7 2 8 3 9 13 10 16 11 1 12
REMARK SMILES IDX 4 13 14 14 31 15 17 16 18 17 30 18 32 19 19 20 29 21 28 22
REMARK SMILES IDX 21 23 20 24 25 25 22 26 23 27 26 28 27 29 8 30 9 31 10 32
REMARK SMILES IDX 24 33
REMARK H PARENT 24 34
REMARK Flexibility Score: inf
ROOT
ATOM      1  C   UNL     1     267.819 -22.313  52.846  1.00  0.00     0.017 C 
ATOM      2  C   UNL     1     269.081 -23.007  53.430  1.00  0.00     0.014 C 
ATOM      3  C   UNL     1     267.083 -21.540  53.993  1.00  0.00     0.014 C 
ATOM      4  C   UNL     1     266.941 -23.434  52.126  1.00  0.00     0.030 C 
ATOM      5  C   UNL     1     270.005 -23.589  52.337  1.00  0.00     0.004 C 
ATOM      6  C   UNL     1     266.092 -22.360  54.826  1.00  0.00     0.013 C 
ATOM      7  C   UNL     1     265.913 -24.067  53.110  1.00  0.00    -0.063 C 
ATOM      8  C   UNL     1     267.840 -24.492  51.348  1.00  0.00    -0.003 C 
ATOM      9  C   UNL     1     269.266 -23.972  51.029  1.00  0.00    -0.011 C 
ATOM     10  C   UNL     1     265.056 -23.131  53.963  1.00  0.00    -0.006 C 
ATOM     11  C   UNL     1     265.818 -25.400  53.294  1.00  0.00    -0.027 C 
ATOM     12  C   UNL     1     267.105 -24.977  50.080  1.00  0.00     0.008 C 
ATOM     13  C   UNL     1     270.119 -24.988  50.246  1.00  0.00     0.008 C 
ATOM     14  C   UNL     1     264.309 -22.132  53.002  1.00  0.00     0.017 C 
ATOM     15  C   UNL     1     263.975 -23.927  54.878  1.00  0.00    -0.020 C 
ATOM     16  C   UNL     1     265.404 -26.032  54.590  1.00  0.00     0.032 C 
ATOM     17  C   UNL     1     264.652 -25.138  55.626  1.00  0.00     0.006 C 
ATOM     18  C   UNL     1     262.810 -24.502  53.995  1.00  0.00     0.008 C 
ATOM     19  C   UNL     1     263.372 -22.919  55.912  1.00  0.00     0.012 C 
ATOM     20  C   UNL     1     263.669 -25.993  56.589  1.00  0.00    -0.025 C 
ATOM     21  C   UNL     1     262.187 -25.845  54.453  1.00  0.00     0.005 C 
ATOM     22  C   UNL     1     262.184 -26.065  55.990  1.00  0.00     0.003 C 
ATOM     23  C   UNL     1     264.293 -27.420  56.897  1.00  0.00     0.010 C 
ATOM     24  C   UNL     1     263.585 -25.300  57.989  1.00  0.00     0.012 C 
ATOM     25  C   UNL     1     261.245 -27.276  56.503  1.00  0.00    -0.006 C 
ATOM     26  C   UNL     1     263.431 -28.590  56.440  1.00  0.00     0.033 C 
ATOM     27  C   UNL     1     262.057 -28.493  57.090  1.00  0.00     0.120 C 
ATOM     28  C   UNL     1     260.256 -26.728  57.577  1.00  0.00     0.014 C 
ATOM     29  C   UNL     1     260.336 -27.852  55.376  1.00  0.00     0.014 C 
ENDROOT
BRANCH   1  30
ATOM     30  C   UNL     1     268.251 -21.221  51.869  1.00  0.00     0.048 C 
ATOM     31  O   UNL     1     269.167 -20.416  52.184  1.00  0.00    -0.550 OA
ATOM     32  O   UNL     1     267.587 -21.031  50.663  1.00  0.00    -0.550 OA
ENDBRANCH   1  30
BRANCH  27  33
ATOM     33  O   UNL     1     262.212 -28.417  58.491  1.00  0.00    -0.393 OA
ATOM     34  H   UNL     1     262.467 -29.321  58.811  1.00  0.00     0.210 HD
ENDBRANCH  27  33
TORSDOF 2
ENDMDL
