MODEL 1
REMARK VINA RESULT:    -5.434      0.000      0.000
REMARK INTER + INTRA:          -6.326
REMARK INTER:                  -6.228
REMARK INTRA:                  -0.097
REMARK UNBOUND:                -0.097
REMARK SMILES O=c1c(-c2ccc(O)cc2)coc2c(O)c(O)ccc12
REMARK SMILES IDX 3 1 11 2 12 3 13 4 20 5 2 6 1 7 19 8 18 9 16 10 14 11 4 12
REMARK SMILES IDX 5 13 6 14 7 15 10 16 9 17 8 18 15 20 17 22
REMARK H PARENT 8 19 15 21 17 23
REMARK Flexibility Score: inf
ROOT
ATOM      1  C   UNL     1      33.656 -37.740   9.655  1.00  0.00     0.065 A 
ATOM      2  C   UNL     1      32.380 -37.191   9.457  1.00  0.00     0.208 A 
ATOM      3  O   UNL     1      31.934 -36.923   8.236  1.00  0.00    -0.459 OA
ATOM      4  C   UNL     1      32.650 -37.151   7.138  1.00  0.00     0.183 A 
ATOM      5  C   UNL     1      33.944 -37.707   7.242  1.00  0.00     0.069 A 
ATOM      6  C   UNL     1      34.446 -38.009   8.521  1.00  0.00     0.200 A 
ATOM      7  O   UNL     1      35.587 -38.535   8.650  1.00  0.00    -0.288 OA
ATOM      8  C   UNL     1      34.690 -37.948   6.075  1.00  0.00     0.020 A 
ATOM      9  C   UNL     1      34.154 -37.636   4.824  1.00  0.00     0.051 A 
ATOM     10  C   UNL     1      32.874 -37.085   4.716  1.00  0.00     0.161 A 
ATOM     11  C   UNL     1      32.115 -36.839   5.874  1.00  0.00     0.201 A 
ENDROOT
BRANCH   1  12
ATOM     12  C   UNL     1      34.135 -38.025  11.031  1.00  0.00    -0.011 A 
ATOM     13  C   UNL     1      34.404 -39.343  11.438  1.00  0.00     0.013 A 
ATOM     14  C   UNL     1      34.864 -39.605  12.732  1.00  0.00     0.047 A 
ATOM     15  C   UNL     1      35.066 -38.552  13.634  1.00  0.00     0.115 A 
ATOM     16  C   UNL     1      34.347 -36.974  11.940  1.00  0.00     0.013 A 
ATOM     17  C   UNL     1      34.806 -37.238  13.233  1.00  0.00     0.047 A 
BRANCH  15  18
ATOM     18  O   UNL     1      35.522 -38.800  14.926  1.00  0.00    -0.508 OA
ATOM     19  H   UNL     1      35.021 -39.417  15.555  1.00  0.00     0.293 HD
ENDBRANCH  15  18
ENDBRANCH   1  12
BRANCH  11  20
ATOM     20  O   UNL     1      30.838 -36.290   5.757  1.00  0.00    -0.502 OA
ATOM     21  H   UNL     1      30.659 -35.303   5.896  1.00  0.00     0.293 HD
ENDBRANCH  11  20
BRANCH  10  22
ATOM     22  O   UNL     1      32.372 -36.787   3.450  1.00  0.00    -0.504 OA
ATOM     23  H   UNL     1      32.871 -37.030   2.602  1.00  0.00     0.293 HD
ENDBRANCH  10  22
TORSDOF 4
ENDMDL
MODEL 2
REMARK VINA RESULT:    -5.344      1.421      7.012
REMARK INTER + INTRA:          -6.222
REMARK INTER:                  -5.941
REMARK INTRA:                  -0.281
REMARK UNBOUND:                -0.097
REMARK SMILES O=c1c(-c2ccc(O)cc2)coc2c(O)c(O)ccc12
REMARK SMILES IDX 3 1 11 2 12 3 13 4 20 5 2 6 1 7 19 8 18 9 16 10 14 11 4 12
REMARK SMILES IDX 5 13 6 14 7 15 10 16 9 17 8 18 15 20 17 22
REMARK H PARENT 8 19 15 21 17 23
REMARK Flexibility Score: inf
ROOT
ATOM      1  C   UNL     1      33.442 -37.798   9.339  1.00  0.00     0.065 A 
ATOM      2  C   UNL     1      33.648 -36.655  10.125  1.00  0.00     0.208 A 
ATOM      3  O   UNL     1      34.130 -36.751  11.358  1.00  0.00    -0.459 OA
ATOM      4  C   UNL     1      34.447 -37.914  11.921  1.00  0.00     0.183 A 
ATOM      5  C   UNL     1      34.278 -39.118  11.200  1.00  0.00     0.069 A 
ATOM      6  C   UNL     1      33.774 -39.051   9.888  1.00  0.00     0.200 A 
ATOM      7  O   UNL     1      33.638 -40.103   9.204  1.00  0.00    -0.288 OA
ATOM      8  C   UNL     1      34.620 -40.340  11.804  1.00  0.00     0.020 A 
ATOM      9  C   UNL     1      35.120 -40.363  13.108  1.00  0.00     0.051 A 
ATOM     10  C   UNL     1      35.288 -39.174  13.826  1.00  0.00     0.161 A 
ATOM     11  C   UNL     1      34.951 -37.944  13.235  1.00  0.00     0.201 A 
ENDROOT
BRANCH   1  12
ATOM     12  C   UNL     1      32.895 -37.664   7.965  1.00  0.00    -0.011 A 
ATOM     13  C   UNL     1      31.506 -37.641   7.745  1.00  0.00     0.013 A 
ATOM     14  C   UNL     1      30.997 -37.506   6.451  1.00  0.00     0.047 A 
ATOM     15  C   UNL     1      31.868 -37.384   5.360  1.00  0.00     0.115 A 
ATOM     16  C   UNL     1      33.762 -37.534   6.865  1.00  0.00     0.013 A 
ATOM     17  C   UNL     1      33.250 -37.399   5.572  1.00  0.00     0.047 A 
BRANCH  15  18
ATOM     18  O   UNL     1      31.372 -37.250   4.066  1.00  0.00    -0.508 OA
ATOM     19  H   UNL     1      30.451 -37.589   3.814  1.00  0.00     0.293 HD
ENDBRANCH  15  18
ENDBRANCH   1  12
BRANCH  11  20
ATOM     20  O   UNL     1      35.123 -36.763  13.958  1.00  0.00    -0.502 OA
ATOM     21  H   UNL     1      35.994 -36.246  13.949  1.00  0.00     0.293 HD
ENDBRANCH  11  20
BRANCH  10  22
ATOM     22  O   UNL     1      35.789 -39.237  15.125  1.00  0.00    -0.504 OA
ATOM     23  H   UNL     1      35.808 -40.100  15.655  1.00  0.00     0.293 HD
ENDBRANCH  10  22
TORSDOF 4
ENDMDL
MODEL 3
REMARK VINA RESULT:    -5.187      1.560      6.941
REMARK INTER + INTRA:          -6.042
REMARK INTER:                  -5.757
REMARK INTRA:                  -0.285
REMARK UNBOUND:                -0.097
REMARK SMILES O=c1c(-c2ccc(O)cc2)coc2c(O)c(O)ccc12
REMARK SMILES IDX 3 1 11 2 12 3 13 4 20 5 2 6 1 7 19 8 18 9 16 10 14 11 4 12
REMARK SMILES IDX 5 13 6 14 7 15 10 16 9 17 8 18 15 20 17 22
REMARK H PARENT 8 19 15 21 17 23
REMARK Flexibility Score: inf
ROOT
ATOM      1  C   UNL     1      33.909 -37.633   7.905  1.00  0.00     0.065 A 
ATOM      2  C   UNL     1      33.901 -36.523   8.762  1.00  0.00     0.208 A 
ATOM      3  O   UNL     1      34.132 -36.662  10.062  1.00  0.00    -0.459 OA
ATOM      4  C   UNL     1      34.383 -37.838  10.630  1.00  0.00     0.183 A 
ATOM      5  C   UNL     1      34.415 -39.010   9.842  1.00  0.00     0.069 A 
ATOM      6  C   UNL     1      34.180 -38.898   8.459  1.00  0.00     0.200 A 
ATOM      7  O   UNL     1      34.231 -39.920   7.720  1.00  0.00    -0.288 OA
ATOM      8  C   UNL     1      34.685 -40.248  10.453  1.00  0.00     0.020 A 
ATOM      9  C   UNL     1      34.916 -40.315  11.828  1.00  0.00     0.051 A 
ATOM     10  C   UNL     1      34.883 -39.158  12.612  1.00  0.00     0.161 A 
ATOM     11  C   UNL     1      34.616 -37.913  12.016  1.00  0.00     0.201 A 
ENDROOT
BRANCH   1  12
ATOM     12  C   UNL     1      33.641 -37.452   6.456  1.00  0.00    -0.011 A 
ATOM     13  C   UNL     1      32.332 -37.553   5.950  1.00  0.00     0.013 A 
ATOM     14  C   UNL     1      32.085 -37.373   4.587  1.00  0.00     0.047 A 
ATOM     15  C   UNL     1      33.140 -37.084   3.712  1.00  0.00     0.115 A 
ATOM     16  C   UNL     1      34.692 -37.155   5.572  1.00  0.00     0.013 A 
ATOM     17  C   UNL     1      34.442 -36.975   4.209  1.00  0.00     0.047 A 
BRANCH  15  18
ATOM     18  O   UNL     1      32.906 -36.903   2.350  1.00  0.00    -0.508 OA
ATOM     19  H   UNL     1      33.656 -36.964   1.672  1.00  0.00     0.293 HD
ENDBRANCH  15  18
ENDBRANCH   1  12
BRANCH  11  20
ATOM     20  O   UNL     1      34.587 -36.763  12.806  1.00  0.00    -0.502 OA
ATOM     21  H   UNL     1      33.756 -36.472  13.307  1.00  0.00     0.293 HD
ENDBRANCH  11  20
BRANCH  10  22
ATOM     22  O   UNL     1      35.118 -39.265  13.982  1.00  0.00    -0.504 OA
ATOM     23  H   UNL     1      35.923 -39.756  14.354  1.00  0.00     0.293 HD
ENDBRANCH  10  22
TORSDOF 4
ENDMDL
MODEL 4
REMARK VINA RESULT:    -5.141      3.876      7.842
REMARK INTER + INTRA:          -5.990
REMARK INTER:                  -5.955
REMARK INTRA:                  -0.035
REMARK UNBOUND:                -0.097
REMARK SMILES O=c1c(-c2ccc(O)cc2)coc2c(O)c(O)ccc12
REMARK SMILES IDX 3 1 11 2 12 3 13 4 20 5 2 6 1 7 19 8 18 9 16 10 14 11 4 12
REMARK SMILES IDX 5 13 6 14 7 15 10 16 9 17 8 18 15 20 17 22
REMARK H PARENT 8 19 15 21 17 23
REMARK Flexibility Score: inf
ROOT
ATOM      1  C   UNL     1      34.453 -36.994   3.355  1.00  0.00     0.065 A 
ATOM      2  C   UNL     1      33.144 -37.243   2.918  1.00  0.00     0.208 A 
ATOM      3  O   UNL     1      32.127 -37.239   3.772  1.00  0.00    -0.459 OA
ATOM      4  C   UNL     1      32.276 -37.003   5.072  1.00  0.00     0.183 A 
ATOM      5  C   UNL     1      33.559 -36.736   5.600  1.00  0.00     0.069 A 
ATOM      6  C   UNL     1      34.658 -36.727   4.722  1.00  0.00     0.200 A 
ATOM      7  O   UNL     1      35.815 -36.463   5.153  1.00  0.00    -0.288 OA
ATOM      8  C   UNL     1      33.703 -36.483   6.975  1.00  0.00     0.020 A 
ATOM      9  C   UNL     1      32.586 -36.499   7.811  1.00  0.00     0.051 A 
ATOM     10  C   UNL     1      31.313 -36.763   7.294  1.00  0.00     0.161 A 
ATOM     11  C   UNL     1      31.153 -37.017   5.921  1.00  0.00     0.201 A 
ENDROOT
BRANCH   1  12
ATOM     12  C   UNL     1      35.575 -37.010   2.382  1.00  0.00    -0.011 A 
ATOM     13  C   UNL     1      36.385 -35.876   2.202  1.00  0.00     0.013 A 
ATOM     14  C   UNL     1      37.445 -35.900   1.291  1.00  0.00     0.047 A 
ATOM     15  C   UNL     1      37.713 -37.061   0.554  1.00  0.00     0.115 A 
ATOM     16  C   UNL     1      35.856 -38.173   1.643  1.00  0.00     0.013 A 
ATOM     17  C   UNL     1      36.916 -38.195   0.733  1.00  0.00     0.047 A 
BRANCH  15  18
ATOM     18  O   UNL     1      38.767 -37.097  -0.357  1.00  0.00    -0.508 OA
ATOM     19  H   UNL     1      38.652 -37.492  -1.284  1.00  0.00     0.293 HD
ENDBRANCH  15  18
ENDBRANCH   1  12
BRANCH  11  20
ATOM     20  O   UNL     1      29.880 -37.279   5.413  1.00  0.00    -0.502 OA
ATOM     21  H   UNL     1      29.736 -37.675   4.493  1.00  0.00     0.293 HD
ENDBRANCH  11  20
BRANCH  10  22
ATOM     22  O   UNL     1      30.222 -36.771   8.160  1.00  0.00    -0.504 OA
ATOM     23  H   UNL     1      30.303 -36.495   9.132  1.00  0.00     0.293 HD
ENDBRANCH  10  22
TORSDOF 4
ENDMDL
MODEL 5
REMARK VINA RESULT:    -5.086      1.291      2.323
REMARK INTER + INTRA:          -5.926
REMARK INTER:                  -5.664
REMARK INTRA:                  -0.262
REMARK UNBOUND:                -0.097
REMARK SMILES O=c1c(-c2ccc(O)cc2)coc2c(O)c(O)ccc12
REMARK SMILES IDX 3 1 11 2 12 3 13 4 20 5 2 6 1 7 19 8 18 9 16 10 14 11 4 12
REMARK SMILES IDX 5 13 6 14 7 15 10 16 9 17 8 18 15 20 17 22
REMARK H PARENT 8 19 15 21 17 23
REMARK Flexibility Score: inf
ROOT
ATOM      1  C   UNL     1      34.147 -37.871   8.614  1.00  0.00     0.065 A 
ATOM      2  C   UNL     1      35.335 -37.775   7.874  1.00  0.00     0.208 A 
ATOM      3  O   UNL     1      35.308 -37.585   6.560  1.00  0.00    -0.459 OA
ATOM      4  C   UNL     1      34.177 -37.475   5.869  1.00  0.00     0.183 A 
ATOM      5  C   UNL     1      32.932 -37.555   6.533  1.00  0.00     0.069 A 
ATOM      6  C   UNL     1      32.924 -37.749   7.926  1.00  0.00     0.200 A 
ATOM      7  O   UNL     1      31.832 -37.796   8.556  1.00  0.00    -0.288 OA
ATOM      8  C   UNL     1      31.744 -37.433   5.792  1.00  0.00     0.020 A 
ATOM      9  C   UNL     1      31.795 -37.237   4.411  1.00  0.00     0.051 A 
ATOM     10  C   UNL     1      33.025 -37.159   3.749  1.00  0.00     0.161 A 
ATOM     11  C   UNL     1      34.222 -37.278   4.476  1.00  0.00     0.201 A 
ENDROOT
BRANCH   1  12
ATOM     12  C   UNL     1      34.203 -38.091  10.081  1.00  0.00    -0.011 A 
ATOM     13  C   UNL     1      34.376 -39.383  10.607  1.00  0.00     0.013 A 
ATOM     14  C   UNL     1      34.438 -39.582  11.989  1.00  0.00     0.047 A 
ATOM     15  C   UNL     1      34.334 -38.492  12.863  1.00  0.00     0.115 A 
ATOM     16  C   UNL     1      34.107 -37.002  10.965  1.00  0.00     0.013 A 
ATOM     17  C   UNL     1      34.169 -37.204  12.347  1.00  0.00     0.047 A 
BRANCH  15  18
ATOM     18  O   UNL     1      34.393 -38.678  14.242  1.00  0.00    -0.508 OA
ATOM     19  H   UNL     1      34.833 -37.997  14.850  1.00  0.00     0.293 HD
ENDBRANCH  15  18
ENDBRANCH   1  12
BRANCH  11  20
ATOM     20  O   UNL     1      35.444 -37.197   3.808  1.00  0.00    -0.502 OA
ATOM     21  H   UNL     1      35.544 -37.446   2.831  1.00  0.00     0.293 HD
ENDBRANCH  11  20
BRANCH  10  22
ATOM     22  O   UNL     1      33.037 -36.963   2.369  1.00  0.00    -0.504 OA
ATOM     23  H   UNL     1      33.879 -36.704   1.868  1.00  0.00     0.293 HD
ENDBRANCH  10  22
TORSDOF 4
ENDMDL
MODEL 6
REMARK VINA RESULT:    -5.066      1.609      7.106
REMARK INTER + INTRA:          -5.904
REMARK INTER:                  -5.623
REMARK INTRA:                  -0.281
REMARK UNBOUND:                -0.097
REMARK SMILES O=c1c(-c2ccc(O)cc2)coc2c(O)c(O)ccc12
REMARK SMILES IDX 3 1 11 2 12 3 13 4 20 5 2 6 1 7 19 8 18 9 16 10 14 11 4 12
REMARK SMILES IDX 5 13 6 14 7 15 10 16 9 17 8 18 15 20 17 22
REMARK H PARENT 8 19 15 21 17 23
REMARK Flexibility Score: inf
ROOT
ATOM      1  C   UNL     1      34.647 -38.145   7.758  1.00  0.00     0.065 A 
ATOM      2  C   UNL     1      35.022 -39.463   8.057  1.00  0.00     0.208 A 
ATOM      3  O   UNL     1      35.073 -39.891   9.313  1.00  0.00    -0.459 OA
ATOM      4  C   UNL     1      34.776 -39.117  10.353  1.00  0.00     0.183 A 
ATOM      5  C   UNL     1      34.383 -37.775  10.146  1.00  0.00     0.069 A 
ATOM      6  C   UNL     1      34.313 -37.291   8.826  1.00  0.00     0.200 A 
ATOM      7  O   UNL     1      33.937 -36.107   8.602  1.00  0.00    -0.288 OA
ATOM      8  C   UNL     1      34.068 -36.967  11.252  1.00  0.00     0.020 A 
ATOM      9  C   UNL     1      34.147 -37.488  12.545  1.00  0.00     0.051 A 
ATOM     10  C   UNL     1      34.537 -38.814  12.755  1.00  0.00     0.161 A 
ATOM     11  C   UNL     1      34.854 -39.635  11.659  1.00  0.00     0.201 A 
ENDROOT
BRANCH   1  12
ATOM     12  C   UNL     1      34.605 -37.689   6.346  1.00  0.00    -0.011 A 
ATOM     13  C   UNL     1      33.426 -37.806   5.589  1.00  0.00     0.013 A 
ATOM     14  C   UNL     1      33.390 -37.366   4.263  1.00  0.00     0.047 A 
ATOM     15  C   UNL     1      34.529 -36.798   3.678  1.00  0.00     0.115 A 
ATOM     16  C   UNL     1      35.742 -37.111   5.753  1.00  0.00     0.013 A 
ATOM     17  C   UNL     1      35.703 -36.672   4.427  1.00  0.00     0.047 A 
BRANCH  15  18
ATOM     18  O   UNL     1      34.505 -36.356   2.357  1.00  0.00    -0.508 OA
ATOM     19  H   UNL     1      35.096 -35.595   2.043  1.00  0.00     0.293 HD
ENDBRANCH  15  18
ENDBRANCH   1  12
BRANCH  11  20
ATOM     20  O   UNL     1      35.241 -40.958  11.878  1.00  0.00    -0.502 OA
ATOM     21  H   UNL     1      35.231 -41.378  12.800  1.00  0.00     0.293 HD
ENDBRANCH  11  20
BRANCH  10  22
ATOM     22  O   UNL     1      34.604 -39.298  14.061  1.00  0.00    -0.504 OA
ATOM     23  H   UNL     1      35.442 -39.214  14.625  1.00  0.00     0.293 HD
ENDBRANCH  10  22
TORSDOF 4
ENDMDL
MODEL 7
REMARK VINA RESULT:    -4.999     11.242     13.918
REMARK INTER + INTRA:          -5.827
REMARK INTER:                  -5.567
REMARK INTRA:                  -0.260
REMARK UNBOUND:                -0.097
REMARK SMILES O=c1c(-c2ccc(O)cc2)coc2c(O)c(O)ccc12
REMARK SMILES IDX 3 1 11 2 12 3 13 4 20 5 2 6 1 7 19 8 18 9 16 10 14 11 4 12
REMARK SMILES IDX 5 13 6 14 7 15 10 16 9 17 8 18 15 20 17 22
REMARK H PARENT 8 19 15 21 17 23
REMARK Flexibility Score: inf
ROOT
ATOM      1  C   UNL     1      35.795 -40.806  -3.589  1.00  0.00     0.065 A 
ATOM      2  C   UNL     1      36.634 -40.487  -4.667  1.00  0.00     0.208 A 
ATOM      3  O   UNL     1      37.638 -39.631  -4.521  1.00  0.00    -0.459 OA
ATOM      4  C   UNL     1      37.913 -39.030  -3.367  1.00  0.00     0.183 A 
ATOM      5  C   UNL     1      37.124 -39.295  -2.226  1.00  0.00     0.069 A 
ATOM      6  C   UNL     1      36.055 -40.202  -2.344  1.00  0.00     0.200 A 
ATOM      7  O   UNL     1      35.347 -40.486  -1.338  1.00  0.00    -0.288 OA
ATOM      8  C   UNL     1      37.427 -38.657  -1.011  1.00  0.00     0.020 A 
ATOM      9  C   UNL     1      38.499 -37.766  -0.936  1.00  0.00     0.051 A 
ATOM     10  C   UNL     1      39.283 -37.499  -2.063  1.00  0.00     0.161 A 
ATOM     11  C   UNL     1      38.992 -38.130  -3.285  1.00  0.00     0.201 A 
ENDROOT
BRANCH   1  12
ATOM     12  C   UNL     1      34.674 -41.761  -3.779  1.00  0.00    -0.011 A 
ATOM     13  C   UNL     1      33.362 -41.297  -3.981  1.00  0.00     0.013 A 
ATOM     14  C   UNL     1      32.313 -42.201  -4.168  1.00  0.00     0.047 A 
ATOM     15  C   UNL     1      32.561 -43.579  -4.163  1.00  0.00     0.115 A 
ATOM     16  C   UNL     1      34.915 -43.146  -3.782  1.00  0.00     0.013 A 
ATOM     17  C   UNL     1      33.864 -44.048  -3.970  1.00  0.00     0.047 A 
BRANCH  15  18
ATOM     18  O   UNL     1      31.523 -44.489  -4.348  1.00  0.00    -0.508 OA
ATOM     19  H   UNL     1      31.212 -44.757  -5.275  1.00  0.00     0.293 HD
ENDBRANCH  15  18
ENDBRANCH   1  12
BRANCH  11  20
ATOM     20  O   UNL     1      39.781 -37.859  -4.404  1.00  0.00    -0.502 OA
ATOM     21  H   UNL     1      40.151 -38.593  -4.995  1.00  0.00     0.293 HD
ENDBRANCH  11  20
BRANCH  10  22
ATOM     22  O   UNL     1      40.345 -36.603  -1.949  1.00  0.00    -0.504 OA
ATOM     23  H   UNL     1      40.571 -35.939  -2.681  1.00  0.00     0.293 HD
ENDBRANCH  10  22
TORSDOF 4
ENDMDL
MODEL 8
REMARK VINA RESULT:    -4.954      6.001      9.149
REMARK INTER + INTRA:          -5.775
REMARK INTER:                  -5.495
REMARK INTRA:                  -0.280
REMARK UNBOUND:                -0.097
REMARK SMILES O=c1c(-c2ccc(O)cc2)coc2c(O)c(O)ccc12
REMARK SMILES IDX 3 1 11 2 12 3 13 4 20 5 2 6 1 7 19 8 18 9 16 10 14 11 4 12
REMARK SMILES IDX 5 13 6 14 7 15 10 16 9 17 8 18 15 20 17 22
REMARK H PARENT 8 19 15 21 17 23
REMARK Flexibility Score: inf
ROOT
ATOM      1  C   UNL     1      34.082 -39.192   0.823  1.00  0.00     0.065 A 
ATOM      2  C   UNL     1      32.897 -39.114   0.078  1.00  0.00     0.208 A 
ATOM      3  O   UNL     1      32.851 -39.537  -1.180  1.00  0.00    -0.459 OA
ATOM      4  C   UNL     1      33.904 -40.054  -1.807  1.00  0.00     0.183 A 
ATOM      5  C   UNL     1      35.139 -40.176  -1.132  1.00  0.00     0.069 A 
ATOM      6  C   UNL     1      35.221 -39.743   0.204  1.00  0.00     0.200 A 
ATOM      7  O   UNL     1      36.300 -39.865   0.848  1.00  0.00    -0.288 OA
ATOM      8  C   UNL     1      36.244 -40.728  -1.804  1.00  0.00     0.020 A 
ATOM      9  C   UNL     1      36.119 -41.149  -3.129  1.00  0.00     0.051 A 
ATOM     10  C   UNL     1      34.899 -41.029  -3.802  1.00  0.00     0.161 A 
ATOM     11  C   UNL     1      33.785 -40.480  -3.143  1.00  0.00     0.201 A 
ENDROOT
BRANCH   1  12
ATOM     12  C   UNL     1      34.110 -38.706   2.226  1.00  0.00    -0.011 A 
ATOM     13  C   UNL     1      33.773 -39.563   3.288  1.00  0.00     0.013 A 
ATOM     14  C   UNL     1      33.809 -39.102   4.607  1.00  0.00     0.047 A 
ATOM     15  C   UNL     1      34.189 -37.782   4.882  1.00  0.00     0.115 A 
ATOM     16  C   UNL     1      34.496 -37.385   2.511  1.00  0.00     0.013 A 
ATOM     17  C   UNL     1      34.532 -36.927   3.831  1.00  0.00     0.047 A 
BRANCH  15  18
ATOM     18  O   UNL     1      34.228 -37.312   6.193  1.00  0.00    -0.508 OA
ATOM     19  H   UNL     1      33.505 -37.550   6.862  1.00  0.00     0.293 HD
ENDBRANCH  15  18
ENDBRANCH   1  12
BRANCH  11  20
ATOM     20  O   UNL     1      32.572 -40.366  -3.822  1.00  0.00    -0.502 OA
ATOM     21  H   UNL     1      32.371 -39.592  -4.443  1.00  0.00     0.293 HD
ENDBRANCH  11  20
BRANCH  10  22
ATOM     22  O   UNL     1      34.814 -41.460  -5.125  1.00  0.00    -0.504 OA
ATOM     23  H   UNL     1      34.665 -42.433  -5.367  1.00  0.00     0.293 HD
ENDBRANCH  10  22
TORSDOF 4
ENDMDL
MODEL 9
REMARK VINA RESULT:    -4.932      6.260      9.152
REMARK INTER + INTRA:          -5.750
REMARK INTER:                  -5.480
REMARK INTRA:                  -0.270
REMARK UNBOUND:                -0.097
REMARK SMILES O=c1c(-c2ccc(O)cc2)coc2c(O)c(O)ccc12
REMARK SMILES IDX 3 1 11 2 12 3 13 4 20 5 2 6 1 7 19 8 18 9 16 10 14 11 4 12
REMARK SMILES IDX 5 13 6 14 7 15 10 16 9 17 8 18 15 20 17 22
REMARK H PARENT 8 19 15 21 17 23
REMARK Flexibility Score: inf
ROOT
ATOM      1  C   UNL     1      37.100 -37.518   1.581  1.00  0.00     0.065 A 
ATOM      2  C   UNL     1      36.465 -38.509   0.819  1.00  0.00     0.208 A 
ATOM      3  O   UNL     1      36.799 -38.716  -0.449  1.00  0.00    -0.459 OA
ATOM      4  C   UNL     1      37.741 -38.013  -1.072  1.00  0.00     0.183 A 
ATOM      5  C   UNL     1      38.438 -36.997  -0.380  1.00  0.00     0.069 A 
ATOM      6  C   UNL     1      38.112 -36.755   0.967  1.00  0.00     0.200 A 
ATOM      7  O   UNL     1      38.734 -35.875   1.625  1.00  0.00    -0.288 OA
ATOM      8  C   UNL     1      39.434 -36.263  -1.048  1.00  0.00     0.020 A 
ATOM      9  C   UNL     1      39.729 -36.537  -2.384  1.00  0.00     0.051 A 
ATOM     10  C   UNL     1      39.041 -37.541  -3.074  1.00  0.00     0.161 A 
ATOM     11  C   UNL     1      38.043 -38.284  -2.419  1.00  0.00     0.201 A 
ENDROOT
BRANCH   1  12
ATOM     12  C   UNL     1      36.703 -37.301   2.995  1.00  0.00    -0.011 A 
ATOM     13  C   UNL     1      37.252 -38.088   4.023  1.00  0.00     0.013 A 
ATOM     14  C   UNL     1      36.881 -37.874   5.353  1.00  0.00     0.047 A 
ATOM     15  C   UNL     1      35.963 -36.866   5.675  1.00  0.00     0.115 A 
ATOM     16  C   UNL     1      35.788 -36.287   3.328  1.00  0.00     0.013 A 
ATOM     17  C   UNL     1      35.419 -36.075   4.659  1.00  0.00     0.047 A 
BRANCH  15  18
ATOM     18  O   UNL     1      35.585 -36.643   6.997  1.00  0.00    -0.508 OA
ATOM     19  H   UNL     1      36.122 -36.036   7.605  1.00  0.00     0.293 HD
ENDBRANCH  15  18
ENDBRANCH   1  12
BRANCH  11  20
ATOM     20  O   UNL     1      37.363 -39.284  -3.115  1.00  0.00    -0.502 OA
ATOM     21  H   UNL     1      37.497 -39.440  -4.106  1.00  0.00     0.293 HD
ENDBRANCH  11  20
BRANCH  10  22
ATOM     22  O   UNL     1      39.364 -37.785  -4.407  1.00  0.00    -0.504 OA
ATOM     23  H   UNL     1      39.753 -38.668  -4.715  1.00  0.00     0.293 HD
ENDBRANCH  10  22
TORSDOF 4
ENDMDL
