MODEL 1
REMARK VINA RESULT:    -6.149      0.000      0.000
REMARK INTER + INTRA:          -7.107
REMARK INTER:                  -7.227
REMARK INTRA:                   0.121
REMARK UNBOUND:                 0.121
REMARK SMILES O=c1c(O)c(-c2ccc(O)c(O)c2)oc2cc(O)ccc12
REMARK SMILES IDX 5 1 3 2 2 3 1 4 21 5 15 6 14 7 16 8 17 9 19 10 20 11 6 12
REMARK SMILES IDX 7 13 8 14 9 15 13 16 11 17 10 18 12 20 4 22 18 24
REMARK H PARENT 10 19 12 21 4 23 18 25
REMARK Flexibility Score: inf
ROOT
ATOM      1  C   UNL     1      63.162  56.431  47.713  1.00  0.00     0.180 A 
ATOM      2  C   UNL     1      63.945  56.709  48.853  1.00  0.00     0.208 A 
ATOM      3  C   UNL     1      64.084  55.718  49.837  1.00  0.00     0.235 A 
ATOM      4  O   UNL     1      64.788  55.939  50.860  1.00  0.00    -0.285 OA
ATOM      5  C   UNL     1      63.428  54.487  49.675  1.00  0.00     0.069 A 
ATOM      6  C   UNL     1      62.643  54.295  48.517  1.00  0.00     0.142 A 
ATOM      7  O   UNL     1      62.544  55.256  47.605  1.00  0.00    -0.452 OA
ATOM      8  C   UNL     1      61.965  53.085  48.324  1.00  0.00     0.094 A 
ATOM      9  C   UNL     1      62.064  52.063  49.272  1.00  0.00     0.119 A 
ATOM     10  C   UNL     1      62.843  52.250  50.422  1.00  0.00     0.047 A 
ATOM     11  C   UNL     1      63.522  53.455  50.625  1.00  0.00     0.020 A 
ENDROOT
BRANCH   1  12
ATOM     12  C   UNL     1      62.981  57.416  46.624  1.00  0.00     0.025 A 
ATOM     13  C   UNL     1      64.083  58.153  46.169  1.00  0.00     0.016 A 
ATOM     14  C   UNL     1      63.930  59.101  45.156  1.00  0.00     0.051 A 
ATOM     15  C   UNL     1      62.675  59.345  44.589  1.00  0.00     0.157 A 
ATOM     16  C   UNL     1      61.713  57.674  46.072  1.00  0.00     0.062 A 
ATOM     17  C   UNL     1      61.550  58.626  45.058  1.00  0.00     0.158 A 
BRANCH  15  18
ATOM     18  O   UNL     1      62.591  60.300  43.574  1.00  0.00    -0.504 OA
ATOM     19  H   UNL     1      62.768  61.285  43.711  1.00  0.00     0.293 HD
ENDBRANCH  15  18
BRANCH  17  20
ATOM     20  O   UNL     1      60.263  58.828  44.554  1.00  0.00    -0.504 OA
ATOM     21  H   UNL     1      59.940  59.701  44.163  1.00  0.00     0.293 HD
ENDBRANCH  17  20
ENDBRANCH   1  12
BRANCH   2  22
ATOM     22  O   UNL     1      64.545  57.960  49.010  1.00  0.00    -0.502 OA
ATOM     23  H   UNL     1      64.112  58.815  48.680  1.00  0.00     0.293 HD
ENDBRANCH   2  22
BRANCH   9  24
ATOM     24  O   UNL     1      61.382  50.865  49.063  1.00  0.00    -0.508 OA
ATOM     25  H   UNL     1      61.498  50.333  48.208  1.00  0.00     0.293 HD
ENDBRANCH   9  24
TORSDOF 5
ENDMDL
MODEL 2
REMARK VINA RESULT:    -6.081      1.463      2.022
REMARK INTER + INTRA:          -7.027
REMARK INTER:                  -6.779
REMARK INTRA:                  -0.248
REMARK UNBOUND:                 0.121
REMARK SMILES O=c1c(O)c(-c2ccc(O)c(O)c2)oc2cc(O)ccc12
REMARK SMILES IDX 5 1 3 2 2 3 1 4 21 5 15 6 14 7 16 8 17 9 19 10 20 11 6 12
REMARK SMILES IDX 7 13 8 14 9 15 13 16 11 17 10 18 12 20 4 22 18 24
REMARK H PARENT 10 19 12 21 4 23 18 25
REMARK Flexibility Score: inf
ROOT
ATOM      1  C   UNL     1      62.203  57.452  47.287  1.00  0.00     0.180 A 
ATOM      2  C   UNL     1      62.938  57.597  48.481  1.00  0.00     0.208 A 
ATOM      3  C   UNL     1      63.272  56.446  49.214  1.00  0.00     0.235 A 
ATOM      4  O   UNL     1      63.938  56.549  50.280  1.00  0.00    -0.285 OA
ATOM      5  C   UNL     1      62.850  55.188  48.753  1.00  0.00     0.069 A 
ATOM      6  C   UNL     1      62.098  55.131  47.561  1.00  0.00     0.142 A 
ATOM      7  O   UNL     1      61.810  56.242  46.892  1.00  0.00    -0.452 OA
ATOM      8  C   UNL     1      61.650  53.896  47.074  1.00  0.00     0.094 A 
ATOM      9  C   UNL     1      61.949  52.717  47.764  1.00  0.00     0.119 A 
ATOM     10  C   UNL     1      62.698  52.771  48.947  1.00  0.00     0.047 A 
ATOM     11  C   UNL     1      63.147  53.999  49.442  1.00  0.00     0.020 A 
ENDROOT
BRANCH   1  12
ATOM     12  C   UNL     1      61.828  58.614  46.449  1.00  0.00     0.025 A 
ATOM     13  C   UNL     1      60.781  59.451  46.859  1.00  0.00     0.016 A 
ATOM     14  C   UNL     1      60.399  60.541  46.074  1.00  0.00     0.051 A 
ATOM     15  C   UNL     1      61.041  60.806  44.859  1.00  0.00     0.157 A 
ATOM     16  C   UNL     1      62.460  58.864  45.218  1.00  0.00     0.062 A 
ATOM     17  C   UNL     1      62.081  59.952  44.423  1.00  0.00     0.158 A 
BRANCH  15  18
ATOM     18  O   UNL     1      60.616  61.915  44.126  1.00  0.00    -0.504 OA
ATOM     19  H   UNL     1      59.798  61.920  43.532  1.00  0.00     0.293 HD
ENDBRANCH  15  18
BRANCH  17  20
ATOM     20  O   UNL     1      62.754  60.143  43.214  1.00  0.00    -0.504 OA
ATOM     21  H   UNL     1      63.667  60.568  43.137  1.00  0.00     0.293 HD
ENDBRANCH  17  20
ENDBRANCH   1  12
BRANCH   2  22
ATOM     22  O   UNL     1      63.301  58.865  48.940  1.00  0.00    -0.502 OA
ATOM     23  H   UNL     1      62.929  59.258  49.798  1.00  0.00     0.293 HD
ENDBRANCH   2  22
BRANCH   9  24
ATOM     24  O   UNL     1      61.497  51.497  47.264  1.00  0.00    -0.508 OA
ATOM     25  H   UNL     1      61.234  51.389  46.291  1.00  0.00     0.293 HD
ENDBRANCH   9  24
TORSDOF 5
ENDMDL
MODEL 3
REMARK VINA RESULT:    -5.982      1.356      6.549
REMARK INTER + INTRA:          -6.910
REMARK INTER:                  -6.599
REMARK INTRA:                  -0.312
REMARK UNBOUND:                 0.121
REMARK SMILES O=c1c(O)c(-c2ccc(O)c(O)c2)oc2cc(O)ccc12
REMARK SMILES IDX 5 1 3 2 2 3 1 4 21 5 15 6 14 7 16 8 17 9 19 10 20 11 6 12
REMARK SMILES IDX 7 13 8 14 9 15 13 16 11 17 10 18 12 20 4 22 18 24
REMARK H PARENT 10 19 12 21 4 23 18 25
REMARK Flexibility Score: inf
ROOT
ATOM      1  C   UNL     1      62.570  55.974  48.094  1.00  0.00     0.180 A 
ATOM      2  C   UNL     1      63.319  56.738  49.012  1.00  0.00     0.208 A 
ATOM      3  C   UNL     1      63.580  58.085  48.718  1.00  0.00     0.235 A 
ATOM      4  O   UNL     1      64.239  58.792  49.528  1.00  0.00    -0.285 OA
ATOM      5  C   UNL     1      63.109  58.632  47.513  1.00  0.00     0.069 A 
ATOM      6  C   UNL     1      62.386  57.794  46.636  1.00  0.00     0.142 A 
ATOM      7  O   UNL     1      62.153  56.526  46.956  1.00  0.00    -0.452 OA
ATOM      8  C   UNL     1      61.908  58.299  45.420  1.00  0.00     0.094 A 
ATOM      9  C   UNL     1      62.141  59.633  45.071  1.00  0.00     0.119 A 
ATOM     10  C   UNL     1      62.857  60.468  45.940  1.00  0.00     0.047 A 
ATOM     11  C   UNL     1      63.340  59.972  47.155  1.00  0.00     0.020 A 
ENDROOT
BRANCH   1  12
ATOM     12  C   UNL     1      62.238  54.552  48.341  1.00  0.00     0.025 A 
ATOM     13  C   UNL     1      61.033  54.225  48.978  1.00  0.00     0.016 A 
ATOM     14  C   UNL     1      60.709  52.892  49.238  1.00  0.00     0.051 A 
ATOM     15  C   UNL     1      61.587  51.862  48.882  1.00  0.00     0.157 A 
ATOM     16  C   UNL     1      63.132  53.521  48.002  1.00  0.00     0.062 A 
ATOM     17  C   UNL     1      62.818  52.182  48.262  1.00  0.00     0.158 A 
BRANCH  15  18
ATOM     18  O   UNL     1      61.201  50.550  49.163  1.00  0.00    -0.504 OA
ATOM     19  H   UNL     1      60.352  50.304  49.653  1.00  0.00     0.293 HD
ENDBRANCH  15  18
BRANCH  17  20
ATOM     20  O   UNL     1      63.752  51.210  47.896  1.00  0.00    -0.504 OA
ATOM     21  H   UNL     1      63.774  50.761  46.992  1.00  0.00     0.293 HD
ENDBRANCH  17  20
ENDBRANCH   1  12
BRANCH   2  22
ATOM     22  O   UNL     1      63.817  56.154  50.179  1.00  0.00    -0.502 OA
ATOM     23  H   UNL     1      63.282  56.120  51.039  1.00  0.00     0.293 HD
ENDBRANCH   2  22
BRANCH   9  24
ATOM     24  O   UNL     1      61.657  60.119  43.858  1.00  0.00    -0.508 OA
ATOM     25  H   UNL     1      62.241  60.148  43.030  1.00  0.00     0.293 HD
ENDBRANCH   9  24
TORSDOF 5
ENDMDL
MODEL 4
REMARK VINA RESULT:    -5.652     12.037     12.891
REMARK INTER + INTRA:          -6.522
REMARK INTER:                  -6.205
REMARK INTRA:                  -0.317
REMARK UNBOUND:                 0.121
REMARK SMILES O=c1c(O)c(-c2ccc(O)c(O)c2)oc2cc(O)ccc12
REMARK SMILES IDX 5 1 3 2 2 3 1 4 21 5 15 6 14 7 16 8 17 9 19 10 20 11 6 12
REMARK SMILES IDX 7 13 8 14 9 15 13 16 11 17 10 18 12 20 4 22 18 24
REMARK H PARENT 10 19 12 21 4 23 18 25
REMARK Flexibility Score: inf
ROOT
ATOM      1  C   UNL     1      50.635  57.816  50.942  1.00  0.00     0.180 A 
ATOM      2  C   UNL     1      50.181  58.568  52.046  1.00  0.00     0.208 A 
ATOM      3  C   UNL     1      50.029  57.925  53.285  1.00  0.00     0.235 A 
ATOM      4  O   UNL     1      49.635  58.578  54.290  1.00  0.00    -0.285 OA
ATOM      5  C   UNL     1      50.311  56.553  53.391  1.00  0.00     0.069 A 
ATOM      6  C   UNL     1      50.738  55.868  52.234  1.00  0.00     0.142 A 
ATOM      7  O   UNL     1      50.878  56.514  51.081  1.00  0.00    -0.452 OA
ATOM      8  C   UNL     1      51.019  54.497  52.296  1.00  0.00     0.094 A 
ATOM      9  C   UNL     1      50.882  53.804  53.503  1.00  0.00     0.119 A 
ATOM     10  C   UNL     1      50.460  54.482  54.653  1.00  0.00     0.047 A 
ATOM     11  C   UNL     1      50.174  55.850  54.601  1.00  0.00     0.020 A 
ENDROOT
BRANCH   1  12
ATOM     12  C   UNL     1      50.838  58.424  49.608  1.00  0.00     0.025 A 
ATOM     13  C   UNL     1      52.082  58.985  49.287  1.00  0.00     0.016 A 
ATOM     14  C   UNL     1      52.288  59.581  48.041  1.00  0.00     0.051 A 
ATOM     15  C   UNL     1      51.256  59.643  47.099  1.00  0.00     0.157 A 
ATOM     16  C   UNL     1      49.791  58.504  48.673  1.00  0.00     0.062 A 
ATOM     17  C   UNL     1      49.988  59.103  47.422  1.00  0.00     0.158 A 
BRANCH  15  18
ATOM     18  O   UNL     1      51.529  60.245  45.870  1.00  0.00    -0.504 OA
ATOM     19  H   UNL     1      52.449  60.550  45.582  1.00  0.00     0.293 HD
ENDBRANCH  15  18
BRANCH  17  20
ATOM     20  O   UNL     1      48.905  59.145  46.541  1.00  0.00    -0.504 OA
ATOM     21  H   UNL     1      48.055  59.661  46.716  1.00  0.00     0.293 HD
ENDBRANCH  17  20
ENDBRANCH   1  12
BRANCH   2  22
ATOM     22  O   UNL     1      49.862  59.919  51.899  1.00  0.00    -0.502 OA
ATOM     23  H   UNL     1      50.307  60.509  51.206  1.00  0.00     0.293 HD
ENDBRANCH   2  22
BRANCH   9  24
ATOM     24  O   UNL     1      51.167  52.440  53.546  1.00  0.00    -0.508 OA
ATOM     25  H   UNL     1      51.734  51.996  52.833  1.00  0.00     0.293 HD
ENDBRANCH   9  24
TORSDOF 5
ENDMDL
MODEL 5
REMARK VINA RESULT:    -5.553      1.928      6.861
REMARK INTER + INTRA:          -6.406
REMARK INTER:                  -6.113
REMARK INTRA:                  -0.293
REMARK UNBOUND:                 0.121
REMARK SMILES O=c1c(O)c(-c2ccc(O)c(O)c2)oc2cc(O)ccc12
REMARK SMILES IDX 5 1 3 2 2 3 1 4 21 5 15 6 14 7 16 8 17 9 19 10 20 11 6 12
REMARK SMILES IDX 7 13 8 14 9 15 13 16 11 17 10 18 12 20 4 22 18 24
REMARK H PARENT 10 19 12 21 4 23 18 25
REMARK Flexibility Score: inf
ROOT
ATOM      1  C   UNL     1      62.726  57.144  46.708  1.00  0.00     0.180 A 
ATOM      2  C   UNL     1      63.948  57.505  46.105  1.00  0.00     0.208 A 
ATOM      3  C   UNL     1      64.018  58.708  45.385  1.00  0.00     0.235 A 
ATOM      4  O   UNL     1      65.103  59.058  44.845  1.00  0.00    -0.285 OA
ATOM      5  C   UNL     1      62.871  59.509  45.265  1.00  0.00     0.069 A 
ATOM      6  C   UNL     1      61.679  59.065  45.878  1.00  0.00     0.142 A 
ATOM      7  O   UNL     1      61.657  57.924  46.558  1.00  0.00    -0.452 OA
ATOM      8  C   UNL     1      60.511  59.830  45.773  1.00  0.00     0.094 A 
ATOM      9  C   UNL     1      60.520  61.036  45.064  1.00  0.00     0.119 A 
ATOM     10  C   UNL     1      61.702  61.479  44.456  1.00  0.00     0.047 A 
ATOM     11  C   UNL     1      62.873  60.722  44.553  1.00  0.00     0.020 A 
ENDROOT
BRANCH   1  12
ATOM     12  C   UNL     1      62.576  55.901  47.499  1.00  0.00     0.025 A 
ATOM     13  C   UNL     1      63.026  55.869  48.826  1.00  0.00     0.016 A 
ATOM     14  C   UNL     1      62.912  54.701  49.583  1.00  0.00     0.051 A 
ATOM     15  C   UNL     1      62.362  53.541  49.027  1.00  0.00     0.157 A 
ATOM     16  C   UNL     1      62.044  54.731  46.929  1.00  0.00     0.062 A 
ATOM     17  C   UNL     1      61.929  53.554  47.680  1.00  0.00     0.158 A 
BRANCH  15  18
ATOM     18  O   UNL     1      62.270  52.409  49.839  1.00  0.00    -0.504 OA
ATOM     19  H   UNL     1      62.388  51.463  49.505  1.00  0.00     0.293 HD
ENDBRANCH  15  18
BRANCH  17  20
ATOM     20  O   UNL     1      61.388  52.430  47.052  1.00  0.00    -0.504 OA
ATOM     21  H   UNL     1      61.920  51.605  46.814  1.00  0.00     0.293 HD
ENDBRANCH  17  20
ENDBRANCH   1  12
BRANCH   2  22
ATOM     22  O   UNL     1      65.060  56.664  46.200  1.00  0.00    -0.502 OA
ATOM     23  H   UNL     1      65.130  55.936  46.901  1.00  0.00     0.293 HD
ENDBRANCH   2  22
BRANCH   9  24
ATOM     24  O   UNL     1      59.348  61.785  44.970  1.00  0.00    -0.508 OA
ATOM     25  H   UNL     1      58.450  61.343  44.810  1.00  0.00     0.293 HD
ENDBRANCH   9  24
TORSDOF 5
ENDMDL
MODEL 6
REMARK VINA RESULT:    -5.455     13.490     15.396
REMARK INTER + INTRA:          -6.291
REMARK INTER:                  -6.163
REMARK INTRA:                  -0.128
REMARK UNBOUND:                 0.121
REMARK SMILES O=c1c(O)c(-c2ccc(O)c(O)c2)oc2cc(O)ccc12
REMARK SMILES IDX 5 1 3 2 2 3 1 4 21 5 15 6 14 7 16 8 17 9 19 10 20 11 6 12
REMARK SMILES IDX 7 13 8 14 9 15 13 16 11 17 10 18 12 20 4 22 18 24
REMARK H PARENT 10 19 12 21 4 23 18 25
REMARK Flexibility Score: inf
ROOT
ATOM      1  C   UNL     1      49.394  52.118  53.212  1.00  0.00     0.180 A 
ATOM      2  C   UNL     1      48.379  51.993  54.182  1.00  0.00     0.208 A 
ATOM      3  C   UNL     1      47.661  50.789  54.259  1.00  0.00     0.235 A 
ATOM      4  O   UNL     1      46.754  50.649  55.125  1.00  0.00    -0.285 OA
ATOM      5  C   UNL     1      47.955  49.751  53.360  1.00  0.00     0.069 A 
ATOM      6  C   UNL     1      48.970  49.963  52.403  1.00  0.00     0.142 A 
ATOM      7  O   UNL     1      49.632  51.115  52.368  1.00  0.00    -0.452 OA
ATOM      8  C   UNL     1      49.286  48.957  51.482  1.00  0.00     0.094 A 
ATOM      9  C   UNL     1      48.601  47.737  51.509  1.00  0.00     0.119 A 
ATOM     10  C   UNL     1      47.594  47.523  52.459  1.00  0.00     0.047 A 
ATOM     11  C   UNL     1      47.269  48.523  53.380  1.00  0.00     0.020 A 
ENDROOT
BRANCH   1  12
ATOM     12  C   UNL     1      50.208  53.347  53.079  1.00  0.00     0.025 A 
ATOM     13  C   UNL     1      51.008  53.765  54.151  1.00  0.00     0.016 A 
ATOM     14  C   UNL     1      51.767  54.932  54.054  1.00  0.00     0.051 A 
ATOM     15  C   UNL     1      51.732  55.713  52.893  1.00  0.00     0.157 A 
ATOM     16  C   UNL     1      50.152  54.141  51.919  1.00  0.00     0.062 A 
ATOM     17  C   UNL     1      50.908  55.315  51.814  1.00  0.00     0.158 A 
BRANCH  15  18
ATOM     18  O   UNL     1      52.521  56.864  52.857  1.00  0.00    -0.504 OA
ATOM     19  H   UNL     1      53.531  56.856  52.849  1.00  0.00     0.293 HD
ENDBRANCH  15  18
BRANCH  17  20
ATOM     20  O   UNL     1      50.807  56.052  50.632  1.00  0.00    -0.504 OA
ATOM     21  H   UNL     1      51.599  56.332  50.071  1.00  0.00     0.293 HD
ENDBRANCH  17  20
ENDBRANCH   1  12
BRANCH   2  22
ATOM     22  O   UNL     1      48.075  53.060  55.030  1.00  0.00    -0.502 OA
ATOM     23  H   UNL     1      48.070  52.966  56.039  1.00  0.00     0.293 HD
ENDBRANCH   2  22
BRANCH   9  24
ATOM     24  O   UNL     1      48.930  46.747  50.585  1.00  0.00    -0.508 OA
ATOM     25  H   UNL     1      49.805  46.770  50.074  1.00  0.00     0.293 HD
ENDBRANCH   9  24
TORSDOF 5
ENDMDL
MODEL 7
REMARK VINA RESULT:    -5.399      8.968     11.969
REMARK INTER + INTRA:          -6.226
REMARK INTER:                  -5.916
REMARK INTRA:                  -0.310
REMARK UNBOUND:                 0.121
REMARK SMILES O=c1c(O)c(-c2ccc(O)c(O)c2)oc2cc(O)ccc12
REMARK SMILES IDX 5 1 3 2 2 3 1 4 21 5 15 6 14 7 16 8 17 9 19 10 20 11 6 12
REMARK SMILES IDX 7 13 8 14 9 15 13 16 11 17 10 18 12 20 4 22 18 24
REMARK H PARENT 10 19 12 21 4 23 18 25
REMARK Flexibility Score: inf
ROOT
ATOM      1  C   UNL     1      53.700  59.814  48.131  1.00  0.00     0.180 A 
ATOM      2  C   UNL     1      55.106  59.736  48.057  1.00  0.00     0.208 A 
ATOM      3  C   UNL     1      55.758  60.299  46.949  1.00  0.00     0.235 A 
ATOM      4  O   UNL     1      57.016  60.251  46.865  1.00  0.00    -0.285 OA
ATOM      5  C   UNL     1      54.997  60.904  45.935  1.00  0.00     0.069 A 
ATOM      6  C   UNL     1      53.593  60.920  46.072  1.00  0.00     0.142 A 
ATOM      7  O   UNL     1      53.015  60.384  47.141  1.00  0.00    -0.452 OA
ATOM      8  C   UNL     1      52.799  61.504  45.077  1.00  0.00     0.094 A 
ATOM      9  C   UNL     1      53.393  62.077  43.948  1.00  0.00     0.119 A 
ATOM     10  C   UNL     1      54.787  62.064  43.810  1.00  0.00     0.047 A 
ATOM     11  C   UNL     1      55.588  61.481  44.796  1.00  0.00     0.020 A 
ENDROOT
BRANCH   1  12
ATOM     12  C   UNL     1      52.941  59.261  49.275  1.00  0.00     0.025 A 
ATOM     13  C   UNL     1      52.784  60.031  50.436  1.00  0.00     0.016 A 
ATOM     14  C   UNL     1      52.088  59.522  51.534  1.00  0.00     0.051 A 
ATOM     15  C   UNL     1      51.551  58.230  51.502  1.00  0.00     0.157 A 
ATOM     16  C   UNL     1      52.422  57.954  49.248  1.00  0.00     0.062 A 
ATOM     17  C   UNL     1      51.727  57.433  50.346  1.00  0.00     0.158 A 
BRANCH  15  18
ATOM     18  O   UNL     1      50.861  57.783  52.630  1.00  0.00    -0.504 OA
ATOM     19  H   UNL     1      51.092  58.049  53.577  1.00  0.00     0.293 HD
ENDBRANCH  15  18
BRANCH  17  20
ATOM     20  O   UNL     1      51.236  56.130  50.248  1.00  0.00    -0.504 OA
ATOM     21  H   UNL     1      50.302  55.899  49.941  1.00  0.00     0.293 HD
ENDBRANCH  17  20
ENDBRANCH   1  12
BRANCH   2  22
ATOM     22  O   UNL     1      55.832  59.085  49.057  1.00  0.00    -0.502 OA
ATOM     23  H   UNL     1      56.427  59.585  49.708  1.00  0.00     0.293 HD
ENDBRANCH   2  22
BRANCH   9  24
ATOM     24  O   UNL     1      52.587  62.655  42.969  1.00  0.00    -0.508 OA
ATOM     25  H   UNL     1      51.982  63.441  43.178  1.00  0.00     0.293 HD
ENDBRANCH   9  24
TORSDOF 5
ENDMDL
MODEL 8
REMARK VINA RESULT:    -5.396      2.388      6.513
REMARK INTER + INTRA:          -6.222
REMARK INTER:                  -5.916
REMARK INTRA:                  -0.306
REMARK UNBOUND:                 0.121
REMARK SMILES O=c1c(O)c(-c2ccc(O)c(O)c2)oc2cc(O)ccc12
REMARK SMILES IDX 5 1 3 2 2 3 1 4 21 5 15 6 14 7 16 8 17 9 19 10 20 11 6 12
REMARK SMILES IDX 7 13 8 14 9 15 13 16 11 17 10 18 12 20 4 22 18 24
REMARK H PARENT 10 19 12 21 4 23 18 25
REMARK Flexibility Score: inf
ROOT
ATOM      1  C   UNL     1      63.409  56.082  49.017  1.00  0.00     0.180 A 
ATOM      2  C   UNL     1      63.602  56.909  47.891  1.00  0.00     0.208 A 
ATOM      3  C   UNL     1      64.102  58.207  48.083  1.00  0.00     0.235 A 
ATOM      4  O   UNL     1      64.294  58.962  47.091  1.00  0.00    -0.285 OA
ATOM      5  C   UNL     1      64.377  58.656  49.385  1.00  0.00     0.069 A 
ATOM      6  C   UNL     1      64.134  57.775  50.461  1.00  0.00     0.142 A 
ATOM      7  O   UNL     1      63.668  56.551  50.237  1.00  0.00    -0.452 OA
ATOM      8  C   UNL     1      64.385  58.189  51.775  1.00  0.00     0.094 A 
ATOM      9  C   UNL     1      64.880  59.472  52.027  1.00  0.00     0.119 A 
ATOM     10  C   UNL     1      65.124  60.348  50.961  1.00  0.00     0.047 A 
ATOM     11  C   UNL     1      64.874  59.946  49.646  1.00  0.00     0.020 A 
ENDROOT
BRANCH   1  12
ATOM     12  C   UNL     1      62.903  54.696  48.897  1.00  0.00     0.025 A 
ATOM     13  C   UNL     1      61.562  54.422  49.197  1.00  0.00     0.016 A 
ATOM     14  C   UNL     1      61.069  53.119  49.109  1.00  0.00     0.051 A 
ATOM     15  C   UNL     1      61.908  52.062  48.736  1.00  0.00     0.157 A 
ATOM     16  C   UNL     1      63.754  53.634  48.543  1.00  0.00     0.062 A 
ATOM     17  C   UNL     1      63.270  52.323  48.456  1.00  0.00     0.158 A 
BRANCH  15  18
ATOM     18  O   UNL     1      61.352  50.784  48.659  1.00  0.00    -0.504 OA
ATOM     19  H   UNL     1      61.694  49.988  49.178  1.00  0.00     0.293 HD
ENDBRANCH  15  18
BRANCH  17  20
ATOM     20  O   UNL     1      64.170  51.318  48.096  1.00  0.00    -0.504 OA
ATOM     21  H   UNL     1      64.268  50.443  48.591  1.00  0.00     0.293 HD
ENDBRANCH  17  20
ENDBRANCH   1  12
BRANCH   2  22
ATOM     22  O   UNL     1      63.274  56.453  46.613  1.00  0.00    -0.502 OA
ATOM     23  H   UNL     1      62.672  55.652  46.462  1.00  0.00     0.293 HD
ENDBRANCH   2  22
BRANCH   9  24
ATOM     24  O   UNL     1      65.125  59.867  53.341  1.00  0.00    -0.508 OA
ATOM     25  H   UNL     1      65.003  59.226  54.117  1.00  0.00     0.293 HD
ENDBRANCH   9  24
TORSDOF 5
ENDMDL
MODEL 9
REMARK VINA RESULT:    -5.320     10.507     13.076
REMARK INTER + INTRA:          -6.132
REMARK INTER:                  -5.822
REMARK INTRA:                  -0.310
REMARK UNBOUND:                 0.121
REMARK SMILES O=c1c(O)c(-c2ccc(O)c(O)c2)oc2cc(O)ccc12
REMARK SMILES IDX 5 1 3 2 2 3 1 4 21 5 15 6 14 7 16 8 17 9 19 10 20 11 6 12
REMARK SMILES IDX 7 13 8 14 9 15 13 16 11 17 10 18 12 20 4 22 18 24
REMARK H PARENT 10 19 12 21 4 23 18 25
REMARK Flexibility Score: inf
ROOT
ATOM      1  C   UNL     1      51.684  57.932  50.043  1.00  0.00     0.180 A 
ATOM      2  C   UNL     1      50.789  58.665  49.236  1.00  0.00     0.208 A 
ATOM      3  C   UNL     1      51.310  59.552  48.282  1.00  0.00     0.235 A 
ATOM      4  O   UNL     1      50.530  60.211  47.541  1.00  0.00    -0.285 OA
ATOM      5  C   UNL     1      52.701  59.705  48.167  1.00  0.00     0.069 A 
ATOM      6  C   UNL     1      53.529  58.953  49.029  1.00  0.00     0.142 A 
ATOM      7  O   UNL     1      52.997  58.117  49.913  1.00  0.00    -0.452 OA
ATOM      8  C   UNL     1      54.921  59.084  48.953  1.00  0.00     0.094 A 
ATOM      9  C   UNL     1      55.497  59.957  48.023  1.00  0.00     0.119 A 
ATOM     10  C   UNL     1      54.678  60.703  47.166  1.00  0.00     0.047 A 
ATOM     11  C   UNL     1      53.287  60.581  47.236  1.00  0.00     0.020 A 
ENDROOT
BRANCH   1  12
ATOM     12  C   UNL     1      51.214  56.964  51.059  1.00  0.00     0.025 A 
ATOM     13  C   UNL     1      51.199  57.333  52.411  1.00  0.00     0.016 A 
ATOM     14  C   UNL     1      50.778  56.428  53.387  1.00  0.00     0.051 A 
ATOM     15  C   UNL     1      50.379  55.134  53.036  1.00  0.00     0.157 A 
ATOM     16  C   UNL     1      50.835  55.656  50.705  1.00  0.00     0.062 A 
ATOM     17  C   UNL     1      50.415  54.741  51.677  1.00  0.00     0.158 A 
BRANCH  15  18
ATOM     18  O   UNL     1      49.962  54.280  54.059  1.00  0.00    -0.504 OA
ATOM     19  H   UNL     1      50.562  53.602  54.508  1.00  0.00     0.293 HD
ENDBRANCH  15  18
BRANCH  17  20
ATOM     20  O   UNL     1      50.050  53.461  51.254  1.00  0.00    -0.504 OA
ATOM     21  H   UNL     1      49.151  53.232  50.856  1.00  0.00     0.293 HD
ENDBRANCH  17  20
ENDBRANCH   1  12
BRANCH   2  22
ATOM     22  O   UNL     1      49.409  58.529  49.406  1.00  0.00    -0.502 OA
ATOM     23  H   UNL     1      49.002  58.166  50.260  1.00  0.00     0.293 HD
ENDBRANCH   2  22
BRANCH   9  24
ATOM     24  O   UNL     1      56.884  60.074  47.962  1.00  0.00    -0.508 OA
ATOM     25  H   UNL     1      57.454  60.052  48.800  1.00  0.00     0.293 HD
ENDBRANCH   9  24
TORSDOF 5
ENDMDL
