MODEL 1
REMARK VINA RESULT:    -3.895      0.000      0.000
REMARK INTER + INTRA:          -7.076
REMARK INTER:                  -5.944
REMARK INTRA:                  -1.131
REMARK UNBOUND:                -1.131
REMARK SMILES CCCCCCCCCCC(=O)[O-]
REMARK SMILES IDX 7 1 8 2 9 3 10 4 11 5 12 6 13 7 6 8 5 9 4 10 3 11 2 12 1 13
REMARK H PARENT
REMARK Flexibility Score: inf
ROOT
ATOM      1  C   UNL     1     -18.160  -8.559 -21.599  1.00  0.00     0.000 C 
ENDROOT
BRANCH   1   2
ATOM      2  C   UNL     1     -18.373  -8.562 -23.124  1.00  0.00     0.000 C 
BRANCH   2   3
ATOM      3  C   UNL     1     -17.315  -9.390 -23.876  1.00  0.00     0.006 C 
BRANCH   3   4
ATOM      4  C   UNL     1     -16.400  -8.556 -24.790  1.00  0.00     0.053 C 
BRANCH   4   5
ATOM      5  C   UNL     1     -14.945  -8.751 -24.487  1.00  0.00     0.041 C 
ATOM      6  O   UNL     1     -14.074  -8.058 -25.076  1.00  0.00    -0.550 OA
ATOM      7  O   UNL     1     -14.553  -9.680 -23.531  1.00  0.00    -0.550 OA
ENDBRANCH   4   5
ENDBRANCH   3   4
ENDBRANCH   2   3
ENDBRANCH   1   2
BRANCH   1   8
ATOM      8  C   UNL     1     -16.897  -9.329 -21.179  1.00  0.00     0.000 C 
BRANCH   8   9
ATOM      9  C   UNL     1     -15.802  -8.409 -20.618  1.00  0.00    -0.000 C 
BRANCH   9  10
ATOM     10  C   UNL     1     -16.216  -6.934 -20.727  1.00  0.00    -0.000 C 
BRANCH  10  11
ATOM     11  C   UNL     1     -15.498  -6.191 -21.868  1.00  0.00    -0.000 C 
BRANCH  11  12
ATOM     12  C   UNL     1     -16.424  -5.400 -22.810  1.00  0.00    -0.003 C 
ATOM     13  C   UNL     1     -16.434  -3.900 -22.521  1.00  0.00     0.004 C 
ENDBRANCH  11  12
ENDBRANCH  10  11
ENDBRANCH   9  10
ENDBRANCH   8   9
ENDBRANCH   1   8
TORSDOF 9
ENDMDL
MODEL 2
REMARK VINA RESULT:    -3.627      2.456      4.317
REMARK INTER + INTRA:          -6.667
REMARK INTER:                  -5.703
REMARK INTRA:                  -0.964
REMARK UNBOUND:                -1.131
REMARK SMILES CCCCCCCCCCC(=O)[O-]
REMARK SMILES IDX 7 1 8 2 9 3 10 4 11 5 12 6 13 7 6 8 5 9 4 10 3 11 2 12 1 13
REMARK H PARENT
REMARK Flexibility Score: inf
ROOT
ATOM      1  C   UNL     1     -15.548  -8.376 -20.680  1.00  0.00     0.000 C 
ENDROOT
BRANCH   1   2
ATOM      2  C   UNL     1     -16.151  -6.961 -20.631  1.00  0.00     0.000 C 
BRANCH   2   3
ATOM      3  C   UNL     1     -15.564  -6.022 -21.701  1.00  0.00     0.006 C 
BRANCH   3   4
ATOM      4  C   UNL     1     -16.596  -5.516 -22.725  1.00  0.00     0.053 C 
BRANCH   4   5
ATOM      5  C   UNL     1     -16.564  -4.028 -22.893  1.00  0.00     0.041 C 
ATOM      6  O   UNL     1     -16.110  -3.293 -21.975  1.00  0.00    -0.550 OA
ATOM      7  O   UNL     1     -17.006  -3.452 -24.077  1.00  0.00    -0.550 OA
ENDBRANCH   4   5
ENDBRANCH   3   4
ENDBRANCH   2   3
ENDBRANCH   1   2
BRANCH   1   8
ATOM      8  C   UNL     1     -16.557  -9.429 -21.166  1.00  0.00     0.000 C 
BRANCH   8   9
ATOM      9  C   UNL     1     -17.819  -8.802 -21.779  1.00  0.00    -0.000 C 
BRANCH   9  10
ATOM     10  C   UNL     1     -18.006  -9.257 -23.234  1.00  0.00    -0.000 C 
BRANCH  10  11
ATOM     11  C   UNL     1     -17.378  -8.287 -24.252  1.00  0.00    -0.000 C 
BRANCH  11  12
ATOM     12  C   UNL     1     -16.148  -8.836 -24.997  1.00  0.00    -0.003 C 
ATOM     13  C   UNL     1     -14.852  -8.695 -24.199  1.00  0.00     0.004 C 
ENDBRANCH  11  12
ENDBRANCH  10  11
ENDBRANCH   9  10
ENDBRANCH   8   9
ENDBRANCH   1   8
TORSDOF 9
ENDMDL
MODEL 3
REMARK VINA RESULT:    -3.324      1.885      4.101
REMARK INTER + INTRA:          -6.205
REMARK INTER:                  -5.054
REMARK INTRA:                  -1.151
REMARK UNBOUND:                -1.131
REMARK SMILES CCCCCCCCCCC(=O)[O-]
REMARK SMILES IDX 7 1 8 2 9 3 10 4 11 5 12 6 13 7 6 8 5 9 4 10 3 11 2 12 1 13
REMARK H PARENT
REMARK Flexibility Score: inf
ROOT
ATOM      1  C   UNL     1     -17.758  -9.098 -21.485  1.00  0.00     0.000 C 
ENDROOT
BRANCH   1   2
ATOM      2  C   UNL     1     -16.331  -9.170 -20.914  1.00  0.00     0.000 C 
BRANCH   2   3
ATOM      3  C   UNL     1     -15.757  -7.788 -20.553  1.00  0.00     0.006 C 
BRANCH   3   4
ATOM      4  C   UNL     1     -16.646  -6.608 -20.987  1.00  0.00     0.053 C 
BRANCH   4   5
ATOM      5  C   UNL     1     -15.956  -5.687 -21.946  1.00  0.00     0.041 C 
ATOM      6  O   UNL     1     -14.888  -6.041 -22.512  1.00  0.00    -0.550 OA
ATOM      7  O   UNL     1     -16.509  -4.446 -22.238  1.00  0.00    -0.550 OA
ENDBRANCH   4   5
ENDBRANCH   3   4
ENDBRANCH   2   3
ENDBRANCH   1   2
BRANCH   1   8
ATOM      8  C   UNL     1     -17.846  -9.638 -22.922  1.00  0.00     0.000 C 
BRANCH   8   9
ATOM      9  C   UNL     1     -18.379  -8.593 -23.915  1.00  0.00    -0.000 C 
BRANCH   9  10
ATOM     10  C   UNL     1     -17.226  -7.792 -24.538  1.00  0.00    -0.000 C 
BRANCH  10  11
ATOM     11  C   UNL     1     -16.120  -8.687 -25.125  1.00  0.00    -0.000 C 
BRANCH  11  12
ATOM     12  C   UNL     1     -14.770  -8.617 -24.387  1.00  0.00    -0.003 C 
ATOM     13  C   UNL     1     -14.341  -9.959 -23.795  1.00  0.00     0.004 C 
ENDBRANCH  11  12
ENDBRANCH  10  11
ENDBRANCH   9  10
ENDBRANCH   8   9
ENDBRANCH   1   8
TORSDOF 9
ENDMDL
MODEL 4
REMARK VINA RESULT:    -3.206     16.582     18.055
REMARK INTER + INTRA:          -6.023
REMARK INTER:                  -5.346
REMARK INTRA:                  -0.678
REMARK UNBOUND:                -1.131
REMARK SMILES CCCCCCCCCCC(=O)[O-]
REMARK SMILES IDX 7 1 8 2 9 3 10 4 11 5 12 6 13 7 6 8 5 9 4 10 3 11 2 12 1 13
REMARK H PARENT
REMARK Flexibility Score: inf
ROOT
ATOM      1  C   UNL     1      -8.192  -8.936  -6.394  1.00  0.00     0.000 C 
ENDROOT
BRANCH   1   2
ATOM      2  C   UNL     1      -9.465  -8.079  -6.279  1.00  0.00     0.000 C 
BRANCH   2   3
ATOM      3  C   UNL     1     -10.550  -8.478  -7.296  1.00  0.00     0.006 C 
BRANCH   3   4
ATOM      4  C   UNL     1     -11.926  -8.761  -6.666  1.00  0.00     0.053 C 
BRANCH   4   5
ATOM      5  C   UNL     1     -12.769  -7.529  -6.539  1.00  0.00     0.041 C 
ATOM      6  O   UNL     1     -13.477  -7.141  -7.506  1.00  0.00    -0.550 OA
ATOM      7  O   UNL     1     -12.797  -6.826  -5.342  1.00  0.00    -0.550 OA
ENDBRANCH   4   5
ENDBRANCH   3   4
ENDBRANCH   2   3
ENDBRANCH   1   2
BRANCH   1   8
ATOM      8  C   UNL     1      -8.495 -10.392  -6.786  1.00  0.00     0.000 C 
BRANCH   8   9
ATOM      9  C   UNL     1      -7.385 -11.016  -7.646  1.00  0.00    -0.000 C 
BRANCH   9  10
ATOM     10  C   UNL     1      -6.001 -10.521  -7.199  1.00  0.00    -0.000 C 
BRANCH  10  11
ATOM     11  C   UNL     1      -5.146  -9.994  -8.366  1.00  0.00    -0.000 C 
BRANCH  11  12
ATOM     12  C   UNL     1      -4.738  -8.514  -8.254  1.00  0.00    -0.003 C 
ATOM     13  C   UNL     1      -4.515  -8.062  -6.812  1.00  0.00     0.004 C 
ENDBRANCH  11  12
ENDBRANCH  10  11
ENDBRANCH   9  10
ENDBRANCH   8   9
ENDBRANCH   1   8
TORSDOF 9
ENDMDL
MODEL 5
REMARK VINA RESULT:    -3.149      2.228      4.115
REMARK INTER + INTRA:          -5.938
REMARK INTER:                  -5.176
REMARK INTRA:                  -0.762
REMARK UNBOUND:                -1.131
REMARK SMILES CCCCCCCCCCC(=O)[O-]
REMARK SMILES IDX 7 1 8 2 9 3 10 4 11 5 12 6 13 7 6 8 5 9 4 10 3 11 2 12 1 13
REMARK H PARENT
REMARK Flexibility Score: inf
ROOT
ATOM      1  C   UNL     1     -16.009  -6.800 -20.477  1.00  0.00     0.000 C 
ENDROOT
BRANCH   1   2
ATOM      2  C   UNL     1     -15.566  -8.249 -20.747  1.00  0.00     0.000 C 
BRANCH   2   3
ATOM      3  C   UNL     1     -16.709  -9.266 -20.581  1.00  0.00     0.006 C 
BRANCH   3   4
ATOM      4  C   UNL     1     -17.313  -9.753 -21.910  1.00  0.00     0.053 C 
BRANCH   4   5
ATOM      5  C   UNL     1     -18.489  -8.934 -22.347  1.00  0.00     0.041 C 
ATOM      6  O   UNL     1     -18.874  -7.954 -21.655  1.00  0.00    -0.550 OA
ATOM      7  O   UNL     1     -19.143  -9.235 -23.535  1.00  0.00    -0.550 OA
ENDBRANCH   4   5
ENDBRANCH   3   4
ENDBRANCH   2   3
ENDBRANCH   1   2
BRANCH   1   8
ATOM      8  C   UNL     1     -16.065  -5.953 -21.759  1.00  0.00     0.000 C 
BRANCH   8   9
ATOM      9  C   UNL     1     -15.489  -6.687 -22.980  1.00  0.00    -0.000 C 
BRANCH   9  10
ATOM     10  C   UNL     1     -16.531  -6.780 -24.105  1.00  0.00    -0.000 C 
BRANCH  10  11
ATOM     11  C   UNL     1     -16.245  -7.924 -25.096  1.00  0.00    -0.000 C 
BRANCH  11  12
ATOM     12  C   UNL     1     -14.837  -8.536 -24.990  1.00  0.00    -0.003 C 
ATOM     13  C   UNL     1     -14.768  -9.717 -24.023  1.00  0.00     0.004 C 
ENDBRANCH  11  12
ENDBRANCH  10  11
ENDBRANCH   9  10
ENDBRANCH   8   9
ENDBRANCH   1   8
TORSDOF 9
ENDMDL
MODEL 6
REMARK VINA RESULT:    -3.079     15.566     17.302
REMARK INTER + INTRA:          -5.830
REMARK INTER:                  -5.592
REMARK INTRA:                  -0.238
REMARK UNBOUND:                -1.131
REMARK SMILES CCCCCCCCCCC(=O)[O-]
REMARK SMILES IDX 7 1 8 2 9 3 10 4 11 5 12 6 13 7 6 8 5 9 4 10 3 11 2 12 1 13
REMARK H PARENT
REMARK Flexibility Score: inf
ROOT
ATOM      1  C   UNL     1     -11.001  -8.501  -7.498  1.00  0.00     0.000 C 
ENDROOT
BRANCH   1   2
ATOM      2  C   UNL     1     -12.200  -8.367  -6.543  1.00  0.00     0.000 C 
BRANCH   2   3
ATOM      3  C   UNL     1     -13.267  -7.381  -7.055  1.00  0.00     0.006 C 
BRANCH   3   4
ATOM      4  C   UNL     1     -14.618  -7.485  -6.324  1.00  0.00     0.053 C 
BRANCH   4   5
ATOM      5  C   UNL     1     -15.762  -7.747  -7.256  1.00  0.00     0.041 C 
ATOM      6  O   UNL     1     -16.625  -8.619  -6.973  1.00  0.00    -0.550 OA
ATOM      7  O   UNL     1     -15.890  -7.006  -8.424  1.00  0.00    -0.550 OA
ENDBRANCH   4   5
ENDBRANCH   3   4
ENDBRANCH   2   3
ENDBRANCH   1   2
BRANCH   1   8
ATOM      8  C   UNL     1      -9.654  -8.489  -6.757  1.00  0.00     0.000 C 
BRANCH   8   9
ATOM      9  C   UNL     1      -8.979  -9.869  -6.731  1.00  0.00    -0.000 C 
BRANCH   9  10
ATOM     10  C   UNL     1      -7.450  -9.733  -6.761  1.00  0.00    -0.000 C 
BRANCH  10  11
ATOM     11  C   UNL     1      -6.768 -10.797  -7.641  1.00  0.00    -0.000 C 
BRANCH  11  12
ATOM     12  C   UNL     1      -5.408 -10.378  -8.227  1.00  0.00    -0.003 C 
ATOM     13  C   UNL     1      -5.040  -8.929  -7.912  1.00  0.00     0.004 C 
ENDBRANCH  11  12
ENDBRANCH  10  11
ENDBRANCH   9  10
ENDBRANCH   8   9
ENDBRANCH   1   8
TORSDOF 9
ENDMDL
MODEL 7
REMARK VINA RESULT:    -2.978     18.248     19.805
REMARK INTER + INTRA:          -5.677
REMARK INTER:                  -4.604
REMARK INTRA:                  -1.073
REMARK UNBOUND:                -1.131
REMARK SMILES CCCCCCCCCCC(=O)[O-]
REMARK SMILES IDX 7 1 8 2 9 3 10 4 11 5 12 6 13 7 6 8 5 9 4 10 3 11 2 12 1 13
REMARK H PARENT
REMARK Flexibility Score: inf
ROOT
ATOM      1  C   UNL     1      -5.280  -9.738  -8.274  1.00  0.00     0.000 C 
ENDROOT
BRANCH   1   2
ATOM      2  C   UNL     1      -6.435 -10.631  -7.787  1.00  0.00     0.000 C 
BRANCH   2   3
ATOM      3  C   UNL     1      -7.188 -10.035  -6.584  1.00  0.00     0.006 C 
BRANCH   3   4
ATOM      4  C   UNL     1      -6.931  -8.533  -6.365  1.00  0.00     0.053 C 
BRANCH   4   5
ATOM      5  C   UNL     1      -8.197  -7.738  -6.261  1.00  0.00     0.041 C 
ATOM      6  O   UNL     1      -9.276  -8.198  -6.720  1.00  0.00    -0.550 OA
ATOM      7  O   UNL     1      -8.190  -6.500  -5.630  1.00  0.00    -0.550 OA
ENDBRANCH   4   5
ENDBRANCH   3   4
ENDBRANCH   2   3
ENDBRANCH   1   2
BRANCH   1   8
ATOM      8  C   UNL     1      -3.955 -10.507  -8.406  1.00  0.00     0.000 C 
BRANCH   8   9
ATOM      9  C   UNL     1      -3.474 -11.091  -7.069  1.00  0.00    -0.000 C 
BRANCH   9  10
ATOM     10  C   UNL     1      -2.509 -10.125  -6.365  1.00  0.00    -0.000 C 
BRANCH  10  11
ATOM     11  C   UNL     1      -3.218  -9.179  -5.378  1.00  0.00    -0.000 C 
BRANCH  11  12
ATOM     12  C   UNL     1      -2.800  -7.701  -5.483  1.00  0.00    -0.003 C 
ATOM     13  C   UNL     1      -3.622  -6.918  -6.506  1.00  0.00     0.004 C 
ENDBRANCH  11  12
ENDBRANCH  10  11
ENDBRANCH   9  10
ENDBRANCH   8   9
ENDBRANCH   1   8
TORSDOF 9
ENDMDL
MODEL 8
REMARK VINA RESULT:    -2.977     16.690     17.836
REMARK INTER + INTRA:          -5.675
REMARK INTER:                  -5.250
REMARK INTRA:                  -0.425
REMARK UNBOUND:                -1.131
REMARK SMILES CCCCCCCCCCC(=O)[O-]
REMARK SMILES IDX 7 1 8 2 9 3 10 4 11 5 12 6 13 7 6 8 5 9 4 10 3 11 2 12 1 13
REMARK H PARENT
REMARK Flexibility Score: inf
ROOT
ATOM      1  C   UNL     1      -8.935 -10.296  -6.740  1.00  0.00     0.000 C 
ENDROOT
BRANCH   1   2
ATOM      2  C   UNL     1      -7.621 -11.047  -7.019  1.00  0.00     0.000 C 
BRANCH   2   3
ATOM      3  C   UNL     1      -6.429 -10.102  -7.259  1.00  0.00     0.006 C 
BRANCH   3   4
ATOM      4  C   UNL     1      -5.161 -10.809  -7.769  1.00  0.00     0.053 C 
BRANCH   4   5
ATOM      5  C   UNL     1      -4.425 -10.008  -8.799  1.00  0.00     0.041 C 
ATOM      6  O   UNL     1      -3.681 -10.582  -9.638  1.00  0.00    -0.550 OA
ATOM      7  O   UNL     1      -4.585  -8.629  -8.852  1.00  0.00    -0.550 OA
ENDBRANCH   4   5
ENDBRANCH   3   4
ENDBRANCH   2   3
ENDBRANCH   1   2
BRANCH   1   8
ATOM      8  C   UNL     1      -8.716  -9.002  -5.939  1.00  0.00     0.000 C 
BRANCH   8   9
ATOM      9  C   UNL     1      -9.941  -8.075  -5.965  1.00  0.00    -0.000 C 
BRANCH   9  10
ATOM     10  C   UNL     1     -10.888  -8.450  -7.115  1.00  0.00    -0.000 C 
BRANCH  10  11
ATOM     11  C   UNL     1     -12.350  -8.611  -6.660  1.00  0.00    -0.000 C 
BRANCH  11  12
ATOM     12  C   UNL     1     -13.171  -7.308  -6.646  1.00  0.00    -0.003 C 
ATOM     13  C   UNL     1     -13.216  -6.644  -5.271  1.00  0.00     0.004 C 
ENDBRANCH  11  12
ENDBRANCH  10  11
ENDBRANCH   9  10
ENDBRANCH   8   9
ENDBRANCH   1   8
TORSDOF 9
ENDMDL
MODEL 9
REMARK VINA RESULT:    -1.114      0.778      1.630
REMARK INTER + INTRA:          -2.832
REMARK INTER:                  -2.112
REMARK INTRA:                  -0.720
REMARK UNBOUND:                -1.131
REMARK SMILES CCCCCCCCCCC(=O)[O-]
REMARK SMILES IDX 7 1 8 2 9 3 10 4 11 5 12 6 13 7 6 8 5 9 4 10 3 11 2 12 1 13
REMARK H PARENT
REMARK Flexibility Score: inf
ROOT
ATOM      1  C   UNL     1     -16.590  -9.495 -21.175  1.00  0.00     0.000 C 
ENDROOT
BRANCH   1   2
ATOM      2  C   UNL     1     -17.852  -8.844 -21.770  1.00  0.00     0.000 C 
BRANCH   2   3
ATOM      3  C   UNL     1     -18.112  -9.261 -23.229  1.00  0.00     0.006 C 
BRANCH   3   4
ATOM      4  C   UNL     1     -17.488  -8.315 -24.271  1.00  0.00     0.053 C 
BRANCH   4   5
ATOM      5  C   UNL     1     -16.085  -8.696 -24.633  1.00  0.00     0.041 C 
ATOM      6  O   UNL     1     -15.700  -9.890 -24.518  1.00  0.00    -0.550 OA
ATOM      7  O   UNL     1     -15.210  -7.736 -25.125  1.00  0.00    -0.550 OA
ENDBRANCH   4   5
ENDBRANCH   3   4
ENDBRANCH   2   3
ENDBRANCH   1   2
BRANCH   1   8
ATOM      8  C   UNL     1     -15.754  -8.509 -20.344  1.00  0.00     0.000 C 
BRANCH   8   9
ATOM      9  C   UNL     1     -16.179  -7.048 -20.555  1.00  0.00    -0.000 C 
BRANCH   9  10
ATOM     10  C   UNL     1     -15.438  -6.428 -21.749  1.00  0.00    -0.000 C 
BRANCH  10  11
ATOM     11  C   UNL     1     -16.335  -5.515 -22.605  1.00  0.00    -0.000 C 
BRANCH  11  12
ATOM     12  C   UNL     1     -16.415  -4.053 -22.128  1.00  0.00    -0.003 C 
ATOM     13  C   UNL     1     -16.675  -3.066 -23.265  1.00  0.00     0.004 C 
ENDBRANCH  11  12
ENDBRANCH  10  11
ENDBRANCH   9  10
ENDBRANCH   8   9
ENDBRANCH   1   8
TORSDOF 9
ENDMDL
