MODEL 1
REMARK VINA RESULT:    -5.314      0.000      0.000
REMARK INTER + INTRA:          -5.314
REMARK INTER:                  -5.314
REMARK INTRA:                   0.000
REMARK UNBOUND:                 0.000
REMARK SMILES O=c1ccc2ccccc2o1
REMARK SMILES IDX 7 1 8 2 9 3 10 4 5 5 6 6 4 7 3 8 2 9 1 10 11 11
REMARK H PARENT
REMARK Flexibility Score: inf
ROOT
ATOM      1  C   UNL     1      21.531  -6.988  16.030  1.00  0.00     0.001 A 
ATOM      2  C   UNL     1      22.012  -7.913  16.962  1.00  0.00     0.004 A 
ATOM      3  C   UNL     1      22.282  -7.515  18.275  1.00  0.00     0.048 A 
ATOM      4  C   UNL     1      22.073  -6.186  18.661  1.00  0.00     0.138 A 
ATOM      5  C   UNL     1      21.588  -5.250  17.719  1.00  0.00     0.018 A 
ATOM      6  C   UNL     1      21.318  -5.657  16.405  1.00  0.00     0.012 A 
ATOM      7  C   UNL     1      21.388  -3.930  18.134  1.00  0.00     0.019 A 
ATOM      8  C   UNL     1      21.671  -3.576  19.453  1.00  0.00     0.094 A 
ATOM      9  C   UNL     1      22.149  -4.557  20.330  1.00  0.00     0.336 A 
ATOM     10  O   UNL     1      22.410  -4.256  21.524  1.00  0.00    -0.246 OA
ATOM     11  O   UNL     1      22.330  -5.806  19.910  1.00  0.00    -0.423 OA
ENDROOT
TORSDOF 0
ENDMDL
MODEL 2
REMARK VINA RESULT:    -4.922     17.231     18.268
REMARK INTER + INTRA:          -4.922
REMARK INTER:                  -4.922
REMARK INTRA:                   0.000
REMARK UNBOUND:                 0.000
REMARK SMILES O=c1ccc2ccccc2o1
REMARK SMILES IDX 7 1 8 2 9 3 10 4 5 5 6 6 4 7 3 8 2 9 1 10 11 11
REMARK H PARENT
REMARK Flexibility Score: inf
ROOT
ATOM      1  C   UNL     1      21.877  10.125  28.115  1.00  0.00     0.001 A 
ATOM      2  C   UNL     1      20.972   9.533  27.228  1.00  0.00     0.004 A 
ATOM      3  C   UNL     1      20.000   8.646  27.701  1.00  0.00     0.048 A 
ATOM      4  C   UNL     1      19.931   8.346  29.066  1.00  0.00     0.138 A 
ATOM      5  C   UNL     1      20.845   8.943  29.963  1.00  0.00     0.018 A 
ATOM      6  C   UNL     1      21.816   9.833  29.482  1.00  0.00     0.012 A 
ATOM      7  C   UNL     1      20.751   8.624  31.321  1.00  0.00     0.019 A 
ATOM      8  C   UNL     1      19.767   7.734  31.749  1.00  0.00     0.094 A 
ATOM      9  C   UNL     1      18.896   7.181  30.804  1.00  0.00     0.336 A 
ATOM     10  O   UNL     1      18.001   6.375  31.171  1.00  0.00    -0.246 OA
ATOM     11  O   UNL     1      19.006   7.501  29.517  1.00  0.00    -0.423 OA
ENDROOT
TORSDOF 0
ENDMDL
MODEL 3
REMARK VINA RESULT:    -4.903      1.936      4.359
REMARK INTER + INTRA:          -4.903
REMARK INTER:                  -4.903
REMARK INTRA:                   0.000
REMARK UNBOUND:                 0.000
REMARK SMILES O=c1ccc2ccccc2o1
REMARK SMILES IDX 7 1 8 2 9 3 10 4 5 5 6 6 4 7 3 8 2 9 1 10 11 11
REMARK H PARENT
REMARK Flexibility Score: inf
ROOT
ATOM      1  C   UNL     1      22.362  -4.470  20.583  1.00  0.00     0.001 A 
ATOM      2  C   UNL     1      21.784  -3.480  19.781  1.00  0.00     0.004 A 
ATOM      3  C   UNL     1      21.343  -3.789  18.490  1.00  0.00     0.048 A 
ATOM      4  C   UNL     1      21.479  -5.092  17.996  1.00  0.00     0.138 A 
ATOM      5  C   UNL     1      22.063  -6.091  18.806  1.00  0.00     0.018 A 
ATOM      6  C   UNL     1      22.503  -5.775  20.099  1.00  0.00     0.012 A 
ATOM      7  C   UNL     1      22.186  -7.383  18.285  1.00  0.00     0.019 A 
ATOM      8  C   UNL     1      21.732  -7.647  16.993  1.00  0.00     0.094 A 
ATOM      9  C   UNL     1      21.164  -6.606  16.249  1.00  0.00     0.336 A 
ATOM     10  O   UNL     1      20.749  -6.825  15.080  1.00  0.00    -0.246 OA
ATOM     11  O   UNL     1      21.059  -5.385  16.768  1.00  0.00    -0.423 OA
ENDROOT
TORSDOF 0
ENDMDL
MODEL 4
REMARK VINA RESULT:    -4.888     17.947     18.540
REMARK INTER + INTRA:          -4.888
REMARK INTER:                  -4.888
REMARK INTRA:                   0.000
REMARK UNBOUND:                 0.000
REMARK SMILES O=c1ccc2ccccc2o1
REMARK SMILES IDX 7 1 8 2 9 3 10 4 5 5 6 6 4 7 3 8 2 9 1 10 11 11
REMARK H PARENT
REMARK Flexibility Score: inf
ROOT
ATOM      1  C   UNL     1      20.522   7.260  32.239  1.00  0.00     0.001 A 
ATOM      2  C   UNL     1      19.334   6.684  31.775  1.00  0.00     0.004 A 
ATOM      3  C   UNL     1      18.764   7.117  30.574  1.00  0.00     0.048 A 
ATOM      4  C   UNL     1      19.380   8.131  29.831  1.00  0.00     0.138 A 
ATOM      5  C   UNL     1      20.579   8.713  30.300  1.00  0.00     0.018 A 
ATOM      6  C   UNL     1      21.146   8.273  31.504  1.00  0.00     0.012 A 
ATOM      7  C   UNL     1      21.172   9.724  29.536  1.00  0.00     0.019 A 
ATOM      8  C   UNL     1      20.569  10.125  28.345  1.00  0.00     0.094 A 
ATOM      9  C   UNL     1      19.381   9.503  27.943  1.00  0.00     0.336 A 
ATOM     10  O   UNL     1      18.821   9.852  26.871  1.00  0.00    -0.246 OA
ATOM     11  O   UNL     1      18.837   8.544  28.688  1.00  0.00    -0.423 OA
ENDROOT
TORSDOF 0
ENDMDL
MODEL 5
REMARK VINA RESULT:    -4.862     16.911     17.488
REMARK INTER + INTRA:          -4.862
REMARK INTER:                  -4.862
REMARK INTRA:                   0.000
REMARK UNBOUND:                 0.000
REMARK SMILES O=c1ccc2ccccc2o1
REMARK SMILES IDX 7 1 8 2 9 3 10 4 5 5 6 6 4 7 3 8 2 9 1 10 11 11
REMARK H PARENT
REMARK Flexibility Score: inf
ROOT
ATOM      1  C   UNL     1      19.931   9.369  27.000  1.00  0.00     0.001 A 
ATOM      2  C   UNL     1      21.270   8.968  26.955  1.00  0.00     0.004 A 
ATOM      3  C   UNL     1      21.806   8.186  27.983  1.00  0.00     0.048 A 
ATOM      4  C   UNL     1      21.002   7.801  29.063  1.00  0.00     0.138 A 
ATOM      5  C   UNL     1      19.650   8.206  29.109  1.00  0.00     0.018 A 
ATOM      6  C   UNL     1      19.118   8.989  28.074  1.00  0.00     0.012 A 
ATOM      7  C   UNL     1      18.871   7.806  30.199  1.00  0.00     0.019 A 
ATOM      8  C   UNL     1      19.447   7.026  31.202  1.00  0.00     0.094 A 
ATOM      9  C   UNL     1      20.794   6.663  31.089  1.00  0.00     0.336 A 
ATOM     10  O   UNL     1      21.331   5.960  31.985  1.00  0.00    -0.246 OA
ATOM     11  O   UNL     1      21.513   7.057  30.041  1.00  0.00    -0.423 OA
ENDROOT
TORSDOF 0
ENDMDL
MODEL 6
REMARK VINA RESULT:    -4.825     17.072     17.617
REMARK INTER + INTRA:          -4.825
REMARK INTER:                  -4.825
REMARK INTRA:                   0.000
REMARK UNBOUND:                 0.000
REMARK SMILES O=c1ccc2ccccc2o1
REMARK SMILES IDX 7 1 8 2 9 3 10 4 5 5 6 6 4 7 3 8 2 9 1 10 11 11
REMARK H PARENT
REMARK Flexibility Score: inf
ROOT
ATOM      1  C   UNL     1      19.185   6.823  31.439  1.00  0.00     0.001 A 
ATOM      2  C   UNL     1      20.519   6.400  31.424  1.00  0.00     0.004 A 
ATOM      3  C   UNL     1      21.375   6.809  30.397  1.00  0.00     0.048 A 
ATOM      4  C   UNL     1      20.900   7.645  29.379  1.00  0.00     0.138 A 
ATOM      5  C   UNL     1      19.553   8.072  29.395  1.00  0.00     0.018 A 
ATOM      6  C   UNL     1      18.700   7.658  30.428  1.00  0.00     0.012 A 
ATOM      7  C   UNL     1      19.107   8.906  28.365  1.00  0.00     0.019 A 
ATOM      8  C   UNL     1      19.996   9.290  27.361  1.00  0.00     0.094 A 
ATOM      9  C   UNL     1      21.316   8.828  27.411  1.00  0.00     0.336 A 
ATOM     10  O   UNL     1      22.132   9.163  26.514  1.00  0.00    -0.246 OA
ATOM     11  O   UNL     1      21.715   8.035  28.402  1.00  0.00    -0.423 OA
ENDROOT
TORSDOF 0
ENDMDL
MODEL 7
REMARK VINA RESULT:    -4.721     10.720     11.908
REMARK INTER + INTRA:          -4.721
REMARK INTER:                  -4.721
REMARK INTRA:                   0.000
REMARK UNBOUND:                 0.000
REMARK SMILES O=c1ccc2ccccc2o1
REMARK SMILES IDX 7 1 8 2 9 3 10 4 5 5 6 6 4 7 3 8 2 9 1 10 11 11
REMARK H PARENT
REMARK Flexibility Score: inf
ROOT
ATOM      1  C   UNL     1      28.168   1.369  22.699  1.00  0.00     0.001 A 
ATOM      2  C   UNL     1      28.889   2.562  22.582  1.00  0.00     0.004 A 
ATOM      3  C   UNL     1      28.446   3.719  23.229  1.00  0.00     0.048 A 
ATOM      4  C   UNL     1      27.276   3.688  23.997  1.00  0.00     0.138 A 
ATOM      5  C   UNL     1      26.547   2.483  24.115  1.00  0.00     0.018 A 
ATOM      6  C   UNL     1      26.998   1.326  23.465  1.00  0.00     0.012 A 
ATOM      7  C   UNL     1      25.382   2.483  24.889  1.00  0.00     0.019 A 
ATOM      8  C   UNL     1      24.977   3.660  25.517  1.00  0.00     0.094 A 
ATOM      9  C   UNL     1      25.749   4.816  25.355  1.00  0.00     0.336 A 
ATOM     10  O   UNL     1      25.399   5.888  25.914  1.00  0.00    -0.246 OA
ATOM     11  O   UNL     1      26.854   4.790  24.613  1.00  0.00    -0.423 OA
ENDROOT
TORSDOF 0
ENDMDL
MODEL 8
REMARK VINA RESULT:    -4.702     16.307     17.116
REMARK INTER + INTRA:          -4.702
REMARK INTER:                  -4.702
REMARK INTRA:                   0.000
REMARK UNBOUND:                 0.000
REMARK SMILES O=c1ccc2ccccc2o1
REMARK SMILES IDX 7 1 8 2 9 3 10 4 5 5 6 6 4 7 3 8 2 9 1 10 11 11
REMARK H PARENT
REMARK Flexibility Score: inf
ROOT
ATOM      1  C   UNL     1      19.806   9.505  27.034  1.00  0.00     0.001 A 
ATOM      2  C   UNL     1      19.028   9.307  28.180  1.00  0.00     0.004 A 
ATOM      3  C   UNL     1      19.494   8.490  29.215  1.00  0.00     0.048 A 
ATOM      4  C   UNL     1      20.743   7.866  29.107  1.00  0.00     0.138 A 
ATOM      5  C   UNL     1      21.528   8.065  27.950  1.00  0.00     0.018 A 
ATOM      6  C   UNL     1      21.056   8.887  26.916  1.00  0.00     0.012 A 
ATOM      7  C   UNL     1      22.771   7.429  27.871  1.00  0.00     0.019 A 
ATOM      8  C   UNL     1      23.196   6.623  28.926  1.00  0.00     0.094 A 
ATOM      9  C   UNL     1      22.364   6.471  30.041  1.00  0.00     0.336 A 
ATOM     10  O   UNL     1      22.730   5.747  31.004  1.00  0.00    -0.246 OA
ATOM     11  O   UNL     1      21.186   7.088  30.092  1.00  0.00    -0.423 OA
ENDROOT
TORSDOF 0
ENDMDL
MODEL 9
REMARK VINA RESULT:    -4.654     10.461     12.290
REMARK INTER + INTRA:          -4.654
REMARK INTER:                  -4.654
REMARK INTRA:                   0.000
REMARK UNBOUND:                 0.000
REMARK SMILES O=c1ccc2ccccc2o1
REMARK SMILES IDX 7 1 8 2 9 3 10 4 5 5 6 6 4 7 3 8 2 9 1 10 11 11
REMARK H PARENT
REMARK Flexibility Score: inf
ROOT
ATOM      1  C   UNL     1      28.252   1.889  22.710  1.00  0.00     0.001 A 
ATOM      2  C   UNL     1      27.057   1.322  23.167  1.00  0.00     0.004 A 
ATOM      3  C   UNL     1      26.187   2.066  23.970  1.00  0.00     0.048 A 
ATOM      4  C   UNL     1      26.509   3.383  24.320  1.00  0.00     0.138 A 
ATOM      5  C   UNL     1      27.716   3.955  23.859  1.00  0.00     0.018 A 
ATOM      6  C   UNL     1      28.583   3.204  23.053  1.00  0.00     0.012 A 
ATOM      7  C   UNL     1      28.011   5.272  24.224  1.00  0.00     0.019 A 
ATOM      8  C   UNL     1      27.114   5.977  25.027  1.00  0.00     0.094 A 
ATOM      9  C   UNL     1      25.938   5.345  25.447  1.00  0.00     0.336 A 
ATOM     10  O   UNL     1      25.117   5.965  26.172  1.00  0.00    -0.246 OA
ATOM     11  O   UNL     1      25.681   4.090  25.085  1.00  0.00    -0.423 OA
ENDROOT
TORSDOF 0
ENDMDL
