MODEL 1
REMARK VINA RESULT:    -5.197      0.000      0.000
REMARK INTER + INTRA:         -13.617
REMARK INTER:                 -11.882
REMARK INTRA:                  -1.735
REMARK UNBOUND:                -1.735
REMARK SMILES CCCCCCCCCCCCCCCCCCCCCCCC(=O)[O-]
REMARK SMILES IDX 13 1 14 2 15 3 16 4 17 5 18 6 19 7 20 8 21 9 22 10 23 11
REMARK SMILES IDX 24 12 25 13 26 14 12 15 11 16 10 17 9 18 8 19 7 20 6 21 5 22
REMARK SMILES IDX 4 23 3 24 2 25 1 26
REMARK H PARENT
REMARK Flexibility Score: inf
ROOT
ATOM      1  C   UNL     1      -0.313  34.645  16.996  1.00  0.00     0.000 C 
ENDROOT
BRANCH   1   2
ATOM      2  C   UNL     1      -1.200  33.445  17.375  1.00  0.00     0.000 C 
BRANCH   2   3
ATOM      3  C   UNL     1      -0.406  32.296  18.014  1.00  0.00     0.000 C 
BRANCH   3   4
ATOM      4  C   UNL     1      -0.426  31.050  17.115  1.00  0.00     0.000 C 
BRANCH   4   5
ATOM      5  C   UNL     1       0.980  30.623  16.669  1.00  0.00     0.000 C 
BRANCH   5   6
ATOM      6  C   UNL     1       1.080  29.112  16.401  1.00  0.00     0.000 C 
BRANCH   6   7
ATOM      7  C   UNL     1      -0.124  28.329  16.957  1.00  0.00     0.000 C 
BRANCH   7   8
ATOM      8  C   UNL     1      -0.230  26.867  16.476  1.00  0.00     0.000 C 
BRANCH   8   9
ATOM      9  C   UNL     1       0.343  25.818  17.445  1.00  0.00     0.000 C 
BRANCH   9  10
ATOM     10  C   UNL     1      -0.674  25.364  18.503  1.00  0.00     0.006 C 
BRANCH  10  11
ATOM     11  C   UNL     1      -0.382  26.013  19.859  1.00  0.00     0.053 C 
BRANCH  11  12
ATOM     12  C   UNL     1       0.304  25.042  20.767  1.00  0.00     0.041 C 
ATOM     13  O   UNL     1       1.499  25.236  21.116  1.00  0.00    -0.550 OA
ATOM     14  O   UNL     1      -0.391  23.950  21.270  1.00  0.00    -0.550 OA
ENDBRANCH  11  12
ENDBRANCH  10  11
ENDBRANCH   9  10
ENDBRANCH   8   9
ENDBRANCH   7   8
ENDBRANCH   6   7
ENDBRANCH   5   6
ENDBRANCH   4   5
ENDBRANCH   3   4
ENDBRANCH   2   3
ENDBRANCH   1   2
BRANCH   1  15
ATOM     15  C   UNL     1      -1.079  35.894  16.515  1.00  0.00     0.000 C 
BRANCH  15  16
ATOM     16  C   UNL     1      -2.504  36.048  17.081  1.00  0.00     0.000 C 
BRANCH  16  17
ATOM     17  C   UNL     1      -2.607  36.875  18.375  1.00  0.00     0.000 C 
BRANCH  17  18
ATOM     18  C   UNL     1      -3.013  38.336  18.117  1.00  0.00    -0.000 C 
BRANCH  18  19
ATOM     19  C   UNL     1      -4.299  38.733  18.861  1.00  0.00    -0.000 C 
BRANCH  19  20
ATOM     20  C   UNL     1      -5.494  37.834  18.497  1.00  0.00    -0.000 C 
BRANCH  20  21
ATOM     21  C   UNL     1      -6.781  38.238  19.233  1.00  0.00    -0.000 C 
BRANCH  21  22
ATOM     22  C   UNL     1      -6.516  39.169  20.426  1.00  0.00    -0.000 C 
BRANCH  22  23
ATOM     23  C   UNL     1      -7.327  38.730  21.655  1.00  0.00    -0.000 C 
BRANCH  23  24
ATOM     24  C   UNL     1      -6.546  37.779  22.580  1.00  0.00    -0.000 C 
BRANCH  24  25
ATOM     25  C   UNL     1      -5.014  37.872  22.462  1.00  0.00    -0.003 C 
ATOM     26  C   UNL     1      -4.361  36.542  22.089  1.00  0.00     0.004 C 
ENDBRANCH  24  25
ENDBRANCH  23  24
ENDBRANCH  22  23
ENDBRANCH  21  22
ENDBRANCH  20  21
ENDBRANCH  19  20
ENDBRANCH  18  19
ENDBRANCH  17  18
ENDBRANCH  16  17
ENDBRANCH  15  16
ENDBRANCH   1  15
TORSDOF 22
ENDMDL
MODEL 2
REMARK VINA RESULT:    -5.130      1.076      2.035
REMARK INTER + INTRA:         -13.462
REMARK INTER:                 -11.713
REMARK INTRA:                  -1.750
REMARK UNBOUND:                -1.735
REMARK SMILES CCCCCCCCCCCCCCCCCCCCCCCC(=O)[O-]
REMARK SMILES IDX 13 1 14 2 15 3 16 4 17 5 18 6 19 7 20 8 21 9 22 10 23 11
REMARK SMILES IDX 24 12 25 13 26 14 12 15 11 16 10 17 9 18 8 19 7 20 6 21 5 22
REMARK SMILES IDX 4 23 3 24 2 25 1 26
REMARK H PARENT
REMARK Flexibility Score: inf
ROOT
ATOM      1  C   UNL     1      -1.910  35.000  17.372  1.00  0.00     0.000 C 
ENDROOT
BRANCH   1   2
ATOM      2  C   UNL     1      -0.483  34.669  16.899  1.00  0.00     0.000 C 
BRANCH   2   3
ATOM      3  C   UNL     1      -0.311  33.192  16.515  1.00  0.00     0.000 C 
BRANCH   3   4
ATOM      4  C   UNL     1      -0.417  32.288  17.752  1.00  0.00     0.000 C 
BRANCH   4   5
ATOM      5  C   UNL     1      -0.509  30.798  17.386  1.00  0.00     0.000 C 
BRANCH   5   6
ATOM      6  C   UNL     1       0.838  30.221  16.920  1.00  0.00     0.000 C 
BRANCH   6   7
ATOM      7  C   UNL     1       0.744  28.738  16.522  1.00  0.00     0.000 C 
BRANCH   7   8
ATOM      8  C   UNL     1      -0.147  27.872  17.437  1.00  0.00     0.000 C 
BRANCH   8   9
ATOM      9  C   UNL     1      -0.076  26.357  17.173  1.00  0.00     0.000 C 
BRANCH   9  10
ATOM     10  C   UNL     1       0.380  25.558  18.403  1.00  0.00     0.006 C 
BRANCH  10  11
ATOM     11  C   UNL     1      -0.818  25.119  19.248  1.00  0.00     0.053 C 
BRANCH  11  12
ATOM     12  C   UNL     1      -0.672  25.601  20.657  1.00  0.00     0.041 C 
ATOM     13  O   UNL     1       0.473  25.776  21.151  1.00  0.00    -0.550 OA
ATOM     14  O   UNL     1      -1.800  25.906  21.408  1.00  0.00    -0.550 OA
ENDBRANCH  11  12
ENDBRANCH  10  11
ENDBRANCH   9  10
ENDBRANCH   8   9
ENDBRANCH   7   8
ENDBRANCH   6   7
ENDBRANCH   5   6
ENDBRANCH   4   5
ENDBRANCH   3   4
ENDBRANCH   2   3
ENDBRANCH   1   2
BRANCH   1  15
ATOM     15  C   UNL     1      -2.067  36.373  18.056  1.00  0.00     0.000 C 
BRANCH  15  16
ATOM     16  C   UNL     1      -2.475  37.529  17.121  1.00  0.00     0.000 C 
BRANCH  16  17
ATOM     17  C   UNL     1      -3.975  37.874  17.124  1.00  0.00     0.000 C 
BRANCH  17  18
ATOM     18  C   UNL     1      -4.513  38.174  18.534  1.00  0.00    -0.000 C 
BRANCH  18  19
ATOM     19  C   UNL     1      -3.632  39.173  19.302  1.00  0.00    -0.000 C 
BRANCH  19  20
ATOM     20  C   UNL     1      -3.491  38.813  20.792  1.00  0.00    -0.000 C 
BRANCH  20  21
ATOM     21  C   UNL     1      -3.818  37.338  21.075  1.00  0.00    -0.000 C 
BRANCH  21  22
ATOM     22  C   UNL     1      -4.559  37.138  22.407  1.00  0.00    -0.000 C 
BRANCH  22  23
ATOM     23  C   UNL     1      -6.072  37.009  22.178  1.00  0.00    -0.000 C 
BRANCH  23  24
ATOM     24  C   UNL     1      -6.881  38.120  22.872  1.00  0.00    -0.000 C 
BRANCH  24  25
ATOM     25  C   UNL     1      -7.290  39.290  21.958  1.00  0.00    -0.003 C 
ATOM     26  C   UNL     1      -7.458  38.877  20.496  1.00  0.00     0.004 C 
ENDBRANCH  24  25
ENDBRANCH  23  24
ENDBRANCH  22  23
ENDBRANCH  21  22
ENDBRANCH  20  21
ENDBRANCH  19  20
ENDBRANCH  18  19
ENDBRANCH  17  18
ENDBRANCH  16  17
ENDBRANCH  15  16
ENDBRANCH   1  15
TORSDOF 22
ENDMDL
MODEL 3
REMARK VINA RESULT:    -5.119      3.623     11.368
REMARK INTER + INTRA:         -13.437
REMARK INTER:                 -11.816
REMARK INTRA:                  -1.621
REMARK UNBOUND:                -1.735
REMARK SMILES CCCCCCCCCCCCCCCCCCCCCCCC(=O)[O-]
REMARK SMILES IDX 13 1 14 2 15 3 16 4 17 5 18 6 19 7 20 8 21 9 22 10 23 11
REMARK SMILES IDX 24 12 25 13 26 14 12 15 11 16 10 17 9 18 8 19 7 20 6 21 5 22
REMARK SMILES IDX 4 23 3 24 2 25 1 26
REMARK H PARENT
REMARK Flexibility Score: inf
ROOT
ATOM      1  C   UNL     1      -1.901  35.610  17.411  1.00  0.00     0.000 C 
ENDROOT
BRANCH   1   2
ATOM      2  C   UNL     1      -1.898  37.124  17.688  1.00  0.00     0.000 C 
BRANCH   2   3
ATOM      3  C   UNL     1      -2.734  37.506  18.918  1.00  0.00     0.000 C 
BRANCH   3   4
ATOM      4  C   UNL     1      -3.899  38.426  18.525  1.00  0.00     0.000 C 
BRANCH   4   5
ATOM      5  C   UNL     1      -5.266  37.736  18.656  1.00  0.00     0.000 C 
BRANCH   5   6
ATOM      6  C   UNL     1      -6.328  38.648  19.292  1.00  0.00     0.000 C 
BRANCH   6   7
ATOM      7  C   UNL     1      -5.712  39.775  20.140  1.00  0.00     0.000 C 
BRANCH   7   8
ATOM      8  C   UNL     1      -6.521  40.163  21.395  1.00  0.00     0.000 C 
BRANCH   8   9
ATOM      9  C   UNL     1      -7.426  39.053  21.957  1.00  0.00     0.000 C 
BRANCH   9  10
ATOM     10  C   UNL     1      -6.711  38.161  22.983  1.00  0.00     0.006 C 
BRANCH  10  11
ATOM     11  C   UNL     1      -6.262  36.844  22.346  1.00  0.00     0.053 C 
BRANCH  11  12
ATOM     12  C   UNL     1      -4.768  36.746  22.340  1.00  0.00     0.041 C 
ATOM     13  O   UNL     1      -4.066  37.791  22.346  1.00  0.00    -0.550 OA
ATOM     14  O   UNL     1      -4.153  35.502  22.380  1.00  0.00    -0.550 OA
ENDBRANCH  11  12
ENDBRANCH  10  11
ENDBRANCH   9  10
ENDBRANCH   8   9
ENDBRANCH   7   8
ENDBRANCH   6   7
ENDBRANCH   5   6
ENDBRANCH   4   5
ENDBRANCH   3   4
ENDBRANCH   2   3
ENDBRANCH   1   2
BRANCH   1  15
ATOM     15  C   UNL     1      -0.513  34.996  17.138  1.00  0.00     0.000 C 
BRANCH  15  16
ATOM     16  C   UNL     1      -0.527  33.532  16.657  1.00  0.00     0.000 C 
BRANCH  16  17
ATOM     17  C   UNL     1      -0.512  32.475  17.777  1.00  0.00     0.000 C 
BRANCH  17  18
ATOM     18  C   UNL     1      -0.458  31.036  17.237  1.00  0.00    -0.000 C 
BRANCH  18  19
ATOM     19  C   UNL     1       0.949  30.634  16.764  1.00  0.00    -0.000 C 
BRANCH  19  20
ATOM     20  C   UNL     1       1.088  29.118  16.544  1.00  0.00    -0.000 C 
BRANCH  20  21
ATOM     21  C   UNL     1      -0.164  28.341  16.984  1.00  0.00    -0.000 C 
BRANCH  21  22
ATOM     22  C   UNL     1      -0.392  27.065  16.159  1.00  0.00    -0.000 C 
BRANCH  22  23
ATOM     23  C   UNL     1      -0.410  25.824  17.064  1.00  0.00    -0.000 C 
BRANCH  23  24
ATOM     24  C   UNL     1      -0.233  26.166  18.554  1.00  0.00    -0.000 C 
BRANCH  24  25
ATOM     25  C   UNL     1      -0.515  25.004  19.524  1.00  0.00    -0.003 C 
ATOM     26  C   UNL     1       0.286  25.100  20.823  1.00  0.00     0.004 C 
ENDBRANCH  24  25
ENDBRANCH  23  24
ENDBRANCH  22  23
ENDBRANCH  21  22
ENDBRANCH  20  21
ENDBRANCH  19  20
ENDBRANCH  18  19
ENDBRANCH  17  18
ENDBRANCH  16  17
ENDBRANCH  15  16
ENDBRANCH   1  15
TORSDOF 22
ENDMDL
MODEL 4
REMARK VINA RESULT:    -4.971      1.112      1.876
REMARK INTER + INTRA:         -13.100
REMARK INTER:                 -11.306
REMARK INTRA:                  -1.794
REMARK UNBOUND:                -1.735
REMARK SMILES CCCCCCCCCCCCCCCCCCCCCCCC(=O)[O-]
REMARK SMILES IDX 13 1 14 2 15 3 16 4 17 5 18 6 19 7 20 8 21 9 22 10 23 11
REMARK SMILES IDX 24 12 25 13 26 14 12 15 11 16 10 17 9 18 8 19 7 20 6 21 5 22
REMARK SMILES IDX 4 23 3 24 2 25 1 26
REMARK H PARENT
REMARK Flexibility Score: inf
ROOT
ATOM      1  C   UNL     1      -1.655  34.716  17.365  1.00  0.00     0.000 C 
ENDROOT
BRANCH   1   2
ATOM      2  C   UNL     1      -0.405  33.819  17.360  1.00  0.00     0.000 C 
BRANCH   2   3
ATOM      3  C   UNL     1      -0.746  32.324  17.454  1.00  0.00     0.000 C 
BRANCH   3   4
ATOM      4  C   UNL     1      -0.046  31.531  16.339  1.00  0.00     0.000 C 
BRANCH   4   5
ATOM      5  C   UNL     1       1.183  30.761  16.846  1.00  0.00     0.000 C 
BRANCH   5   6
ATOM      6  C   UNL     1       1.087  29.251  16.568  1.00  0.00     0.000 C 
BRANCH   6   7
ATOM      7  C   UNL     1      -0.197  28.622  17.138  1.00  0.00     0.000 C 
BRANCH   7   8
ATOM      8  C   UNL     1      -0.431  27.149  16.745  1.00  0.00     0.000 C 
BRANCH   8   9
ATOM      9  C   UNL     1       0.411  26.123  17.525  1.00  0.00     0.000 C 
BRANCH   9  10
ATOM     10  C   UNL     1      -0.411  25.337  18.557  1.00  0.00     0.006 C 
BRANCH  10  11
ATOM     11  C   UNL     1      -0.085  25.795  19.981  1.00  0.00     0.053 C 
BRANCH  11  12
ATOM     12  C   UNL     1      -1.109  25.282  20.945  1.00  0.00     0.041 C 
ATOM     13  O   UNL     1      -1.944  26.070  21.461  1.00  0.00    -0.550 OA
ATOM     14  O   UNL     1      -1.173  23.925  21.233  1.00  0.00    -0.550 OA
ENDBRANCH  11  12
ENDBRANCH  10  11
ENDBRANCH   9  10
ENDBRANCH   8   9
ENDBRANCH   7   8
ENDBRANCH   6   7
ENDBRANCH   5   6
ENDBRANCH   4   5
ENDBRANCH   3   4
ENDBRANCH   2   3
ENDBRANCH   1   2
BRANCH   1  15
ATOM     15  C   UNL     1      -1.467  36.098  16.707  1.00  0.00     0.000 C 
BRANCH  15  16
ATOM     16  C   UNL     1      -0.454  37.025  17.406  1.00  0.00     0.000 C 
BRANCH  16  17
ATOM     17  C   UNL     1      -1.075  38.111  18.305  1.00  0.00     0.000 C 
BRANCH  17  18
ATOM     18  C   UNL     1      -2.414  38.640  17.761  1.00  0.00    -0.000 C 
BRANCH  18  19
ATOM     19  C   UNL     1      -3.535  38.600  18.811  1.00  0.00    -0.000 C 
BRANCH  19  20
ATOM     20  C   UNL     1      -3.430  37.379  19.742  1.00  0.00    -0.000 C 
BRANCH  20  21
ATOM     21  C   UNL     1      -3.338  37.775  21.225  1.00  0.00    -0.000 C 
BRANCH  21  22
ATOM     22  C   UNL     1      -4.331  38.884  21.607  1.00  0.00    -0.000 C 
BRANCH  22  23
ATOM     23  C   UNL     1      -5.407  38.350  22.564  1.00  0.00    -0.000 C 
BRANCH  23  24
ATOM     24  C   UNL     1      -6.733  38.021  21.852  1.00  0.00    -0.000 C 
BRANCH  24  25
ATOM     25  C   UNL     1      -7.123  38.994  20.725  1.00  0.00    -0.003 C 
ATOM     26  C   UNL     1      -7.114  38.343  19.343  1.00  0.00     0.004 C 
ENDBRANCH  24  25
ENDBRANCH  23  24
ENDBRANCH  22  23
ENDBRANCH  21  22
ENDBRANCH  20  21
ENDBRANCH  19  20
ENDBRANCH  18  19
ENDBRANCH  17  18
ENDBRANCH  16  17
ENDBRANCH  15  16
ENDBRANCH   1  15
TORSDOF 22
ENDMDL
MODEL 5
REMARK VINA RESULT:    -4.946      4.127     11.380
REMARK INTER + INTRA:         -13.041
REMARK INTER:                 -11.431
REMARK INTRA:                  -1.610
REMARK UNBOUND:                -1.735
REMARK SMILES CCCCCCCCCCCCCCCCCCCCCCCC(=O)[O-]
REMARK SMILES IDX 13 1 14 2 15 3 16 4 17 5 18 6 19 7 20 8 21 9 22 10 23 11
REMARK SMILES IDX 24 12 25 13 26 14 12 15 11 16 10 17 9 18 8 19 7 20 6 21 5 22
REMARK SMILES IDX 4 23 3 24 2 25 1 26
REMARK H PARENT
REMARK Flexibility Score: inf
ROOT
ATOM      1  C   UNL     1      -1.221  33.743  17.236  1.00  0.00     0.000 C 
ENDROOT
BRANCH   1   2
ATOM      2  C   UNL     1      -0.600  34.596  16.116  1.00  0.00     0.000 C 
BRANCH   2   3
ATOM      3  C   UNL     1      -1.059  36.061  16.159  1.00  0.00     0.000 C 
BRANCH   3   4
ATOM      4  C   UNL     1      -2.585  36.162  16.017  1.00  0.00     0.000 C 
BRANCH   4   5
ATOM      5  C   UNL     1      -3.218  37.067  17.085  1.00  0.00     0.000 C 
BRANCH   5   6
ATOM      6  C   UNL     1      -2.481  36.991  18.433  1.00  0.00     0.000 C 
BRANCH   6   7
ATOM      7  C   UNL     1      -3.050  37.967  19.477  1.00  0.00     0.000 C 
BRANCH   7   8
ATOM      8  C   UNL     1      -4.125  38.938  18.946  1.00  0.00     0.000 C 
BRANCH   8   9
ATOM      9  C   UNL     1      -5.078  39.504  20.013  1.00  0.00     0.000 C 
BRANCH   9  10
ATOM     10  C   UNL     1      -6.472  38.861  19.970  1.00  0.00     0.006 C 
BRANCH  10  11
ATOM     11  C   UNL     1      -6.432  37.428  20.506  1.00  0.00     0.053 C 
BRANCH  11  12
ATOM     12  C   UNL     1      -6.167  37.425  21.979  1.00  0.00     0.041 C 
ATOM     13  O   UNL     1      -5.048  37.052  22.420  1.00  0.00    -0.550 OA
ATOM     14  O   UNL     1      -7.137  37.884  22.860  1.00  0.00    -0.550 OA
ENDBRANCH  11  12
ENDBRANCH  10  11
ENDBRANCH   9  10
ENDBRANCH   8   9
ENDBRANCH   7   8
ENDBRANCH   6   7
ENDBRANCH   5   6
ENDBRANCH   4   5
ENDBRANCH   3   4
ENDBRANCH   2   3
ENDBRANCH   1   2
BRANCH   1  15
ATOM     15  C   UNL     1      -0.343  32.575  17.728  1.00  0.00     0.000 C 
BRANCH  15  16
ATOM     16  C   UNL     1      -0.113  31.449  16.701  1.00  0.00     0.000 C 
BRANCH  16  17
ATOM     17  C   UNL     1       1.169  30.623  16.914  1.00  0.00     0.000 C 
BRANCH  17  18
ATOM     18  C   UNL     1       1.005  29.152  16.493  1.00  0.00    -0.000 C 
BRANCH  18  19
ATOM     19  C   UNL     1      -0.286  28.521  17.041  1.00  0.00    -0.000 C 
BRANCH  19  20
ATOM     20  C   UNL     1      -0.744  27.304  16.218  1.00  0.00    -0.000 C 
BRANCH  20  21
ATOM     21  C   UNL     1       0.391  26.298  15.971  1.00  0.00    -0.000 C 
BRANCH  21  22
ATOM     22  C   UNL     1       0.267  25.036  16.839  1.00  0.00    -0.000 C 
BRANCH  22  23
ATOM     23  C   UNL     1       0.618  25.342  18.303  1.00  0.00    -0.000 C 
BRANCH  23  24
ATOM     24  C   UNL     1      -0.591  25.222  19.248  1.00  0.00    -0.000 C 
BRANCH  24  25
ATOM     25  C   UNL     1      -0.572  26.183  20.451  1.00  0.00    -0.003 C 
ATOM     26  C   UNL     1      -1.500  25.743  21.583  1.00  0.00     0.004 C 
ENDBRANCH  24  25
ENDBRANCH  23  24
ENDBRANCH  22  23
ENDBRANCH  21  22
ENDBRANCH  20  21
ENDBRANCH  19  20
ENDBRANCH  18  19
ENDBRANCH  17  18
ENDBRANCH  16  17
ENDBRANCH  15  16
ENDBRANCH   1  15
TORSDOF 22
ENDMDL
MODEL 6
REMARK VINA RESULT:    -4.862      4.856     11.592
REMARK INTER + INTRA:         -12.849
REMARK INTER:                 -11.072
REMARK INTRA:                  -1.777
REMARK UNBOUND:                -1.735
REMARK SMILES CCCCCCCCCCCCCCCCCCCCCCCC(=O)[O-]
REMARK SMILES IDX 13 1 14 2 15 3 16 4 17 5 18 6 19 7 20 8 21 9 22 10 23 11
REMARK SMILES IDX 24 12 25 13 26 14 12 15 11 16 10 17 9 18 8 19 7 20 6 21 5 22
REMARK SMILES IDX 4 23 3 24 2 25 1 26
REMARK H PARENT
REMARK Flexibility Score: inf
ROOT
ATOM      1  C   UNL     1      -1.730  34.732  17.209  1.00  0.00     0.000 C 
ENDROOT
BRANCH   1   2
ATOM      2  C   UNL     1      -1.898  35.805  16.120  1.00  0.00     0.000 C 
BRANCH   2   3
ATOM      3  C   UNL     1      -3.199  36.607  16.269  1.00  0.00     0.000 C 
BRANCH   3   4
ATOM      4  C   UNL     1      -2.927  38.116  16.177  1.00  0.00     0.000 C 
BRANCH   4   5
ATOM      5  C   UNL     1      -3.211  38.847  17.498  1.00  0.00     0.000 C 
BRANCH   5   6
ATOM      6  C   UNL     1      -2.116  38.609  18.551  1.00  0.00     0.000 C 
BRANCH   6   7
ATOM      7  C   UNL     1      -2.687  38.231  19.929  1.00  0.00     0.000 C 
BRANCH   7   8
ATOM      8  C   UNL     1      -3.622  37.004  19.932  1.00  0.00     0.000 C 
BRANCH   8   9
ATOM      9  C   UNL     1      -4.781  37.069  20.944  1.00  0.00     0.000 C 
BRANCH   9  10
ATOM     10  C   UNL     1      -6.155  37.200  20.270  1.00  0.00     0.006 C 
BRANCH  10  11
ATOM     11  C   UNL     1      -6.289  38.549  19.557  1.00  0.00     0.053 C 
BRANCH  11  12
ATOM     12  C   UNL     1      -6.443  39.655  20.554  1.00  0.00     0.041 C 
ATOM     13  O   UNL     1      -7.465  39.709  21.287  1.00  0.00    -0.550 OA
ATOM     14  O   UNL     1      -5.434  40.597  20.707  1.00  0.00    -0.550 OA
ENDBRANCH  11  12
ENDBRANCH  10  11
ENDBRANCH   9  10
ENDBRANCH   8   9
ENDBRANCH   7   8
ENDBRANCH   6   7
ENDBRANCH   5   6
ENDBRANCH   4   5
ENDBRANCH   3   4
ENDBRANCH   2   3
ENDBRANCH   1   2
BRANCH   1  15
ATOM     15  C   UNL     1      -0.542  33.772  17.000  1.00  0.00     0.000 C 
BRANCH  15  16
ATOM     16  C   UNL     1      -0.506  32.557  17.948  1.00  0.00     0.000 C 
BRANCH  16  17
ATOM     17  C   UNL     1      -0.482  31.184  17.250  1.00  0.00     0.000 C 
BRANCH  17  18
ATOM     18  C   UNL     1       0.939  30.739  16.861  1.00  0.00    -0.000 C 
BRANCH  18  19
ATOM     19  C   UNL     1       1.009  29.251  16.483  1.00  0.00    -0.000 C 
BRANCH  19  20
ATOM     20  C   UNL     1      -0.098  28.418  17.152  1.00  0.00    -0.000 C 
BRANCH  20  21
ATOM     21  C   UNL     1      -0.655  27.325  16.226  1.00  0.00    -0.000 C 
BRANCH  21  22
ATOM     22  C   UNL     1      -0.213  25.913  16.640  1.00  0.00    -0.000 C 
BRANCH  22  23
ATOM     23  C   UNL     1       0.275  25.897  18.096  1.00  0.00    -0.000 C 
BRANCH  23  24
ATOM     24  C   UNL     1      -0.634  25.070  19.025  1.00  0.00    -0.000 C 
BRANCH  24  25
ATOM     25  C   UNL     1      -0.064  24.818  20.433  1.00  0.00    -0.003 C 
ATOM     26  C   UNL     1      -1.032  24.062  21.343  1.00  0.00     0.004 C 
ENDBRANCH  24  25
ENDBRANCH  23  24
ENDBRANCH  22  23
ENDBRANCH  21  22
ENDBRANCH  20  21
ENDBRANCH  19  20
ENDBRANCH  18  19
ENDBRANCH  17  18
ENDBRANCH  16  17
ENDBRANCH  15  16
ENDBRANCH   1  15
TORSDOF 22
ENDMDL
MODEL 7
REMARK VINA RESULT:    -4.803      6.613     11.487
REMARK INTER + INTRA:         -12.715
REMARK INTER:                 -10.208
REMARK INTRA:                  -2.507
REMARK UNBOUND:                -1.735
REMARK SMILES CCCCCCCCCCCCCCCCCCCCCCCC(=O)[O-]
REMARK SMILES IDX 13 1 14 2 15 3 16 4 17 5 18 6 19 7 20 8 21 9 22 10 23 11
REMARK SMILES IDX 24 12 25 13 26 14 12 15 11 16 10 17 9 18 8 19 7 20 6 21 5 22
REMARK SMILES IDX 4 23 3 24 2 25 1 26
REMARK H PARENT
REMARK Flexibility Score: inf
ROOT
ATOM      1  C   UNL     1      -4.837  36.701  22.267  1.00  0.00     0.000 C 
ENDROOT
BRANCH   1   2
ATOM      2  C   UNL     1      -3.860  37.882  22.130  1.00  0.00     0.000 C 
BRANCH   2   3
ATOM      3  C   UNL     1      -3.124  38.201  23.441  1.00  0.00     0.000 C 
BRANCH   3   4
ATOM      4  C   UNL     1      -2.682  39.671  23.477  1.00  0.00     0.000 C 
BRANCH   4   5
ATOM      5  C   UNL     1      -3.075  40.373  24.786  1.00  0.00     0.000 C 
BRANCH   5   6
ATOM      6  C   UNL     1      -4.447  39.916  25.310  1.00  0.00     0.000 C 
BRANCH   6   7
ATOM      7  C   UNL     1      -4.589  40.088  26.833  1.00  0.00     0.000 C 
BRANCH   7   8
ATOM      8  C   UNL     1      -3.267  40.336  27.588  1.00  0.00     0.000 C 
BRANCH   8   9
ATOM      9  C   UNL     1      -3.401  40.455  29.117  1.00  0.00     0.000 C 
BRANCH   9  10
ATOM     10  C   UNL     1      -2.055  40.322  29.845  1.00  0.00     0.006 C 
BRANCH  10  11
ATOM     11  C   UNL     1      -1.453  38.930  29.637  1.00  0.00     0.053 C 
BRANCH  11  12
ATOM     12  C   UNL     1      -2.033  37.956  30.615  1.00  0.00     0.041 C 
ATOM     13  O   UNL     1      -2.387  38.343  31.760  1.00  0.00    -0.550 OA
ATOM     14  O   UNL     1      -2.230  36.633  30.244  1.00  0.00    -0.550 OA
ENDBRANCH  11  12
ENDBRANCH  10  11
ENDBRANCH   9  10
ENDBRANCH   8   9
ENDBRANCH   7   8
ENDBRANCH   6   7
ENDBRANCH   5   6
ENDBRANCH   4   5
ENDBRANCH   3   4
ENDBRANCH   2   3
ENDBRANCH   1   2
BRANCH   1  15
ATOM     15  C   UNL     1      -6.295  37.095  22.577  1.00  0.00     0.000 C 
BRANCH  15  16
ATOM     16  C   UNL     1      -6.604  38.601  22.474  1.00  0.00     0.000 C 
BRANCH  16  17
ATOM     17  C   UNL     1      -7.591  38.990  21.358  1.00  0.00     0.000 C 
BRANCH  17  18
ATOM     18  C   UNL     1      -6.891  39.284  20.020  1.00  0.00    -0.000 C 
BRANCH  18  19
ATOM     19  C   UNL     1      -6.801  38.044  19.115  1.00  0.00    -0.000 C 
BRANCH  19  20
ATOM     20  C   UNL     1      -5.427  37.905  18.438  1.00  0.00    -0.000 C 
BRANCH  20  21
ATOM     21  C   UNL     1      -4.409  38.936  18.953  1.00  0.00    -0.000 C 
BRANCH  21  22
ATOM     22  C   UNL     1      -3.090  38.915  18.164  1.00  0.00    -0.000 C 
BRANCH  22  23
ATOM     23  C   UNL     1      -1.973  38.250  18.981  1.00  0.00    -0.000 C 
BRANCH  23  24
ATOM     24  C   UNL     1      -0.900  37.583  18.100  1.00  0.00    -0.000 C 
BRANCH  24  25
ATOM     25  C   UNL     1      -1.450  36.695  16.969  1.00  0.00    -0.003 C 
ATOM     26  C   UNL     1      -1.878  35.310  17.451  1.00  0.00     0.004 C 
ENDBRANCH  24  25
ENDBRANCH  23  24
ENDBRANCH  22  23
ENDBRANCH  21  22
ENDBRANCH  20  21
ENDBRANCH  19  20
ENDBRANCH  18  19
ENDBRANCH  17  18
ENDBRANCH  16  17
ENDBRANCH  15  16
ENDBRANCH   1  15
TORSDOF 22
ENDMDL
MODEL 8
REMARK VINA RESULT:    -4.735      1.447      2.595
REMARK INTER + INTRA:         -12.559
REMARK INTER:                 -10.508
REMARK INTRA:                  -2.051
REMARK UNBOUND:                -1.735
REMARK SMILES CCCCCCCCCCCCCCCCCCCCCCCC(=O)[O-]
REMARK SMILES IDX 13 1 14 2 15 3 16 4 17 5 18 6 19 7 20 8 21 9 22 10 23 11
REMARK SMILES IDX 24 12 25 13 26 14 12 15 11 16 10 17 9 18 8 19 7 20 6 21 5 22
REMARK SMILES IDX 4 23 3 24 2 25 1 26
REMARK H PARENT
REMARK Flexibility Score: inf
ROOT
ATOM      1  C   UNL     1      -2.126  34.926  17.096  1.00  0.00     0.000 C 
ENDROOT
BRANCH   1   2
ATOM      2  C   UNL     1      -0.750  34.304  17.393  1.00  0.00     0.000 C 
BRANCH   2   3
ATOM      3  C   UNL     1      -0.507  33.000  16.617  1.00  0.00     0.000 C 
BRANCH   3   4
ATOM      4  C   UNL     1      -0.323  31.817  17.579  1.00  0.00     0.000 C 
BRANCH   4   5
ATOM      5  C   UNL     1       0.561  30.708  16.985  1.00  0.00     0.000 C 
BRANCH   5   6
ATOM      6  C   UNL     1       0.112  29.302  17.419  1.00  0.00     0.000 C 
BRANCH   6   7
ATOM      7  C   UNL     1       0.104  28.296  16.255  1.00  0.00     0.000 C 
BRANCH   7   8
ATOM      8  C   UNL     1      -0.328  26.864  16.634  1.00  0.00     0.000 C 
BRANCH   8   9
ATOM      9  C   UNL     1       0.482  26.217  17.772  1.00  0.00     0.000 C 
BRANCH   9  10
ATOM     10  C   UNL     1      -0.360  25.271  18.640  1.00  0.00     0.006 C 
BRANCH  10  11
ATOM     11  C   UNL     1       0.119  25.289  20.095  1.00  0.00     0.053 C 
BRANCH  11  12
ATOM     12  C   UNL     1      -1.012  24.973  21.023  1.00  0.00     0.041 C 
ATOM     13  O   UNL     1      -1.131  23.815  21.505  1.00  0.00    -0.550 OA
ATOM     14  O   UNL     1      -1.904  25.969  21.395  1.00  0.00    -0.550 OA
ENDBRANCH  11  12
ENDBRANCH  10  11
ENDBRANCH   9  10
ENDBRANCH   8   9
ENDBRANCH   7   8
ENDBRANCH   6   7
ENDBRANCH   5   6
ENDBRANCH   4   5
ENDBRANCH   3   4
ENDBRANCH   2   3
ENDBRANCH   1   2
BRANCH   1  15
ATOM     15  C   UNL     1      -2.136  36.465  16.996  1.00  0.00     0.000 C 
BRANCH  15  16
ATOM     16  C   UNL     1      -3.420  37.075  16.400  1.00  0.00     0.000 C 
BRANCH  16  17
ATOM     17  C   UNL     1      -3.320  38.563  16.017  1.00  0.00     0.000 C 
BRANCH  17  18
ATOM     18  C   UNL     1      -1.895  39.122  16.171  1.00  0.00    -0.000 C 
BRANCH  18  19
ATOM     19  C   UNL     1      -1.856  40.422  16.991  1.00  0.00    -0.000 C 
BRANCH  19  20
ATOM     20  C   UNL     1      -2.426  40.244  18.409  1.00  0.00    -0.000 C 
BRANCH  20  21
ATOM     21  C   UNL     1      -1.567  39.309  19.276  1.00  0.00    -0.000 C 
BRANCH  21  22
ATOM     22  C   UNL     1      -2.410  38.349  20.130  1.00  0.00    -0.000 C 
BRANCH  22  23
ATOM     23  C   UNL     1      -3.903  38.698  20.033  1.00  0.00    -0.000 C 
BRANCH  23  24
ATOM     24  C   UNL     1      -4.811  37.454  20.030  1.00  0.00    -0.000 C 
BRANCH  24  25
ATOM     25  C   UNL     1      -6.083  37.582  19.173  1.00  0.00    -0.003 C 
ATOM     26  C   UNL     1      -6.954  38.774  19.568  1.00  0.00     0.004 C 
ENDBRANCH  24  25
ENDBRANCH  23  24
ENDBRANCH  22  23
ENDBRANCH  21  22
ENDBRANCH  20  21
ENDBRANCH  19  20
ENDBRANCH  18  19
ENDBRANCH  17  18
ENDBRANCH  16  17
ENDBRANCH  15  16
ENDBRANCH   1  15
TORSDOF 22
ENDMDL
MODEL 9
REMARK VINA RESULT:    -4.700      7.767     11.401
REMARK INTER + INTRA:         -12.479
REMARK INTER:                  -9.336
REMARK INTRA:                  -3.142
REMARK UNBOUND:                -1.735
REMARK SMILES CCCCCCCCCCCCCCCCCCCCCCCC(=O)[O-]
REMARK SMILES IDX 13 1 14 2 15 3 16 4 17 5 18 6 19 7 20 8 21 9 22 10 23 11
REMARK SMILES IDX 24 12 25 13 26 14 12 15 11 16 10 17 9 18 8 19 7 20 6 21 5 22
REMARK SMILES IDX 4 23 3 24 2 25 1 26
REMARK H PARENT
REMARK Flexibility Score: inf
ROOT
ATOM      1  C   UNL     1      -3.585  37.612  23.388  1.00  0.00     0.000 C 
ENDROOT
BRANCH   1   2
ATOM      2  C   UNL     1      -2.763  38.875  23.074  1.00  0.00     0.000 C 
BRANCH   2   3
ATOM      3  C   UNL     1      -2.992  40.002  24.092  1.00  0.00     0.000 C 
BRANCH   3   4
ATOM      4  C   UNL     1      -4.428  39.965  24.637  1.00  0.00     0.000 C 
BRANCH   4   5
ATOM      5  C   UNL     1      -4.496  40.284  26.138  1.00  0.00     0.000 C 
BRANCH   5   6
ATOM      6  C   UNL     1      -3.134  40.705  26.713  1.00  0.00     0.000 C 
BRANCH   6   7
ATOM      7  C   UNL     1      -3.086  40.626  28.250  1.00  0.00     0.000 C 
BRANCH   7   8
ATOM      8  C   UNL     1      -3.151  39.198  28.831  1.00  0.00     0.000 C 
BRANCH   8   9
ATOM      9  C   UNL     1      -2.193  38.928  30.005  1.00  0.00     0.000 C 
BRANCH   9  10
ATOM     10  C   UNL     1      -1.785  37.451  30.115  1.00  0.00     0.006 C 
BRANCH  10  11
ATOM     11  C   UNL     1      -3.004  36.534  29.985  1.00  0.00     0.053 C 
BRANCH  11  12
ATOM     12  C   UNL     1      -3.530  36.166  31.336  1.00  0.00     0.041 C 
ATOM     13  O   UNL     1      -3.719  34.957  31.634  1.00  0.00    -0.550 OA
ATOM     14  O   UNL     1      -3.764  37.153  32.284  1.00  0.00    -0.550 OA
ENDBRANCH  11  12
ENDBRANCH  10  11
ENDBRANCH   9  10
ENDBRANCH   8   9
ENDBRANCH   7   8
ENDBRANCH   6   7
ENDBRANCH   5   6
ENDBRANCH   4   5
ENDBRANCH   3   4
ENDBRANCH   2   3
ENDBRANCH   1   2
BRANCH   1  15
ATOM     15  C   UNL     1      -4.257  36.952  22.167  1.00  0.00     0.000 C 
BRANCH  15  16
ATOM     16  C   UNL     1      -5.797  36.999  22.160  1.00  0.00     0.000 C 
BRANCH  16  17
ATOM     17  C   UNL     1      -6.417  37.976  21.145  1.00  0.00     0.000 C 
BRANCH  17  18
ATOM     18  C   UNL     1      -6.708  39.359  21.751  1.00  0.00    -0.000 C 
BRANCH  18  19
ATOM     19  C   UNL     1      -5.792  40.457  21.185  1.00  0.00    -0.000 C 
BRANCH  19  20
ATOM     20  C   UNL     1      -4.936  39.962  20.006  1.00  0.00    -0.000 C 
BRANCH  20  21
ATOM     21  C   UNL     1      -3.517  40.553  20.018  1.00  0.00    -0.000 C 
BRANCH  21  22
ATOM     22  C   UNL     1      -2.583  39.877  19.002  1.00  0.00    -0.000 C 
BRANCH  22  23
ATOM     23  C   UNL     1      -2.085  38.524  19.533  1.00  0.00    -0.000 C 
BRANCH  23  24
ATOM     24  C   UNL     1      -2.744  37.324  18.827  1.00  0.00    -0.000 C 
BRANCH  24  25
ATOM     25  C   UNL     1      -3.173  37.583  17.372  1.00  0.00    -0.003 C 
ATOM     26  C   UNL     1      -4.687  37.511  17.172  1.00  0.00     0.004 C 
ENDBRANCH  24  25
ENDBRANCH  23  24
ENDBRANCH  22  23
ENDBRANCH  21  22
ENDBRANCH  20  21
ENDBRANCH  19  20
ENDBRANCH  18  19
ENDBRANCH  17  18
ENDBRANCH  16  17
ENDBRANCH  15  16
ENDBRANCH   1  15
TORSDOF 22
ENDMDL
