MODEL 1
REMARK VINA RESULT:    33.134      0.000      0.000
REMARK INTER + INTRA:          39.688
REMARK INTER:                  39.914
REMARK INTRA:                  -0.225
REMARK UNBOUND:                -0.225
REMARK SMILES O=c1c(O)c(-c2ccc(O)c(O)c2)oc2cc(O)cc(O)c12
REMARK SMILES IDX 5 1 3 2 2 3 1 4 22 5 20 6 19 7 17 8 16 9 15 10 14 11 6 12
REMARK SMILES IDX 7 13 8 14 9 15 13 16 11 17 10 18 12 20 4 22 21 24 18 26
REMARK H PARENT 10 19 12 21 4 23 21 25 18 27
REMARK Flexibility Score: inf
ROOT
ATOM      1  C   UNL     1     -22.887  28.088  -7.225  1.00  0.00     0.180 A 
ATOM      2  C   UNL     1     -24.216  27.653  -7.375  1.00  0.00     0.208 A 
ATOM      3  C   UNL     1     -25.164  28.535  -7.918  1.00  0.00     0.238 A 
ATOM      4  O   UNL     1     -26.365  28.165  -7.979  1.00  0.00    -0.285 OA
ATOM      5  C   UNL     1     -24.761  29.820  -8.356  1.00  0.00     0.111 A 
ATOM      6  C   UNL     1     -25.628  30.780  -8.964  1.00  0.00     0.134 A 
ATOM      7  C   UNL     1     -25.142  32.059  -9.261  1.00  0.00     0.093 A 
ATOM      8  C   UNL     1     -23.805  32.392  -9.032  1.00  0.00     0.123 A 
ATOM      9  C   UNL     1     -22.939  31.446  -8.491  1.00  0.00     0.094 A 
ATOM     10  C   UNL     1     -23.403  30.175  -8.148  1.00  0.00     0.146 A 
ATOM     11  O   UNL     1     -22.547  29.310  -7.616  1.00  0.00    -0.452 OA
ENDROOT
BRANCH   1  12
ATOM     12  C   UNL     1     -21.835  27.222  -6.648  1.00  0.00     0.025 A 
ATOM     13  C   UNL     1     -21.862  26.924  -5.277  1.00  0.00     0.016 A 
ATOM     14  C   UNL     1     -20.891  26.091  -4.713  1.00  0.00     0.051 A 
ATOM     15  C   UNL     1     -19.889  25.533  -5.511  1.00  0.00     0.157 A 
ATOM     16  C   UNL     1     -20.838  26.643  -7.454  1.00  0.00     0.062 A 
ATOM     17  C   UNL     1     -19.863  25.806  -6.890  1.00  0.00     0.158 A 
BRANCH  15  18
ATOM     18  O   UNL     1     -18.933  24.708  -4.922  1.00  0.00    -0.504 OA
ATOM     19  H   UNL     1     -18.001  24.603  -5.306  1.00  0.00     0.293 HD
ENDBRANCH  15  18
BRANCH  17  20
ATOM     20  O   UNL     1     -18.875  25.241  -7.695  1.00  0.00    -0.504 OA
ATOM     21  H   UNL     1     -17.936  25.620  -7.728  1.00  0.00     0.293 HD
ENDBRANCH  17  20
ENDBRANCH   1  12
BRANCH   2  22
ATOM     22  O   UNL     1     -24.576  26.355  -7.006  1.00  0.00    -0.502 OA
ATOM     23  H   UNL     1     -24.432  25.995  -6.071  1.00  0.00     0.293 HD
ENDBRANCH   2  22
BRANCH   6  24
ATOM     24  O   UNL     1     -26.956  30.522  -9.316  1.00  0.00    -0.507 OA
ATOM     25  H   UNL     1     -27.292  30.405 -10.260  1.00  0.00     0.293 HD
ENDBRANCH   6  24
BRANCH   8  26
ATOM     26  O   UNL     1     -23.326  33.663  -9.347  1.00  0.00    -0.508 OA
ATOM     27  H   UNL     1     -23.953  34.449  -9.473  1.00  0.00     0.293 HD
ENDBRANCH   8  26
TORSDOF 6
ENDMDL
MODEL 2
REMARK VINA RESULT:    34.546      1.306      2.806
REMARK INTER + INTRA:          41.389
REMARK INTER:                  41.244
REMARK INTRA:                   0.145
REMARK UNBOUND:                -0.225
REMARK SMILES O=c1c(O)c(-c2ccc(O)c(O)c2)oc2cc(O)cc(O)c12
REMARK SMILES IDX 5 1 3 2 2 3 1 4 22 5 20 6 19 7 17 8 16 9 15 10 14 11 6 12
REMARK SMILES IDX 7 13 8 14 9 15 13 16 11 17 10 18 12 20 4 22 21 24 18 26
REMARK H PARENT 10 19 12 21 4 23 21 25 18 27
REMARK Flexibility Score: inf
ROOT
ATOM      1  C   UNL     1     -22.619  28.740  -7.426  1.00  0.00     0.180 A 
ATOM      2  C   UNL     1     -22.076  29.775  -8.207  1.00  0.00     0.208 A 
ATOM      3  C   UNL     1     -22.933  30.758  -8.727  1.00  0.00     0.238 A 
ATOM      4  O   UNL     1     -22.451  31.638  -9.486  1.00  0.00    -0.285 OA
ATOM      5  C   UNL     1     -24.314  30.726  -8.414  1.00  0.00     0.111 A 
ATOM      6  C   UNL     1     -25.268  31.696  -8.848  1.00  0.00     0.134 A 
ATOM      7  C   UNL     1     -26.626  31.505  -8.565  1.00  0.00     0.093 A 
ATOM      8  C   UNL     1     -27.057  30.413  -7.809  1.00  0.00     0.123 A 
ATOM      9  C   UNL     1     -26.128  29.490  -7.334  1.00  0.00     0.094 A 
ATOM     10  C   UNL     1     -24.771  29.633  -7.633  1.00  0.00     0.146 A 
ATOM     11  O   UNL     1     -23.923  28.719  -7.177  1.00  0.00    -0.452 OA
ENDROOT
BRANCH   1  12
ATOM     12  C   UNL     1     -21.783  27.660  -6.857  1.00  0.00     0.025 A 
ATOM     13  C   UNL     1     -22.100  27.134  -5.595  1.00  0.00     0.016 A 
ATOM     14  C   UNL     1     -21.337  26.100  -5.046  1.00  0.00     0.051 A 
ATOM     15  C   UNL     1     -20.257  25.566  -5.754  1.00  0.00     0.157 A 
ATOM     16  C   UNL     1     -20.708  27.107  -7.577  1.00  0.00     0.062 A 
ATOM     17  C   UNL     1     -19.942  26.068  -7.028  1.00  0.00     0.158 A 
BRANCH  15  18
ATOM     18  O   UNL     1     -19.512  24.537  -5.180  1.00  0.00    -0.504 OA
ATOM     19  H   UNL     1     -19.332  23.666  -5.667  1.00  0.00     0.293 HD
ENDBRANCH  15  18
BRANCH  17  20
ATOM     20  O   UNL     1     -18.875  25.530  -7.746  1.00  0.00    -0.504 OA
ATOM     21  H   UNL     1     -18.685  25.806  -8.702  1.00  0.00     0.293 HD
ENDBRANCH  17  20
ENDBRANCH   1  12
BRANCH   2  22
ATOM     22  O   UNL     1     -20.700  29.831  -8.441  1.00  0.00    -0.502 OA
ATOM     23  H   UNL     1     -20.042  30.157  -7.744  1.00  0.00     0.293 HD
ENDBRANCH   2  22
BRANCH   6  24
ATOM     24  O   UNL     1     -24.936  32.869  -9.533  1.00  0.00    -0.507 OA
ATOM     25  H   UNL     1     -25.558  33.381 -10.140  1.00  0.00     0.293 HD
ENDBRANCH   6  24
BRANCH   8  26
ATOM     26  O   UNL     1     -28.409  30.239  -7.518  1.00  0.00    -0.508 OA
ATOM     27  H   UNL     1     -28.713  29.670  -6.736  1.00  0.00     0.293 HD
ENDBRANCH   8  26
TORSDOF 6
ENDMDL
