MODEL 1
REMARK VINA RESULT:    -3.661      0.000      0.000
REMARK INTER + INTRA:          -4.891
REMARK INTER:                  -4.731
REMARK INTRA:                  -0.160
REMARK UNBOUND:                -0.160
REMARK SMILES CCCCCCC(=O)[O-]
REMARK SMILES IDX 5 1 6 2 7 3 8 4 9 5 4 6 3 7 2 8 1 9
REMARK H PARENT
REMARK Flexibility Score: inf
ROOT
ATOM      1  C   UNL     1      -5.082  -3.623   3.881  1.00  0.00     0.006 C 
ENDROOT
BRANCH   1   2
ATOM      2  C   UNL     1      -4.972  -2.919   2.526  1.00  0.00     0.053 C 
BRANCH   2   3
ATOM      3  C   UNL     1      -4.860  -3.922   1.422  1.00  0.00     0.041 C 
ATOM      4  O   UNL     1      -4.476  -3.565   0.277  1.00  0.00    -0.550 OA
ATOM      5  O   UNL     1      -5.133  -5.262   1.670  1.00  0.00    -0.550 OA
ENDBRANCH   2   3
ENDBRANCH   1   2
BRANCH   1   6
ATOM      6  C   UNL     1      -4.635  -2.699   5.021  1.00  0.00     0.000 C 
BRANCH   6   7
ATOM      7  C   UNL     1      -3.921  -1.457   4.474  1.00  0.00    -0.000 C 
BRANCH   7   8
ATOM      8  C   UNL     1      -3.164  -0.724   5.587  1.00  0.00    -0.003 C 
ATOM      9  C   UNL     1      -1.969   0.043   5.028  1.00  0.00     0.004 C 
ENDBRANCH   7   8
ENDBRANCH   6   7
ENDBRANCH   1   6
TORSDOF 5
ENDMDL
MODEL 2
REMARK VINA RESULT:    -3.580      0.205      1.094
REMARK INTER + INTRA:          -4.786
REMARK INTER:                  -4.617
REMARK INTRA:                  -0.169
REMARK UNBOUND:                -0.160
REMARK SMILES CCCCCCC(=O)[O-]
REMARK SMILES IDX 5 1 6 2 7 3 8 4 9 5 4 6 3 7 2 8 1 9
REMARK H PARENT
REMARK Flexibility Score: inf
ROOT
ATOM      1  C   UNL     1      -5.276  -3.648   3.740  1.00  0.00     0.006 C 
ENDROOT
BRANCH   1   2
ATOM      2  C   UNL     1      -4.990  -2.975   2.394  1.00  0.00     0.053 C 
BRANCH   2   3
ATOM      3  C   UNL     1      -4.864  -4.001   1.313  1.00  0.00     0.041 C 
ATOM      4  O   UNL     1      -5.016  -5.222   1.577  1.00  0.00    -0.550 OA
ATOM      5  O   UNL     1      -4.629  -3.604   0.002  1.00  0.00    -0.550 OA
ENDBRANCH   2   3
ENDBRANCH   1   2
BRANCH   1   6
ATOM      6  C   UNL     1      -4.592  -2.895   4.888  1.00  0.00     0.000 C 
BRANCH   6   7
ATOM      7  C   UNL     1      -4.072  -1.531   4.420  1.00  0.00    -0.000 C 
BRANCH   7   8
ATOM      8  C   UNL     1      -3.329  -0.808   5.549  1.00  0.00    -0.003 C 
ATOM      9  C   UNL     1      -2.096  -0.081   5.022  1.00  0.00     0.004 C 
ENDBRANCH   7   8
ENDBRANCH   6   7
ENDBRANCH   1   6
TORSDOF 5
ENDMDL
MODEL 3
REMARK VINA RESULT:    -3.512      1.865      3.031
REMARK INTER + INTRA:          -4.698
REMARK INTER:                  -4.455
REMARK INTRA:                  -0.243
REMARK UNBOUND:                -0.160
REMARK SMILES CCCCCCC(=O)[O-]
REMARK SMILES IDX 5 1 6 2 7 3 8 4 9 5 4 6 3 7 2 8 1 9
REMARK H PARENT
REMARK Flexibility Score: inf
ROOT
ATOM      1  C   UNL     1      -4.911  -3.296   0.682  1.00  0.00     0.006 C 
ENDROOT
BRANCH   1   2
ATOM      2  C   UNL     1      -4.824  -4.825   0.716  1.00  0.00     0.053 C 
BRANCH   2   3
ATOM      3  C   UNL     1      -5.803  -5.427  -0.241  1.00  0.00     0.041 C 
ATOM      4  O   UNL     1      -6.998  -5.615   0.109  1.00  0.00    -0.550 OA
ATOM      5  O   UNL     1      -5.409  -5.735  -1.537  1.00  0.00    -0.550 OA
ENDBRANCH   2   3
ENDBRANCH   1   2
BRANCH   1   6
ATOM      6  C   UNL     1      -4.893  -2.712   2.100  1.00  0.00     0.000 C 
BRANCH   6   7
ATOM      7  C   UNL     1      -5.320  -3.761   3.133  1.00  0.00    -0.000 C 
BRANCH   7   8
ATOM      8  C   UNL     1      -4.841  -3.376   4.538  1.00  0.00    -0.003 C 
ATOM      9  C   UNL     1      -4.319  -1.943   4.570  1.00  0.00     0.004 C 
ENDBRANCH   7   8
ENDBRANCH   6   7
ENDBRANCH   1   6
TORSDOF 5
ENDMDL
MODEL 4
REMARK VINA RESULT:    -3.505      2.531      3.704
REMARK INTER + INTRA:          -4.689
REMARK INTER:                  -4.541
REMARK INTRA:                  -0.147
REMARK UNBOUND:                -0.160
REMARK SMILES CCCCCCC(=O)[O-]
REMARK SMILES IDX 5 1 6 2 7 3 8 4 9 5 4 6 3 7 2 8 1 9
REMARK H PARENT
REMARK Flexibility Score: inf
ROOT
ATOM      1  C   UNL     1      -4.788  -4.914   0.578  1.00  0.00     0.006 C 
ENDROOT
BRANCH   1   2
ATOM      2  C   UNL     1      -5.988  -5.473  -0.193  1.00  0.00     0.053 C 
BRANCH   2   3
ATOM      3  C   UNL     1      -5.866  -5.161  -1.650  1.00  0.00     0.041 C 
ATOM      4  O   UNL     1      -5.397  -6.018  -2.445  1.00  0.00    -0.550 OA
ATOM      5  O   UNL     1      -6.316  -3.941  -2.140  1.00  0.00    -0.550 OA
ENDBRANCH   2   3
ENDBRANCH   1   2
BRANCH   1   6
ATOM      6  C   UNL     1      -5.238  -4.216   1.867  1.00  0.00     0.000 C 
BRANCH   6   7
ATOM      7  C   UNL     1      -4.897  -2.722   1.833  1.00  0.00    -0.000 C 
BRANCH   7   8
ATOM      8  C   UNL     1      -4.760  -2.157   3.252  1.00  0.00    -0.003 C 
ATOM      9  C   UNL     1      -4.847  -3.264   4.298  1.00  0.00     0.004 C 
ENDBRANCH   7   8
ENDBRANCH   6   7
ENDBRANCH   1   6
TORSDOF 5
ENDMDL
MODEL 5
REMARK VINA RESULT:    -3.441      3.683      5.273
REMARK INTER + INTRA:          -4.606
REMARK INTER:                  -4.440
REMARK INTRA:                  -0.166
REMARK UNBOUND:                -0.160
REMARK SMILES CCCCCCC(=O)[O-]
REMARK SMILES IDX 5 1 6 2 7 3 8 4 9 5 4 6 3 7 2 8 1 9
REMARK H PARENT
REMARK Flexibility Score: inf
ROOT
ATOM      1  C   UNL     1      -3.771  -0.448   5.763  1.00  0.00     0.006 C 
ENDROOT
BRANCH   1   2
ATOM      2  C   UNL     1      -2.364  -0.301   6.352  1.00  0.00     0.053 C 
BRANCH   2   3
ATOM      3  C   UNL     1      -1.462   0.398   5.385  1.00  0.00     0.041 C 
ATOM      4  O   UNL     1      -1.776   1.529   4.931  1.00  0.00    -0.550 OA
ATOM      5  O   UNL     1      -0.250  -0.178   5.024  1.00  0.00    -0.550 OA
ENDBRANCH   2   3
ENDBRANCH   1   2
BRANCH   1   6
ATOM      6  C   UNL     1      -4.032  -1.891   5.314  1.00  0.00     0.000 C 
BRANCH   6   7
ATOM      7  C   UNL     1      -4.440  -1.944   3.838  1.00  0.00    -0.000 C 
BRANCH   7   8
ATOM      8  C   UNL     1      -5.164  -3.255   3.513  1.00  0.00    -0.003 C 
ATOM      9  C   UNL     1      -5.094  -4.229   4.685  1.00  0.00     0.004 C 
ENDBRANCH   7   8
ENDBRANCH   6   7
ENDBRANCH   1   6
TORSDOF 5
ENDMDL
MODEL 6
REMARK VINA RESULT:    -3.413      3.041      4.708
REMARK INTER + INTRA:          -4.570
REMARK INTER:                  -4.231
REMARK INTRA:                  -0.339
REMARK UNBOUND:                -0.160
REMARK SMILES CCCCCCC(=O)[O-]
REMARK SMILES IDX 5 1 6 2 7 3 8 4 9 5 4 6 3 7 2 8 1 9
REMARK H PARENT
REMARK Flexibility Score: inf
ROOT
ATOM      1  C   UNL     1      -4.846  -2.499   1.992  1.00  0.00     0.006 C 
ENDROOT
BRANCH   1   2
ATOM      2  C   UNL     1      -6.019  -1.515   1.936  1.00  0.00     0.053 C 
BRANCH   2   3
ATOM      3  C   UNL     1      -6.224  -1.023   0.539  1.00  0.00     0.041 C 
ATOM      4  O   UNL     1      -6.797   0.079   0.333  1.00  0.00    -0.550 OA
ATOM      5  O   UNL     1      -5.738  -1.758  -0.535  1.00  0.00    -0.550 OA
ENDBRANCH   2   3
ENDBRANCH   1   2
BRANCH   1   6
ATOM      6  C   UNL     1      -5.196  -3.724   2.846  1.00  0.00     0.000 C 
BRANCH   6   7
ATOM      7  C   UNL     1      -5.539  -4.930   1.965  1.00  0.00    -0.000 C 
BRANCH   7   8
ATOM      8  C   UNL     1      -4.708  -4.924   0.677  1.00  0.00    -0.003 C 
ATOM      9  C   UNL     1      -5.548  -5.348  -0.525  1.00  0.00     0.004 C 
ENDBRANCH   7   8
ENDBRANCH   6   7
ENDBRANCH   1   6
TORSDOF 5
ENDMDL
MODEL 7
REMARK VINA RESULT:    -3.379      2.830      4.142
REMARK INTER + INTRA:          -4.526
REMARK INTER:                  -4.376
REMARK INTRA:                  -0.150
REMARK UNBOUND:                -0.160
REMARK SMILES CCCCCCC(=O)[O-]
REMARK SMILES IDX 5 1 6 2 7 3 8 4 9 5 4 6 3 7 2 8 1 9
REMARK H PARENT
REMARK Flexibility Score: inf
ROOT
ATOM      1  C   UNL     1      -4.868  -5.232   0.018  1.00  0.00     0.006 C 
ENDROOT
BRANCH   1   2
ATOM      2  C   UNL     1      -6.193  -5.245  -0.751  1.00  0.00     0.053 C 
BRANCH   2   3
ATOM      3  C   UNL     1      -5.943  -5.304  -2.224  1.00  0.00     0.041 C 
ATOM      4  O   UNL     1      -6.364  -4.385  -2.976  1.00  0.00    -0.550 OA
ATOM      5  O   UNL     1      -5.200  -6.347  -2.763  1.00  0.00    -0.550 OA
ENDBRANCH   2   3
ENDBRANCH   1   2
BRANCH   1   6
ATOM      6  C   UNL     1      -5.030  -4.550   1.382  1.00  0.00     0.000 C 
BRANCH   6   7
ATOM      7  C   UNL     1      -5.526  -3.109   1.222  1.00  0.00    -0.000 C 
BRANCH   7   8
ATOM      8  C   UNL     1      -4.846  -2.177   2.232  1.00  0.00    -0.003 C 
ATOM      9  C   UNL     1      -4.868  -2.774   3.636  1.00  0.00     0.004 C 
ENDBRANCH   7   8
ENDBRANCH   6   7
ENDBRANCH   1   6
TORSDOF 5
ENDMDL
MODEL 8
REMARK VINA RESULT:    -3.356      2.794      5.366
REMARK INTER + INTRA:          -4.497
REMARK INTER:                  -4.241
REMARK INTRA:                  -0.256
REMARK UNBOUND:                -0.160
REMARK SMILES CCCCCCC(=O)[O-]
REMARK SMILES IDX 5 1 6 2 7 3 8 4 9 5 4 6 3 7 2 8 1 9
REMARK H PARENT
REMARK Flexibility Score: inf
ROOT
ATOM      1  C   UNL     1      -5.596  -3.140   2.144  1.00  0.00     0.006 C 
ENDROOT
BRANCH   1   2
ATOM      2  C   UNL     1      -5.245  -4.015   3.352  1.00  0.00     0.053 C 
BRANCH   2   3
ATOM      3  C   UNL     1      -4.711  -3.175   4.469  1.00  0.00     0.041 C 
ATOM      4  O   UNL     1      -4.666  -3.633   5.641  1.00  0.00    -0.550 OA
ATOM      5  O   UNL     1      -4.216  -1.903   4.207  1.00  0.00    -0.550 OA
ENDBRANCH   2   3
ENDBRANCH   1   2
BRANCH   1   6
ATOM      6  C   UNL     1      -4.745  -3.517   0.926  1.00  0.00     0.000 C 
BRANCH   6   7
ATOM      7  C   UNL     1      -4.776  -5.029   0.678  1.00  0.00    -0.000 C 
BRANCH   7   8
ATOM      8  C   UNL     1      -5.559  -5.363  -0.596  1.00  0.00    -0.003 C 
ATOM      9  C   UNL     1      -7.041  -5.568  -0.296  1.00  0.00     0.004 C 
ENDBRANCH   7   8
ENDBRANCH   6   7
ENDBRANCH   1   6
TORSDOF 5
ENDMDL
MODEL 9
REMARK VINA RESULT:    -3.312      1.230      1.907
REMARK INTER + INTRA:          -4.440
REMARK INTER:                  -4.254
REMARK INTRA:                  -0.186
REMARK UNBOUND:                -0.160
REMARK SMILES CCCCCCC(=O)[O-]
REMARK SMILES IDX 5 1 6 2 7 3 8 4 9 5 4 6 3 7 2 8 1 9
REMARK H PARENT
REMARK Flexibility Score: inf
ROOT
ATOM      1  C   UNL     1      -4.577  -2.679   5.062  1.00  0.00     0.006 C 
ENDROOT
BRANCH   1   2
ATOM      2  C   UNL     1      -4.501  -1.916   3.736  1.00  0.00     0.053 C 
BRANCH   2   3
ATOM      3  C   UNL     1      -4.978  -2.776   2.609  1.00  0.00     0.041 C 
ATOM      4  O   UNL     1      -5.260  -3.986   2.811  1.00  0.00    -0.550 OA
ATOM      5  O   UNL     1      -5.160  -2.228   1.345  1.00  0.00    -0.550 OA
ENDBRANCH   2   3
ENDBRANCH   1   2
BRANCH   1   6
ATOM      6  C   UNL     1      -3.899  -1.891   6.190  1.00  0.00     0.000 C 
BRANCH   6   7
ATOM      7  C   UNL     1      -3.549  -0.470   5.736  1.00  0.00    -0.000 C 
BRANCH   7   8
ATOM      8  C   UNL     1      -2.051  -0.190   5.908  1.00  0.00    -0.003 C 
ATOM      9  C   UNL     1      -1.659   1.135   5.263  1.00  0.00     0.004 C 
ENDBRANCH   7   8
ENDBRANCH   6   7
ENDBRANCH   1   6
TORSDOF 5
ENDMDL
