MODEL 1
REMARK VINA RESULT:    10.579      0.000      0.000
REMARK INTER + INTRA:          18.344
REMARK INTER:                  14.908
REMARK INTRA:                   3.436
REMARK UNBOUND:                 3.436
REMARK SMILES O=C(C=Cc1ccc(O)cc1)CC(=O)C=Cc1ccc(O)cc1
REMARK SMILES IDX 12 1 2 2 1 3 3 4 4 5 5 6 6 7 7 8 8 9 11 10 10 11 9 12 13 14
REMARK SMILES IDX 14 15 15 16 16 17 17 18 18 19 23 20 19 21 22 22 20 23 21 24
REMARK H PARENT 9 13 21 25
REMARK Flexibility Score: inf
ROOT
ATOM      1  C   UNL     1     -40.324  22.790   6.084  1.00  0.00     0.160 C 
ENDROOT
BRANCH   1   2
ATOM      2  C   UNL     1     -39.350  23.740   6.709  1.00  0.00     0.163 C 
ATOM      3  O   UNL     1     -39.186  24.881   6.199  1.00  0.00    -0.294 OA
BRANCH   2   4
ATOM      4  C   UNL     1     -38.586  23.331   7.907  1.00  0.00     0.048 C 
ATOM      5  C   UNL     1     -37.341  23.737   8.201  1.00  0.00     0.012 C 
BRANCH   5   6
ATOM      6  C   UNL     1     -36.603  24.802   7.489  1.00  0.00    -0.025 A 
ATOM      7  C   UNL     1     -36.570  26.094   8.034  1.00  0.00     0.012 A 
ATOM      8  C   UNL     1     -35.914  27.129   7.358  1.00  0.00     0.047 A 
ATOM      9  C   UNL     1     -35.306  26.888   6.123  1.00  0.00     0.115 A 
ATOM     10  C   UNL     1     -36.016  24.570   6.233  1.00  0.00     0.012 A 
ATOM     11  C   UNL     1     -35.361  25.605   5.559  1.00  0.00     0.047 A 
BRANCH   9  12
ATOM     12  O   UNL     1     -34.654  27.927   5.462  1.00  0.00    -0.508 OA
ATOM     13  H   UNL     1     -34.418  28.791   5.936  1.00  0.00     0.293 HD
ENDBRANCH   9  12
ENDBRANCH   5   6
ENDBRANCH   2   4
ENDBRANCH   1   2
BRANCH   1  14
ATOM     14  C   UNL     1     -41.288  22.296   7.120  1.00  0.00     0.163 C 
ATOM     15  O   UNL     1     -41.722  21.115   7.039  1.00  0.00    -0.294 OA
BRANCH  14  16
ATOM     16  C   UNL     1     -41.622  23.153   8.279  1.00  0.00     0.048 C 
ATOM     17  C   UNL     1     -42.067  24.418   8.213  1.00  0.00     0.012 C 
BRANCH  17  18
ATOM     18  C   UNL     1     -42.125  25.241   6.987  1.00  0.00    -0.025 A 
ATOM     19  C   UNL     1     -42.086  26.638   7.096  1.00  0.00     0.012 A 
ATOM     20  C   UNL     1     -42.119  24.649   5.711  1.00  0.00     0.012 A 
ATOM     21  C   UNL     1     -42.093  27.436   5.947  1.00  0.00     0.047 A 
ATOM     22  C   UNL     1     -42.125  25.449   4.564  1.00  0.00     0.047 A 
ATOM     23  C   UNL     1     -42.116  26.845   4.679  1.00  0.00     0.115 A 
BRANCH  23  24
ATOM     24  O   UNL     1     -42.124  27.652   3.544  1.00  0.00    -0.508 OA
ATOM     25  H   UNL     1     -41.294  28.149   3.243  1.00  0.00     0.293 HD
ENDBRANCH  23  24
ENDBRANCH  17  18
ENDBRANCH  14  16
ENDBRANCH   1  14
TORSDOF 8
ENDMDL
MODEL 2
REMARK VINA RESULT:    11.423      0.582      5.555
REMARK INTER + INTRA:          19.534
REMARK INTER:                  17.807
REMARK INTRA:                   1.727
REMARK UNBOUND:                 3.436
REMARK SMILES O=C(C=Cc1ccc(O)cc1)CC(=O)C=Cc1ccc(O)cc1
REMARK SMILES IDX 12 1 2 2 1 3 3 4 4 5 5 6 6 7 7 8 8 9 11 10 10 11 9 12 13 14
REMARK SMILES IDX 14 15 15 16 16 17 17 18 18 19 23 20 19 21 22 22 20 23 21 24
REMARK H PARENT 9 13 21 25
REMARK Flexibility Score: inf
ROOT
ATOM      1  C   UNL     1     -39.858  21.960   6.144  1.00  0.00     0.160 C 
ENDROOT
BRANCH   1   2
ATOM      2  C   UNL     1     -41.335  22.092   6.353  1.00  0.00     0.163 C 
ATOM      3  O   UNL     1     -42.124  21.734   5.437  1.00  0.00    -0.294 OA
BRANCH   2   4
ATOM      4  C   UNL     1     -41.853  22.647   7.622  1.00  0.00     0.048 C 
ATOM      5  C   UNL     1     -42.118  23.944   7.843  1.00  0.00     0.012 C 
BRANCH   5   6
ATOM      6  C   UNL     1     -42.125  25.000   6.808  1.00  0.00    -0.025 A 
ATOM      7  C   UNL     1     -42.062  24.634   5.455  1.00  0.00     0.012 A 
ATOM      8  C   UNL     1     -42.023  25.615   4.459  1.00  0.00     0.047 A 
ATOM      9  C   UNL     1     -42.027  26.969   4.805  1.00  0.00     0.115 A 
ATOM     10  C   UNL     1     -42.097  26.362   7.154  1.00  0.00     0.012 A 
ATOM     11  C   UNL     1     -42.060  27.342   6.157  1.00  0.00     0.047 A 
BRANCH   9  12
ATOM     12  O   UNL     1     -41.991  27.936   3.803  1.00  0.00    -0.508 OA
ATOM     13  H   UNL     1     -41.161  28.492   3.633  1.00  0.00     0.293 HD
ENDBRANCH   9  12
ENDBRANCH   5   6
ENDBRANCH   2   4
ENDBRANCH   1   2
BRANCH   1  14
ATOM     14  C   UNL     1     -39.157  23.168   6.687  1.00  0.00     0.163 C 
ATOM     15  O   UNL     1     -39.189  24.242   6.028  1.00  0.00    -0.294 OA
BRANCH  14  16
ATOM     16  C   UNL     1     -38.543  23.116   8.033  1.00  0.00     0.048 C 
ATOM     17  C   UNL     1     -37.596  23.949   8.492  1.00  0.00     0.012 C 
BRANCH  17  18
ATOM     18  C   UNL     1     -36.866  24.944   7.680  1.00  0.00    -0.025 A 
ATOM     19  C   UNL     1     -36.740  26.258   8.154  1.00  0.00     0.012 A 
ATOM     20  C   UNL     1     -36.212  24.576   6.491  1.00  0.00     0.012 A 
ATOM     21  C   UNL     1     -36.013  27.205   7.426  1.00  0.00     0.047 A 
ATOM     22  C   UNL     1     -35.485  25.524   5.764  1.00  0.00     0.047 A 
ATOM     23  C   UNL     1     -35.387  26.843   6.228  1.00  0.00     0.115 A 
BRANCH  23  24
ATOM     24  O   UNL     1     -34.668  27.797   5.512  1.00  0.00    -0.508 OA
ATOM     25  H   UNL     1     -34.054  28.455   5.977  1.00  0.00     0.293 HD
ENDBRANCH  23  24
ENDBRANCH  17  18
ENDBRANCH  14  16
ENDBRANCH   1  14
TORSDOF 8
ENDMDL
MODEL 3
REMARK VINA RESULT:    12.432      1.156      5.911
REMARK INTER + INTRA:          20.955
REMARK INTER:                  19.544
REMARK INTRA:                   1.412
REMARK UNBOUND:                 3.436
REMARK SMILES O=C(C=Cc1ccc(O)cc1)CC(=O)C=Cc1ccc(O)cc1
REMARK SMILES IDX 12 1 2 2 1 3 3 4 4 5 5 6 6 7 7 8 8 9 11 10 10 11 9 12 13 14
REMARK SMILES IDX 14 15 15 16 16 17 17 18 18 19 23 20 19 21 22 22 20 23 21 24
REMARK H PARENT 9 13 21 25
REMARK Flexibility Score: inf
ROOT
ATOM      1  C   UNL     1     -39.519  23.044   7.248  1.00  0.00     0.160 C 
ENDROOT
BRANCH   1   2
ATOM      2  C   UNL     1     -39.895  22.048   8.301  1.00  0.00     0.163 C 
ATOM      3  O   UNL     1     -39.108  21.098   8.562  1.00  0.00    -0.294 OA
BRANCH   2   4
ATOM      4  C   UNL     1     -41.181  22.182   9.017  1.00  0.00     0.048 C 
ATOM      5  C   UNL     1     -42.124  23.096   8.741  1.00  0.00     0.012 C 
BRANCH   5   6
ATOM      6  C   UNL     1     -42.125  23.988   7.562  1.00  0.00    -0.025 A 
ATOM      7  C   UNL     1     -42.123  23.425   6.277  1.00  0.00     0.012 A 
ATOM      8  C   UNL     1     -42.081  24.248   5.146  1.00  0.00     0.047 A 
ATOM      9  C   UNL     1     -42.018  25.637   5.289  1.00  0.00     0.115 A 
ATOM     10  C   UNL     1     -42.031  25.384   7.702  1.00  0.00     0.012 A 
ATOM     11  C   UNL     1     -41.989  26.204   6.571  1.00  0.00     0.047 A 
BRANCH   9  12
ATOM     12  O   UNL     1     -41.978  26.444   4.154  1.00  0.00    -0.508 OA
ATOM     13  H   UNL     1     -42.768  27.019   3.885  1.00  0.00     0.293 HD
ENDBRANCH   9  12
ENDBRANCH   5   6
ENDBRANCH   2   4
ENDBRANCH   1   2
BRANCH   1  14
ATOM     14  C   UNL     1     -38.672  24.125   7.849  1.00  0.00     0.163 C 
ATOM     15  O   UNL     1     -39.021  25.328   7.705  1.00  0.00    -0.294 OA
BRANCH  14  16
ATOM     16  C   UNL     1     -37.514  23.764   8.696  1.00  0.00     0.048 C 
ATOM     17  C   UNL     1     -36.324  24.384   8.698  1.00  0.00     0.012 C 
BRANCH  17  18
ATOM     18  C   UNL     1     -35.895  25.415   7.730  1.00  0.00    -0.025 A 
ATOM     19  C   UNL     1     -35.536  25.030   6.430  1.00  0.00     0.012 A 
ATOM     20  C   UNL     1     -35.934  26.782   8.057  1.00  0.00     0.012 A 
ATOM     21  C   UNL     1     -35.172  25.993   5.484  1.00  0.00     0.047 A 
ATOM     22  C   UNL     1     -35.571  27.743   7.109  1.00  0.00     0.047 A 
ATOM     23  C   UNL     1     -35.185  27.351   5.820  1.00  0.00     0.115 A 
BRANCH  23  24
ATOM     24  O   UNL     1     -34.818  28.299   4.867  1.00  0.00    -0.508 OA
ATOM     25  H   UNL     1     -34.818  28.081   3.878  1.00  0.00     0.293 HD
ENDBRANCH  23  24
ENDBRANCH  17  18
ENDBRANCH  14  16
ENDBRANCH   1  14
TORSDOF 8
ENDMDL
MODEL 4
REMARK VINA RESULT:    12.610      1.193      1.578
REMARK INTER + INTRA:          21.206
REMARK INTER:                  21.417
REMARK INTRA:                  -0.211
REMARK UNBOUND:                 3.436
REMARK SMILES O=C(C=Cc1ccc(O)cc1)CC(=O)C=Cc1ccc(O)cc1
REMARK SMILES IDX 12 1 2 2 1 3 3 4 4 5 5 6 6 7 7 8 8 9 11 10 10 11 9 12 13 14
REMARK SMILES IDX 14 15 15 16 16 17 17 18 18 19 23 20 19 21 22 22 20 23 21 24
REMARK H PARENT 9 13 21 25
REMARK Flexibility Score: inf
ROOT
ATOM      1  C   UNL     1     -39.036  22.821   7.260  1.00  0.00     0.160 C 
ENDROOT
BRANCH   1   2
ATOM      2  C   UNL     1     -38.636  24.023   8.058  1.00  0.00     0.163 C 
ATOM      3  O   UNL     1     -39.224  25.121   7.859  1.00  0.00    -0.294 OA
BRANCH   2   4
ATOM      4  C   UNL     1     -37.556  23.916   9.062  1.00  0.00     0.048 C 
ATOM      5  C   UNL     1     -36.331  24.450   8.935  1.00  0.00     0.012 C 
BRANCH   5   6
ATOM      6  C   UNL     1     -35.920  25.391   7.871  1.00  0.00    -0.025 A 
ATOM      7  C   UNL     1     -35.818  26.759   8.168  1.00  0.00     0.012 A 
ATOM      8  C   UNL     1     -35.472  27.674   7.168  1.00  0.00     0.047 A 
ATOM      9  C   UNL     1     -35.247  27.235   5.860  1.00  0.00     0.115 A 
ATOM     10  C   UNL     1     -35.723  24.958   6.549  1.00  0.00     0.012 A 
ATOM     11  C   UNL     1     -35.376  25.873   5.551  1.00  0.00     0.047 A 
BRANCH   9  12
ATOM     12  O   UNL     1     -34.901  28.157   4.874  1.00  0.00    -0.508 OA
ATOM     13  H   UNL     1     -34.566  27.860   3.965  1.00  0.00     0.293 HD
ENDBRANCH   9  12
ENDBRANCH   5   6
ENDBRANCH   2   4
ENDBRANCH   1   2
BRANCH   1  14
ATOM     14  C   UNL     1     -40.244  22.182   7.875  1.00  0.00     0.163 C 
ATOM     15  O   UNL     1     -40.400  22.243   9.125  1.00  0.00    -0.294 OA
BRANCH  14  16
ATOM     16  C   UNL     1     -41.288  21.597   7.004  1.00  0.00     0.048 C 
ATOM     17  C   UNL     1     -42.037  22.273   6.120  1.00  0.00     0.012 C 
BRANCH  17  18
ATOM     18  C   UNL     1     -42.087  23.743   5.988  1.00  0.00    -0.025 A 
ATOM     19  C   UNL     1     -42.125  24.535   7.144  1.00  0.00     0.012 A 
ATOM     20  C   UNL     1     -41.995  24.366   4.730  1.00  0.00     0.012 A 
ATOM     21  C   UNL     1     -42.125  25.931   7.045  1.00  0.00     0.047 A 
ATOM     22  C   UNL     1     -41.995  25.760   4.633  1.00  0.00     0.047 A 
ATOM     23  C   UNL     1     -42.063  26.547   5.790  1.00  0.00     0.115 A 
BRANCH  23  24
ATOM     24  O   UNL     1     -42.065  27.938   5.706  1.00  0.00    -0.508 OA
ATOM     25  H   UNL     1     -41.263  28.485   5.994  1.00  0.00     0.293 HD
ENDBRANCH  23  24
ENDBRANCH  17  18
ENDBRANCH  14  16
ENDBRANCH   1  14
TORSDOF 8
ENDMDL
MODEL 5
REMARK VINA RESULT:    13.126      1.518      6.299
REMARK INTER + INTRA:          21.934
REMARK INTER:                  18.806
REMARK INTRA:                   3.127
REMARK UNBOUND:                 3.436
REMARK SMILES O=C(C=Cc1ccc(O)cc1)CC(=O)C=Cc1ccc(O)cc1
REMARK SMILES IDX 12 1 2 2 1 3 3 4 4 5 5 6 6 7 7 8 8 9 11 10 10 11 9 12 13 14
REMARK SMILES IDX 14 15 15 16 16 17 17 18 18 19 23 20 19 21 22 22 20 23 21 24
REMARK H PARENT 9 13 21 25
REMARK Flexibility Score: inf
ROOT
ATOM      1  C   UNL     1     -39.811  25.660   6.957  1.00  0.00     0.160 C 
ENDROOT
BRANCH   1   2
ATOM      2  C   UNL     1     -41.238  25.829   6.539  1.00  0.00     0.163 C 
ATOM      3  O   UNL     1     -42.034  26.451   7.294  1.00  0.00    -0.294 OA
BRANCH   2   4
ATOM      4  C   UNL     1     -41.703  25.263   5.255  1.00  0.00     0.048 C 
ATOM      5  C   UNL     1     -41.961  23.964   5.035  1.00  0.00     0.012 C 
BRANCH   5   6
ATOM      6  C   UNL     1     -42.013  22.919   6.079  1.00  0.00    -0.025 A 
ATOM      7  C   UNL     1     -42.116  23.299   7.426  1.00  0.00     0.012 A 
ATOM      8  C   UNL     1     -42.123  22.330   8.434  1.00  0.00     0.047 A 
ATOM      9  C   UNL     1     -42.007  20.976   8.110  1.00  0.00     0.115 A 
ATOM     10  C   UNL     1     -41.865  21.558   5.758  1.00  0.00     0.012 A 
ATOM     11  C   UNL     1     -41.874  20.591   6.768  1.00  0.00     0.047 A 
BRANCH   9  12
ATOM     12  O   UNL     1     -42.018  20.021   9.125  1.00  0.00    -0.508 OA
ATOM     13  H   UNL     1     -41.847  19.041   8.932  1.00  0.00     0.293 HD
ENDBRANCH   9  12
ENDBRANCH   5   6
ENDBRANCH   2   4
ENDBRANCH   1   2
BRANCH   1  14
ATOM     14  C   UNL     1     -39.710  24.585   7.997  1.00  0.00     0.163 C 
ATOM     15  O   UNL     1     -40.381  24.696   9.059  1.00  0.00    -0.294 OA
BRANCH  14  16
ATOM     16  C   UNL     1     -38.924  23.364   7.716  1.00  0.00     0.048 C 
ATOM     17  C   UNL     1     -37.628  23.331   7.368  1.00  0.00     0.012 C 
BRANCH  17  18
ATOM     18  C   UNL     1     -36.805  24.509   7.024  1.00  0.00    -0.025 A 
ATOM     19  C   UNL     1     -36.051  24.498   5.842  1.00  0.00     0.012 A 
ATOM     20  C   UNL     1     -36.842  25.678   7.806  1.00  0.00     0.012 A 
ATOM     21  C   UNL     1     -35.301  25.620   5.472  1.00  0.00     0.047 A 
ATOM     22  C   UNL     1     -36.092  26.798   7.434  1.00  0.00     0.047 A 
ATOM     23  C   UNL     1     -35.317  26.771   6.267  1.00  0.00     0.115 A 
BRANCH  23  24
ATOM     24  O   UNL     1     -34.565  27.880   5.887  1.00  0.00    -0.508 OA
ATOM     25  H   UNL     1     -34.869  28.823   6.099  1.00  0.00     0.293 HD
ENDBRANCH  23  24
ENDBRANCH  17  18
ENDBRANCH  14  16
ENDBRANCH   1  14
TORSDOF 8
ENDMDL
