MODEL 1
REMARK VINA RESULT:    -6.338      0.000      0.000
REMARK INTER + INTRA:          -9.853
REMARK INTER:                  -8.932
REMARK INTRA:                  -0.921
REMARK UNBOUND:                -0.921
REMARK SMILES C[C@@H](CO)CCC(=O)[C@H](C)[C@@H]1C(=O)C[C@H]2[C@@H]3CC=C4C[C@H](O)CC[C@]4(C)[C@@H]3CC[C@]21C
REMARK SMILES IDX 6 1 5 2 2 3 1 4 3 5 4 6 7 8 8 9 9 10 10 11 11 12 12 13 30 14
REMARK SMILES IDX 13 15 14 16 15 17 29 18 31 19 16 20 28 21 27 22 17 23 25 24
REMARK SMILES IDX 18 25 19 26 24 27 26 28 20 29 23 30 21 31 22 32
REMARK H PARENT 4 7 22 33
REMARK Flexibility Score: inf
ROOT
ATOM      1  C   UNL     1     116.043 124.427 120.748  1.00  0.00     0.076 C 
ENDROOT
BRANCH   1   2
ATOM      2  C   UNL     1     116.703 123.374 119.839  1.00  0.00     0.013 C 
BRANCH   2   3
ATOM      3  C   UNL     1     117.556 122.321 120.589  1.00  0.00     0.012 C 
ATOM      4  C   UNL     1     117.622 120.989 119.823  1.00  0.00     0.010 C 
BRANCH   3   5
ATOM      5  C   UNL     1     118.977 122.856 120.857  1.00  0.00     0.159 C 
BRANCH   5   6
ATOM      6  O   UNL     1     119.065 123.466 122.118  1.00  0.00    -0.396 OA
ATOM      7  H   UNL     1     119.158 124.441 121.961  1.00  0.00     0.210 HD
ENDBRANCH   5   6
ENDBRANCH   3   5
ENDBRANCH   2   3
ENDBRANCH   1   2
BRANCH   1   8
ATOM      8  C   UNL     1     114.592 124.125 121.063  1.00  0.00     0.136 C 
ATOM      9  O   UNL     1     113.785 125.042 121.094  1.00  0.00    -0.299 OA
BRANCH   8  10
ATOM     10  C   UNL     1     114.093 122.696 121.255  1.00  0.00     0.064 C 
ATOM     11  C   UNL     1     112.738 122.551 120.530  1.00  0.00     0.017 C 
BRANCH  10  12
ATOM     12  C   UNL     1     114.041 122.298 122.782  1.00  0.00     0.072 C 
ATOM     13  C   UNL     1     114.761 123.332 123.598  1.00  0.00     0.137 C 
ATOM     14  C   UNL     1     114.803 120.989 123.224  1.00  0.00    -0.019 C 
ATOM     15  O   UNL     1     114.260 124.395 123.932  1.00  0.00    -0.299 OA
ATOM     16  C   UNL     1     116.108 122.923 124.050  1.00  0.00     0.080 C 
ATOM     17  C   UNL     1     116.258 121.484 123.531  1.00  0.00     0.007 C 
ATOM     18  C   UNL     1     114.130 120.440 124.520  1.00  0.00     0.008 C 
ATOM     19  C   UNL     1     114.758 119.877 122.150  1.00  0.00     0.012 C 
ATOM     20  C   UNL     1     117.116 120.620 124.509  1.00  0.00     0.001 C 
ATOM     21  C   UNL     1     115.008 119.461 125.317  1.00  0.00     0.005 C 
ATOM     22  C   UNL     1     116.329 120.131 125.755  1.00  0.00     0.003 C 
ATOM     23  C   UNL     1     117.813 119.457 123.782  1.00  0.00     0.031 C 
ATOM     24  C   UNL     1     117.253 119.291 126.739  1.00  0.00    -0.008 C 
ATOM     25  C   UNL     1     118.559 118.548 124.708  1.00  0.00    -0.027 C 
ATOM     26  C   UNL     1     118.228 118.364 126.001  1.00  0.00    -0.065 C 
ATOM     27  C   UNL     1     116.404 118.426 127.725  1.00  0.00     0.014 C 
ATOM     28  C   UNL     1     118.096 120.302 127.569  1.00  0.00     0.016 C 
ATOM     29  C   UNL     1     119.035 117.362 126.812  1.00  0.00     0.063 C 
ATOM     30  C   UNL     1     117.238 117.497 128.622  1.00  0.00     0.033 C 
ATOM     31  C   UNL     1     118.157 116.575 127.801  1.00  0.00     0.118 C 
BRANCH  31  32
ATOM     32  O   UNL     1     117.416 115.570 127.150  1.00  0.00    -0.393 OA
ATOM     33  H   UNL     1     116.978 115.969 126.355  1.00  0.00     0.210 HD
ENDBRANCH  31  32
ENDBRANCH  10  12
ENDBRANCH   8  10
ENDBRANCH   1   8
TORSDOF 8
ENDMDL
MODEL 2
REMARK VINA RESULT:    -6.245      2.870      6.265
REMARK INTER + INTRA:          -9.721
REMARK INTER:                  -8.849
REMARK INTRA:                  -0.873
REMARK UNBOUND:                -0.921
REMARK SMILES C[C@@H](CO)CCC(=O)[C@H](C)[C@@H]1C(=O)C[C@H]2[C@@H]3CC=C4C[C@H](O)CC[C@]4(C)[C@@H]3CC[C@]21C
REMARK SMILES IDX 6 1 5 2 2 3 1 4 3 5 4 6 7 8 8 9 9 10 10 11 11 12 12 13 30 14
REMARK SMILES IDX 13 15 14 16 15 17 29 18 31 19 16 20 28 21 27 22 17 23 25 24
REMARK SMILES IDX 18 25 19 26 24 27 26 28 20 29 23 30 21 31 22 32
REMARK H PARENT 4 7 22 33
REMARK Flexibility Score: inf
ROOT
ATOM      1  C   UNL     1     114.037 122.835 122.850  1.00  0.00     0.076 C 
ENDROOT
BRANCH   1   2
ATOM      2  C   UNL     1     114.252 122.114 124.194  1.00  0.00     0.013 C 
BRANCH   2   3
ATOM      3  C   UNL     1     114.177 120.570 124.114  1.00  0.00     0.012 C 
ATOM      4  C   UNL     1     115.195 119.898 125.051  1.00  0.00     0.010 C 
BRANCH   3   5
ATOM      5  C   UNL     1     112.752 120.072 124.427  1.00  0.00     0.159 C 
BRANCH   5   6
ATOM      6  O   UNL     1     111.968 121.086 124.998  1.00  0.00    -0.396 OA
ATOM      7  H   UNL     1     112.394 121.950 124.758  1.00  0.00     0.210 HD
ENDBRANCH   5   6
ENDBRANCH   3   5
ENDBRANCH   2   3
ENDBRANCH   1   2
BRANCH   1   8
ATOM      8  C   UNL     1     114.782 124.151 122.748  1.00  0.00     0.136 C 
ATOM      9  O   UNL     1     114.188 125.143 122.354  1.00  0.00    -0.299 OA
BRANCH   8  10
ATOM     10  C   UNL     1     116.230 124.292 123.208  1.00  0.00     0.064 C 
ATOM     11  C   UNL     1     116.421 125.708 123.791  1.00  0.00     0.017 C 
BRANCH  10  12
ATOM     12  C   UNL     1     117.245 123.940 122.052  1.00  0.00     0.072 C 
ATOM     13  C   UNL     1     116.589 124.158 120.720  1.00  0.00     0.137 C 
ATOM     14  C   UNL     1     117.703 122.436 121.912  1.00  0.00    -0.019 C 
ATOM     15  O   UNL     1     116.483 125.256 120.195  1.00  0.00    -0.299 OA
ATOM     16  C   UNL     1     116.156 122.918 120.041  1.00  0.00     0.080 C 
ATOM     17  C   UNL     1     116.616 121.794 120.984  1.00  0.00     0.007 C 
ATOM     18  C   UNL     1     119.098 122.407 121.216  1.00  0.00     0.008 C 
ATOM     19  C   UNL     1     117.830 121.718 123.276  1.00  0.00     0.012 C 
ATOM     20  C   UNL     1     117.024 120.518 120.180  1.00  0.00     0.001 C 
ATOM     21  C   UNL     1     119.469 121.045 120.607  1.00  0.00     0.005 C 
ATOM     22  C   UNL     1     118.436 120.614 119.542  1.00  0.00     0.003 C 
ATOM     23  C   UNL     1     116.863 119.240 121.020  1.00  0.00     0.031 C 
ATOM     24  C   UNL     1     118.789 119.311 118.703  1.00  0.00    -0.008 C 
ATOM     25  C   UNL     1     117.344 118.010 120.316  1.00  0.00    -0.027 C 
ATOM     26  C   UNL     1     118.306 118.017 119.373  1.00  0.00    -0.065 C 
ATOM     27  C   UNL     1     120.327 119.189 118.453  1.00  0.00     0.014 C 
ATOM     28  C   UNL     1     118.072 119.429 117.328  1.00  0.00     0.016 C 
ATOM     29  C   UNL     1     118.743 116.685 118.784  1.00  0.00     0.063 C 
ATOM     30  C   UNL     1     120.747 117.887 117.752  1.00  0.00     0.033 C 
ATOM     31  C   UNL     1     120.257 116.641 118.510  1.00  0.00     0.118 C 
BRANCH  31  32
ATOM     32  O   UNL     1     120.993 116.446 119.695  1.00  0.00    -0.393 OA
ATOM     33  H   UNL     1     121.128 115.472 119.823  1.00  0.00     0.210 HD
ENDBRANCH  31  32
ENDBRANCH  10  12
ENDBRANCH   8  10
ENDBRANCH   1   8
TORSDOF 8
ENDMDL
MODEL 3
REMARK VINA RESULT:    -6.185      2.771      6.325
REMARK INTER + INTRA:          -9.637
REMARK INTER:                  -9.456
REMARK INTRA:                  -0.181
REMARK UNBOUND:                -0.921
REMARK SMILES C[C@@H](CO)CCC(=O)[C@H](C)[C@@H]1C(=O)C[C@H]2[C@@H]3CC=C4C[C@H](O)CC[C@]4(C)[C@@H]3CC[C@]21C
REMARK SMILES IDX 6 1 5 2 2 3 1 4 3 5 4 6 7 8 8 9 9 10 10 11 11 12 12 13 30 14
REMARK SMILES IDX 13 15 14 16 15 17 29 18 31 19 16 20 28 21 27 22 17 23 25 24
REMARK SMILES IDX 18 25 19 26 24 27 26 28 20 29 23 30 21 31 22 32
REMARK H PARENT 4 7 22 33
REMARK Flexibility Score: inf
ROOT
ATOM      1  C   UNL     1     113.304 120.935 124.847  1.00  0.00     0.076 C 
ENDROOT
BRANCH   1   2
ATOM      2  C   UNL     1     114.253 119.825 125.336  1.00  0.00     0.013 C 
BRANCH   2   3
ATOM      3  C   UNL     1     113.569 118.718 126.176  1.00  0.00     0.012 C 
ATOM      4  C   UNL     1     113.853 118.883 127.679  1.00  0.00     0.010 C 
BRANCH   3   5
ATOM      5  C   UNL     1     112.050 118.694 125.918  1.00  0.00     0.159 C 
BRANCH   5   6
ATOM      6  O   UNL     1     111.713 117.764 124.922  1.00  0.00    -0.396 OA
ATOM      7  H   UNL     1     110.966 117.217 125.278  1.00  0.00     0.210 HD
ENDBRANCH   5   6
ENDBRANCH   3   5
ENDBRANCH   2   3
ENDBRANCH   1   2
BRANCH   1   8
ATOM      8  C   UNL     1     113.090 120.925 123.347  1.00  0.00     0.136 C 
ATOM      9  O   UNL     1     112.422 120.033 122.845  1.00  0.00    -0.299 OA
BRANCH   8  10
ATOM     10  C   UNL     1     113.612 122.047 122.454  1.00  0.00     0.064 C 
ATOM     11  C   UNL     1     113.472 121.604 120.982  1.00  0.00     0.017 C 
BRANCH  10  12
ATOM     12  C   UNL     1     115.079 122.473 122.852  1.00  0.00     0.072 C 
ATOM     13  C   UNL     1     115.403 123.804 122.237  1.00  0.00     0.137 C 
ATOM     14  C   UNL     1     116.271 121.596 122.302  1.00  0.00    -0.019 C 
ATOM     15  O   UNL     1     115.041 124.869 122.713  1.00  0.00    -0.299 OA
ATOM     16  C   UNL     1     116.279 123.731 121.049  1.00  0.00     0.080 C 
ATOM     17  C   UNL     1     116.597 122.234 120.908  1.00  0.00     0.007 C 
ATOM     18  C   UNL     1     117.485 121.751 123.268  1.00  0.00     0.008 C 
ATOM     19  C   UNL     1     115.918 120.094 122.209  1.00  0.00     0.012 C 
ATOM     20  C   UNL     1     118.036 122.016 120.340  1.00  0.00     0.001 C 
ATOM     21  C   UNL     1     118.834 121.343 122.654  1.00  0.00     0.005 C 
ATOM     22  C   UNL     1     119.154 122.193 121.404  1.00  0.00     0.003 C 
ATOM     23  C   UNL     1     118.160 120.673 119.601  1.00  0.00     0.031 C 
ATOM     24  C   UNL     1     120.599 122.001 120.772  1.00  0.00    -0.008 C 
ATOM     25  C   UNL     1     119.554 120.385 119.136  1.00  0.00    -0.027 C 
ATOM     26  C   UNL     1     120.657 120.867 119.740  1.00  0.00    -0.065 C 
ATOM     27  C   UNL     1     121.674 121.720 121.871  1.00  0.00     0.014 C 
ATOM     28  C   UNL     1     120.973 123.324 120.043  1.00  0.00     0.016 C 
ATOM     29  C   UNL     1     122.014 120.443 119.199  1.00  0.00     0.063 C 
ATOM     30  C   UNL     1     123.072 121.404 121.316  1.00  0.00     0.033 C 
ATOM     31  C   UNL     1     123.046 120.230 120.322  1.00  0.00     0.118 C 
BRANCH  31  32
ATOM     32  O   UNL     1     122.842 119.006 120.987  1.00  0.00    -0.393 OA
ATOM     33  H   UNL     1     122.036 118.572 120.605  1.00  0.00     0.210 HD
ENDBRANCH  31  32
ENDBRANCH  10  12
ENDBRANCH   8  10
ENDBRANCH   1   8
TORSDOF 8
ENDMDL
MODEL 4
REMARK VINA RESULT:    -6.102      3.144      7.302
REMARK INTER + INTRA:          -9.520
REMARK INTER:                  -9.548
REMARK INTRA:                   0.028
REMARK UNBOUND:                -0.921
REMARK SMILES C[C@@H](CO)CCC(=O)[C@H](C)[C@@H]1C(=O)C[C@H]2[C@@H]3CC=C4C[C@H](O)CC[C@]4(C)[C@@H]3CC[C@]21C
REMARK SMILES IDX 6 1 5 2 2 3 1 4 3 5 4 6 7 8 8 9 9 10 10 11 11 12 12 13 30 14
REMARK SMILES IDX 13 15 14 16 15 17 29 18 31 19 16 20 28 21 27 22 17 23 25 24
REMARK SMILES IDX 18 25 19 26 24 27 26 28 20 29 23 30 21 31 22 32
REMARK H PARENT 4 7 22 33
REMARK Flexibility Score: inf
ROOT
ATOM      1  C   UNL     1     114.270 120.457 125.059  1.00  0.00     0.076 C 
ENDROOT
BRANCH   1   2
ATOM      2  C   UNL     1     114.560 119.104 125.735  1.00  0.00     0.013 C 
BRANCH   2   3
ATOM      3  C   UNL     1     113.340 118.466 126.444  1.00  0.00     0.012 C 
ATOM      4  C   UNL     1     113.193 118.966 127.891  1.00  0.00     0.010 C 
BRANCH   3   5
ATOM      5  C   UNL     1     112.045 118.730 125.651  1.00  0.00     0.159 C 
BRANCH   5   6
ATOM      6  O   UNL     1     111.697 117.628 124.855  1.00  0.00    -0.396 OA
ATOM      7  H   UNL     1     111.865 117.888 123.913  1.00  0.00     0.210 HD
ENDBRANCH   5   6
ENDBRANCH   3   5
ENDBRANCH   2   3
ENDBRANCH   1   2
BRANCH   1   8
ATOM      8  C   UNL     1     115.523 121.203 124.645  1.00  0.00     0.136 C 
ATOM      9  O   UNL     1     116.616 120.720 124.900  1.00  0.00    -0.299 OA
BRANCH   8  10
ATOM     10  C   UNL     1     115.458 122.498 123.841  1.00  0.00     0.064 C 
ATOM     11  C   UNL     1     114.247 123.320 124.335  1.00  0.00     0.017 C 
BRANCH  10  12
ATOM     12  C   UNL     1     115.444 122.219 122.287  1.00  0.00     0.072 C 
ATOM     13  C   UNL     1     114.611 121.003 122.001  1.00  0.00     0.137 C 
ATOM     14  C   UNL     1     116.807 121.811 121.604  1.00  0.00    -0.019 C 
ATOM     15  O   UNL     1     113.391 121.024 121.935  1.00  0.00    -0.299 OA
ATOM     16  C   UNL     1     115.392 119.782 121.710  1.00  0.00     0.080 C 
ATOM     17  C   UNL     1     116.855 120.252 121.758  1.00  0.00     0.007 C 
ATOM     18  C   UNL     1     116.742 122.207 120.098  1.00  0.00     0.008 C 
ATOM     19  C   UNL     1     118.029 122.516 122.235  1.00  0.00     0.012 C 
ATOM     20  C   UNL     1     117.734 119.459 120.739  1.00  0.00     0.001 C 
ATOM     21  C   UNL     1     117.772 121.486 119.213  1.00  0.00     0.005 C 
ATOM     22  C   UNL     1     117.583 119.954 119.276  1.00  0.00     0.003 C 
ATOM     23  C   UNL     1     119.208 119.410 121.175  1.00  0.00     0.031 C 
ATOM     24  C   UNL     1     118.464 119.093 118.272  1.00  0.00    -0.008 C 
ATOM     25  C   UNL     1     120.096 118.748 120.169  1.00  0.00    -0.027 C 
ATOM     26  C   UNL     1     119.838 118.721 118.847  1.00  0.00    -0.065 C 
ATOM     27  C   UNL     1     118.685 119.839 116.916  1.00  0.00     0.014 C 
ATOM     28  C   UNL     1     117.696 117.770 117.988  1.00  0.00     0.016 C 
ATOM     29  C   UNL     1     120.859 118.068 117.929  1.00  0.00     0.063 C 
ATOM     30  C   UNL     1     119.631 119.112 115.947  1.00  0.00     0.033 C 
ATOM     31  C   UNL     1     120.997 118.815 116.590  1.00  0.00     0.118 C 
BRANCH  31  32
ATOM     32  O   UNL     1     121.759 119.991 116.728  1.00  0.00    -0.393 OA
ATOM     33  H   UNL     1     122.632 119.752 117.135  1.00  0.00     0.210 HD
ENDBRANCH  31  32
ENDBRANCH  10  12
ENDBRANCH   8  10
ENDBRANCH   1   8
TORSDOF 8
ENDMDL
MODEL 5
REMARK VINA RESULT:    -5.960      4.470      7.823
REMARK INTER + INTRA:          -9.320
REMARK INTER:                  -9.307
REMARK INTRA:                  -0.013
REMARK UNBOUND:                -0.921
REMARK SMILES C[C@@H](CO)CCC(=O)[C@H](C)[C@@H]1C(=O)C[C@H]2[C@@H]3CC=C4C[C@H](O)CC[C@]4(C)[C@@H]3CC[C@]21C
REMARK SMILES IDX 6 1 5 2 2 3 1 4 3 5 4 6 7 8 8 9 9 10 10 11 11 12 12 13 30 14
REMARK SMILES IDX 13 15 14 16 15 17 29 18 31 19 16 20 28 21 27 22 17 23 25 24
REMARK SMILES IDX 18 25 19 26 24 27 26 28 20 29 23 30 21 31 22 32
REMARK H PARENT 4 7 22 33
REMARK Flexibility Score: inf
ROOT
ATOM      1  C   UNL     1     120.353 119.193 115.803  1.00  0.00     0.076 C 
ENDROOT
BRANCH   1   2
ATOM      2  C   UNL     1     121.116 118.615 114.596  1.00  0.00     0.013 C 
BRANCH   2   3
ATOM      3  C   UNL     1     122.095 119.605 113.920  1.00  0.00     0.012 C 
ATOM      4  C   UNL     1     123.500 119.536 114.543  1.00  0.00     0.010 C 
BRANCH   3   5
ATOM      5  C   UNL     1     122.170 119.353 112.401  1.00  0.00     0.159 C 
BRANCH   5   6
ATOM      6  O   UNL     1     121.744 120.475 111.673  1.00  0.00    -0.396 OA
ATOM      7  H   UNL     1     121.880 121.266 112.256  1.00  0.00     0.210 HD
ENDBRANCH   5   6
ENDBRANCH   3   5
ENDBRANCH   2   3
ENDBRANCH   1   2
BRANCH   1   8
ATOM      8  C   UNL     1     120.992 118.854 117.135  1.00  0.00     0.136 C 
ATOM      9  O   UNL     1     121.513 117.759 117.286  1.00  0.00    -0.299 OA
BRANCH   8  10
ATOM     10  C   UNL     1     121.081 119.875 118.265  1.00  0.00     0.064 C 
ATOM     11  C   UNL     1     122.537 119.914 118.775  1.00  0.00     0.017 C 
BRANCH  10  12
ATOM     12  C   UNL     1     120.019 119.584 119.398  1.00  0.00     0.072 C 
ATOM     13  C   UNL     1     118.776 119.007 118.787  1.00  0.00     0.137 C 
ATOM     14  C   UNL     1     119.421 120.820 120.176  1.00  0.00    -0.019 C 
ATOM     15  O   UNL     1     118.662 117.831 118.478  1.00  0.00    -0.299 OA
ATOM     16  C   UNL     1     117.653 119.961 118.671  1.00  0.00     0.080 C 
ATOM     17  C   UNL     1     118.190 121.253 119.307  1.00  0.00     0.007 C 
ATOM     18  C   UNL     1     118.951 120.337 121.582  1.00  0.00     0.008 C 
ATOM     19  C   UNL     1     120.448 121.958 120.376  1.00  0.00     0.012 C 
ATOM     20  C   UNL     1     117.050 122.044 120.026  1.00  0.00     0.001 C 
ATOM     21  C   UNL     1     117.955 121.284 122.272  1.00  0.00     0.005 C 
ATOM     22  C   UNL     1     116.680 121.466 121.418  1.00  0.00     0.003 C 
ATOM     23  C   UNL     1     117.356 123.549 120.095  1.00  0.00     0.031 C 
ATOM     24  C   UNL     1     115.490 122.277 122.092  1.00  0.00    -0.008 C 
ATOM     25  C   UNL     1     116.334 124.321 120.870  1.00  0.00    -0.027 C 
ATOM     26  C   UNL     1     115.590 123.791 121.860  1.00  0.00    -0.065 C 
ATOM     27  C   UNL     1     115.419 122.019 123.631  1.00  0.00     0.014 C 
ATOM     28  C   UNL     1     114.163 121.785 121.447  1.00  0.00     0.016 C 
ATOM     29  C   UNL     1     114.633 124.706 122.607  1.00  0.00     0.063 C 
ATOM     30  C   UNL     1     114.367 122.869 124.362  1.00  0.00     0.033 C 
ATOM     31  C   UNL     1     114.564 124.374 124.109  1.00  0.00     0.118 C 
BRANCH  31  32
ATOM     32  O   UNL     1     115.691 124.860 124.799  1.00  0.00    -0.393 OA
ATOM     33  H   UNL     1     116.473 124.301 124.555  1.00  0.00     0.210 HD
ENDBRANCH  31  32
ENDBRANCH  10  12
ENDBRANCH   8  10
ENDBRANCH   1   8
TORSDOF 8
ENDMDL
MODEL 6
REMARK VINA RESULT:    -5.904      3.730      6.361
REMARK INTER + INTRA:          -9.240
REMARK INTER:                  -9.381
REMARK INTRA:                   0.140
REMARK UNBOUND:                -0.921
REMARK SMILES C[C@@H](CO)CCC(=O)[C@H](C)[C@@H]1C(=O)C[C@H]2[C@@H]3CC=C4C[C@H](O)CC[C@]4(C)[C@@H]3CC[C@]21C
REMARK SMILES IDX 6 1 5 2 2 3 1 4 3 5 4 6 7 8 8 9 9 10 10 11 11 12 12 13 30 14
REMARK SMILES IDX 13 15 14 16 15 17 29 18 31 19 16 20 28 21 27 22 17 23 25 24
REMARK SMILES IDX 18 25 19 26 24 27 26 28 20 29 23 30 21 31 22 32
REMARK H PARENT 4 7 22 33
REMARK Flexibility Score: inf
ROOT
ATOM      1  C   UNL     1     114.230 126.125 124.587  1.00  0.00     0.076 C 
ENDROOT
BRANCH   1   2
ATOM      2  C   UNL     1     115.307 127.212 124.412  1.00  0.00     0.013 C 
BRANCH   2   3
ATOM      3  C   UNL     1     116.476 127.128 125.423  1.00  0.00     0.012 C 
ATOM      4  C   UNL     1     117.626 128.078 125.049  1.00  0.00     0.010 C 
BRANCH   3   5
ATOM      5  C   UNL     1     115.985 127.419 126.855  1.00  0.00     0.159 C 
BRANCH   5   6
ATOM      6  O   UNL     1     116.038 126.270 127.659  1.00  0.00    -0.396 OA
ATOM      7  H   UNL     1     116.608 126.490 128.441  1.00  0.00     0.210 HD
ENDBRANCH   5   6
ENDBRANCH   3   5
ENDBRANCH   2   3
ENDBRANCH   1   2
BRANCH   1   8
ATOM      8  C   UNL     1     114.183 125.134 123.442  1.00  0.00     0.136 C 
ATOM      9  O   UNL     1     113.891 125.528 122.323  1.00  0.00    -0.299 OA
BRANCH   8  10
ATOM     10  C   UNL     1     114.578 123.672 123.629  1.00  0.00     0.064 C 
ATOM     11  C   UNL     1     115.842 123.616 124.513  1.00  0.00     0.017 C 
BRANCH  10  12
ATOM     12  C   UNL     1     114.739 122.931 122.244  1.00  0.00     0.072 C 
ATOM     13  C   UNL     1     114.213 121.529 122.357  1.00  0.00     0.137 C 
ATOM     14  C   UNL     1     116.205 122.656 121.727  1.00  0.00    -0.019 C 
ATOM     15  O   UNL     1     113.026 121.249 122.287  1.00  0.00    -0.299 OA
ATOM     16  C   UNL     1     115.260 120.491 122.469  1.00  0.00     0.080 C 
ATOM     17  C   UNL     1     116.578 121.275 122.367  1.00  0.00     0.007 C 
ATOM     18  C   UNL     1     116.166 122.541 120.172  1.00  0.00     0.008 C 
ATOM     19  C   UNL     1     117.195 123.782 122.103  1.00  0.00     0.012 C 
ATOM     20  C   UNL     1     117.681 120.430 121.653  1.00  0.00     0.001 C 
ATOM     21  C   UNL     1     117.391 121.839 119.563  1.00  0.00     0.005 C 
ATOM     22  C   UNL     1     117.534 120.401 120.108  1.00  0.00     0.003 C 
ATOM     23  C   UNL     1     119.095 120.857 122.084  1.00  0.00     0.031 C 
ATOM     24  C   UNL     1     118.653 119.497 119.430  1.00  0.00    -0.008 C 
ATOM     25  C   UNL     1     120.177 120.138 121.340  1.00  0.00    -0.027 C 
ATOM     26  C   UNL     1     120.028 119.647 120.094  1.00  0.00    -0.065 C 
ATOM     27  C   UNL     1     118.805 119.819 117.908  1.00  0.00     0.014 C 
ATOM     28  C   UNL     1     118.212 118.013 119.580  1.00  0.00     0.016 C 
ATOM     29  C   UNL     1     121.231 118.994 119.432  1.00  0.00     0.063 C 
ATOM     30  C   UNL     1     119.956 119.066 117.220  1.00  0.00     0.033 C 
ATOM     31  C   UNL     1     121.302 119.302 117.925  1.00  0.00     0.118 C 
BRANCH  31  32
ATOM     32  O   UNL     1     121.779 120.605 117.684  1.00  0.00    -0.393 OA
ATOM     33  H   UNL     1     121.108 121.252 118.026  1.00  0.00     0.210 HD
ENDBRANCH  31  32
ENDBRANCH  10  12
ENDBRANCH   8  10
ENDBRANCH   1   8
TORSDOF 8
ENDMDL
MODEL 7
REMARK VINA RESULT:    -5.899      2.931      5.569
REMARK INTER + INTRA:          -9.235
REMARK INTER:                  -8.654
REMARK INTRA:                  -0.580
REMARK UNBOUND:                -0.921
REMARK SMILES C[C@@H](CO)CCC(=O)[C@H](C)[C@@H]1C(=O)C[C@H]2[C@@H]3CC=C4C[C@H](O)CC[C@]4(C)[C@@H]3CC[C@]21C
REMARK SMILES IDX 6 1 5 2 2 3 1 4 3 5 4 6 7 8 8 9 9 10 10 11 11 12 12 13 30 14
REMARK SMILES IDX 13 15 14 16 15 17 29 18 31 19 16 20 28 21 27 22 17 23 25 24
REMARK SMILES IDX 18 25 19 26 24 27 26 28 20 29 23 30 21 31 22 32
REMARK H PARENT 4 7 22 33
REMARK Flexibility Score: inf
ROOT
ATOM      1  C   UNL     1     120.526 119.148 118.899  1.00  0.00     0.076 C 
ENDROOT
BRANCH   1   2
ATOM      2  C   UNL     1     119.556 117.961 118.757  1.00  0.00     0.013 C 
BRANCH   2   3
ATOM      3  C   UNL     1     118.322 118.242 117.865  1.00  0.00     0.012 C 
ATOM      4  C   UNL     1     117.039 117.632 118.454  1.00  0.00     0.010 C 
BRANCH   3   5
ATOM      5  C   UNL     1     118.141 119.757 117.641  1.00  0.00     0.159 C 
BRANCH   5   6
ATOM      6  O   UNL     1     118.314 120.099 116.291  1.00  0.00    -0.396 OA
ATOM      7  H   UNL     1     118.627 119.282 115.823  1.00  0.00     0.210 HD
ENDBRANCH   5   6
ENDBRANCH   3   5
ENDBRANCH   2   3
ENDBRANCH   1   2
BRANCH   1   8
ATOM      8  C   UNL     1     120.993 119.376 120.323  1.00  0.00     0.136 C 
ATOM      9  O   UNL     1     121.792 118.598 120.821  1.00  0.00    -0.299 OA
BRANCH   8  10
ATOM     10  C   UNL     1     120.560 120.601 121.123  1.00  0.00     0.064 C 
ATOM     11  C   UNL     1     120.979 120.397 122.595  1.00  0.00     0.017 C 
BRANCH  10  12
ATOM     12  C   UNL     1     119.022 120.905 120.937  1.00  0.00     0.072 C 
ATOM     13  C   UNL     1     118.730 122.313 121.366  1.00  0.00     0.137 C 
ATOM     14  C   UNL     1     118.004 120.104 121.839  1.00  0.00    -0.019 C 
ATOM     15  O   UNL     1     118.934 123.287 120.658  1.00  0.00    -0.299 OA
ATOM     16  C   UNL     1     118.084 122.427 122.691  1.00  0.00     0.080 C 
ATOM     17  C   UNL     1     117.890 120.970 123.141  1.00  0.00     0.007 C 
ATOM     18  C   UNL     1     116.631 120.047 121.102  1.00  0.00     0.008 C 
ATOM     19  C   UNL     1     118.461 118.653 122.119  1.00  0.00     0.012 C 
ATOM     20  C   UNL     1     116.590 120.812 123.993  1.00  0.00     0.001 C 
ATOM     21  C   UNL     1     115.440 119.714 122.016  1.00  0.00     0.005 C 
ATOM     22  C   UNL     1     115.294 120.762 123.141  1.00  0.00     0.003 C 
ATOM     23  C   UNL     1     116.684 119.619 124.960  1.00  0.00     0.031 C 
ATOM     24  C   UNL     1     113.997 120.642 124.053  1.00  0.00    -0.008 C 
ATOM     25  C   UNL     1     115.416 119.377 125.717  1.00  0.00    -0.027 C 
ATOM     26  C   UNL     1     114.194 119.709 125.255  1.00  0.00    -0.065 C 
ATOM     27  C   UNL     1     112.765 120.137 123.235  1.00  0.00     0.014 C 
ATOM     28  C   UNL     1     113.677 122.062 124.603  1.00  0.00     0.016 C 
ATOM     29  C   UNL     1     112.984 119.347 126.102  1.00  0.00     0.063 C 
ATOM     30  C   UNL     1     111.510 119.882 124.086  1.00  0.00     0.033 C 
ATOM     31  C   UNL     1     111.785 118.906 125.242  1.00  0.00     0.118 C 
BRANCH  31  32
ATOM     32  O   UNL     1     111.944 117.589 124.768  1.00  0.00    -0.393 OA
ATOM     33  H   UNL     1     112.405 117.058 125.467  1.00  0.00     0.210 HD
ENDBRANCH  31  32
ENDBRANCH  10  12
ENDBRANCH   8  10
ENDBRANCH   1   8
TORSDOF 8
ENDMDL
MODEL 8
REMARK VINA RESULT:    -5.868      2.176      3.850
REMARK INTER + INTRA:          -9.190
REMARK INTER:                  -8.699
REMARK INTRA:                  -0.491
REMARK UNBOUND:                -0.921
REMARK SMILES C[C@@H](CO)CCC(=O)[C@H](C)[C@@H]1C(=O)C[C@H]2[C@@H]3CC=C4C[C@H](O)CC[C@]4(C)[C@@H]3CC[C@]21C
REMARK SMILES IDX 6 1 5 2 2 3 1 4 3 5 4 6 7 8 8 9 9 10 10 11 11 12 12 13 30 14
REMARK SMILES IDX 13 15 14 16 15 17 29 18 31 19 16 20 28 21 27 22 17 23 25 24
REMARK SMILES IDX 18 25 19 26 24 27 26 28 20 29 23 30 21 31 22 32
REMARK H PARENT 4 7 22 33
REMARK Flexibility Score: inf
ROOT
ATOM      1  C   UNL     1     116.125 125.185 123.435  1.00  0.00     0.076 C 
ENDROOT
BRANCH   1   2
ATOM      2  C   UNL     1     115.078 125.318 124.557  1.00  0.00     0.013 C 
BRANCH   2   3
ATOM      3  C   UNL     1     114.917 126.752 125.119  1.00  0.00     0.012 C 
ATOM      4  C   UNL     1     113.519 126.977 125.720  1.00  0.00     0.010 C 
BRANCH   3   5
ATOM      5  C   UNL     1     116.006 127.057 126.167  1.00  0.00     0.159 C 
BRANCH   5   6
ATOM      6  O   UNL     1     115.908 126.199 127.273  1.00  0.00    -0.396 OA
ATOM      7  H   UNL     1     114.941 126.098 127.475  1.00  0.00     0.210 HD
ENDBRANCH   5   6
ENDBRANCH   3   5
ENDBRANCH   2   3
ENDBRANCH   1   2
BRANCH   1   8
ATOM      8  C   UNL     1     115.573 124.560 122.169  1.00  0.00     0.136 C 
ATOM      9  O   UNL     1     114.405 124.758 121.866  1.00  0.00    -0.299 OA
BRANCH   8  10
ATOM     10  C   UNL     1     116.457 123.763 121.216  1.00  0.00     0.064 C 
ATOM     11  C   UNL     1     116.004 124.054 119.769  1.00  0.00     0.017 C 
BRANCH  10  12
ATOM     12  C   UNL     1     116.469 122.226 121.579  1.00  0.00     0.072 C 
ATOM     13  C   UNL     1     115.128 121.826 122.122  1.00  0.00     0.137 C 
ATOM     14  C   UNL     1     117.415 121.758 122.753  1.00  0.00    -0.019 C 
ATOM     15  O   UNL     1     114.163 121.578 121.415  1.00  0.00    -0.299 OA
ATOM     16  C   UNL     1     115.088 121.664 123.591  1.00  0.00     0.080 C 
ATOM     17  C   UNL     1     116.534 121.928 124.038  1.00  0.00     0.007 C 
ATOM     18  C   UNL     1     117.770 120.256 122.531  1.00  0.00     0.008 C 
ATOM     19  C   UNL     1     118.735 122.561 122.816  1.00  0.00     0.012 C 
ATOM     20  C   UNL     1     116.907 121.058 125.281  1.00  0.00     0.001 C 
ATOM     21  C   UNL     1     118.291 119.541 123.789  1.00  0.00     0.005 C 
ATOM     22  C   UNL     1     117.245 119.585 124.925  1.00  0.00     0.003 C 
ATOM     23  C   UNL     1     118.017 121.710 126.122  1.00  0.00     0.031 C 
ATOM     24  C   UNL     1     117.578 118.730 126.223  1.00  0.00    -0.008 C 
ATOM     25  C   UNL     1     118.471 120.853 127.261  1.00  0.00    -0.027 C 
ATOM     26  C   UNL     1     118.404 119.507 127.257  1.00  0.00    -0.065 C 
ATOM     27  C   UNL     1     118.348 117.419 125.865  1.00  0.00     0.014 C 
ATOM     28  C   UNL     1     116.227 118.343 126.890  1.00  0.00     0.016 C 
ATOM     29  C   UNL     1     118.960 118.758 128.457  1.00  0.00     0.063 C 
ATOM     30  C   UNL     1     118.807 116.607 127.088  1.00  0.00     0.033 C 
ATOM     31  C   UNL     1     119.662 117.449 128.051  1.00  0.00     0.118 C 
BRANCH  31  32
ATOM     32  O   UNL     1     120.940 117.693 127.513  1.00  0.00    -0.393 OA
ATOM     33  H   UNL     1     121.144 118.659 127.615  1.00  0.00     0.210 HD
ENDBRANCH  31  32
ENDBRANCH  10  12
ENDBRANCH   8  10
ENDBRANCH   1   8
TORSDOF 8
ENDMDL
MODEL 9
REMARK VINA RESULT:    -5.825      2.795      5.601
REMARK INTER + INTRA:          -9.130
REMARK INTER:                  -8.148
REMARK INTRA:                  -0.981
REMARK UNBOUND:                -0.921
REMARK SMILES C[C@@H](CO)CCC(=O)[C@H](C)[C@@H]1C(=O)C[C@H]2[C@@H]3CC=C4C[C@H](O)CC[C@]4(C)[C@@H]3CC[C@]21C
REMARK SMILES IDX 6 1 5 2 2 3 1 4 3 5 4 6 7 8 8 9 9 10 10 11 11 12 12 13 30 14
REMARK SMILES IDX 13 15 14 16 15 17 29 18 31 19 16 20 28 21 27 22 17 23 25 24
REMARK SMILES IDX 18 25 19 26 24 27 26 28 20 29 23 30 21 31 22 32
REMARK H PARENT 4 7 22 33
REMARK Flexibility Score: inf
ROOT
ATOM      1  C   UNL     1     121.232 121.667 123.527  1.00  0.00     0.076 C 
ENDROOT
BRANCH   1   2
ATOM      2  C   UNL     1     121.343 120.258 124.139  1.00  0.00     0.013 C 
BRANCH   2   3
ATOM      3  C   UNL     1     120.349 119.979 125.293  1.00  0.00     0.012 C 
ATOM      4  C   UNL     1     120.451 118.529 125.798  1.00  0.00     0.010 C 
BRANCH   3   5
ATOM      5  C   UNL     1     120.565 120.967 126.456  1.00  0.00     0.159 C 
BRANCH   5   6
ATOM      6  O   UNL     1     119.410 121.095 127.242  1.00  0.00    -0.396 OA
ATOM      7  H   UNL     1     119.268 120.221 127.690  1.00  0.00     0.210 HD
ENDBRANCH   5   6
ENDBRANCH   3   5
ENDBRANCH   2   3
ENDBRANCH   1   2
BRANCH   1   8
ATOM      8  C   UNL     1     121.227 121.665 122.012  1.00  0.00     0.136 C 
ATOM      9  O   UNL     1     121.842 122.535 121.412  1.00  0.00    -0.299 OA
BRANCH   8  10
ATOM     10  C   UNL     1     120.549 120.557 121.212  1.00  0.00     0.064 C 
ATOM     11  C   UNL     1     121.330 120.355 119.896  1.00  0.00     0.017 C 
BRANCH  10  12
ATOM     12  C   UNL     1     119.012 120.851 120.998  1.00  0.00     0.072 C 
ATOM     13  C   UNL     1     118.710 122.268 121.388  1.00  0.00     0.137 C 
ATOM     14  C   UNL     1     117.984 120.068 121.905  1.00  0.00    -0.019 C 
ATOM     15  O   UNL     1     118.921 123.225 120.660  1.00  0.00    -0.299 OA
ATOM     16  C   UNL     1     118.045 122.412 122.701  1.00  0.00     0.080 C 
ATOM     17  C   UNL     1     117.849 120.965 123.183  1.00  0.00     0.007 C 
ATOM     18  C   UNL     1     116.621 119.989 121.151  1.00  0.00     0.008 C 
ATOM     19  C   UNL     1     118.441 118.627 122.226  1.00  0.00     0.012 C 
ATOM     20  C   UNL     1     116.539 120.824 124.022  1.00  0.00     0.001 C 
ATOM     21  C   UNL     1     115.419 119.674 122.056  1.00  0.00     0.005 C 
ATOM     22  C   UNL     1     115.254 120.750 123.153  1.00  0.00     0.003 C 
ATOM     23  C   UNL     1     116.622 119.656 125.018  1.00  0.00     0.031 C 
ATOM     24  C   UNL     1     113.946 120.648 124.050  1.00  0.00    -0.008 C 
ATOM     25  C   UNL     1     115.345 119.427 125.764  1.00  0.00    -0.027 C 
ATOM     26  C   UNL     1     114.129 119.744 125.277  1.00  0.00    -0.065 C 
ATOM     27  C   UNL     1     112.727 120.119 123.228  1.00  0.00     0.014 C 
ATOM     28  C   UNL     1     113.614 122.079 124.561  1.00  0.00     0.016 C 
ATOM     29  C   UNL     1     112.908 119.399 126.115  1.00  0.00     0.063 C 
ATOM     30  C   UNL     1     111.460 119.880 124.067  1.00  0.00     0.033 C 
ATOM     31  C   UNL     1     111.723 118.933 125.251  1.00  0.00     0.118 C 
BRANCH  31  32
ATOM     32  O   UNL     1     111.892 117.606 124.811  1.00  0.00    -0.393 OA
ATOM     33  H   UNL     1     112.676 117.219 125.279  1.00  0.00     0.210 HD
ENDBRANCH  31  32
ENDBRANCH  10  12
ENDBRANCH   8  10
ENDBRANCH   1   8
TORSDOF 8
ENDMDL
