MODEL 1
REMARK VINA RESULT:    -4.440      0.000      0.000
REMARK INTER + INTRA:          -6.248
REMARK INTER:                  -5.997
REMARK INTRA:                  -0.250
REMARK UNBOUND:                -0.250
REMARK SMILES CCCCCCC=CC(=O)[O-]
REMARK SMILES IDX 5 1 6 2 7 3 8 4 9 5 10 6 11 7 4 8 3 9 2 10 1 11
REMARK H PARENT
REMARK Flexibility Score: inf
ROOT
ATOM      1  C   UNL     1      34.859  43.318  41.222  1.00  0.00     0.004 C 
ENDROOT
BRANCH   1   2
ATOM      2  C   UNL     1      34.211  44.578  41.825  1.00  0.00     0.027 C 
BRANCH   2   3
ATOM      3  C   UNL     1      33.106  44.251  42.796  1.00  0.00    -0.025 C 
ATOM      4  C   UNL     1      31.931  43.674  42.494  1.00  0.00     0.020 C 
BRANCH   4   5
ATOM      5  C   UNL     1      31.456  43.294  41.148  1.00  0.00     0.064 C 
ATOM      6  O   UNL     1      30.852  44.104  40.397  1.00  0.00    -0.545 OA
ATOM      7  O   UNL     1      31.654  41.991  40.711  1.00  0.00    -0.545 OA
ENDBRANCH   4   5
ENDBRANCH   2   3
ENDBRANCH   1   2
BRANCH   1   8
ATOM      8  C   UNL     1      35.131  43.405  39.707  1.00  0.00     0.000 C 
BRANCH   8   9
ATOM      9  C   UNL     1      35.631  42.101  39.054  1.00  0.00    -0.000 C 
BRANCH   9  10
ATOM     10  C   UNL     1      36.497  42.298  37.796  1.00  0.00    -0.003 C 
ATOM     11  C   UNL     1      36.473  43.734  37.276  1.00  0.00     0.004 C 
ENDBRANCH   9  10
ENDBRANCH   8   9
ENDBRANCH   1   8
TORSDOF 6
ENDMDL
MODEL 2
REMARK VINA RESULT:    -4.307      0.980      1.319
REMARK INTER + INTRA:          -6.068
REMARK INTER:                  -5.856
REMARK INTRA:                  -0.212
REMARK UNBOUND:                -0.250
REMARK SMILES CCCCCCC=CC(=O)[O-]
REMARK SMILES IDX 5 1 6 2 7 3 8 4 9 5 10 6 11 7 4 8 3 9 2 10 1 11
REMARK H PARENT
REMARK Flexibility Score: inf
ROOT
ATOM      1  C   UNL     1      34.929  42.900  40.528  1.00  0.00     0.004 C 
ENDROOT
BRANCH   1   2
ATOM      2  C   UNL     1      34.522  44.374  40.714  1.00  0.00     0.027 C 
BRANCH   2   3
ATOM      3  C   UNL     1      34.073  44.676  42.120  1.00  0.00    -0.025 C 
ATOM      4  C   UNL     1      32.960  44.212  42.712  1.00  0.00     0.020 C 
BRANCH   4   5
ATOM      5  C   UNL     1      31.922  43.361  42.095  1.00  0.00     0.064 C 
ATOM      6  O   UNL     1      31.074  43.820  41.286  1.00  0.00    -0.545 OA
ATOM      7  O   UNL     1      31.861  42.018  42.444  1.00  0.00    -0.545 OA
ENDBRANCH   4   5
ENDBRANCH   2   3
ENDBRANCH   1   2
BRANCH   1   8
ATOM      8  C   UNL     1      35.550  42.581  39.153  1.00  0.00     0.000 C 
BRANCH   8   9
ATOM      9  C   UNL     1      36.247  43.767  38.455  1.00  0.00    -0.000 C 
BRANCH   9  10
ATOM     10  C   UNL     1      36.709  43.490  37.014  1.00  0.00    -0.003 C 
ATOM     11  C   UNL     1      36.183  44.517  36.013  1.00  0.00     0.004 C 
ENDBRANCH   9  10
ENDBRANCH   8   9
ENDBRANCH   1   8
TORSDOF 6
ENDMDL
MODEL 3
REMARK VINA RESULT:    -4.231     11.818     12.656
REMARK INTER + INTRA:          -5.965
REMARK INTER:                  -6.141
REMARK INTRA:                   0.176
REMARK UNBOUND:                -0.250
REMARK SMILES CCCCCCC=CC(=O)[O-]
REMARK SMILES IDX 5 1 6 2 7 3 8 4 9 5 10 6 11 7 4 8 3 9 2 10 1 11
REMARK H PARENT
REMARK Flexibility Score: inf
ROOT
ATOM      1  C   UNL     1      25.170  52.382  37.952  1.00  0.00     0.004 C 
ENDROOT
BRANCH   1   2
ATOM      2  C   UNL     1      24.468  51.355  37.045  1.00  0.00     0.027 C 
BRANCH   2   3
ATOM      3  C   UNL     1      25.286  50.104  36.848  1.00  0.00    -0.025 C 
ATOM      4  C   UNL     1      24.871  48.972  36.257  1.00  0.00     0.020 C 
BRANCH   4   5
ATOM      5  C   UNL     1      23.518  48.697  35.731  1.00  0.00     0.064 C 
ATOM      6  O   UNL     1      22.506  49.337  36.118  1.00  0.00    -0.545 OA
ATOM      7  O   UNL     1      23.355  47.676  34.803  1.00  0.00    -0.545 OA
ENDBRANCH   4   5
ENDBRANCH   2   3
ENDBRANCH   1   2
BRANCH   1   8
ATOM      8  C   UNL     1      26.235  53.237  37.237  1.00  0.00     0.000 C 
BRANCH   8   9
ATOM      9  C   UNL     1      26.969  54.256  38.132  1.00  0.00    -0.000 C 
BRANCH   9  10
ATOM     10  C   UNL     1      28.447  53.929  38.409  1.00  0.00    -0.003 C 
ATOM     11  C   UNL     1      29.192  55.074  39.093  1.00  0.00     0.004 C 
ENDBRANCH   9  10
ENDBRANCH   8   9
ENDBRANCH   1   8
TORSDOF 6
ENDMDL
MODEL 4
REMARK VINA RESULT:    -4.221      2.622      4.925
REMARK INTER + INTRA:          -5.951
REMARK INTER:                  -5.907
REMARK INTRA:                  -0.044
REMARK UNBOUND:                -0.250
REMARK SMILES CCCCCCC=CC(=O)[O-]
REMARK SMILES IDX 5 1 6 2 7 3 8 4 9 5 10 6 11 7 4 8 3 9 2 10 1 11
REMARK H PARENT
REMARK Flexibility Score: inf
ROOT
ATOM      1  C   UNL     1      33.855  44.527  42.200  1.00  0.00     0.004 C 
ENDROOT
BRANCH   1   2
ATOM      2  C   UNL     1      34.642  44.335  40.891  1.00  0.00     0.027 C 
BRANCH   2   3
ATOM      3  C   UNL     1      34.866  42.882  40.559  1.00  0.00    -0.025 C 
ATOM      4  C   UNL     1      35.490  42.406  39.469  1.00  0.00     0.020 C 
BRANCH   4   5
ATOM      5  C   UNL     1      36.032  43.199  38.347  1.00  0.00     0.064 C 
ATOM      6  O   UNL     1      36.527  44.343  38.513  1.00  0.00    -0.545 OA
ATOM      7  O   UNL     1      35.963  42.676  37.062  1.00  0.00    -0.545 OA
ENDBRANCH   4   5
ENDBRANCH   2   3
ENDBRANCH   1   2
BRANCH   1   8
ATOM      8  C   UNL     1      33.522  43.216  42.940  1.00  0.00     0.000 C 
BRANCH   8   9
ATOM      9  C   UNL     1      32.040  42.792  42.892  1.00  0.00    -0.000 C 
BRANCH   9  10
ATOM     10  C   UNL     1      31.106  43.782  42.173  1.00  0.00    -0.003 C 
ATOM     11  C   UNL     1      31.096  43.597  40.656  1.00  0.00     0.004 C 
ENDBRANCH   9  10
ENDBRANCH   8   9
ENDBRANCH   1   8
TORSDOF 6
ENDMDL
MODEL 5
REMARK VINA RESULT:    -4.170     12.231     13.112
REMARK INTER + INTRA:          -5.883
REMARK INTER:                  -6.066
REMARK INTRA:                   0.183
REMARK UNBOUND:                -0.250
REMARK SMILES CCCCCCC=CC(=O)[O-]
REMARK SMILES IDX 5 1 6 2 7 3 8 4 9 5 10 6 11 7 4 8 3 9 2 10 1 11
REMARK H PARENT
REMARK Flexibility Score: inf
ROOT
ATOM      1  C   UNL     1      26.588  53.834  37.445  1.00  0.00     0.004 C 
ENDROOT
BRANCH   1   2
ATOM      2  C   UNL     1      27.528  54.620  38.377  1.00  0.00     0.027 C 
BRANCH   2   3
ATOM      3  C   UNL     1      28.861  53.941  38.561  1.00  0.00    -0.025 C 
ATOM      4  C   UNL     1      29.937  54.461  39.172  1.00  0.00     0.020 C 
BRANCH   4   5
ATOM      5  C   UNL     1      30.058  55.821  39.737  1.00  0.00     0.064 C 
ATOM      6  O   UNL     1      29.267  56.748  39.427  1.00  0.00    -0.545 OA
ATOM      7  O   UNL     1      31.099  56.091  40.615  1.00  0.00    -0.545 OA
ENDBRANCH   4   5
ENDBRANCH   2   3
ENDBRANCH   1   2
BRANCH   1   8
ATOM      8  C   UNL     1      25.645  52.854  38.171  1.00  0.00     0.000 C 
BRANCH   8   9
ATOM      9  C   UNL     1      24.872  51.885  37.255  1.00  0.00    -0.000 C 
BRANCH   9  10
ATOM     10  C   UNL     1      25.630  50.597  36.888  1.00  0.00    -0.003 C 
ATOM     11  C   UNL     1      24.700  49.448  36.501  1.00  0.00     0.004 C 
ENDBRANCH   9  10
ENDBRANCH   8   9
ENDBRANCH   1   8
TORSDOF 6
ENDMDL
MODEL 6
REMARK VINA RESULT:    -4.011     11.534     12.635
REMARK INTER + INTRA:          -5.668
REMARK INTER:                  -5.860
REMARK INTRA:                   0.192
REMARK UNBOUND:                -0.250
REMARK SMILES CCCCCCC=CC(=O)[O-]
REMARK SMILES IDX 5 1 6 2 7 3 8 4 9 5 10 6 11 7 4 8 3 9 2 10 1 11
REMARK H PARENT
REMARK Flexibility Score: inf
ROOT
ATOM      1  C   UNL     1      25.023  52.585  37.182  1.00  0.00     0.004 C 
ENDROOT
BRANCH   1   2
ATOM      2  C   UNL     1      26.301  52.836  38.003  1.00  0.00     0.027 C 
BRANCH   2   3
ATOM      3  C   UNL     1      26.737  54.278  37.968  1.00  0.00    -0.025 C 
ATOM      4  C   UNL     1      27.947  54.748  38.311  1.00  0.00     0.020 C 
BRANCH   4   5
ATOM      5  C   UNL     1      29.078  53.962  38.846  1.00  0.00     0.064 C 
ATOM      6  O   UNL     1      29.075  52.704  38.856  1.00  0.00    -0.545 OA
ATOM      7  O   UNL     1      30.167  54.635  39.384  1.00  0.00    -0.545 OA
ENDBRANCH   4   5
ENDBRANCH   2   3
ENDBRANCH   1   2
BRANCH   1   8
ATOM      8  C   UNL     1      24.524  51.127  37.212  1.00  0.00     0.000 C 
BRANCH   8   9
ATOM      9  C   UNL     1      25.568  50.067  36.808  1.00  0.00    -0.000 C 
BRANCH   9  10
ATOM     10  C   UNL     1      24.987  48.804  36.146  1.00  0.00    -0.003 C 
ATOM     11  C   UNL     1      23.506  48.942  35.798  1.00  0.00     0.004 C 
ENDBRANCH   9  10
ENDBRANCH   8   9
ENDBRANCH   1   8
TORSDOF 6
ENDMDL
MODEL 7
REMARK VINA RESULT:    -3.983     11.448     12.315
REMARK INTER + INTRA:          -5.630
REMARK INTER:                  -5.827
REMARK INTRA:                   0.197
REMARK UNBOUND:                -0.250
REMARK SMILES CCCCCCC=CC(=O)[O-]
REMARK SMILES IDX 5 1 6 2 7 3 8 4 9 5 10 6 11 7 4 8 3 9 2 10 1 11
REMARK H PARENT
REMARK Flexibility Score: inf
ROOT
ATOM      1  C   UNL     1      26.425  53.881  37.418  1.00  0.00     0.004 C 
ENDROOT
BRANCH   1   2
ATOM      2  C   UNL     1      26.238  52.366  37.621  1.00  0.00     0.027 C 
BRANCH   2   3
ATOM      3  C   UNL     1      24.818  51.922  37.385  1.00  0.00    -0.025 C 
ATOM      4  C   UNL     1      24.430  50.726  36.912  1.00  0.00     0.020 C 
BRANCH   4   5
ATOM      5  C   UNL     1      25.312  49.624  36.474  1.00  0.00     0.064 C 
ATOM      6  O   UNL     1      26.564  49.741  36.442  1.00  0.00    -0.545 OA
ATOM      7  O   UNL     1      24.736  48.433  36.052  1.00  0.00    -0.545 OA
ENDBRANCH   4   5
ENDBRANCH   2   3
ENDBRANCH   1   2
BRANCH   1   8
ATOM      8  C   UNL     1      27.475  54.523  38.347  1.00  0.00     0.000 C 
BRANCH   8   9
ATOM      9  C   UNL     1      28.746  53.681  38.582  1.00  0.00    -0.000 C 
BRANCH   9  10
ATOM     10  C   UNL     1      29.956  54.471  39.110  1.00  0.00    -0.003 C 
ATOM     11  C   UNL     1      29.597  55.890  39.547  1.00  0.00     0.004 C 
ENDBRANCH   9  10
ENDBRANCH   8   9
ENDBRANCH   1   8
TORSDOF 6
ENDMDL
MODEL 8
REMARK VINA RESULT:    -3.946      2.944      4.717
REMARK INTER + INTRA:          -5.580
REMARK INTER:                  -5.520
REMARK INTRA:                  -0.061
REMARK UNBOUND:                -0.250
REMARK SMILES CCCCCCC=CC(=O)[O-]
REMARK SMILES IDX 5 1 6 2 7 3 8 4 9 5 10 6 11 7 4 8 3 9 2 10 1 11
REMARK H PARENT
REMARK Flexibility Score: inf
ROOT
ATOM      1  C   UNL     1      36.527  43.805  36.518  1.00  0.00     0.004 C 
ENDROOT
BRANCH   1   2
ATOM      2  C   UNL     1      36.347  44.061  38.025  1.00  0.00     0.027 C 
BRANCH   2   3
ATOM      3  C   UNL     1      35.979  42.812  38.783  1.00  0.00    -0.025 C 
ATOM      4  C   UNL     1      35.166  42.743  39.850  1.00  0.00     0.020 C 
BRANCH   4   5
ATOM      5  C   UNL     1      34.511  43.878  40.533  1.00  0.00     0.064 C 
ATOM      6  O   UNL     1      33.267  43.921  40.718  1.00  0.00    -0.545 OA
ATOM      7  O   UNL     1      35.291  44.946  40.956  1.00  0.00    -0.545 OA
ENDBRANCH   4   5
ENDBRANCH   2   3
ENDBRANCH   1   2
BRANCH   1   8
ATOM      8  C   UNL     1      36.028  44.950  35.614  1.00  0.00     0.000 C 
BRANCH   8   9
ATOM      9  C   UNL     1      36.912  45.252  34.387  1.00  0.00    -0.000 C 
BRANCH   9  10
ATOM     10  C   UNL     1      36.603  46.583  33.678  1.00  0.00    -0.003 C 
ATOM     11  C   UNL     1      35.348  46.518  32.810  1.00  0.00     0.004 C 
ENDBRANCH   9  10
ENDBRANCH   8   9
ENDBRANCH   1   8
TORSDOF 6
ENDMDL
MODEL 9
REMARK VINA RESULT:    -3.832      3.857      6.287
REMARK INTER + INTRA:          -5.427
REMARK INTER:                  -5.242
REMARK INTRA:                  -0.185
REMARK UNBOUND:                -0.250
REMARK SMILES CCCCCCC=CC(=O)[O-]
REMARK SMILES IDX 5 1 6 2 7 3 8 4 9 5 10 6 11 7 4 8 3 9 2 10 1 11
REMARK H PARENT
REMARK Flexibility Score: inf
ROOT
ATOM      1  C   UNL     1      36.461  45.226  34.820  1.00  0.00     0.004 C 
ENDROOT
BRANCH   1   2
ATOM      2  C   UNL     1      35.999  44.473  36.080  1.00  0.00     0.027 C 
BRANCH   2   3
ATOM      3  C   UNL     1      37.097  43.640  36.691  1.00  0.00    -0.025 C 
ATOM      4  C   UNL     1      37.046  43.009  37.876  1.00  0.00     0.020 C 
BRANCH   4   5
ATOM      5  C   UNL     1      35.934  43.046  38.847  1.00  0.00     0.064 C 
ATOM      6  O   UNL     1      35.617  44.097  39.463  1.00  0.00    -0.545 OA
ATOM      7  O   UNL     1      35.237  41.875  39.113  1.00  0.00    -0.545 OA
ENDBRANCH   4   5
ENDBRANCH   2   3
ENDBRANCH   1   2
BRANCH   1   8
ATOM      8  C   UNL     1      35.312  45.721  33.918  1.00  0.00     0.000 C 
BRANCH   8   9
ATOM      9  C   UNL     1      35.737  46.654  32.766  1.00  0.00    -0.000 C 
BRANCH   9  10
ATOM     10  C   UNL     1      36.424  47.959  33.208  1.00  0.00    -0.003 C 
ATOM     11  C   UNL     1      35.707  48.645  34.370  1.00  0.00     0.004 C 
ENDBRANCH   9  10
ENDBRANCH   8   9
ENDBRANCH   1   8
TORSDOF 6
ENDMDL
