MODEL 1
REMARK VINA RESULT:    -4.587      0.000      0.000
REMARK INTER + INTRA:          -5.291
REMARK INTER:                  -5.258
REMARK INTRA:                  -0.033
REMARK UNBOUND:                -0.033
REMARK SMILES CC(C)[C@H]([NH3+])C(=O)[O-]
REMARK SMILES IDX 4 1 5 2 6 6 7 7 8 8 2 9 1 10 3 11
REMARK H PARENT 5 3 5 4 5 5
REMARK Flexibility Score: inf
ROOT
ATOM      1  C   UNL     1      23.137  20.074  14.976  1.00  0.00     0.230 C 
ENDROOT
BRANCH   1   2
ATOM      2  N   UNL     1      23.103  18.936  15.907  1.00  0.00    -0.350 N 
ATOM      3  H   UNL     1      23.886  19.003  16.594  1.00  0.00     0.345 HD
ATOM      4  H   UNL     1      23.161  18.024  15.401  1.00  0.00     0.345 HD
ATOM      5  H   UNL     1      22.207  18.956  16.448  1.00  0.00     0.345 HD
ENDBRANCH   1   2
BRANCH   1   6
ATOM      6  C   UNL     1      23.986  19.752  13.771  1.00  0.00     0.099 C 
ATOM      7  O   UNL     1      25.147  20.228  13.676  1.00  0.00    -0.544 OA
ATOM      8  O   UNL     1      23.517  18.896  12.780  1.00  0.00    -0.544 OA
ENDBRANCH   1   6
BRANCH   1   9
ATOM      9  C   UNL     1      23.607  21.399  15.649  1.00  0.00     0.047 C 
ATOM     10  C   UNL     1      23.038  22.636  14.938  1.00  0.00     0.014 C 
ATOM     11  C   UNL     1      23.301  21.466  17.155  1.00  0.00     0.014 C 
ENDBRANCH   1   9
TORSDOF 3
ENDMDL
MODEL 2
REMARK VINA RESULT:    -4.552      4.090      4.615
REMARK INTER + INTRA:          -5.251
REMARK INTER:                  -5.202
REMARK INTRA:                  -0.048
REMARK UNBOUND:                -0.033
REMARK SMILES CC(C)[C@H]([NH3+])C(=O)[O-]
REMARK SMILES IDX 4 1 5 2 6 6 7 7 8 8 2 9 1 10 3 11
REMARK H PARENT 5 3 5 4 5 5
REMARK Flexibility Score: inf
ROOT
ATOM      1  C   UNL     1      24.986  22.915  11.986  1.00  0.00     0.230 C 
ENDROOT
BRANCH   1   2
ATOM      2  N   UNL     1      24.378  24.251  12.080  1.00  0.00    -0.350 N 
ATOM      3  H   UNL     1      25.059  24.934  12.482  1.00  0.00     0.345 HD
ATOM      4  H   UNL     1      23.511  24.238  12.663  1.00  0.00     0.345 HD
ATOM      5  H   UNL     1      24.126  24.586  11.121  1.00  0.00     0.345 HD
ENDBRANCH   1   2
BRANCH   1   6
ATOM      6  C   UNL     1      25.556  22.682  10.608  1.00  0.00     0.099 C 
ATOM      7  O   UNL     1      26.774  22.399  10.473  1.00  0.00    -0.544 OA
ATOM      8  O   UNL     1      24.738  22.731   9.484  1.00  0.00    -0.544 OA
ENDBRANCH   1   6
BRANCH   1   9
ATOM      9  C   UNL     1      24.005  21.770  12.382  1.00  0.00     0.047 C 
ATOM     10  C   UNL     1      24.469  21.028  13.644  1.00  0.00     0.014 C 
ATOM     11  C   UNL     1      22.549  22.237  12.547  1.00  0.00     0.014 C 
ENDBRANCH   1   9
TORSDOF 3
ENDMDL
MODEL 3
REMARK VINA RESULT:    -4.339      1.667      2.303
REMARK INTER + INTRA:          -5.007
REMARK INTER:                  -5.058
REMARK INTRA:                   0.051
REMARK UNBOUND:                -0.033
REMARK SMILES CC(C)[C@H]([NH3+])C(=O)[O-]
REMARK SMILES IDX 4 1 5 2 6 6 7 7 8 8 2 9 1 10 3 11
REMARK H PARENT 5 3 5 4 5 5
REMARK Flexibility Score: inf
ROOT
ATOM      1  C   UNL     1      23.727  21.011  15.196  1.00  0.00     0.230 C 
ENDROOT
BRANCH   1   2
ATOM      2  N   UNL     1      23.275  22.284  14.615  1.00  0.00    -0.350 N 
ATOM      3  H   UNL     1      23.890  23.068  14.929  1.00  0.00     0.345 HD
ATOM      4  H   UNL     1      22.284  22.495  14.874  1.00  0.00     0.345 HD
ATOM      5  H   UNL     1      23.339  22.232  13.572  1.00  0.00     0.345 HD
ENDBRANCH   1   2
BRANCH   1   6
ATOM      6  C   UNL     1      23.772  19.930  14.145  1.00  0.00     0.099 C 
ATOM      7  O   UNL     1      22.700  19.445  13.697  1.00  0.00    -0.544 OA
ATOM      8  O   UNL     1      24.987  19.493  13.627  1.00  0.00    -0.544 OA
ENDBRANCH   1   6
BRANCH   1   9
ATOM      9  C   UNL     1      22.871  20.561  16.419  1.00  0.00     0.047 C 
ATOM     10  C   UNL     1      23.224  19.137  16.873  1.00  0.00     0.014 C 
ATOM     11  C   UNL     1      22.945  21.530  17.611  1.00  0.00     0.014 C 
ENDBRANCH   1   9
TORSDOF 3
ENDMDL
MODEL 4
REMARK VINA RESULT:    -4.299      1.588      1.902
REMARK INTER + INTRA:          -4.961
REMARK INTER:                  -4.910
REMARK INTRA:                  -0.051
REMARK UNBOUND:                -0.033
REMARK SMILES CC(C)[C@H]([NH3+])C(=O)[O-]
REMARK SMILES IDX 4 1 5 2 6 6 7 7 8 8 2 9 1 10 3 11
REMARK H PARENT 5 3 5 4 5 5
REMARK Flexibility Score: inf
ROOT
ATOM      1  C   UNL     1      23.224  20.390  14.514  1.00  0.00     0.230 C 
ENDROOT
BRANCH   1   2
ATOM      2  N   UNL     1      23.350  19.000  14.050  1.00  0.00    -0.350 N 
ATOM      3  H   UNL     1      22.759  18.843  13.203  1.00  0.00     0.345 HD
ATOM      4  H   UNL     1      23.078  18.320  14.795  1.00  0.00     0.345 HD
ATOM      5  H   UNL     1      24.343  18.812  13.780  1.00  0.00     0.345 HD
ENDBRANCH   1   2
BRANCH   1   6
ATOM      6  C   UNL     1      24.132  21.301  13.726  1.00  0.00     0.099 C 
ATOM      7  O   UNL     1      25.316  20.950  13.483  1.00  0.00    -0.544 OA
ATOM      8  O   UNL     1      23.662  22.509  13.222  1.00  0.00    -0.544 OA
ENDBRANCH   1   6
BRANCH   1   9
ATOM      9  C   UNL     1      23.473  20.546  16.045  1.00  0.00     0.047 C 
ATOM     10  C   UNL     1      22.915  21.872  16.584  1.00  0.00     0.014 C 
ATOM     11  C   UNL     1      22.938  19.369  16.879  1.00  0.00     0.014 C 
ENDBRANCH   1   9
TORSDOF 3
ENDMDL
MODEL 5
REMARK VINA RESULT:    -4.281      1.924      2.394
REMARK INTER + INTRA:          -4.940
REMARK INTER:                  -4.884
REMARK INTRA:                  -0.056
REMARK UNBOUND:                -0.033
REMARK SMILES CC(C)[C@H]([NH3+])C(=O)[O-]
REMARK SMILES IDX 4 1 5 2 6 6 7 7 8 8 2 9 1 10 3 11
REMARK H PARENT 5 3 5 4 5 5
REMARK Flexibility Score: inf
ROOT
ATOM      1  C   UNL     1      24.264  20.793  13.998  1.00  0.00     0.230 C 
ENDROOT
BRANCH   1   2
ATOM      2  N   UNL     1      25.019  21.556  12.992  1.00  0.00    -0.350 N 
ATOM      3  H   UNL     1      24.440  21.702  12.135  1.00  0.00     0.345 HD
ATOM      4  H   UNL     1      25.909  21.072  12.732  1.00  0.00     0.345 HD
ATOM      5  H   UNL     1      25.256  22.499  13.376  1.00  0.00     0.345 HD
ENDBRANCH   1   2
BRANCH   1   6
ATOM      6  C   UNL     1      23.595  19.595  13.370  1.00  0.00     0.099 C 
ATOM      7  O   UNL     1      22.614  19.052  13.942  1.00  0.00    -0.544 OA
ATOM      8  O   UNL     1      24.021  19.110  12.138  1.00  0.00    -0.544 OA
ENDBRANCH   1   6
BRANCH   1   9
ATOM      9  C   UNL     1      23.229  21.664  14.773  1.00  0.00     0.047 C 
ATOM     10  C   UNL     1      23.511  21.683  16.283  1.00  0.00     0.014 C 
ATOM     11  C   UNL     1      23.112  23.102  14.238  1.00  0.00     0.014 C 
ENDBRANCH   1   9
TORSDOF 3
ENDMDL
MODEL 6
REMARK VINA RESULT:    -4.144      3.880      4.463
REMARK INTER + INTRA:          -4.783
REMARK INTER:                  -4.806
REMARK INTRA:                   0.023
REMARK UNBOUND:                -0.033
REMARK SMILES CC(C)[C@H]([NH3+])C(=O)[O-]
REMARK SMILES IDX 4 1 5 2 6 6 7 7 8 8 2 9 1 10 3 11
REMARK H PARENT 5 3 5 4 5 5
REMARK Flexibility Score: inf
ROOT
ATOM      1  C   UNL     1      24.234  22.487  11.707  1.00  0.00     0.230 C 
ENDROOT
BRANCH   1   2
ATOM      2  N   UNL     1      24.584  21.381  12.610  1.00  0.00    -0.350 N 
ATOM      3  H   UNL     1      25.378  21.653  13.231  1.00  0.00     0.345 HD
ATOM      4  H   UNL     1      24.837  20.517  12.079  1.00  0.00     0.345 HD
ATOM      5  H   UNL     1      23.765  21.161  13.224  1.00  0.00     0.345 HD
ENDBRANCH   1   2
BRANCH   1   6
ATOM      6  C   UNL     1      25.214  22.573  10.563  1.00  0.00     0.099 C 
ATOM      7  O   UNL     1      24.794  22.735   9.387  1.00  0.00    -0.544 OA
ATOM      8  O   UNL     1      26.584  22.522  10.796  1.00  0.00    -0.544 OA
ENDBRANCH   1   6
BRANCH   1   9
ATOM      9  C   UNL     1      24.114  23.858  12.440  1.00  0.00     0.047 C 
ATOM     10  C   UNL     1      23.612  24.967  11.502  1.00  0.00     0.014 C 
ATOM     11  C   UNL     1      23.246  23.804  13.708  1.00  0.00     0.014 C 
ENDBRANCH   1   9
TORSDOF 3
ENDMDL
MODEL 7
REMARK VINA RESULT:    -4.012      1.945      2.473
REMARK INTER + INTRA:          -4.632
REMARK INTER:                  -4.617
REMARK INTRA:                  -0.014
REMARK UNBOUND:                -0.033
REMARK SMILES CC(C)[C@H]([NH3+])C(=O)[O-]
REMARK SMILES IDX 4 1 5 2 6 6 7 7 8 8 2 9 1 10 3 11
REMARK H PARENT 5 3 5 4 5 5
REMARK Flexibility Score: inf
ROOT
ATOM      1  C   UNL     1      23.619  21.856  14.914  1.00  0.00     0.230 C 
ENDROOT
BRANCH   1   2
ATOM      2  N   UNL     1      23.053  23.200  14.724  1.00  0.00    -0.350 N 
ATOM      3  H   UNL     1      23.233  23.537  13.752  1.00  0.00     0.345 HD
ATOM      4  H   UNL     1      23.449  23.883  15.409  1.00  0.00     0.345 HD
ATOM      5  H   UNL     1      22.016  23.162  14.858  1.00  0.00     0.345 HD
ENDBRANCH   1   2
BRANCH   1   6
ATOM      6  C   UNL     1      23.704  21.121  13.598  1.00  0.00     0.099 C 
ATOM      7  O   UNL     1      22.690  21.038  12.858  1.00  0.00    -0.544 OA
ATOM      8  O   UNL     1      24.908  20.572  13.169  1.00  0.00    -0.544 OA
ENDBRANCH   1   6
BRANCH   1   9
ATOM      9  C   UNL     1      22.845  21.012  15.972  1.00  0.00     0.047 C 
ATOM     10  C   UNL     1      23.247  19.530  15.929  1.00  0.00     0.014 C 
ATOM     11  C   UNL     1      22.974  21.555  17.405  1.00  0.00     0.014 C 
ENDBRANCH   1   9
TORSDOF 3
ENDMDL
MODEL 8
REMARK VINA RESULT:    -3.917      2.983      3.720
REMARK INTER + INTRA:          -4.522
REMARK INTER:                  -4.505
REMARK INTRA:                  -0.018
REMARK UNBOUND:                -0.033
REMARK SMILES CC(C)[C@H]([NH3+])C(=O)[O-]
REMARK SMILES IDX 4 1 5 2 6 6 7 7 8 8 2 9 1 10 3 11
REMARK H PARENT 5 3 5 4 5 5
REMARK Flexibility Score: inf
ROOT
ATOM      1  C   UNL     1      23.652  21.935  16.496  1.00  0.00     0.230 C 
ENDROOT
BRANCH   1   2
ATOM      2  N   UNL     1      23.471  21.347  17.832  1.00  0.00    -0.350 N 
ATOM      3  H   UNL     1      22.457  21.299  18.075  1.00  0.00     0.345 HD
ATOM      4  H   UNL     1      23.979  21.893  18.564  1.00  0.00     0.345 HD
ATOM      5  H   UNL     1      23.842  20.369  17.834  1.00  0.00     0.345 HD
ENDBRANCH   1   2
BRANCH   1   6
ATOM      6  C   UNL     1      22.909  23.244  16.384  1.00  0.00     0.099 C 
ATOM      7  O   UNL     1      22.649  23.909  17.420  1.00  0.00    -0.544 OA
ATOM      8  O   UNL     1      22.547  23.750  15.140  1.00  0.00    -0.544 OA
ENDBRANCH   1   6
BRANCH   1   9
ATOM      9  C   UNL     1      23.248  20.967  15.343  1.00  0.00     0.047 C 
ATOM     10  C   UNL     1      24.292  20.951  14.215  1.00  0.00     0.014 C 
ATOM     11  C   UNL     1      22.960  19.532  15.817  1.00  0.00     0.014 C 
ENDBRANCH   1   9
TORSDOF 3
ENDMDL
MODEL 9
REMARK VINA RESULT:    -3.863      3.375      4.105
REMARK INTER + INTRA:          -4.461
REMARK INTER:                  -4.447
REMARK INTRA:                  -0.013
REMARK UNBOUND:                -0.033
REMARK SMILES CC(C)[C@H]([NH3+])C(=O)[O-]
REMARK SMILES IDX 4 1 5 2 6 6 7 7 8 8 2 9 1 10 3 11
REMARK H PARENT 5 3 5 4 5 5
REMARK Flexibility Score: inf
ROOT
ATOM      1  C   UNL     1      22.805  22.193  15.578  1.00  0.00     0.230 C 
ENDROOT
BRANCH   1   2
ATOM      2  N   UNL     1      22.898  23.224  14.533  1.00  0.00    -0.350 N 
ATOM      3  H   UNL     1      22.033  23.808  14.518  1.00  0.00     0.345 HD
ATOM      4  H   UNL     1      23.048  22.800  13.589  1.00  0.00     0.345 HD
ATOM      5  H   UNL     1      23.704  23.858  14.741  1.00  0.00     0.345 HD
ENDBRANCH   1   2
BRANCH   1   6
ATOM      6  C   UNL     1      23.020  22.797  16.945  1.00  0.00     0.099 C 
ATOM      7  O   UNL     1      23.224  24.033  17.059  1.00  0.00    -0.544 OA
ATOM      8  O   UNL     1      22.950  22.008  18.088  1.00  0.00    -0.544 OA
ENDBRANCH   1   6
BRANCH   1   9
ATOM      9  C   UNL     1      23.773  20.995  15.342  1.00  0.00     0.047 C 
ATOM     10  C   UNL     1      23.093  19.645  15.617  1.00  0.00     0.014 C 
ATOM     11  C   UNL     1      24.415  20.989  13.944  1.00  0.00     0.014 C 
ENDBRANCH   1   9
TORSDOF 3
ENDMDL
