MODEL 1
REMARK VINA RESULT:    -4.942      0.000      0.000
REMARK INTER + INTRA:          -9.200
REMARK INTER:                  -8.409
REMARK INTRA:                  -0.791
REMARK UNBOUND:                -0.791
REMARK SMILES CCCCCCCCCCCCCC(=O)[O-]
REMARK SMILES IDX 8 1 9 2 10 3 11 4 12 5 13 6 14 7 15 8 16 9 7 10 6 11 5 12
REMARK SMILES IDX 4 13 3 14 2 15 1 16
REMARK H PARENT
REMARK Flexibility Score: inf
ROOT
ATOM      1  C   UNL     1     -24.420  45.360  87.564  1.00  0.00     0.000 C 
ENDROOT
BRANCH   1   2
ATOM      2  C   UNL     1     -25.754  46.058  87.243  1.00  0.00     0.000 C 
BRANCH   2   3
ATOM      3  C   UNL     1     -26.414  46.786  88.430  1.00  0.00     0.000 C 
BRANCH   3   4
ATOM      4  C   UNL     1     -26.073  46.171  89.804  1.00  0.00     0.000 C 
BRANCH   4   5
ATOM      5  C   UNL     1     -27.247  45.382  90.404  1.00  0.00     0.006 C 
BRANCH   5   6
ATOM      6  C   UNL     1     -26.916  43.890  90.498  1.00  0.00     0.053 C 
BRANCH   6   7
ATOM      7  C   UNL     1     -28.124  43.065  90.183  1.00  0.00     0.041 C 
ATOM      8  O   UNL     1     -28.925  42.739  91.098  1.00  0.00    -0.550 OA
ATOM      9  O   UNL     1     -28.338  42.613  88.888  1.00  0.00    -0.550 OA
ENDBRANCH   6   7
ENDBRANCH   5   6
ENDBRANCH   4   5
ENDBRANCH   3   4
ENDBRANCH   2   3
ENDBRANCH   1   2
BRANCH   1  10
ATOM     10  C   UNL     1     -23.163  46.220  87.330  1.00  0.00     0.000 C 
BRANCH  10  11
ATOM     11  C   UNL     1     -23.114  46.837  85.925  1.00  0.00    -0.000 C 
BRANCH  11  12
ATOM     12  C   UNL     1     -22.000  46.197  85.081  1.00  0.00    -0.000 C 
BRANCH  12  13
ATOM     13  C   UNL     1     -20.985  45.422  85.948  1.00  0.00    -0.000 C 
BRANCH  13  14
ATOM     14  C   UNL     1     -20.416  44.169  85.258  1.00  0.00    -0.000 C 
BRANCH  14  15
ATOM     15  C   UNL     1     -18.884  44.103  85.310  1.00  0.00    -0.003 C 
ATOM     16  C   UNL     1     -18.255  45.128  84.370  1.00  0.00     0.004 C 
ENDBRANCH  14  15
ENDBRANCH  13  14
ENDBRANCH  12  13
ENDBRANCH  11  12
ENDBRANCH  10  11
ENDBRANCH   1  10
TORSDOF 12
ENDMDL
MODEL 2
REMARK VINA RESULT:    -4.923      7.969     10.406
REMARK INTER + INTRA:          -9.167
REMARK INTER:                  -7.949
REMARK INTRA:                  -1.219
REMARK UNBOUND:                -0.791
REMARK SMILES CCCCCCCCCCCCCC(=O)[O-]
REMARK SMILES IDX 8 1 9 2 10 3 11 4 12 5 13 6 14 7 15 8 16 9 7 10 6 11 5 12
REMARK SMILES IDX 4 13 3 14 2 15 1 16
REMARK H PARENT
REMARK Flexibility Score: inf
ROOT
ATOM      1  C   UNL     1     -21.249  40.995  87.614  1.00  0.00     0.000 C 
ENDROOT
BRANCH   1   2
ATOM      2  C   UNL     1     -20.219  40.128  86.865  1.00  0.00     0.000 C 
BRANCH   2   3
ATOM      3  C   UNL     1     -20.795  38.872  86.182  1.00  0.00     0.000 C 
BRANCH   3   4
ATOM      4  C   UNL     1     -19.722  37.840  85.772  1.00  0.00     0.000 C 
BRANCH   4   5
ATOM      5  C   UNL     1     -19.166  38.095  84.364  1.00  0.00     0.006 C 
BRANCH   5   6
ATOM      6  C   UNL     1     -18.771  36.782  83.682  1.00  0.00     0.053 C 
BRANCH   6   7
ATOM      7  C   UNL     1     -17.305  36.530  83.841  1.00  0.00     0.041 C 
ATOM      8  O   UNL     1     -16.898  35.595  84.579  1.00  0.00    -0.550 OA
ATOM      9  O   UNL     1     -16.386  37.361  83.213  1.00  0.00    -0.550 OA
ENDBRANCH   6   7
ENDBRANCH   5   6
ENDBRANCH   4   5
ENDBRANCH   3   4
ENDBRANCH   2   3
ENDBRANCH   1   2
BRANCH   1  10
ATOM     10  C   UNL     1     -20.677  41.823  88.780  1.00  0.00     0.000 C 
BRANCH  10  11
ATOM     11  C   UNL     1     -19.764  41.003  89.703  1.00  0.00    -0.000 C 
BRANCH  11  12
ATOM     12  C   UNL     1     -20.562  40.396  90.869  1.00  0.00    -0.000 C 
BRANCH  12  13
ATOM     13  C   UNL     1     -20.501  38.854  90.877  1.00  0.00    -0.000 C 
BRANCH  13  14
ATOM     14  C   UNL     1     -19.213  38.285  90.256  1.00  0.00    -0.000 C 
BRANCH  14  15
ATOM     15  C   UNL     1     -19.473  37.089  89.330  1.00  0.00    -0.003 C 
ATOM     16  C   UNL     1     -18.226  36.221  89.188  1.00  0.00     0.004 C 
ENDBRANCH  14  15
ENDBRANCH  13  14
ENDBRANCH  12  13
ENDBRANCH  11  12
ENDBRANCH  10  11
ENDBRANCH   1  10
TORSDOF 12
ENDMDL
MODEL 3
REMARK VINA RESULT:    -4.911      6.227      7.921
REMARK INTER + INTRA:          -9.147
REMARK INTER:                  -8.200
REMARK INTRA:                  -0.947
REMARK UNBOUND:                -0.791
REMARK SMILES CCCCCCCCCCCCCC(=O)[O-]
REMARK SMILES IDX 8 1 9 2 10 3 11 4 12 5 13 6 14 7 15 8 16 9 7 10 6 11 5 12
REMARK SMILES IDX 4 13 3 14 2 15 1 16
REMARK H PARENT
REMARK Flexibility Score: inf
ROOT
ATOM      1  C   UNL     1     -19.893  42.506  86.124  1.00  0.00     0.000 C 
ENDROOT
BRANCH   1   2
ATOM      2  C   UNL     1     -19.892  41.176  86.901  1.00  0.00     0.000 C 
BRANCH   2   3
ATOM      3  C   UNL     1     -21.204  40.372  86.824  1.00  0.00     0.000 C 
BRANCH   3   4
ATOM      4  C   UNL     1     -21.051  38.890  87.231  1.00  0.00     0.000 C 
BRANCH   4   5
ATOM      5  C   UNL     1     -19.939  38.177  86.448  1.00  0.00     0.006 C 
BRANCH   5   6
ATOM      6  C   UNL     1     -20.266  38.125  84.952  1.00  0.00     0.053 C 
BRANCH   6   7
ATOM      7  C   UNL     1     -19.224  37.345  84.216  1.00  0.00     0.041 C 
ATOM      8  O   UNL     1     -19.225  37.316  82.957  1.00  0.00    -0.550 OA
ATOM      9  O   UNL     1     -18.281  36.607  84.920  1.00  0.00    -0.550 OA
ENDBRANCH   6   7
ENDBRANCH   5   6
ENDBRANCH   4   5
ENDBRANCH   3   4
ENDBRANCH   2   3
ENDBRANCH   1   2
BRANCH   1  10
ATOM     10  C   UNL     1     -20.290  43.743  86.952  1.00  0.00     0.000 C 
BRANCH  10  11
ATOM     11  C   UNL     1     -21.435  44.545  86.317  1.00  0.00    -0.000 C 
BRANCH  11  12
ATOM     12  C   UNL     1     -20.899  45.789  85.592  1.00  0.00    -0.000 C 
BRANCH  12  13
ATOM     13  C   UNL     1     -20.837  45.592  84.062  1.00  0.00    -0.000 C 
BRANCH  13  14
ATOM     14  C   UNL     1     -19.464  45.929  83.452  1.00  0.00    -0.000 C 
BRANCH  14  15
ATOM     15  C   UNL     1     -18.365  44.946  83.875  1.00  0.00    -0.003 C 
ATOM     16  C   UNL     1     -17.287  45.646  84.698  1.00  0.00     0.004 C 
ENDBRANCH  14  15
ENDBRANCH  13  14
ENDBRANCH  12  13
ENDBRANCH  11  12
ENDBRANCH  10  11
ENDBRANCH   1  10
TORSDOF 12
ENDMDL
MODEL 4
REMARK VINA RESULT:    -4.894      0.635      1.413
REMARK INTER + INTRA:          -9.118
REMARK INTER:                  -8.574
REMARK INTRA:                  -0.544
REMARK UNBOUND:                -0.791
REMARK SMILES CCCCCCCCCCCCCC(=O)[O-]
REMARK SMILES IDX 8 1 9 2 10 3 11 4 12 5 13 6 14 7 15 8 16 9 7 10 6 11 5 12
REMARK SMILES IDX 4 13 3 14 2 15 1 16
REMARK H PARENT
REMARK Flexibility Score: inf
ROOT
ATOM      1  C   UNL     1     -23.884  45.967  87.238  1.00  0.00     0.000 C 
ENDROOT
BRANCH   1   2
ATOM      2  C   UNL     1     -25.381  46.088  86.897  1.00  0.00     0.000 C 
BRANCH   2   3
ATOM      3  C   UNL     1     -26.296  46.445  88.085  1.00  0.00     0.000 C 
BRANCH   3   4
ATOM      4  C   UNL     1     -25.855  45.813  89.423  1.00  0.00     0.000 C 
BRANCH   4   5
ATOM      5  C   UNL     1     -27.039  45.276  90.240  1.00  0.00     0.006 C 
BRANCH   5   6
ATOM      6  C   UNL     1     -26.858  43.789  90.557  1.00  0.00     0.053 C 
BRANCH   6   7
ATOM      7  C   UNL     1     -28.093  43.024  90.203  1.00  0.00     0.041 C 
ATOM      8  O   UNL     1     -28.305  42.677  89.011  1.00  0.00    -0.550 OA
ATOM      9  O   UNL     1     -29.038  42.739  91.180  1.00  0.00    -0.550 OA
ENDBRANCH   6   7
ENDBRANCH   5   6
ENDBRANCH   4   5
ENDBRANCH   3   4
ENDBRANCH   2   3
ENDBRANCH   1   2
BRANCH   1  10
ATOM     10  C   UNL     1     -22.924  46.451  86.136  1.00  0.00     0.000 C 
BRANCH  10  11
ATOM     11  C   UNL     1     -21.515  45.854  86.267  1.00  0.00    -0.000 C 
BRANCH  11  12
ATOM     12  C   UNL     1     -21.190  44.945  85.071  1.00  0.00    -0.000 C 
BRANCH  12  13
ATOM     13  C   UNL     1     -20.095  43.909  85.407  1.00  0.00    -0.000 C 
BRANCH  13  14
ATOM     14  C   UNL     1     -18.664  44.442  85.218  1.00  0.00    -0.000 C 
BRANCH  14  15
ATOM     15  C   UNL     1     -18.524  45.359  83.996  1.00  0.00    -0.003 C 
ATOM     16  C   UNL     1     -17.587  46.528  84.288  1.00  0.00     0.004 C 
ENDBRANCH  14  15
ENDBRANCH  13  14
ENDBRANCH  12  13
ENDBRANCH  11  12
ENDBRANCH  10  11
ENDBRANCH   1  10
TORSDOF 12
ENDMDL
MODEL 5
REMARK VINA RESULT:    -4.859      1.038      1.284
REMARK INTER + INTRA:          -9.058
REMARK INTER:                  -8.453
REMARK INTRA:                  -0.605
REMARK UNBOUND:                -0.791
REMARK SMILES CCCCCCCCCCCCCC(=O)[O-]
REMARK SMILES IDX 8 1 9 2 10 3 11 4 12 5 13 6 14 7 15 8 16 9 7 10 6 11 5 12
REMARK SMILES IDX 4 13 3 14 2 15 1 16
REMARK H PARENT
REMARK Flexibility Score: inf
ROOT
ATOM      1  C   UNL     1     -24.392  46.222  86.868  1.00  0.00     0.000 C 
ENDROOT
BRANCH   1   2
ATOM      2  C   UNL     1     -25.853  46.021  87.312  1.00  0.00     0.000 C 
BRANCH   2   3
ATOM      3  C   UNL     1     -26.349  47.002  88.392  1.00  0.00     0.000 C 
BRANCH   3   4
ATOM      4  C   UNL     1     -26.672  46.328  89.743  1.00  0.00     0.000 C 
BRANCH   4   5
ATOM      5  C   UNL     1     -26.649  44.795  89.657  1.00  0.00     0.006 C 
BRANCH   5   6
ATOM      6  C   UNL     1     -27.347  44.166  90.866  1.00  0.00     0.053 C 
BRANCH   6   7
ATOM      7  C   UNL     1     -28.346  43.145  90.422  1.00  0.00     0.041 C 
ATOM      8  O   UNL     1     -29.180  42.675  91.239  1.00  0.00    -0.550 OA
ATOM      9  O   UNL     1     -28.322  42.672  89.116  1.00  0.00    -0.550 OA
ENDBRANCH   6   7
ENDBRANCH   5   6
ENDBRANCH   4   5
ENDBRANCH   3   4
ENDBRANCH   2   3
ENDBRANCH   1   2
BRANCH   1  10
ATOM     10  C   UNL     1     -23.335  45.639  87.825  1.00  0.00     0.000 C 
BRANCH  10  11
ATOM     11  C   UNL     1     -22.650  44.384  87.265  1.00  0.00    -0.000 C 
BRANCH  11  12
ATOM     12  C   UNL     1     -21.162  44.649  86.984  1.00  0.00    -0.000 C 
BRANCH  12  13
ATOM     13  C   UNL     1     -20.546  43.582  86.054  1.00  0.00    -0.000 C 
BRANCH  13  14
ATOM     14  C   UNL     1     -19.106  43.904  85.616  1.00  0.00    -0.000 C 
BRANCH  14  15
ATOM     15  C   UNL     1     -19.047  44.867  84.422  1.00  0.00    -0.003 C 
ATOM     16  C   UNL     1     -17.708  45.599  84.371  1.00  0.00     0.004 C 
ENDBRANCH  14  15
ENDBRANCH  13  14
ENDBRANCH  12  13
ENDBRANCH  11  12
ENDBRANCH  10  11
ENDBRANCH   1  10
TORSDOF 12
ENDMDL
MODEL 6
REMARK VINA RESULT:    -4.850      6.689      8.804
REMARK INTER + INTRA:          -9.043
REMARK INTER:                  -8.195
REMARK INTRA:                  -0.849
REMARK UNBOUND:                -0.791
REMARK SMILES CCCCCCCCCCCCCC(=O)[O-]
REMARK SMILES IDX 8 1 9 2 10 3 11 4 12 5 13 6 14 7 15 8 16 9 7 10 6 11 5 12
REMARK SMILES IDX 4 13 3 14 2 15 1 16
REMARK H PARENT
REMARK Flexibility Score: inf
ROOT
ATOM      1  C   UNL     1     -19.871  40.927  88.115  1.00  0.00     0.000 C 
ENDROOT
BRANCH   1   2
ATOM      2  C   UNL     1     -20.706  39.638  88.219  1.00  0.00     0.000 C 
BRANCH   2   3
ATOM      3  C   UNL     1     -21.200  39.068  86.874  1.00  0.00     0.000 C 
BRANCH   3   4
ATOM      4  C   UNL     1     -20.259  38.005  86.267  1.00  0.00     0.000 C 
BRANCH   4   5
ATOM      5  C   UNL     1     -19.547  38.502  85.000  1.00  0.00     0.006 C 
BRANCH   5   6
ATOM      6  C   UNL     1     -19.372  37.368  83.986  1.00  0.00     0.053 C 
BRANCH   6   7
ATOM      7  C   UNL     1     -17.981  36.822  84.046  1.00  0.00     0.041 C 
ATOM      8  O   UNL     1     -17.682  35.940  84.894  1.00  0.00    -0.550 OA
ATOM      9  O   UNL     1     -17.001  37.324  83.200  1.00  0.00    -0.550 OA
ENDBRANCH   6   7
ENDBRANCH   5   6
ENDBRANCH   4   5
ENDBRANCH   3   4
ENDBRANCH   2   3
ENDBRANCH   1   2
BRANCH   1  10
ATOM     10  C   UNL     1     -20.635  42.226  88.434  1.00  0.00     0.000 C 
BRANCH  10  11
ATOM     11  C   UNL     1     -21.241  42.884  87.186  1.00  0.00    -0.000 C 
BRANCH  11  12
ATOM     12  C   UNL     1     -20.303  42.739  85.977  1.00  0.00    -0.000 C 
BRANCH  12  13
ATOM     13  C   UNL     1     -19.875  44.107  85.403  1.00  0.00    -0.000 C 
BRANCH  13  14
ATOM     14  C   UNL     1     -18.365  44.377  85.517  1.00  0.00    -0.000 C 
BRANCH  14  15
ATOM     15  C   UNL     1     -17.840  45.305  84.413  1.00  0.00    -0.003 C 
ATOM     16  C   UNL     1     -18.887  45.511  83.322  1.00  0.00     0.004 C 
ENDBRANCH  14  15
ENDBRANCH  13  14
ENDBRANCH  12  13
ENDBRANCH  11  12
ENDBRANCH  10  11
ENDBRANCH   1  10
TORSDOF 12
ENDMDL
MODEL 7
REMARK VINA RESULT:    -4.828      4.716      6.867
REMARK INTER + INTRA:          -9.006
REMARK INTER:                  -7.585
REMARK INTRA:                  -1.421
REMARK UNBOUND:                -0.791
REMARK SMILES CCCCCCCCCCCCCC(=O)[O-]
REMARK SMILES IDX 8 1 9 2 10 3 11 4 12 5 13 6 14 7 15 8 16 9 7 10 6 11 5 12
REMARK SMILES IDX 4 13 3 14 2 15 1 16
REMARK H PARENT
REMARK Flexibility Score: inf
ROOT
ATOM      1  C   UNL     1     -17.964  45.183  84.175  1.00  0.00     0.000 C 
ENDROOT
BRANCH   1   2
ATOM      2  C   UNL     1     -18.435  44.596  85.519  1.00  0.00     0.000 C 
BRANCH   2   3
ATOM      3  C   UNL     1     -19.424  43.419  85.409  1.00  0.00     0.000 C 
BRANCH   3   4
ATOM      4  C   UNL     1     -20.543  43.446  86.473  1.00  0.00     0.000 C 
BRANCH   4   5
ATOM      5  C   UNL     1     -20.992  42.038  86.891  1.00  0.00     0.006 C 
BRANCH   5   6
ATOM      6  C   UNL     1     -19.805  41.071  86.930  1.00  0.00     0.053 C 
BRANCH   6   7
ATOM      7  C   UNL     1     -20.280  39.665  87.116  1.00  0.00     0.041 C 
ATOM      8  O   UNL     1     -20.404  38.902  86.123  1.00  0.00    -0.550 OA
ATOM      9  O   UNL     1     -20.636  39.213  88.380  1.00  0.00    -0.550 OA
ENDBRANCH   6   7
ENDBRANCH   5   6
ENDBRANCH   4   5
ENDBRANCH   3   4
ENDBRANCH   2   3
ENDBRANCH   1   2
BRANCH   1  10
ATOM     10  C   UNL     1     -18.593  46.538  83.801  1.00  0.00     0.000 C 
BRANCH  10  11
ATOM     11  C   UNL     1     -19.422  46.475  82.509  1.00  0.00    -0.000 C 
BRANCH  11  12
ATOM     12  C   UNL     1     -20.882  46.875  82.772  1.00  0.00    -0.000 C 
BRANCH  12  13
ATOM     13  C   UNL     1     -21.541  45.998  83.858  1.00  0.00    -0.000 C 
BRANCH  13  14
ATOM     14  C   UNL     1     -22.274  46.806  84.943  1.00  0.00    -0.000 C 
BRANCH  14  15
ATOM     15  C   UNL     1     -21.430  47.010  86.208  1.00  0.00    -0.003 C 
ATOM     16  C   UNL     1     -22.212  46.620  87.460  1.00  0.00     0.004 C 
ENDBRANCH  14  15
ENDBRANCH  13  14
ENDBRANCH  12  13
ENDBRANCH  11  12
ENDBRANCH  10  11
ENDBRANCH   1  10
TORSDOF 12
ENDMDL
MODEL 8
REMARK VINA RESULT:    -4.746      5.763      6.755
REMARK INTER + INTRA:          -8.866
REMARK INTER:                  -7.875
REMARK INTRA:                  -0.991
REMARK UNBOUND:                -0.791
REMARK SMILES CCCCCCCCCCCCCC(=O)[O-]
REMARK SMILES IDX 8 1 9 2 10 3 11 4 12 5 13 6 14 7 15 8 16 9 7 10 6 11 5 12
REMARK SMILES IDX 4 13 3 14 2 15 1 16
REMARK H PARENT
REMARK Flexibility Score: inf
ROOT
ATOM      1  C   UNL     1     -20.221  42.990  86.032  1.00  0.00     0.000 C 
ENDROOT
BRANCH   1   2
ATOM      2  C   UNL     1     -20.288  41.835  87.049  1.00  0.00     0.000 C 
BRANCH   2   3
ATOM      3  C   UNL     1     -21.023  42.162  88.363  1.00  0.00     0.000 C 
BRANCH   3   4
ATOM      4  C   UNL     1     -20.769  41.138  89.490  1.00  0.00     0.000 C 
BRANCH   4   5
ATOM      5  C   UNL     1     -20.569  39.712  88.956  1.00  0.00     0.006 C 
BRANCH   5   6
ATOM      6  C   UNL     1     -20.438  38.708  90.104  1.00  0.00     0.053 C 
BRANCH   6   7
ATOM      7  C   UNL     1     -19.139  37.972  90.011  1.00  0.00     0.041 C 
ATOM      8  O   UNL     1     -18.088  38.479  90.485  1.00  0.00    -0.550 OA
ATOM      9  O   UNL     1     -19.077  36.750  89.354  1.00  0.00    -0.550 OA
ENDBRANCH   6   7
ENDBRANCH   5   6
ENDBRANCH   4   5
ENDBRANCH   3   4
ENDBRANCH   2   3
ENDBRANCH   1   2
BRANCH   1  10
ATOM     10  C   UNL     1     -20.405  44.397  86.631  1.00  0.00     0.000 C 
BRANCH  10  11
ATOM     11  C   UNL     1     -21.414  45.251  85.850  1.00  0.00    -0.000 C 
BRANCH  11  12
ATOM     12  C   UNL     1     -20.876  45.597  84.452  1.00  0.00    -0.000 C 
BRANCH  12  13
ATOM     13  C   UNL     1     -20.104  46.934  84.439  1.00  0.00    -0.000 C 
BRANCH  13  14
ATOM     14  C   UNL     1     -18.668  46.811  83.899  1.00  0.00    -0.000 C 
BRANCH  14  15
ATOM     15  C   UNL     1     -18.157  45.364  83.886  1.00  0.00    -0.003 C 
ATOM     16  C   UNL     1     -17.190  45.111  85.040  1.00  0.00     0.004 C 
ENDBRANCH  14  15
ENDBRANCH  13  14
ENDBRANCH  12  13
ENDBRANCH  11  12
ENDBRANCH  10  11
ENDBRANCH   1  10
TORSDOF 12
ENDMDL
MODEL 9
REMARK VINA RESULT:    -4.708      1.250      2.503
REMARK INTER + INTRA:          -8.801
REMARK INTER:                  -8.091
REMARK INTRA:                  -0.711
REMARK UNBOUND:                -0.791
REMARK SMILES CCCCCCCCCCCCCC(=O)[O-]
REMARK SMILES IDX 8 1 9 2 10 3 11 4 12 5 13 6 14 7 15 8 16 9 7 10 6 11 5 12
REMARK SMILES IDX 4 13 3 14 2 15 1 16
REMARK H PARENT
REMARK Flexibility Score: inf
ROOT
ATOM      1  C   UNL     1     -22.255  45.034  86.858  1.00  0.00     0.000 C 
ENDROOT
BRANCH   1   2
ATOM      2  C   UNL     1     -23.154  45.116  88.106  1.00  0.00     0.000 C 
BRANCH   2   3
ATOM      3  C   UNL     1     -24.662  45.254  87.818  1.00  0.00     0.000 C 
BRANCH   3   4
ATOM      4  C   UNL     1     -25.527  45.401  89.089  1.00  0.00     0.000 C 
BRANCH   4   5
ATOM      5  C   UNL     1     -25.882  44.047  89.721  1.00  0.00     0.006 C 
BRANCH   5   6
ATOM      6  C   UNL     1     -27.119  44.165  90.615  1.00  0.00     0.053 C 
BRANCH   6   7
ATOM      7  C   UNL     1     -28.132  43.127  90.248  1.00  0.00     0.041 C 
ATOM      8  O   UNL     1     -28.935  42.690  91.113  1.00  0.00    -0.550 OA
ATOM      9  O   UNL     1     -28.155  42.604  88.961  1.00  0.00    -0.550 OA
ENDBRANCH   6   7
ENDBRANCH   5   6
ENDBRANCH   4   5
ENDBRANCH   3   4
ENDBRANCH   2   3
ENDBRANCH   1   2
BRANCH   1  10
ATOM     10  C   UNL     1     -20.891  44.355  87.083  1.00  0.00     0.000 C 
BRANCH  10  11
ATOM     11  C   UNL     1     -20.627  43.204  86.101  1.00  0.00    -0.000 C 
BRANCH  11  12
ATOM     12  C   UNL     1     -19.253  43.356  85.431  1.00  0.00    -0.000 C 
BRANCH  12  13
ATOM     13  C   UNL     1     -18.866  44.836  85.221  1.00  0.00    -0.000 C 
BRANCH  13  14
ATOM     14  C   UNL     1     -18.608  45.202  83.749  1.00  0.00    -0.000 C 
BRANCH  14  15
ATOM     15  C   UNL     1     -19.520  46.328  83.244  1.00  0.00    -0.003 C 
ATOM     16  C   UNL     1     -20.909  45.798  82.899  1.00  0.00     0.004 C 
ENDBRANCH  14  15
ENDBRANCH  13  14
ENDBRANCH  12  13
ENDBRANCH  11  12
ENDBRANCH  10  11
ENDBRANCH   1  10
TORSDOF 12
ENDMDL
