MODEL 1
REMARK VINA RESULT:    -4.223      0.000      0.000
REMARK INTER + INTRA:          -9.482
REMARK INTER:                  -7.432
REMARK INTRA:                  -2.050
REMARK UNBOUND:                -2.050
REMARK SMILES CCCCCCC=CCCCCCCCC(=O)[O-]
REMARK SMILES IDX 10 1 11 2 12 3 13 4 14 5 15 6 16 7 17 8 18 9 9 10 8 11 7 12
REMARK SMILES IDX 6 13 5 14 4 15 3 16 2 17 1 18
REMARK H PARENT
REMARK Flexibility Score: inf
ROOT
ATOM      1  C   UNL     1      21.222  19.866  23.392  1.00  0.00     0.004 C 
ENDROOT
BRANCH   1   2
ATOM      2  C   UNL     1      20.639  18.662  24.152  1.00  0.00     0.000 C 
BRANCH   2   3
ATOM      3  C   UNL     1      19.188  18.892  24.605  1.00  0.00     0.000 C 
BRANCH   3   4
ATOM      4  C   UNL     1      18.223  19.076  23.421  1.00  0.00     0.000 C 
BRANCH   4   5
ATOM      5  C   UNL     1      17.095  20.076  23.729  1.00  0.00     0.006 C 
BRANCH   5   6
ATOM      6  C   UNL     1      17.552  21.536  23.625  1.00  0.00     0.053 C 
BRANCH   6   7
ATOM      7  C   UNL     1      17.726  22.127  24.989  1.00  0.00     0.041 C 
ATOM      8  O   UNL     1      16.791  22.067  25.829  1.00  0.00    -0.550 OA
ATOM      9  O   UNL     1      18.906  22.783  25.317  1.00  0.00    -0.550 OA
ENDBRANCH   6   7
ENDBRANCH   5   6
ENDBRANCH   4   5
ENDBRANCH   3   4
ENDBRANCH   2   3
ENDBRANCH   1   2
BRANCH   1  10
ATOM     10  C   UNL     1      21.689  19.486  21.979  1.00  0.00     0.027 C 
BRANCH  10  11
ATOM     11  C   UNL     1      20.699  19.887  20.919  1.00  0.00    -0.031 C 
ATOM     12  C   UNL     1      20.013  21.038  20.995  1.00  0.00    -0.031 C 
BRANCH  12  13
ATOM     13  C   UNL     1      19.019  21.434  19.940  1.00  0.00     0.027 C 
BRANCH  13  14
ATOM     14  C   UNL     1      17.831  20.461  19.906  1.00  0.00     0.004 C 
BRANCH  14  15
ATOM     15  C   UNL     1      16.478  21.185  19.823  1.00  0.00     0.000 C 
BRANCH  15  16
ATOM     16  C   UNL     1      16.565  22.657  20.260  1.00  0.00    -0.000 C 
BRANCH  16  17
ATOM     17  C   UNL     1      16.032  23.621  19.189  1.00  0.00    -0.003 C 
ATOM     18  C   UNL     1      16.924  23.677  17.949  1.00  0.00     0.004 C 
ENDBRANCH  16  17
ENDBRANCH  15  16
ENDBRANCH  14  15
ENDBRANCH  13  14
ENDBRANCH  12  13
ENDBRANCH  10  11
ENDBRANCH   1  10
TORSDOF 13
ENDMDL
MODEL 2
REMARK VINA RESULT:    -4.135     13.155     15.093
REMARK INTER + INTRA:          -9.328
REMARK INTER:                  -7.963
REMARK INTRA:                  -1.366
REMARK UNBOUND:                -2.050
REMARK SMILES CCCCCCC=CCCCCCCCC(=O)[O-]
REMARK SMILES IDX 10 1 11 2 12 3 13 4 14 5 15 6 16 7 17 8 18 9 9 10 8 11 7 12
REMARK SMILES IDX 6 13 5 14 4 15 3 16 2 17 1 18
REMARK H PARENT
REMARK Flexibility Score: inf
ROOT
ATOM      1  C   UNL     1      20.186  31.626  34.674  1.00  0.00     0.004 C 
ENDROOT
BRANCH   1   2
ATOM      2  C   UNL     1      19.889  32.556  33.486  1.00  0.00     0.000 C 
BRANCH   2   3
ATOM      3  C   UNL     1      19.080  31.864  32.377  1.00  0.00     0.000 C 
BRANCH   3   4
ATOM      4  C   UNL     1      19.439  32.382  30.973  1.00  0.00     0.000 C 
BRANCH   4   5
ATOM      5  C   UNL     1      20.951  32.590  30.790  1.00  0.00     0.006 C 
BRANCH   5   6
ATOM      6  C   UNL     1      21.288  33.923  30.110  1.00  0.00     0.053 C 
BRANCH   6   7
ATOM      7  C   UNL     1      21.901  33.683  28.766  1.00  0.00     0.041 C 
ATOM      8  O   UNL     1      22.404  34.639  28.120  1.00  0.00    -0.550 OA
ATOM      9  O   UNL     1      21.876  32.411  28.207  1.00  0.00    -0.550 OA
ENDBRANCH   6   7
ENDBRANCH   5   6
ENDBRANCH   4   5
ENDBRANCH   3   4
ENDBRANCH   2   3
ENDBRANCH   1   2
BRANCH   1  10
ATOM     10  C   UNL     1      21.233  30.557  34.324  1.00  0.00     0.027 C 
BRANCH  10  11
ATOM     11  C   UNL     1      20.668  29.162  34.372  1.00  0.00    -0.031 C 
ATOM     12  C   UNL     1      21.462  28.085  34.476  1.00  0.00    -0.031 C 
BRANCH  12  13
ATOM     13  C   UNL     1      20.897  26.692  34.517  1.00  0.00     0.027 C 
BRANCH  13  14
ATOM     14  C   UNL     1      19.410  26.710  34.903  1.00  0.00     0.004 C 
BRANCH  14  15
ATOM     15  C   UNL     1      18.542  25.884  33.940  1.00  0.00     0.000 C 
BRANCH  15  16
ATOM     16  C   UNL     1      17.184  26.547  33.649  1.00  0.00    -0.000 C 
BRANCH  16  17
ATOM     17  C   UNL     1      17.202  28.062  33.907  1.00  0.00    -0.003 C 
ATOM     18  C   UNL     1      16.780  28.874  32.683  1.00  0.00     0.004 C 
ENDBRANCH  16  17
ENDBRANCH  15  16
ENDBRANCH  14  15
ENDBRANCH  13  14
ENDBRANCH  12  13
ENDBRANCH  10  11
ENDBRANCH   1  10
TORSDOF 13
ENDMDL
MODEL 3
REMARK VINA RESULT:    -4.101      1.581      4.259
REMARK INTER + INTRA:          -9.267
REMARK INTER:                  -6.653
REMARK INTRA:                  -2.614
REMARK UNBOUND:                -2.050
REMARK SMILES CCCCCCC=CCCCCCCCC(=O)[O-]
REMARK SMILES IDX 10 1 11 2 12 3 13 4 14 5 15 6 16 7 17 8 18 9 9 10 8 11 7 12
REMARK SMILES IDX 6 13 5 14 4 15 3 16 2 17 1 18
REMARK H PARENT
REMARK Flexibility Score: inf
ROOT
ATOM      1  C   UNL     1      20.984  20.147  20.902  1.00  0.00     0.004 C 
ENDROOT
BRANCH   1   2
ATOM      2  C   UNL     1      19.984  21.280  21.187  1.00  0.00     0.000 C 
BRANCH   2   3
ATOM      3  C   UNL     1      18.638  21.077  20.472  1.00  0.00     0.000 C 
BRANCH   3   4
ATOM      4  C   UNL     1      17.434  21.358  21.389  1.00  0.00     0.000 C 
BRANCH   4   5
ATOM      5  C   UNL     1      17.843  22.031  22.710  1.00  0.00     0.006 C 
BRANCH   5   6
ATOM      6  C   UNL     1      16.873  21.724  23.858  1.00  0.00     0.053 C 
BRANCH   6   7
ATOM      7  C   UNL     1      17.500  22.059  25.174  1.00  0.00     0.041 C 
ATOM      8  O   UNL     1      18.671  22.518  25.220  1.00  0.00    -0.550 OA
ATOM      9  O   UNL     1      16.806  21.823  26.355  1.00  0.00    -0.550 OA
ENDBRANCH   6   7
ENDBRANCH   5   6
ENDBRANCH   4   5
ENDBRANCH   3   4
ENDBRANCH   2   3
ENDBRANCH   1   2
BRANCH   1  10
ATOM     10  C   UNL     1      21.718  19.691  22.173  1.00  0.00     0.027 C 
BRANCH  10  11
ATOM     11  C   UNL     1      20.870  19.834  23.409  1.00  0.00    -0.031 C 
ATOM     12  C   UNL     1      20.317  18.769  24.011  1.00  0.00    -0.031 C 
BRANCH  12  13
ATOM     13  C   UNL     1      19.465  18.914  25.241  1.00  0.00     0.027 C 
BRANCH  13  14
ATOM     14  C   UNL     1      18.049  18.369  24.999  1.00  0.00     0.004 C 
BRANCH  14  15
ATOM     15  C   UNL     1      18.015  17.275  23.919  1.00  0.00     0.000 C 
BRANCH  15  16
ATOM     16  C   UNL     1      17.026  17.591  22.785  1.00  0.00    -0.000 C 
BRANCH  16  17
ATOM     17  C   UNL     1      17.726  17.797  21.433  1.00  0.00    -0.003 C 
ATOM     18  C   UNL     1      18.931  16.875  21.247  1.00  0.00     0.004 C 
ENDBRANCH  16  17
ENDBRANCH  15  16
ENDBRANCH  14  15
ENDBRANCH  13  14
ENDBRANCH  12  13
ENDBRANCH  10  11
ENDBRANCH   1  10
TORSDOF 13
ENDMDL
MODEL 4
REMARK VINA RESULT:    -4.010     13.978     16.075
REMARK INTER + INTRA:          -9.108
REMARK INTER:                  -8.320
REMARK INTRA:                  -0.788
REMARK UNBOUND:                -2.050
REMARK SMILES CCCCCCC=CCCCCCCCC(=O)[O-]
REMARK SMILES IDX 10 1 11 2 12 3 13 4 14 5 15 6 16 7 17 8 18 9 9 10 8 11 7 12
REMARK SMILES IDX 6 13 5 14 4 15 3 16 2 17 1 18
REMARK H PARENT
REMARK Flexibility Score: inf
ROOT
ATOM      1  C   UNL     1      20.900  32.486  31.182  1.00  0.00     0.004 C 
ENDROOT
BRANCH   1   2
ATOM      2  C   UNL     1      19.447  32.204  31.600  1.00  0.00     0.000 C 
BRANCH   2   3
ATOM      3  C   UNL     1      19.341  31.623  33.020  1.00  0.00     0.000 C 
BRANCH   3   4
ATOM      4  C   UNL     1      20.697  31.140  33.563  1.00  0.00     0.000 C 
BRANCH   4   5
ATOM      5  C   UNL     1      20.591  29.798  34.306  1.00  0.00     0.006 C 
BRANCH   5   6
ATOM      6  C   UNL     1      21.858  28.944  34.173  1.00  0.00     0.053 C 
BRANCH   6   7
ATOM      7  C   UNL     1      21.552  27.508  34.457  1.00  0.00     0.041 C 
ATOM      8  O   UNL     1      20.670  27.203  35.302  1.00  0.00    -0.550 OA
ATOM      9  O   UNL     1      22.274  26.504  33.822  1.00  0.00    -0.550 OA
ENDBRANCH   6   7
ENDBRANCH   5   6
ENDBRANCH   4   5
ENDBRANCH   3   4
ENDBRANCH   2   3
ENDBRANCH   1   2
BRANCH   1  10
ATOM     10  C   UNL     1      21.034  32.699  29.666  1.00  0.00     0.027 C 
BRANCH  10  11
ATOM     11  C   UNL     1      21.860  33.911  29.327  1.00  0.00    -0.031 C 
ATOM     12  C   UNL     1      22.230  34.796  30.266  1.00  0.00    -0.031 C 
BRANCH  12  13
ATOM     13  C   UNL     1      23.049  36.009  29.925  1.00  0.00     0.027 C 
BRANCH  13  14
ATOM     14  C   UNL     1      23.424  36.022  28.436  1.00  0.00     0.004 C 
BRANCH  14  15
ATOM     15  C   UNL     1      24.881  36.452  28.198  1.00  0.00     0.000 C 
BRANCH  15  16
ATOM     16  C   UNL     1      25.783  36.189  29.416  1.00  0.00    -0.000 C 
BRANCH  16  17
ATOM     17  C   UNL     1      27.256  35.990  29.027  1.00  0.00    -0.003 C 
ATOM     18  C   UNL     1      27.870  34.742  29.660  1.00  0.00     0.004 C 
ENDBRANCH  16  17
ENDBRANCH  15  16
ENDBRANCH  14  15
ENDBRANCH  13  14
ENDBRANCH  12  13
ENDBRANCH  10  11
ENDBRANCH   1  10
TORSDOF 13
ENDMDL
MODEL 5
REMARK VINA RESULT:    -3.985      1.194      2.026
REMARK INTER + INTRA:          -9.064
REMARK INTER:                  -7.209
REMARK INTRA:                  -1.855
REMARK UNBOUND:                -2.050
REMARK SMILES CCCCCCC=CCCCCCCCC(=O)[O-]
REMARK SMILES IDX 10 1 11 2 12 3 13 4 14 5 15 6 16 7 17 8 18 9 9 10 8 11 7 12
REMARK SMILES IDX 6 13 5 14 4 15 3 16 2 17 1 18
REMARK H PARENT
REMARK Flexibility Score: inf
ROOT
ATOM      1  C   UNL     1      21.072  20.292  21.578  1.00  0.00     0.004 C 
ENDROOT
BRANCH   1   2
ATOM      2  C   UNL     1      21.691  19.395  22.662  1.00  0.00     0.000 C 
BRANCH   2   3
ATOM      3  C   UNL     1      21.139  19.694  24.066  1.00  0.00     0.000 C 
BRANCH   3   4
ATOM      4  C   UNL     1      19.956  18.784  24.441  1.00  0.00     0.000 C 
BRANCH   4   5
ATOM      5  C   UNL     1      18.649  19.568  24.643  1.00  0.00     0.006 C 
BRANCH   5   6
ATOM      6  C   UNL     1      18.710  20.524  25.842  1.00  0.00     0.053 C 
BRANCH   6   7
ATOM      7  C   UNL     1      18.067  21.831  25.499  1.00  0.00     0.041 C 
ATOM      8  O   UNL     1      16.815  21.954  25.552  1.00  0.00    -0.550 OA
ATOM      9  O   UNL     1      18.848  22.901  25.078  1.00  0.00    -0.550 OA
ENDBRANCH   6   7
ENDBRANCH   5   6
ENDBRANCH   4   5
ENDBRANCH   3   4
ENDBRANCH   2   3
ENDBRANCH   1   2
BRANCH   1  10
ATOM     10  C   UNL     1      19.971  19.569  20.787  1.00  0.00     0.027 C 
BRANCH  10  11
ATOM     11  C   UNL     1      18.629  20.235  20.932  1.00  0.00    -0.031 C 
ATOM     12  C   UNL     1      18.498  21.436  21.518  1.00  0.00    -0.031 C 
BRANCH  12  13
ATOM     13  C   UNL     1      17.156  22.096  21.668  1.00  0.00     0.027 C 
BRANCH  13  14
ATOM     14  C   UNL     1      16.377  22.073  20.344  1.00  0.00     0.004 C 
BRANCH  14  15
ATOM     15  C   UNL     1      16.273  23.463  19.696  1.00  0.00     0.000 C 
BRANCH  15  16
ATOM     16  C   UNL     1      16.868  23.503  18.278  1.00  0.00    -0.000 C 
BRANCH  16  17
ATOM     17  C   UNL     1      18.073  22.563  18.119  1.00  0.00    -0.003 C 
ATOM     18  C   UNL     1      17.804  21.421  17.139  1.00  0.00     0.004 C 
ENDBRANCH  16  17
ENDBRANCH  15  16
ENDBRANCH  14  15
ENDBRANCH  13  14
ENDBRANCH  12  13
ENDBRANCH  10  11
ENDBRANCH   1  10
TORSDOF 13
ENDMDL
MODEL 6
REMARK VINA RESULT:    -3.977     14.158     16.961
REMARK INTER + INTRA:          -9.049
REMARK INTER:                  -8.416
REMARK INTRA:                  -0.633
REMARK UNBOUND:                -2.050
REMARK SMILES CCCCCCC=CCCCCCCCC(=O)[O-]
REMARK SMILES IDX 10 1 11 2 12 3 13 4 14 5 15 6 16 7 17 8 18 9 9 10 8 11 7 12
REMARK SMILES IDX 6 13 5 14 4 15 3 16 2 17 1 18
REMARK H PARENT
REMARK Flexibility Score: inf
ROOT
ATOM      1  C   UNL     1      21.488  33.128  30.011  1.00  0.00     0.004 C 
ENDROOT
BRANCH   1   2
ATOM      2  C   UNL     1      21.734  34.640  29.883  1.00  0.00     0.000 C 
BRANCH   2   3
ATOM      3  C   UNL     1      22.593  35.000  28.660  1.00  0.00     0.000 C 
BRANCH   3   4
ATOM      4  C   UNL     1      23.389  36.302  28.860  1.00  0.00     0.000 C 
BRANCH   4   5
ATOM      5  C   UNL     1      24.564  36.132  29.837  1.00  0.00     0.006 C 
BRANCH   5   6
ATOM      6  C   UNL     1      25.819  36.893  29.394  1.00  0.00     0.053 C 
BRANCH   6   7
ATOM      7  C   UNL     1      26.743  35.986  28.644  1.00  0.00     0.041 C 
ATOM      8  O   UNL     1      26.668  35.902  27.390  1.00  0.00    -0.550 OA
ATOM      9  O   UNL     1      27.657  35.198  29.334  1.00  0.00    -0.550 OA
ENDBRANCH   6   7
ENDBRANCH   5   6
ENDBRANCH   4   5
ENDBRANCH   3   4
ENDBRANCH   2   3
ENDBRANCH   1   2
BRANCH   1  10
ATOM     10  C   UNL     1      19.992  32.790  30.091  1.00  0.00     0.027 C 
BRANCH  10  11
ATOM     11  C   UNL     1      19.607  32.193  31.419  1.00  0.00    -0.031 C 
ATOM     12  C   UNL     1      20.433  32.238  32.476  1.00  0.00    -0.031 C 
BRANCH  12  13
ATOM     13  C   UNL     1      20.051  31.635  33.799  1.00  0.00     0.027 C 
BRANCH  13  14
ATOM     14  C   UNL     1      20.745  30.281  34.010  1.00  0.00     0.004 C 
BRANCH  14  15
ATOM     15  C   UNL     1      19.862  29.279  34.773  1.00  0.00     0.000 C 
BRANCH  15  16
ATOM     16  C   UNL     1      20.669  28.112  35.367  1.00  0.00    -0.000 C 
BRANCH  16  17
ATOM     17  C   UNL     1      21.789  27.633  34.432  1.00  0.00    -0.003 C 
ATOM     18  C   UNL     1      21.711  26.136  34.136  1.00  0.00     0.004 C 
ENDBRANCH  16  17
ENDBRANCH  15  16
ENDBRANCH  14  15
ENDBRANCH  13  14
ENDBRANCH  12  13
ENDBRANCH  10  11
ENDBRANCH   1  10
TORSDOF 13
ENDMDL
MODEL 7
REMARK VINA RESULT:    -3.932      1.207      2.282
REMARK INTER + INTRA:          -8.971
REMARK INTER:                  -6.693
REMARK INTRA:                  -2.278
REMARK UNBOUND:                -2.050
REMARK SMILES CCCCCCC=CCCCCCCCC(=O)[O-]
REMARK SMILES IDX 10 1 11 2 12 3 13 4 14 5 15 6 16 7 17 8 18 9 9 10 8 11 7 12
REMARK SMILES IDX 6 13 5 14 4 15 3 16 2 17 1 18
REMARK H PARENT
REMARK Flexibility Score: inf
ROOT
ATOM      1  C   UNL     1      21.247  19.881  23.222  1.00  0.00     0.004 C 
ENDROOT
BRANCH   1   2
ATOM      2  C   UNL     1      20.623  18.860  24.188  1.00  0.00     0.000 C 
BRANCH   2   3
ATOM      3  C   UNL     1      19.606  17.936  23.499  1.00  0.00     0.000 C 
BRANCH   3   4
ATOM      4  C   UNL     1      18.213  18.579  23.375  1.00  0.00     0.000 C 
BRANCH   4   5
ATOM      5  C   UNL     1      17.924  19.581  24.505  1.00  0.00     0.006 C 
BRANCH   5   6
ATOM      6  C   UNL     1      17.688  21.006  23.988  1.00  0.00     0.053 C 
BRANCH   6   7
ATOM      7  C   UNL     1      17.747  21.987  25.117  1.00  0.00     0.041 C 
ATOM      8  O   UNL     1      16.792  22.073  25.932  1.00  0.00    -0.550 OA
ATOM      9  O   UNL     1      18.839  22.838  25.243  1.00  0.00    -0.550 OA
ENDBRANCH   6   7
ENDBRANCH   5   6
ENDBRANCH   4   5
ENDBRANCH   3   4
ENDBRANCH   2   3
ENDBRANCH   1   2
BRANCH   1  10
ATOM     10  C   UNL     1      21.514  19.276  21.835  1.00  0.00     0.027 C 
BRANCH  10  11
ATOM     11  C   UNL     1      20.662  19.899  20.762  1.00  0.00    -0.031 C 
ATOM     12  C   UNL     1      19.878  20.959  21.013  1.00  0.00    -0.031 C 
BRANCH  12  13
ATOM     13  C   UNL     1      19.022  21.577  19.942  1.00  0.00     0.027 C 
BRANCH  13  14
ATOM     14  C   UNL     1      17.555  21.662  20.389  1.00  0.00     0.004 C 
BRANCH  14  15
ATOM     15  C   UNL     1      16.639  20.720  19.589  1.00  0.00     0.000 C 
BRANCH  15  16
ATOM     16  C   UNL     1      16.556  19.312  20.203  1.00  0.00    -0.000 C 
BRANCH  16  17
ATOM     17  C   UNL     1      17.103  18.227  19.263  1.00  0.00    -0.003 C 
ATOM     18  C   UNL     1      18.173  17.358  19.924  1.00  0.00     0.004 C 
ENDBRANCH  16  17
ENDBRANCH  15  16
ENDBRANCH  14  15
ENDBRANCH  13  14
ENDBRANCH  12  13
ENDBRANCH  10  11
ENDBRANCH   1  10
TORSDOF 13
ENDMDL
MODEL 8
REMARK VINA RESULT:    -3.922     16.675     18.318
REMARK INTER + INTRA:          -8.953
REMARK INTER:                  -6.901
REMARK INTRA:                  -2.052
REMARK UNBOUND:                -2.050
REMARK SMILES CCCCCCC=CCCCCCCCC(=O)[O-]
REMARK SMILES IDX 10 1 11 2 12 3 13 4 14 5 15 6 16 7 17 8 18 9 9 10 8 11 7 12
REMARK SMILES IDX 6 13 5 14 4 15 3 16 2 17 1 18
REMARK H PARENT
REMARK Flexibility Score: inf
ROOT
ATOM      1  C   UNL     1      31.621  31.607  18.992  1.00  0.00     0.004 C 
ENDROOT
BRANCH   1   2
ATOM      2  C   UNL     1      31.276  32.163  17.600  1.00  0.00     0.000 C 
BRANCH   2   3
ATOM      3  C   UNL     1      30.168  33.228  17.645  1.00  0.00     0.000 C 
BRANCH   3   4
ATOM      4  C   UNL     1      29.248  33.173  16.412  1.00  0.00     0.000 C 
BRANCH   4   5
ATOM      5  C   UNL     1      28.428  31.874  16.345  1.00  0.00     0.006 C 
BRANCH   5   6
ATOM      6  C   UNL     1      27.371  31.781  17.453  1.00  0.00     0.053 C 
BRANCH   6   7
ATOM      7  C   UNL     1      27.461  30.461  18.150  1.00  0.00     0.041 C 
ATOM      8  O   UNL     1      28.407  30.228  18.947  1.00  0.00    -0.550 OA
ATOM      9  O   UNL     1      26.524  29.468  17.885  1.00  0.00    -0.550 OA
ENDBRANCH   6   7
ENDBRANCH   5   6
ENDBRANCH   4   5
ENDBRANCH   3   4
ENDBRANCH   2   3
ENDBRANCH   1   2
BRANCH   1  10
ATOM     10  C   UNL     1      30.874  32.347  20.112  1.00  0.00     0.027 C 
BRANCH  10  11
ATOM     11  C   UNL     1      31.779  32.726  21.254  1.00  0.00    -0.031 C 
ATOM     12  C   UNL     1      33.052  32.304  21.313  1.00  0.00    -0.031 C 
BRANCH  12  13
ATOM     13  C   UNL     1      33.952  32.677  22.457  1.00  0.00     0.027 C 
BRANCH  13  14
ATOM     14  C   UNL     1      34.193  34.194  22.499  1.00  0.00     0.004 C 
BRANCH  14  15
ATOM     15  C   UNL     1      34.869  34.719  21.222  1.00  0.00     0.000 C 
BRANCH  15  16
ATOM     16  C   UNL     1      34.097  35.884  20.579  1.00  0.00    -0.000 C 
BRANCH  16  17
ATOM     17  C   UNL     1      33.316  35.453  19.328  1.00  0.00    -0.003 C 
ATOM     18  C   UNL     1      34.095  34.470  18.456  1.00  0.00     0.004 C 
ENDBRANCH  16  17
ENDBRANCH  15  16
ENDBRANCH  14  15
ENDBRANCH  13  14
ENDBRANCH  12  13
ENDBRANCH  10  11
ENDBRANCH   1  10
TORSDOF 13
ENDMDL
MODEL 9
REMARK VINA RESULT:    -3.900      1.861      4.966
REMARK INTER + INTRA:          -8.914
REMARK INTER:                  -6.978
REMARK INTRA:                  -1.936
REMARK UNBOUND:                -2.050
REMARK SMILES CCCCCCC=CCCCCCCCC(=O)[O-]
REMARK SMILES IDX 10 1 11 2 12 3 13 4 14 5 15 6 16 7 17 8 18 9 9 10 8 11 7 12
REMARK SMILES IDX 6 13 5 14 4 15 3 16 2 17 1 18
REMARK H PARENT
REMARK Flexibility Score: inf
ROOT
ATOM      1  C   UNL     1      21.765  19.889  21.486  1.00  0.00     0.004 C 
ENDROOT
BRANCH   1   2
ATOM      2  C   UNL     1      20.332  19.627  20.993  1.00  0.00     0.000 C 
BRANCH   2   3
ATOM      3  C   UNL     1      19.501  20.915  20.875  1.00  0.00     0.000 C 
BRANCH   3   4
ATOM      4  C   UNL     1      18.080  20.755  21.444  1.00  0.00     0.000 C 
BRANCH   4   5
ATOM      5  C   UNL     1      17.512  22.074  21.994  1.00  0.00     0.006 C 
BRANCH   5   6
ATOM      6  C   UNL     1      16.735  21.885  23.303  1.00  0.00     0.053 C 
BRANCH   6   7
ATOM      7  C   UNL     1      17.592  22.244  24.475  1.00  0.00     0.041 C 
ATOM      8  O   UNL     1      17.111  22.235  25.638  1.00  0.00    -0.550 OA
ATOM      9  O   UNL     1      18.913  22.632  24.278  1.00  0.00    -0.550 OA
ENDBRANCH   6   7
ENDBRANCH   5   6
ENDBRANCH   4   5
ENDBRANCH   3   4
ENDBRANCH   2   3
ENDBRANCH   1   2
BRANCH   1  10
ATOM     10  C   UNL     1      21.865  19.858  23.019  1.00  0.00     0.027 C 
BRANCH  10  11
ATOM     11  C   UNL     1      20.814  18.980  23.645  1.00  0.00    -0.031 C 
ATOM     12  C   UNL     1      20.028  19.423  24.639  1.00  0.00    -0.031 C 
BRANCH  12  13
ATOM     13  C   UNL     1      18.985  18.543  25.269  1.00  0.00     0.027 C 
BRANCH  13  14
ATOM     14  C   UNL     1      17.715  18.487  24.406  1.00  0.00     0.004 C 
BRANCH  14  15
ATOM     15  C   UNL     1      16.437  18.753  25.219  1.00  0.00     0.000 C 
BRANCH  15  16
ATOM     16  C   UNL     1      16.527  18.211  26.656  1.00  0.00    -0.000 C 
BRANCH  16  17
ATOM     17  C   UNL     1      16.078  19.242  27.703  1.00  0.00    -0.003 C 
ATOM     18  C   UNL     1      17.248  20.016  28.308  1.00  0.00     0.004 C 
ENDBRANCH  16  17
ENDBRANCH  15  16
ENDBRANCH  14  15
ENDBRANCH  13  14
ENDBRANCH  12  13
ENDBRANCH  10  11
ENDBRANCH   1  10
TORSDOF 13
ENDMDL
