MODEL 1
REMARK VINA RESULT:    -5.983      0.000      0.000
REMARK INTER + INTRA:         -11.283
REMARK INTER:                 -10.180
REMARK INTRA:                  -1.103
REMARK UNBOUND:                -1.103
REMARK SMILES CCCCCCCCCCCCCC(=O)[O-]
REMARK SMILES IDX 8 1 9 2 10 3 11 4 12 5 13 6 14 7 15 8 16 9 7 10 6 11 5 12
REMARK SMILES IDX 4 13 3 14 2 15 1 16
REMARK H PARENT
REMARK Flexibility Score: inf
ROOT
ATOM      1  C   UNL     1      -5.122  35.434 100.217  1.00  0.00     0.000 C 
ENDROOT
BRANCH   1   2
ATOM      2  C   UNL     1      -3.817  34.621 100.188  1.00  0.00     0.000 C 
BRANCH   2   3
ATOM      3  C   UNL     1      -2.733  35.270  99.315  1.00  0.00     0.000 C 
BRANCH   3   4
ATOM      4  C   UNL     1      -3.142  35.264  97.837  1.00  0.00     0.000 C 
BRANCH   4   5
ATOM      5  C   UNL     1      -3.405  36.690  97.332  1.00  0.00     0.006 C 
BRANCH   5   6
ATOM      6  C   UNL     1      -4.811  36.847  96.739  1.00  0.00     0.053 C 
BRANCH   6   7
ATOM      7  C   UNL     1      -5.489  38.085  97.242  1.00  0.00     0.041 C 
ATOM      8  O   UNL     1      -4.820  38.987  97.813  1.00  0.00    -0.550 OA
ATOM      9  O   UNL     1      -6.863  38.228  97.108  1.00  0.00    -0.550 OA
ENDBRANCH   6   7
ENDBRANCH   5   6
ENDBRANCH   4   5
ENDBRANCH   3   4
ENDBRANCH   2   3
ENDBRANCH   1   2
BRANCH   1  10
ATOM     10  C   UNL     1      -4.925  36.847 100.791  1.00  0.00     0.000 C 
BRANCH  10  11
ATOM     11  C   UNL     1      -4.085  36.856 102.081  1.00  0.00    -0.000 C 
BRANCH  11  12
ATOM     12  C   UNL     1      -2.757  37.639 101.998  1.00  0.00    -0.000 C 
BRANCH  12  13
ATOM     13  C   UNL     1      -2.818  38.947 101.188  1.00  0.00    -0.000 C 
BRANCH  13  14
ATOM     14  C   UNL     1      -2.521  40.225 101.996  1.00  0.00    -0.000 C 
BRANCH  14  15
ATOM     15  C   UNL     1      -1.188  40.173 102.773  1.00  0.00    -0.003 C 
ATOM     16  C   UNL     1      -0.671  41.559 103.154  1.00  0.00     0.004 C 
ENDBRANCH  14  15
ENDBRANCH  13  14
ENDBRANCH  12  13
ENDBRANCH  11  12
ENDBRANCH  10  11
ENDBRANCH   1  10
TORSDOF 12
ENDMDL
MODEL 2
REMARK VINA RESULT:    -5.783      3.187      6.413
REMARK INTER + INTRA:         -10.942
REMARK INTER:                  -9.774
REMARK INTRA:                  -1.168
REMARK UNBOUND:                -1.103
REMARK SMILES CCCCCCCCCCCCCC(=O)[O-]
REMARK SMILES IDX 8 1 9 2 10 3 11 4 12 5 13 6 14 7 15 8 16 9 7 10 6 11 5 12
REMARK SMILES IDX 4 13 3 14 2 15 1 16
REMARK H PARENT
REMARK Flexibility Score: inf
ROOT
ATOM      1  C   UNL     1      -4.140  37.896 100.479  1.00  0.00     0.000 C 
ENDROOT
BRANCH   1   2
ATOM      2  C   UNL     1      -2.873  37.718 101.333  1.00  0.00     0.000 C 
BRANCH   2   3
ATOM      3  C   UNL     1      -3.174  37.670 102.838  1.00  0.00     0.000 C 
BRANCH   3   4
ATOM      4  C   UNL     1      -2.664  38.935 103.540  1.00  0.00     0.000 C 
BRANCH   4   5
ATOM      5  C   UNL     1      -2.388  40.055 102.526  1.00  0.00     0.006 C 
BRANCH   5   6
ATOM      6  C   UNL     1      -2.802  41.433 103.056  1.00  0.00     0.053 C 
BRANCH   6   7
ATOM      7  C   UNL     1      -1.611  42.275 103.399  1.00  0.00     0.041 C 
ATOM      8  O   UNL     1      -0.447  41.848 103.178  1.00  0.00    -0.550 OA
ATOM      9  O   UNL     1      -1.786  43.519 103.992  1.00  0.00    -0.550 OA
ENDBRANCH   6   7
ENDBRANCH   5   6
ENDBRANCH   4   5
ENDBRANCH   3   4
ENDBRANCH   2   3
ENDBRANCH   1   2
BRANCH   1  10
ATOM     10  C   UNL     1      -3.857  38.609  99.145  1.00  0.00     0.000 C 
BRANCH  10  11
ATOM     11  C   UNL     1      -4.926  38.321  98.075  1.00  0.00    -0.000 C 
BRANCH  11  12
ATOM     12  C   UNL     1      -4.737  37.002  97.295  1.00  0.00    -0.000 C 
BRANCH  12  13
ATOM     13  C   UNL     1      -3.280  36.530  97.149  1.00  0.00    -0.000 C 
BRANCH  13  14
ATOM     14  C   UNL     1      -2.870  35.388  98.099  1.00  0.00    -0.000 C 
BRANCH  14  15
ATOM     15  C   UNL     1      -4.065  34.588  98.660  1.00  0.00    -0.003 C 
ATOM     16  C   UNL     1      -3.914  34.262 100.145  1.00  0.00     0.004 C 
ENDBRANCH  14  15
ENDBRANCH  13  14
ENDBRANCH  12  13
ENDBRANCH  11  12
ENDBRANCH  10  11
ENDBRANCH   1  10
TORSDOF 12
ENDMDL
MODEL 3
REMARK VINA RESULT:    -5.749      2.869      5.957
REMARK INTER + INTRA:         -10.885
REMARK INTER:                  -9.772
REMARK INTRA:                  -1.113
REMARK UNBOUND:                -1.103
REMARK SMILES CCCCCCCCCCCCCC(=O)[O-]
REMARK SMILES IDX 8 1 9 2 10 3 11 4 12 5 13 6 14 7 15 8 16 9 7 10 6 11 5 12
REMARK SMILES IDX 4 13 3 14 2 15 1 16
REMARK H PARENT
REMARK Flexibility Score: inf
ROOT
ATOM      1  C   UNL     1      -2.863  36.322 101.083  1.00  0.00     0.000 C 
ENDROOT
BRANCH   1   2
ATOM      2  C   UNL     1      -3.041  37.143 102.371  1.00  0.00     0.000 C 
BRANCH   2   3
ATOM      3  C   UNL     1      -3.027  38.658 102.115  1.00  0.00     0.000 C 
BRANCH   3   4
ATOM      4  C   UNL     1      -1.595  39.163 101.897  1.00  0.00     0.000 C 
BRANCH   4   5
ATOM      5  C   UNL     1      -1.313  40.406 102.754  1.00  0.00     0.006 C 
BRANCH   5   6
ATOM      6  C   UNL     1      -2.602  41.108 103.201  1.00  0.00     0.053 C 
BRANCH   6   7
ATOM      7  C   UNL     1      -2.415  42.592 103.308  1.00  0.00     0.041 C 
ATOM      8  O   UNL     1      -1.421  43.063 103.921  1.00  0.00    -0.550 OA
ATOM      9  O   UNL     1      -3.356  43.452 102.758  1.00  0.00    -0.550 OA
ENDBRANCH   6   7
ENDBRANCH   5   6
ENDBRANCH   4   5
ENDBRANCH   3   4
ENDBRANCH   2   3
ENDBRANCH   1   2
BRANCH   1  10
ATOM     10  C   UNL     1      -4.155  35.602 100.658  1.00  0.00     0.000 C 
BRANCH  10  11
ATOM     11  C   UNL     1      -3.979  34.766  99.378  1.00  0.00    -0.000 C 
BRANCH  11  12
ATOM     12  C   UNL     1      -2.814  35.198  98.463  1.00  0.00    -0.000 C 
BRANCH  12  13
ATOM     13  C   UNL     1      -3.134  36.351  97.495  1.00  0.00    -0.000 C 
BRANCH  13  14
ATOM     14  C   UNL     1      -4.636  36.617  97.277  1.00  0.00    -0.000 C 
BRANCH  14  15
ATOM     15  C   UNL     1      -5.055  38.078  97.550  1.00  0.00    -0.003 C 
ATOM     16  C   UNL     1      -4.180  38.757  98.602  1.00  0.00     0.004 C 
ENDBRANCH  14  15
ENDBRANCH  13  14
ENDBRANCH  12  13
ENDBRANCH  11  12
ENDBRANCH  10  11
ENDBRANCH   1  10
TORSDOF 12
ENDMDL
MODEL 4
REMARK VINA RESULT:    -5.691      3.194      6.414
REMARK INTER + INTRA:         -10.785
REMARK INTER:                  -9.866
REMARK INTRA:                  -0.919
REMARK UNBOUND:                -1.103
REMARK SMILES CCCCCCCCCCCCCC(=O)[O-]
REMARK SMILES IDX 8 1 9 2 10 3 11 4 12 5 13 6 14 7 15 8 16 9 7 10 6 11 5 12
REMARK SMILES IDX 4 13 3 14 2 15 1 16
REMARK H PARENT
REMARK Flexibility Score: inf
ROOT
ATOM      1  C   UNL     1      -3.712  36.728 101.494  1.00  0.00     0.000 C 
ENDROOT
BRANCH   1   2
ATOM      2  C   UNL     1      -2.807  37.706 102.262  1.00  0.00     0.000 C 
BRANCH   2   3
ATOM      3  C   UNL     1      -2.242  38.819 101.367  1.00  0.00     0.000 C 
BRANCH   3   4
ATOM      4  C   UNL     1      -2.907  40.165 101.680  1.00  0.00     0.000 C 
BRANCH   4   5
ATOM      5  C   UNL     1      -2.770  40.515 103.169  1.00  0.00     0.006 C 
BRANCH   5   6
ATOM      6  C   UNL     1      -2.632  42.025 103.401  1.00  0.00     0.053 C 
BRANCH   6   7
ATOM      7  C   UNL     1      -1.218  42.486 103.222  1.00  0.00     0.041 C 
ATOM      8  O   UNL     1      -0.961  43.713 103.104  1.00  0.00    -0.550 OA
ATOM      9  O   UNL     1      -0.188  41.557 103.153  1.00  0.00    -0.550 OA
ENDBRANCH   6   7
ENDBRANCH   5   6
ENDBRANCH   4   5
ENDBRANCH   3   4
ENDBRANCH   2   3
ENDBRANCH   1   2
BRANCH   1  10
ATOM     10  C   UNL     1      -2.914  35.626 100.776  1.00  0.00     0.000 C 
BRANCH  10  11
ATOM     11  C   UNL     1      -3.815  34.535 100.170  1.00  0.00    -0.000 C 
BRANCH  11  12
ATOM     12  C   UNL     1      -5.248  34.986  99.815  1.00  0.00    -0.000 C 
BRANCH  12  13
ATOM     13  C   UNL     1      -5.528  35.156  98.311  1.00  0.00    -0.000 C 
BRANCH  13  14
ATOM     14  C   UNL     1      -5.658  36.616  97.836  1.00  0.00    -0.000 C 
BRANCH  14  15
ATOM     15  C   UNL     1      -4.613  37.018  96.773  1.00  0.00    -0.003 C 
ATOM     16  C   UNL     1      -3.184  36.668  97.184  1.00  0.00     0.004 C 
ENDBRANCH  14  15
ENDBRANCH  13  14
ENDBRANCH  12  13
ENDBRANCH  11  12
ENDBRANCH  10  11
ENDBRANCH   1  10
TORSDOF 12
ENDMDL
MODEL 5
REMARK VINA RESULT:    -5.636      3.064      6.480
REMARK INTER + INTRA:         -10.693
REMARK INTER:                  -9.552
REMARK INTRA:                  -1.141
REMARK UNBOUND:                -1.103
REMARK SMILES CCCCCCCCCCCCCC(=O)[O-]
REMARK SMILES IDX 8 1 9 2 10 3 11 4 12 5 13 6 14 7 15 8 16 9 7 10 6 11 5 12
REMARK SMILES IDX 4 13 3 14 2 15 1 16
REMARK H PARENT
REMARK Flexibility Score: inf
ROOT
ATOM      1  C   UNL     1      -3.243  36.928 101.642  1.00  0.00     0.000 C 
ENDROOT
BRANCH   1   2
ATOM      2  C   UNL     1      -2.897  38.110 102.562  1.00  0.00     0.000 C 
BRANCH   2   3
ATOM      3  C   UNL     1      -1.833  39.040 101.958  1.00  0.00     0.000 C 
BRANCH   3   4
ATOM      4  C   UNL     1      -1.760  40.363 102.731  1.00  0.00     0.000 C 
BRANCH   4   5
ATOM      5  C   UNL     1      -2.962  41.261 102.403  1.00  0.00     0.006 C 
BRANCH   5   6
ATOM      6  C   UNL     1      -3.153  42.377 103.437  1.00  0.00     0.053 C 
BRANCH   6   7
ATOM      7  C   UNL     1      -2.786  43.718 102.879  1.00  0.00     0.041 C 
ATOM      8  O   UNL     1      -3.340  44.142 101.830  1.00  0.00    -0.550 OA
ATOM      9  O   UNL     1      -1.808  44.485 103.498  1.00  0.00    -0.550 OA
ENDBRANCH   6   7
ENDBRANCH   5   6
ENDBRANCH   4   5
ENDBRANCH   3   4
ENDBRANCH   2   3
ENDBRANCH   1   2
BRANCH   1  10
ATOM     10  C   UNL     1      -4.611  37.094 100.957  1.00  0.00     0.000 C 
BRANCH  10  11
ATOM     11  C   UNL     1      -4.532  37.909  99.653  1.00  0.00    -0.000 C 
BRANCH  11  12
ATOM     12  C   UNL     1      -3.257  37.684  98.813  1.00  0.00    -0.000 C 
BRANCH  12  13
ATOM     13  C   UNL     1      -3.324  36.508  97.823  1.00  0.00    -0.000 C 
BRANCH  13  14
ATOM     14  C   UNL     1      -2.778  35.172  98.364  1.00  0.00    -0.000 C 
BRANCH  14  15
ATOM     15  C   UNL     1      -3.850  34.291  99.041  1.00  0.00    -0.003 C 
ATOM     16  C   UNL     1      -5.206  34.366  98.340  1.00  0.00     0.004 C 
ENDBRANCH  14  15
ENDBRANCH  13  14
ENDBRANCH  12  13
ENDBRANCH  11  12
ENDBRANCH  10  11
ENDBRANCH   1  10
TORSDOF 12
ENDMDL
MODEL 6
REMARK VINA RESULT:    -5.623      1.093      1.791
REMARK INTER + INTRA:         -10.671
REMARK INTER:                  -9.705
REMARK INTRA:                  -0.966
REMARK UNBOUND:                -1.103
REMARK SMILES CCCCCCCCCCCCCC(=O)[O-]
REMARK SMILES IDX 8 1 9 2 10 3 11 4 12 5 13 6 14 7 15 8 16 9 7 10 6 11 5 12
REMARK SMILES IDX 4 13 3 14 2 15 1 16
REMARK H PARENT
REMARK Flexibility Score: inf
ROOT
ATOM      1  C   UNL     1      -4.458  36.740 101.593  1.00  0.00     0.000 C 
ENDROOT
BRANCH   1   2
ATOM      2  C   UNL     1      -5.203  35.699 100.741  1.00  0.00     0.000 C 
BRANCH   2   3
ATOM      3  C   UNL     1      -4.289  35.005  99.719  1.00  0.00     0.000 C 
BRANCH   3   4
ATOM      4  C   UNL     1      -5.072  34.616  98.459  1.00  0.00     0.000 C 
BRANCH   4   5
ATOM      5  C   UNL     1      -5.203  35.810  97.501  1.00  0.00     0.006 C 
BRANCH   5   6
ATOM      6  C   UNL     1      -4.034  36.793  97.635  1.00  0.00     0.053 C 
BRANCH   6   7
ATOM      7  C   UNL     1      -4.513  38.196  97.856  1.00  0.00     0.041 C 
ATOM      8  O   UNL     1      -3.999  38.907  98.759  1.00  0.00    -0.550 OA
ATOM      9  O   UNL     1      -5.550  38.706  97.085  1.00  0.00    -0.550 OA
ENDBRANCH   6   7
ENDBRANCH   5   6
ENDBRANCH   4   5
ENDBRANCH   3   4
ENDBRANCH   2   3
ENDBRANCH   1   2
BRANCH   1  10
ATOM     10  C   UNL     1      -2.934  36.687 101.390  1.00  0.00     0.000 C 
BRANCH  10  11
ATOM     11  C   UNL     1      -2.256  38.055 101.590  1.00  0.00    -0.000 C 
BRANCH  11  12
ATOM     12  C   UNL     1      -2.856  38.929 102.712  1.00  0.00    -0.000 C 
BRANCH  12  13
ATOM     13  C   UNL     1      -2.317  40.369 102.780  1.00  0.00    -0.000 C 
BRANCH  13  14
ATOM     14  C   UNL     1      -0.780  40.486 102.790  1.00  0.00    -0.000 C 
BRANCH  14  15
ATOM     15  C   UNL     1      -0.267  41.894 103.159  1.00  0.00    -0.003 C 
ATOM     16  C   UNL     1      -1.396  42.865 103.501  1.00  0.00     0.004 C 
ENDBRANCH  14  15
ENDBRANCH  13  14
ENDBRANCH  12  13
ENDBRANCH  11  12
ENDBRANCH  10  11
ENDBRANCH   1  10
TORSDOF 12
ENDMDL
MODEL 7
REMARK VINA RESULT:    -5.377      2.716      6.482
REMARK INTER + INTRA:         -10.253
REMARK INTER:                  -9.458
REMARK INTRA:                  -0.794
REMARK UNBOUND:                -1.103
REMARK SMILES CCCCCCCCCCCCCC(=O)[O-]
REMARK SMILES IDX 8 1 9 2 10 3 11 4 12 5 13 6 14 7 15 8 16 9 7 10 6 11 5 12
REMARK SMILES IDX 4 13 3 14 2 15 1 16
REMARK H PARENT
REMARK Flexibility Score: inf
ROOT
ATOM      1  C   UNL     1      -2.381  37.906 101.738  1.00  0.00     0.000 C 
ENDROOT
BRANCH   1   2
ATOM      2  C   UNL     1      -2.733  39.403 101.707  1.00  0.00     0.000 C 
BRANCH   2   3
ATOM      3  C   UNL     1      -2.599  40.072 103.084  1.00  0.00     0.000 C 
BRANCH   3   4
ATOM      4  C   UNL     1      -1.485  41.126 103.075  1.00  0.00     0.000 C 
BRANCH   4   5
ATOM      5  C   UNL     1      -2.057  42.535 103.294  1.00  0.00     0.006 C 
BRANCH   5   6
ATOM      6  C   UNL     1      -3.574  42.517 103.516  1.00  0.00     0.053 C 
BRANCH   6   7
ATOM      7  C   UNL     1      -4.302  43.244 102.426  1.00  0.00     0.041 C 
ATOM      8  O   UNL     1      -3.949  43.102 101.225  1.00  0.00    -0.550 OA
ATOM      9  O   UNL     1      -5.348  44.101 102.740  1.00  0.00    -0.550 OA
ENDBRANCH   6   7
ENDBRANCH   5   6
ENDBRANCH   4   5
ENDBRANCH   3   4
ENDBRANCH   2   3
ENDBRANCH   1   2
BRANCH   1  10
ATOM     10  C   UNL     1      -3.240  37.079 100.765  1.00  0.00     0.000 C 
BRANCH  10  11
ATOM     11  C   UNL     1      -2.788  35.610 100.671  1.00  0.00    -0.000 C 
BRANCH  11  12
ATOM     12  C   UNL     1      -3.884  34.610 100.246  1.00  0.00    -0.000 C 
BRANCH  12  13
ATOM     13  C   UNL     1      -4.090  34.468  98.728  1.00  0.00    -0.000 C 
BRANCH  13  14
ATOM     14  C   UNL     1      -5.326  35.199  98.169  1.00  0.00    -0.000 C 
BRANCH  14  15
ATOM     15  C   UNL     1      -4.981  36.405  97.268  1.00  0.00    -0.003 C 
ATOM     16  C   UNL     1      -3.476  36.633  97.137  1.00  0.00     0.004 C 
ENDBRANCH  14  15
ENDBRANCH  13  14
ENDBRANCH  12  13
ENDBRANCH  11  12
ENDBRANCH  10  11
ENDBRANCH   1  10
TORSDOF 12
ENDMDL
MODEL 8
REMARK VINA RESULT:    -5.355      3.602      7.265
REMARK INTER + INTRA:         -10.214
REMARK INTER:                  -9.447
REMARK INTRA:                  -0.767
REMARK UNBOUND:                -1.103
REMARK SMILES CCCCCCCCCCCCCC(=O)[O-]
REMARK SMILES IDX 8 1 9 2 10 3 11 4 12 5 13 6 14 7 15 8 16 9 7 10 6 11 5 12
REMARK SMILES IDX 4 13 3 14 2 15 1 16
REMARK H PARENT
REMARK Flexibility Score: inf
ROOT
ATOM      1  C   UNL     1      -1.970  38.562 101.315  1.00  0.00     0.000 C 
ENDROOT
BRANCH   1   2
ATOM      2  C   UNL     1      -1.543  39.662 102.301  1.00  0.00     0.000 C 
BRANCH   2   3
ATOM      3  C   UNL     1      -2.717  40.205 103.129  1.00  0.00     0.000 C 
BRANCH   3   4
ATOM      4  C   UNL     1      -2.753  41.738 103.088  1.00  0.00     0.000 C 
BRANCH   4   5
ATOM      5  C   UNL     1      -1.372  42.331 103.405  1.00  0.00     0.006 C 
BRANCH   5   6
ATOM      6  C   UNL     1      -1.285  43.821 103.053  1.00  0.00     0.053 C 
BRANCH   6   7
ATOM      7  C   UNL     1      -2.155  44.653 103.947  1.00  0.00     0.041 C 
ATOM      8  O   UNL     1      -1.975  44.644 105.193  1.00  0.00    -0.550 OA
ATOM      9  O   UNL     1      -3.183  45.411 103.405  1.00  0.00    -0.550 OA
ENDBRANCH   6   7
ENDBRANCH   5   6
ENDBRANCH   4   5
ENDBRANCH   3   4
ENDBRANCH   2   3
ENDBRANCH   1   2
BRANCH   1  10
ATOM     10  C   UNL     1      -3.029  37.617 101.908  1.00  0.00     0.000 C 
BRANCH  10  11
ATOM     11  C   UNL     1      -4.180  37.320 100.929  1.00  0.00    -0.000 C 
BRANCH  11  12
ATOM     12  C   UNL     1      -3.922  37.734  99.465  1.00  0.00    -0.000 C 
BRANCH  12  13
ATOM     13  C   UNL     1      -3.389  36.616  98.552  1.00  0.00    -0.000 C 
BRANCH  13  14
ATOM     14  C   UNL     1      -2.987  35.319  99.281  1.00  0.00    -0.000 C 
BRANCH  14  15
ATOM     15  C   UNL     1      -4.073  34.222  99.241  1.00  0.00    -0.003 C 
ATOM     16  C   UNL     1      -5.271  34.607  98.374  1.00  0.00     0.004 C 
ENDBRANCH  14  15
ENDBRANCH  13  14
ENDBRANCH  12  13
ENDBRANCH  11  12
ENDBRANCH  10  11
ENDBRANCH   1  10
TORSDOF 12
ENDMDL
MODEL 9
REMARK VINA RESULT:    -5.324      1.921      3.214
REMARK INTER + INTRA:         -10.162
REMARK INTER:                  -9.129
REMARK INTRA:                  -1.033
REMARK UNBOUND:                -1.103
REMARK SMILES CCCCCCCCCCCCCC(=O)[O-]
REMARK SMILES IDX 8 1 9 2 10 3 11 4 12 5 13 6 14 7 15 8 16 9 7 10 6 11 5 12
REMARK SMILES IDX 4 13 3 14 2 15 1 16
REMARK H PARENT
REMARK Flexibility Score: inf
ROOT
ATOM      1  C   UNL     1      -3.170  38.644 100.589  1.00  0.00     0.000 C 
ENDROOT
BRANCH   1   2
ATOM      2  C   UNL     1      -3.968  37.373 100.922  1.00  0.00     0.000 C 
BRANCH   2   3
ATOM      3  C   UNL     1      -3.066  36.162 101.205  1.00  0.00     0.000 C 
BRANCH   3   4
ATOM      4  C   UNL     1      -3.394  35.000 100.259  1.00  0.00     0.000 C 
BRANCH   4   5
ATOM      5  C   UNL     1      -4.887  34.989  99.897  1.00  0.00     0.006 C 
BRANCH   5   6
ATOM      6  C   UNL     1      -5.116  34.878  98.385  1.00  0.00     0.053 C 
BRANCH   6   7
ATOM      7  C   UNL     1      -4.957  36.203  97.702  1.00  0.00     0.041 C 
ATOM      8  O   UNL     1      -5.930  36.999  97.627  1.00  0.00    -0.550 OA
ATOM      9  O   UNL     1      -3.743  36.544  97.121  1.00  0.00    -0.550 OA
ENDBRANCH   6   7
ENDBRANCH   5   6
ENDBRANCH   4   5
ENDBRANCH   3   4
ENDBRANCH   2   3
ENDBRANCH   1   2
BRANCH   1  10
ATOM     10  C   UNL     1      -1.786  38.664 101.260  1.00  0.00     0.000 C 
BRANCH  10  11
ATOM     11  C   UNL     1      -1.653  39.769 102.324  1.00  0.00    -0.000 C 
BRANCH  11  12
ATOM     12  C   UNL     1      -2.857  39.913 103.278  1.00  0.00    -0.000 C 
BRANCH  12  13
ATOM     13  C   UNL     1      -3.263  41.361 103.606  1.00  0.00    -0.000 C 
BRANCH  13  14
ATOM     14  C   UNL     1      -2.906  42.397 102.523  1.00  0.00    -0.000 C 
BRANCH  14  15
ATOM     15  C   UNL     1      -4.121  43.192 101.998  1.00  0.00    -0.003 C 
ATOM     16  C   UNL     1      -4.131  43.321 100.476  1.00  0.00     0.004 C 
ENDBRANCH  14  15
ENDBRANCH  13  14
ENDBRANCH  12  13
ENDBRANCH  11  12
ENDBRANCH  10  11
ENDBRANCH   1  10
TORSDOF 12
ENDMDL
