MODEL 1
REMARK VINA RESULT:    -4.738      0.000      0.000
REMARK INTER + INTRA:          -6.017
REMARK INTER:                  -5.846
REMARK INTRA:                  -0.171
REMARK UNBOUND:                -0.171
REMARK SMILES C=CC[C@@H](C)C(=O)CC
REMARK SMILES IDX 4 1 5 2 6 3 7 4 8 5 9 6 3 7 2 8 1 9
REMARK H PARENT
REMARK Flexibility Score: inf
ROOT
ATOM      1  C   UNL     1     -11.211  74.081  30.329  1.00  0.00     0.057 C 
ATOM      2  C   UNL     1      -9.974  74.812  30.870  1.00  0.00     0.016 C 
ENDROOT
BRANCH   1   3
ATOM      3  C   UNL     1     -11.182  74.016  28.814  1.00  0.00     0.135 C 
ATOM      4  O   UNL     1     -12.079  73.441  28.213  1.00  0.00    -0.299 OA
BRANCH   3   5
ATOM      5  C   UNL     1     -10.058  74.636  28.027  1.00  0.00     0.072 C 
ATOM      6  C   UNL     1     -10.522  75.009  26.624  1.00  0.00     0.012 C 
ENDBRANCH   3   5
ENDBRANCH   1   3
BRANCH   1   7
ATOM      7  C   UNL     1     -11.398  72.683  30.958  1.00  0.00     0.038 C 
BRANCH   7   8
ATOM      8  C   UNL     1     -11.664  72.711  32.441  1.00  0.00    -0.034 C 
ATOM      9  C   UNL     1     -10.894  72.050  33.310  1.00  0.00     0.004 C 
ENDBRANCH   7   8
ENDBRANCH   1   7
TORSDOF 4
ENDMDL
MODEL 2
REMARK VINA RESULT:    -4.727      2.245      4.098
REMARK INTER + INTRA:          -6.003
REMARK INTER:                  -5.547
REMARK INTRA:                  -0.457
REMARK UNBOUND:                -0.171
REMARK SMILES C=CC[C@@H](C)C(=O)CC
REMARK SMILES IDX 4 1 5 2 6 3 7 4 8 5 9 6 3 7 2 8 1 9
REMARK H PARENT
REMARK Flexibility Score: inf
ROOT
ATOM      1  C   UNL     1     -10.475  74.098  30.886  1.00  0.00     0.057 C 
ATOM      2  C   UNL     1      -9.208  74.955  30.758  1.00  0.00     0.016 C 
ENDROOT
BRANCH   1   3
ATOM      3  C   UNL     1     -11.163  74.343  32.215  1.00  0.00     0.135 C 
ATOM      4  O   UNL     1     -11.183  75.470  32.691  1.00  0.00    -0.299 OA
BRANCH   3   5
ATOM      5  C   UNL     1     -11.816  73.219  32.975  1.00  0.00     0.072 C 
ATOM      6  C   UNL     1     -10.922  71.984  32.986  1.00  0.00     0.012 C 
ENDBRANCH   3   5
ENDBRANCH   1   3
BRANCH   1   7
ATOM      7  C   UNL     1     -11.444  74.285  29.698  1.00  0.00     0.038 C 
BRANCH   7   8
ATOM      8  C   UNL     1     -11.618  73.051  28.851  1.00  0.00    -0.034 C 
ATOM      9  C   UNL     1     -11.920  71.863  29.385  1.00  0.00     0.004 C 
ENDBRANCH   7   8
ENDBRANCH   1   7
TORSDOF 4
ENDMDL
MODEL 3
REMARK VINA RESULT:    -4.688      1.694      4.651
REMARK INTER + INTRA:          -5.954
REMARK INTER:                  -5.745
REMARK INTRA:                  -0.209
REMARK UNBOUND:                -0.171
REMARK SMILES C=CC[C@@H](C)C(=O)CC
REMARK SMILES IDX 4 1 5 2 6 3 7 4 8 5 9 6 3 7 2 8 1 9
REMARK H PARENT
REMARK Flexibility Score: inf
ROOT
ATOM      1  C   UNL     1     -11.270  73.834  29.854  1.00  0.00     0.057 C 
ATOM      2  C   UNL     1     -11.588  72.425  29.336  1.00  0.00     0.016 C 
ENDROOT
BRANCH   1   3
ATOM      3  C   UNL     1     -11.202  73.852  31.369  1.00  0.00     0.135 C 
ATOM      4  O   UNL     1     -10.627  74.767  31.941  1.00  0.00    -0.299 OA
BRANCH   3   5
ATOM      5  C   UNL     1     -11.820  72.752  32.191  1.00  0.00     0.072 C 
ATOM      6  C   UNL     1     -10.768  72.065  33.054  1.00  0.00     0.012 C 
ENDBRANCH   3   5
ENDBRANCH   1   3
BRANCH   1   7
ATOM      7  C   UNL     1      -9.994  74.428  29.218  1.00  0.00     0.038 C 
BRANCH   7   8
ATOM      8  C   UNL     1     -10.126  74.725  27.746  1.00  0.00    -0.034 C 
ATOM      9  C   UNL     1      -9.318  74.172  26.837  1.00  0.00     0.004 C 
ENDBRANCH   7   8
ENDBRANCH   1   7
TORSDOF 4
ENDMDL
MODEL 4
REMARK VINA RESULT:    -4.621      1.661      2.367
REMARK INTER + INTRA:          -5.873
REMARK INTER:                  -5.441
REMARK INTRA:                  -0.432
REMARK UNBOUND:                -0.171
REMARK SMILES C=CC[C@@H](C)C(=O)CC
REMARK SMILES IDX 4 1 5 2 6 3 7 4 8 5 9 6 3 7 2 8 1 9
REMARK H PARENT
REMARK Flexibility Score: inf
ROOT
ATOM      1  C   UNL     1     -11.231  73.377  29.125  1.00  0.00     0.057 C 
ATOM      2  C   UNL     1     -11.805  71.978  29.388  1.00  0.00     0.016 C 
ENDROOT
BRANCH   1   3
ATOM      3  C   UNL     1     -11.737  73.931  27.807  1.00  0.00     0.135 C 
ATOM      4  O   UNL     1     -12.920  73.823  27.515  1.00  0.00    -0.299 OA
BRANCH   3   5
ATOM      5  C   UNL     1     -10.804  74.603  26.834  1.00  0.00     0.072 C 
ATOM      6  C   UNL     1      -9.357  74.217  27.118  1.00  0.00     0.012 C 
ENDBRANCH   3   5
ENDBRANCH   1   3
BRANCH   1   7
ATOM      7  C   UNL     1     -11.489  74.355  30.292  1.00  0.00     0.038 C 
BRANCH   7   8
ATOM      8  C   UNL     1     -10.307  74.535  31.210  1.00  0.00    -0.034 C 
ATOM      9  C   UNL     1      -9.122  74.960  30.762  1.00  0.00     0.004 C 
ENDBRANCH   7   8
ENDBRANCH   1   7
TORSDOF 4
ENDMDL
MODEL 5
REMARK VINA RESULT:    -4.552      1.626      4.506
REMARK INTER + INTRA:          -5.787
REMARK INTER:                  -5.534
REMARK INTRA:                  -0.253
REMARK UNBOUND:                -0.171
REMARK SMILES C=CC[C@@H](C)C(=O)CC
REMARK SMILES IDX 4 1 5 2 6 3 7 4 8 5 9 6 3 7 2 8 1 9
REMARK H PARENT
REMARK Flexibility Score: inf
ROOT
ATOM      1  C   UNL     1     -11.075  73.539  29.874  1.00  0.00     0.057 C 
ATOM      2  C   UNL     1     -11.902  72.777  28.829  1.00  0.00     0.016 C 
ENDROOT
BRANCH   1   3
ATOM      3  C   UNL     1     -10.316  72.578  30.769  1.00  0.00     0.135 C 
ATOM      4  O   UNL     1      -9.253  72.106  30.391  1.00  0.00    -0.299 OA
BRANCH   3   5
ATOM      5  C   UNL     1     -10.854  72.178  32.118  1.00  0.00     0.072 C 
ATOM      6  C   UNL     1     -11.679  73.306  32.727  1.00  0.00     0.012 C 
ENDBRANCH   3   5
ENDBRANCH   1   3
BRANCH   1   7
ATOM      7  C   UNL     1     -10.138  74.590  29.240  1.00  0.00     0.038 C 
BRANCH   7   8
ATOM      8  C   UNL     1     -10.206  74.641  27.735  1.00  0.00    -0.034 C 
ATOM      9  C   UNL     1      -9.188  74.240  26.967  1.00  0.00     0.004 C 
ENDBRANCH   7   8
ENDBRANCH   1   7
TORSDOF 4
ENDMDL
MODEL 6
REMARK VINA RESULT:    -4.546      1.769      4.372
REMARK INTER + INTRA:          -5.780
REMARK INTER:                  -5.543
REMARK INTRA:                  -0.238
REMARK UNBOUND:                -0.171
REMARK SMILES C=CC[C@@H](C)C(=O)CC
REMARK SMILES IDX 4 1 5 2 6 3 7 4 8 5 9 6 3 7 2 8 1 9
REMARK H PARENT
REMARK Flexibility Score: inf
ROOT
ATOM      1  C   UNL     1     -11.350  73.587  29.294  1.00  0.00     0.057 C 
ATOM      2  C   UNL     1     -11.983  72.215  29.020  1.00  0.00     0.016 C 
ENDROOT
BRANCH   1   3
ATOM      3  C   UNL     1     -11.128  73.794  30.779  1.00  0.00     0.135 C 
ATOM      4  O   UNL     1     -11.697  73.072  31.587  1.00  0.00    -0.299 OA
BRANCH   3   5
ATOM      5  C   UNL     1     -10.225  74.887  31.288  1.00  0.00     0.072 C 
ATOM      6  C   UNL     1     -10.978  75.810  32.240  1.00  0.00     0.012 C 
ENDBRANCH   3   5
ENDBRANCH   1   3
BRANCH   1   7
ATOM      7  C   UNL     1     -10.055  73.817  28.484  1.00  0.00     0.038 C 
BRANCH   7   8
ATOM      8  C   UNL     1     -10.117  75.006  27.560  1.00  0.00    -0.034 C 
ATOM      9  C   UNL     1     -10.608  74.915  26.321  1.00  0.00     0.004 C 
ENDBRANCH   7   8
ENDBRANCH   1   7
TORSDOF 4
ENDMDL
MODEL 7
REMARK VINA RESULT:    -4.513      1.147      1.417
REMARK INTER + INTRA:          -5.739
REMARK INTER:                  -5.474
REMARK INTRA:                  -0.266
REMARK UNBOUND:                -0.171
REMARK SMILES C=CC[C@@H](C)C(=O)CC
REMARK SMILES IDX 4 1 5 2 6 3 7 4 8 5 9 6 3 7 2 8 1 9
REMARK H PARENT
REMARK Flexibility Score: inf
ROOT
ATOM      1  C   UNL     1     -10.418  73.455  29.948  1.00  0.00     0.057 C 
ATOM      2  C   UNL     1      -9.566  72.230  30.307  1.00  0.00     0.016 C 
ENDROOT
BRANCH   1   3
ATOM      3  C   UNL     1     -11.311  73.164  28.757  1.00  0.00     0.135 C 
ATOM      4  O   UNL     1     -12.060  72.197  28.780  1.00  0.00    -0.299 OA
BRANCH   3   5
ATOM      5  C   UNL     1     -11.286  74.038  27.531  1.00  0.00     0.072 C 
ATOM      6  C   UNL     1     -10.013  74.876  27.490  1.00  0.00     0.012 C 
ENDBRANCH   3   5
ENDBRANCH   1   3
BRANCH   1   7
ATOM      7  C   UNL     1     -11.226  73.991  31.150  1.00  0.00     0.038 C 
BRANCH   7   8
ATOM      8  C   UNL     1     -11.617  72.928  32.145  1.00  0.00    -0.034 C 
ATOM      9  C   UNL     1     -11.767  73.197  33.445  1.00  0.00     0.004 C 
ENDBRANCH   7   8
ENDBRANCH   1   7
TORSDOF 4
ENDMDL
MODEL 8
REMARK VINA RESULT:    -4.511      1.991      4.120
REMARK INTER + INTRA:          -5.737
REMARK INTER:                  -5.372
REMARK INTRA:                  -0.364
REMARK UNBOUND:                -0.171
REMARK SMILES C=CC[C@@H](C)C(=O)CC
REMARK SMILES IDX 4 1 5 2 6 3 7 4 8 5 9 6 3 7 2 8 1 9
REMARK H PARENT
REMARK Flexibility Score: inf
ROOT
ATOM      1  C   UNL     1      -9.358  74.137  29.969  1.00  0.00     0.057 C 
ATOM      2  C   UNL     1      -9.693  75.025  31.175  1.00  0.00     0.016 C 
ENDROOT
BRANCH   1   3
ATOM      3  C   UNL     1      -9.758  72.698  30.228  1.00  0.00     0.135 C 
ATOM      4  O   UNL     1      -8.930  71.805  30.112  1.00  0.00    -0.299 OA
BRANCH   3   5
ATOM      5  C   UNL     1     -11.169  72.337  30.614  1.00  0.00     0.072 C 
ATOM      6  C   UNL     1     -11.966  71.891  29.393  1.00  0.00     0.012 C 
ENDBRANCH   3   5
ENDBRANCH   1   3
BRANCH   1   7
ATOM      7  C   UNL     1      -9.963  74.670  28.652  1.00  0.00     0.038 C 
BRANCH   7   8
ATOM      8  C   UNL     1      -9.331  74.092  27.411  1.00  0.00    -0.034 C 
ATOM      9  C   UNL     1     -10.062  73.562  26.426  1.00  0.00     0.004 C 
ENDBRANCH   7   8
ENDBRANCH   1   7
TORSDOF 4
ENDMDL
MODEL 9
REMARK VINA RESULT:    -4.494      1.480      4.579
REMARK INTER + INTRA:          -5.715
REMARK INTER:                  -5.541
REMARK INTRA:                  -0.174
REMARK UNBOUND:                -0.171
REMARK SMILES C=CC[C@@H](C)C(=O)CC
REMARK SMILES IDX 4 1 5 2 6 3 7 4 8 5 9 6 3 7 2 8 1 9
REMARK H PARENT
REMARK Flexibility Score: inf
ROOT
ATOM      1  C   UNL     1     -10.258  74.232  30.712  1.00  0.00     0.057 C 
ATOM      2  C   UNL     1     -10.740  75.367  31.626  1.00  0.00     0.016 C 
ENDROOT
BRANCH   1   3
ATOM      3  C   UNL     1     -10.468  72.881  31.369  1.00  0.00     0.135 C 
ATOM      4  O   UNL     1      -9.752  71.938  31.062  1.00  0.00    -0.299 OA
BRANCH   3   5
ATOM      5  C   UNL     1     -11.557  72.670  32.387  1.00  0.00     0.072 C 
ATOM      6  C   UNL     1     -10.965  72.295  33.742  1.00  0.00     0.012 C 
ENDBRANCH   3   5
ENDBRANCH   1   3
BRANCH   1   7
ATOM      7  C   UNL     1     -10.894  74.289  29.306  1.00  0.00     0.038 C 
BRANCH   7   8
ATOM      8  C   UNL     1      -9.900  74.510  28.195  1.00  0.00    -0.034 C 
ATOM      9  C   UNL     1     -10.274  74.938  26.985  1.00  0.00     0.004 C 
ENDBRANCH   7   8
ENDBRANCH   1   7
TORSDOF 4
ENDMDL
