MODEL 1
REMARK VINA RESULT:    -4.507      0.000      0.000
REMARK INTER + INTRA:          -5.317
REMARK INTER:                  -5.166
REMARK INTRA:                  -0.151
REMARK UNBOUND:                -0.151
REMARK SMILES O=C([O-])C=Cc1ccc(O)cc1
REMARK SMILES IDX 6 1 7 2 12 3 8 4 11 5 9 6 5 7 4 8 2 9 1 10 3 11 10 12
REMARK H PARENT 10 13
REMARK Flexibility Score: inf
ROOT
ATOM      1  C   UNL     1      13.775  36.998  49.929  1.00  0.00    -0.025 A 
ATOM      2  C   UNL     1      14.455  37.004  48.699  1.00  0.00     0.012 A 
ATOM      3  C   UNL     1      14.468  37.398  51.091  1.00  0.00     0.012 A 
ATOM      4  C   UNL     1      15.801  37.376  48.632  1.00  0.00     0.047 A 
ATOM      5  C   UNL     1      15.814  37.770  51.019  1.00  0.00     0.047 A 
ATOM      6  C   UNL     1      16.484  37.758  49.790  1.00  0.00     0.115 A 
ENDROOT
BRANCH   1   7
ATOM      7  C   UNL     1      12.344  36.605  49.948  1.00  0.00     0.010 C 
ATOM      8  C   UNL     1      11.661  36.220  48.860  1.00  0.00     0.025 C 
BRANCH   8   9
ATOM      9  C   UNL     1      10.238  35.849  48.916  1.00  0.00     0.064 C 
ATOM     10  O   UNL     1       9.333  36.726  48.898  1.00  0.00    -0.545 OA
ATOM     11  O   UNL     1       9.886  34.508  48.993  1.00  0.00    -0.545 OA
ENDBRANCH   8   9
ENDBRANCH   1   7
BRANCH   6  12
ATOM     12  O   UNL     1      17.826  38.125  49.707  1.00  0.00    -0.508 OA
ATOM     13  H   UNL     1      18.347  38.411  50.527  1.00  0.00     0.293 HD
ENDBRANCH   6  12
TORSDOF 3
ENDMDL
MODEL 2
REMARK VINA RESULT:    -4.419      3.011      3.508
REMARK INTER + INTRA:          -5.216
REMARK INTER:                  -5.071
REMARK INTRA:                  -0.144
REMARK UNBOUND:                -0.151
REMARK SMILES O=C([O-])C=Cc1ccc(O)cc1
REMARK SMILES IDX 6 1 7 2 12 3 8 4 11 5 9 6 5 7 4 8 2 9 1 10 3 11 10 12
REMARK H PARENT 10 13
REMARK Flexibility Score: inf
ROOT
ATOM      1  C   UNL     1      14.544  37.041  48.335  1.00  0.00    -0.025 A 
ATOM      2  C   UNL     1      15.882  37.473  48.304  1.00  0.00     0.012 A 
ATOM      3  C   UNL     1      13.874  36.995  49.575  1.00  0.00     0.012 A 
ATOM      4  C   UNL     1      16.543  37.828  49.483  1.00  0.00     0.047 A 
ATOM      5  C   UNL     1      14.539  37.352  50.753  1.00  0.00     0.047 A 
ATOM      6  C   UNL     1      15.876  37.767  50.709  1.00  0.00     0.115 A 
ENDROOT
BRANCH   1   7
ATOM      7  C   UNL     1      13.882  36.685  47.055  1.00  0.00     0.010 C 
ATOM      8  C   UNL     1      13.953  37.433  45.945  1.00  0.00     0.025 C 
BRANCH   8   9
ATOM      9  C   UNL     1      13.271  37.053  44.697  1.00  0.00     0.064 C 
ATOM     10  O   UNL     1      13.698  37.440  43.576  1.00  0.00    -0.545 OA
ATOM     11  O   UNL     1      12.135  36.256  44.756  1.00  0.00    -0.545 OA
ENDBRANCH   8   9
ENDBRANCH   1   7
BRANCH   6  12
ATOM     12  O   UNL     1      16.549  38.123  51.877  1.00  0.00    -0.508 OA
ATOM     13  H   UNL     1      17.495  38.482  51.852  1.00  0.00     0.293 HD
ENDBRANCH   6  12
TORSDOF 3
ENDMDL
MODEL 3
REMARK VINA RESULT:    -4.346      3.014      3.661
REMARK INTER + INTRA:          -5.132
REMARK INTER:                  -4.997
REMARK INTRA:                  -0.135
REMARK UNBOUND:                -0.151
REMARK SMILES O=C([O-])C=Cc1ccc(O)cc1
REMARK SMILES IDX 6 1 7 2 12 3 8 4 11 5 9 6 5 7 4 8 2 9 1 10 3 11 10 12
REMARK H PARENT 10 13
REMARK Flexibility Score: inf
ROOT
ATOM      1  C   UNL     1      14.590  37.050  48.289  1.00  0.00    -0.025 A 
ATOM      2  C   UNL     1      13.913  36.982  49.519  1.00  0.00     0.012 A 
ATOM      3  C   UNL     1      15.938  37.466  48.277  1.00  0.00     0.012 A 
ATOM      4  C   UNL     1      14.556  37.344  50.707  1.00  0.00     0.047 A 
ATOM      5  C   UNL     1      16.577  37.826  49.468  1.00  0.00     0.047 A 
ATOM      6  C   UNL     1      15.887  37.767  50.685  1.00  0.00     0.115 A 
ENDROOT
BRANCH   1   7
ATOM      7  C   UNL     1      13.868  36.647  47.057  1.00  0.00     0.010 C 
ATOM      8  C   UNL     1      13.885  37.354  45.917  1.00  0.00     0.025 C 
BRANCH   8   9
ATOM      9  C   UNL     1      13.145  36.927  44.718  1.00  0.00     0.064 C 
ATOM     10  O   UNL     1      12.147  36.163  44.803  1.00  0.00    -0.545 OA
ATOM     11  O   UNL     1      13.558  37.372  43.468  1.00  0.00    -0.545 OA
ENDBRANCH   8   9
ENDBRANCH   1   7
BRANCH   6  12
ATOM     12  O   UNL     1      16.515  38.125  51.877  1.00  0.00    -0.508 OA
ATOM     13  H   UNL     1      16.190  37.776  52.770  1.00  0.00     0.293 HD
ENDBRANCH   6  12
TORSDOF 3
ENDMDL
MODEL 4
REMARK VINA RESULT:    -4.131      2.012      2.575
REMARK INTER + INTRA:          -4.886
REMARK INTER:                  -4.735
REMARK INTRA:                  -0.151
REMARK UNBOUND:                -0.151
REMARK SMILES O=C([O-])C=Cc1ccc(O)cc1
REMARK SMILES IDX 6 1 7 2 12 3 8 4 11 5 9 6 5 7 4 8 2 9 1 10 3 11 10 12
REMARK H PARENT 10 13
REMARK Flexibility Score: inf
ROOT
ATOM      1  C   UNL     1      14.356  37.005  48.413  1.00  0.00    -0.025 A 
ATOM      2  C   UNL     1      13.742  36.999  49.677  1.00  0.00     0.012 A 
ATOM      3  C   UNL     1      15.714  37.374  48.318  1.00  0.00     0.012 A 
ATOM      4  C   UNL     1      14.457  37.374  50.818  1.00  0.00     0.047 A 
ATOM      5  C   UNL     1      16.426  37.749  49.463  1.00  0.00     0.047 A 
ATOM      6  C   UNL     1      15.799  37.751  50.714  1.00  0.00     0.115 A 
ENDROOT
BRANCH   1   7
ATOM      7  C   UNL     1      13.558  36.589  47.232  1.00  0.00     0.010 C 
ATOM      8  C   UNL     1      12.303  36.123  47.308  1.00  0.00     0.025 C 
BRANCH   8   9
ATOM      9  C   UNL     1      11.547  35.708  46.115  1.00  0.00     0.064 C 
ATOM     10  O   UNL     1      10.911  36.545  45.421  1.00  0.00    -0.545 OA
ATOM     11  O   UNL     1      11.531  34.368  45.750  1.00  0.00    -0.545 OA
ENDBRANCH   8   9
ENDBRANCH   1   7
BRANCH   6  12
ATOM     12  O   UNL     1      16.499  38.124  51.860  1.00  0.00    -0.508 OA
ATOM     13  H   UNL     1      17.448  37.812  52.025  1.00  0.00     0.293 HD
ENDBRANCH   6  12
TORSDOF 3
ENDMDL
MODEL 5
REMARK VINA RESULT:    -3.918     13.658     14.552
REMARK INTER + INTRA:          -4.642
REMARK INTER:                  -4.497
REMARK INTRA:                  -0.145
REMARK UNBOUND:                -0.151
REMARK SMILES O=C([O-])C=Cc1ccc(O)cc1
REMARK SMILES IDX 6 1 7 2 12 3 8 4 11 5 9 6 5 7 4 8 2 9 1 10 3 11 10 12
REMARK H PARENT 10 13
REMARK Flexibility Score: inf
ROOT
ATOM      1  C   UNL     1      18.233  30.935  62.297  1.00  0.00    -0.025 A 
ATOM      2  C   UNL     1      18.442  31.685  61.127  1.00  0.00     0.012 A 
ATOM      3  C   UNL     1      19.347  30.601  63.098  1.00  0.00     0.012 A 
ATOM      4  C   UNL     1      19.731  32.071  60.748  1.00  0.00     0.047 A 
ATOM      5  C   UNL     1      20.634  30.990  62.716  1.00  0.00     0.047 A 
ATOM      6  C   UNL     1      20.829  31.724  61.539  1.00  0.00     0.115 A 
ENDROOT
BRANCH   1   7
ATOM      7  C   UNL     1      16.845  30.557  62.663  1.00  0.00     0.010 C 
ATOM      8  C   UNL     1      15.919  30.170  61.773  1.00  0.00     0.025 C 
BRANCH   8   9
ATOM      9  C   UNL     1      14.548  29.814  62.172  1.00  0.00     0.064 C 
ATOM     10  O   UNL     1      14.331  29.018  63.125  1.00  0.00    -0.545 OA
ATOM     11  O   UNL     1      13.473  30.364  61.485  1.00  0.00    -0.545 OA
ENDBRANCH   8   9
ENDBRANCH   1   7
BRANCH   6  12
ATOM     12  O   UNL     1      22.109  32.116  61.149  1.00  0.00    -0.508 OA
ATOM     13  H   UNL     1      22.615  31.620  60.424  1.00  0.00     0.293 HD
ENDBRANCH   6  12
TORSDOF 3
ENDMDL
MODEL 6
REMARK VINA RESULT:    -3.871      8.972     10.099
REMARK INTER + INTRA:          -4.588
REMARK INTER:                  -4.450
REMARK INTRA:                  -0.138
REMARK UNBOUND:                -0.151
REMARK SMILES O=C([O-])C=Cc1ccc(O)cc1
REMARK SMILES IDX 6 1 7 2 12 3 8 4 11 5 9 6 5 7 4 8 2 9 1 10 3 11 10 12
REMARK H PARENT 10 13
REMARK Flexibility Score: inf
ROOT
ATOM      1  C   UNL     1      13.349  32.580  57.043  1.00  0.00    -0.025 A 
ATOM      2  C   UNL     1      14.218  33.222  56.143  1.00  0.00     0.012 A 
ATOM      3  C   UNL     1      11.958  32.662  56.821  1.00  0.00     0.012 A 
ATOM      4  C   UNL     1      13.712  33.949  55.062  1.00  0.00     0.047 A 
ATOM      5  C   UNL     1      11.457  33.391  55.738  1.00  0.00     0.047 A 
ATOM      6  C   UNL     1      12.333  34.037  54.857  1.00  0.00     0.115 A 
ENDROOT
BRANCH   1   7
ATOM      7  C   UNL     1      13.934  31.811  58.170  1.00  0.00     0.010 C 
ATOM      8  C   UNL     1      13.293  31.574  59.323  1.00  0.00     0.025 C 
BRANCH   8   9
ATOM      9  C   UNL     1      13.911  30.816  60.424  1.00  0.00     0.064 C 
ATOM     10  O   UNL     1      13.229  30.421  61.407  1.00  0.00    -0.545 OA
ATOM     11  O   UNL     1      15.270  30.535  60.379  1.00  0.00    -0.545 OA
ENDBRANCH   8   9
ENDBRANCH   1   7
BRANCH   6  12
ATOM     12  O   UNL     1      11.843  34.767  53.775  1.00  0.00    -0.508 OA
ATOM     13  H   UNL     1      11.055  35.396  53.875  1.00  0.00     0.293 HD
ENDBRANCH   6  12
TORSDOF 3
ENDMDL
MODEL 7
REMARK VINA RESULT:    -3.701      8.476      9.976
REMARK INTER + INTRA:          -4.393
REMARK INTER:                  -4.240
REMARK INTRA:                  -0.153
REMARK UNBOUND:                -0.151
REMARK SMILES O=C([O-])C=Cc1ccc(O)cc1
REMARK SMILES IDX 6 1 7 2 12 3 8 4 11 5 9 6 5 7 4 8 2 9 1 10 3 11 10 12
REMARK H PARENT 10 13
REMARK Flexibility Score: inf
ROOT
ATOM      1  C   UNL     1      13.526  32.760  56.999  1.00  0.00    -0.025 A 
ATOM      2  C   UNL     1      14.283  33.389  55.997  1.00  0.00     0.012 A 
ATOM      3  C   UNL     1      12.120  32.747  56.883  1.00  0.00     0.012 A 
ATOM      4  C   UNL     1      13.654  34.013  54.916  1.00  0.00     0.047 A 
ATOM      5  C   UNL     1      11.495  33.372  55.799  1.00  0.00     0.047 A 
ATOM      6  C   UNL     1      12.261  34.008  54.814  1.00  0.00     0.115 A 
ENDROOT
BRANCH   1   7
ATOM      7  C   UNL     1      14.240  32.102  58.122  1.00  0.00     0.010 C 
ATOM      8  C   UNL     1      15.576  32.025  58.214  1.00  0.00     0.025 C 
BRANCH   8   9
ATOM      9  C   UNL     1      16.248  31.353  59.338  1.00  0.00     0.064 C 
ATOM     10  O   UNL     1      15.664  30.462  60.010  1.00  0.00    -0.545 OA
ATOM     11  O   UNL     1      17.550  31.710  59.666  1.00  0.00    -0.545 OA
ENDBRANCH   8   9
ENDBRANCH   1   7
BRANCH   6  12
ATOM     12  O   UNL     1      11.647  34.635  53.731  1.00  0.00    -0.508 OA
ATOM     13  H   UNL     1      11.977  35.527  53.381  1.00  0.00     0.293 HD
ENDBRANCH   6  12
TORSDOF 3
ENDMDL
MODEL 8
REMARK VINA RESULT:    -3.546      4.183      4.971
REMARK INTER + INTRA:          -4.215
REMARK INTER:                  -4.068
REMARK INTRA:                  -0.147
REMARK UNBOUND:                -0.151
REMARK SMILES O=C([O-])C=Cc1ccc(O)cc1
REMARK SMILES IDX 6 1 7 2 12 3 8 4 11 5 9 6 5 7 4 8 2 9 1 10 3 11 10 12
REMARK H PARENT 10 13
REMARK Flexibility Score: inf
ROOT
ATOM      1  C   UNL     1      15.856  35.975  51.505  1.00  0.00    -0.025 A 
ATOM      2  C   UNL     1      16.392  35.308  50.390  1.00  0.00     0.012 A 
ATOM      3  C   UNL     1      15.757  37.382  51.473  1.00  0.00     0.012 A 
ATOM      4  C   UNL     1      16.841  36.027  49.279  1.00  0.00     0.047 A 
ATOM      5  C   UNL     1      16.207  38.097  50.358  1.00  0.00     0.047 A 
ATOM      6  C   UNL     1      16.752  37.421  49.260  1.00  0.00     0.115 A 
ENDROOT
BRANCH   1   7
ATOM      7  C   UNL     1      15.383  35.168  52.658  1.00  0.00     0.010 C 
ATOM      8  C   UNL     1      15.932  34.001  53.026  1.00  0.00     0.025 C 
BRANCH   8   9
ATOM      9  C   UNL     1      15.427  33.222  54.168  1.00  0.00     0.064 C 
ATOM     10  O   UNL     1      14.219  32.869  54.235  1.00  0.00    -0.545 OA
ATOM     11  O   UNL     1      16.297  32.872  55.193  1.00  0.00    -0.545 OA
ENDBRANCH   8   9
ENDBRANCH   1   7
BRANCH   6  12
ATOM     12  O   UNL     1      17.205  38.124  48.145  1.00  0.00    -0.508 OA
ATOM     13  H   UNL     1      17.860  38.891  48.235  1.00  0.00     0.293 HD
ENDBRANCH   6  12
TORSDOF 3
ENDMDL
