MODEL 1
REMARK VINA RESULT:    -3.596      0.000      0.000
REMARK INTER + INTRA:          -8.545
REMARK INTER:                  -6.538
REMARK INTRA:                  -2.006
REMARK UNBOUND:                -2.006
REMARK SMILES CCCCCCCCCCCCCC[C@H](C)C(=O)[O-]
REMARK SMILES IDX 9 1 10 2 11 3 12 4 13 5 14 6 15 7 16 8 17 9 18 10 19 11 8 12
REMARK SMILES IDX 7 13 6 14 5 15 4 16 3 17 2 18 1 19
REMARK H PARENT
REMARK Flexibility Score: inf
ROOT
ATOM      1  C   UNL     1     -17.211  21.594  43.179  1.00  0.00     0.000 C 
ENDROOT
BRANCH   1   2
ATOM      2  C   UNL     1     -17.924  20.963  44.388  1.00  0.00     0.000 C 
BRANCH   2   3
ATOM      3  C   UNL     1     -18.543  21.965  45.382  1.00  0.00     0.000 C 
BRANCH   3   4
ATOM      4  C   UNL     1     -19.907  21.506  45.923  1.00  0.00     0.000 C 
BRANCH   4   5
ATOM      5  C   UNL     1     -20.924  22.656  46.041  1.00  0.00     0.001 C 
BRANCH   5   6
ATOM      6  C   UNL     1     -20.389  24.055  45.664  1.00  0.00     0.009 C 
BRANCH   6   7
ATOM      7  C   UNL     1     -21.011  24.657  44.383  1.00  0.00     0.032 C 
ATOM      8  C   UNL     1     -20.142  25.800  43.851  1.00  0.00     0.014 C 
BRANCH   7   9
ATOM      9  C   UNL     1     -22.413  25.150  44.627  1.00  0.00     0.044 C 
ATOM     10  O   UNL     1     -23.376  24.706  43.947  1.00  0.00    -0.550 OA
ATOM     11  O   UNL     1     -22.650  26.104  45.608  1.00  0.00    -0.550 OA
ENDBRANCH   7   9
ENDBRANCH   6   7
ENDBRANCH   5   6
ENDBRANCH   4   5
ENDBRANCH   3   4
ENDBRANCH   2   3
ENDBRANCH   1   2
BRANCH   1  12
ATOM     12  C   UNL     1     -18.035  22.700  42.503  1.00  0.00     0.000 C 
BRANCH  12  13
ATOM     13  C   UNL     1     -17.260  24.024  42.472  1.00  0.00    -0.000 C 
BRANCH  13  14
ATOM     14  C   UNL     1     -15.889  23.873  43.147  1.00  0.00    -0.000 C 
BRANCH  14  15
ATOM     15  C   UNL     1     -14.723  24.237  42.213  1.00  0.00    -0.000 C 
BRANCH  15  16
ATOM     16  C   UNL     1     -13.546  23.254  42.326  1.00  0.00    -0.000 C 
BRANCH  16  17
ATOM     17  C   UNL     1     -13.353  22.712  43.754  1.00  0.00    -0.000 C 
BRANCH  17  18
ATOM     18  C   UNL     1     -13.529  21.189  43.902  1.00  0.00    -0.003 C 
ATOM     19  C   UNL     1     -14.218  20.790  45.206  1.00  0.00     0.004 C 
ENDBRANCH  17  18
ENDBRANCH  16  17
ENDBRANCH  15  16
ENDBRANCH  14  15
ENDBRANCH  13  14
ENDBRANCH  12  13
ENDBRANCH   1  12
TORSDOF 14
ENDMDL
MODEL 2
REMARK VINA RESULT:    -3.553      3.277      7.114
REMARK INTER + INTRA:          -8.467
REMARK INTER:                  -6.383
REMARK INTRA:                  -2.084
REMARK UNBOUND:                -2.006
REMARK SMILES CCCCCCCCCCCCCC[C@H](C)C(=O)[O-]
REMARK SMILES IDX 9 1 10 2 11 3 12 4 13 5 14 6 15 7 16 8 17 9 18 10 19 11 8 12
REMARK SMILES IDX 7 13 6 14 5 15 4 16 3 17 2 18 1 19
REMARK H PARENT
REMARK Flexibility Score: inf
ROOT
ATOM      1  C   UNL     1     -20.271  22.357  45.696  1.00  0.00     0.000 C 
ENDROOT
BRANCH   1   2
ATOM      2  C   UNL     1     -18.765  22.041  45.647  1.00  0.00     0.000 C 
BRANCH   2   3
ATOM      3  C   UNL     1     -18.348  20.991  44.601  1.00  0.00     0.000 C 
BRANCH   3   4
ATOM      4  C   UNL     1     -17.346  21.536  43.569  1.00  0.00     0.000 C 
BRANCH   4   5
ATOM      5  C   UNL     1     -18.020  22.340  42.443  1.00  0.00     0.001 C 
BRANCH   5   6
ATOM      6  C   UNL     1     -17.660  23.841  42.394  1.00  0.00     0.009 C 
BRANCH   6   7
ATOM      7  C   UNL     1     -16.633  24.290  43.458  1.00  0.00     0.032 C 
ATOM      8  C   UNL     1     -17.154  25.511  44.225  1.00  0.00     0.014 C 
BRANCH   7   9
ATOM      9  C   UNL     1     -15.297  24.605  42.841  1.00  0.00     0.044 C 
ATOM     10  O   UNL     1     -14.938  25.800  42.664  1.00  0.00    -0.550 OA
ATOM     11  O   UNL     1     -14.449  23.572  42.462  1.00  0.00    -0.550 OA
ENDBRANCH   7   9
ENDBRANCH   6   7
ENDBRANCH   5   6
ENDBRANCH   4   5
ENDBRANCH   3   4
ENDBRANCH   2   3
ENDBRANCH   1   2
BRANCH   1  12
ATOM     12  C   UNL     1     -20.566  23.852  45.887  1.00  0.00     0.000 C 
BRANCH  12  13
ATOM     13  C   UNL     1     -20.675  24.569  44.534  1.00  0.00    -0.000 C 
BRANCH  13  14
ATOM     14  C   UNL     1     -21.924  25.463  44.486  1.00  0.00    -0.000 C 
BRANCH  14  15
ATOM     15  C   UNL     1     -23.218  24.664  44.261  1.00  0.00    -0.000 C 
BRANCH  15  16
ATOM     16  C   UNL     1     -24.277  24.939  45.343  1.00  0.00    -0.000 C 
BRANCH  16  17
ATOM     17  C   UNL     1     -24.315  23.852  46.433  1.00  0.00    -0.000 C 
BRANCH  17  18
ATOM     18  C   UNL     1     -24.027  22.423  45.937  1.00  0.00    -0.003 C 
ATOM     19  C   UNL     1     -25.280  21.692  45.457  1.00  0.00     0.004 C 
ENDBRANCH  17  18
ENDBRANCH  16  17
ENDBRANCH  15  16
ENDBRANCH  14  15
ENDBRANCH  13  14
ENDBRANCH  12  13
ENDBRANCH   1  12
TORSDOF 14
ENDMDL
MODEL 3
REMARK VINA RESULT:    -3.549      1.448      2.546
REMARK INTER + INTRA:          -8.460
REMARK INTER:                  -6.589
REMARK INTRA:                  -1.871
REMARK UNBOUND:                -2.006
REMARK SMILES CCCCCCCCCCCCCC[C@H](C)C(=O)[O-]
REMARK SMILES IDX 9 1 10 2 11 3 12 4 13 5 14 6 15 7 16 8 17 9 18 10 19 11 8 12
REMARK SMILES IDX 7 13 6 14 5 15 4 16 3 17 2 18 1 19
REMARK H PARENT
REMARK Flexibility Score: inf
ROOT
ATOM      1  C   UNL     1     -16.941  20.575  45.207  1.00  0.00     0.000 C 
ENDROOT
BRANCH   1   2
ATOM      2  C   UNL     1     -18.396  20.100  45.046  1.00  0.00     0.000 C 
BRANCH   2   3
ATOM      3  C   UNL     1     -19.442  20.905  45.840  1.00  0.00     0.000 C 
BRANCH   3   4
ATOM      4  C   UNL     1     -18.814  21.997  46.722  1.00  0.00     0.000 C 
BRANCH   4   5
ATOM      5  C   UNL     1     -19.131  23.422  46.232  1.00  0.00     0.001 C 
BRANCH   5   6
ATOM      6  C   UNL     1     -20.201  23.518  45.124  1.00  0.00     0.009 C 
BRANCH   6   7
ATOM      7  C   UNL     1     -21.540  24.144  45.576  1.00  0.00     0.032 C 
ATOM      8  C   UNL     1     -22.511  23.054  46.042  1.00  0.00     0.014 C 
BRANCH   7   9
ATOM      9  C   UNL     1     -22.171  24.958  44.478  1.00  0.00     0.044 C 
ATOM     10  O   UNL     1     -21.538  25.903  43.936  1.00  0.00    -0.550 OA
ATOM     11  O   UNL     1     -23.462  24.667  44.057  1.00  0.00    -0.550 OA
ENDBRANCH   7   9
ENDBRANCH   6   7
ENDBRANCH   5   6
ENDBRANCH   4   5
ENDBRANCH   3   4
ENDBRANCH   2   3
ENDBRANCH   1   2
BRANCH   1  12
ATOM     12  C   UNL     1     -16.417  21.336  43.980  1.00  0.00     0.000 C 
BRANCH  12  13
ATOM     13  C   UNL     1     -17.560  21.683  43.017  1.00  0.00    -0.000 C 
BRANCH  13  14
ATOM     14  C   UNL     1     -17.521  23.169  42.630  1.00  0.00    -0.000 C 
BRANCH  14  15
ATOM     15  C   UNL     1     -16.528  23.977  43.481  1.00  0.00    -0.000 C 
BRANCH  15  16
ATOM     16  C   UNL     1     -15.407  24.611  42.637  1.00  0.00    -0.000 C 
BRANCH  16  17
ATOM     17  C   UNL     1     -14.001  24.164  43.077  1.00  0.00    -0.000 C 
BRANCH  17  18
ATOM     18  C   UNL     1     -12.882  24.439  42.056  1.00  0.00    -0.003 C 
ATOM     19  C   UNL     1     -13.345  24.295  40.607  1.00  0.00     0.004 C 
ENDBRANCH  17  18
ENDBRANCH  16  17
ENDBRANCH  15  16
ENDBRANCH  14  15
ENDBRANCH  13  14
ENDBRANCH  12  13
ENDBRANCH   1  12
TORSDOF 14
ENDMDL
MODEL 4
REMARK VINA RESULT:    -3.544      2.249      5.504
REMARK INTER + INTRA:          -8.451
REMARK INTER:                  -6.318
REMARK INTRA:                  -2.133
REMARK UNBOUND:                -2.006
REMARK SMILES CCCCCCCCCCCCCC[C@H](C)C(=O)[O-]
REMARK SMILES IDX 9 1 10 2 11 3 12 4 13 5 14 6 15 7 16 8 17 9 18 10 19 11 8 12
REMARK SMILES IDX 7 13 6 14 5 15 4 16 3 17 2 18 1 19
REMARK H PARENT
REMARK Flexibility Score: inf
ROOT
ATOM      1  C   UNL     1     -17.052  21.707  43.620  1.00  0.00     0.000 C 
ENDROOT
BRANCH   1   2
ATOM      2  C   UNL     1     -17.996  22.177  42.499  1.00  0.00     0.000 C 
BRANCH   2   3
ATOM      3  C   UNL     1     -18.415  23.657  42.571  1.00  0.00     0.000 C 
BRANCH   3   4
ATOM      4  C   UNL     1     -17.410  24.528  43.342  1.00  0.00     0.000 C 
BRANCH   4   5
ATOM      5  C   UNL     1     -18.026  25.841  43.860  1.00  0.00     0.001 C 
BRANCH   5   6
ATOM      6  C   UNL     1     -19.537  26.012  43.598  1.00  0.00     0.009 C 
BRANCH   6   7
ATOM      7  C   UNL     1     -19.884  26.977  42.441  1.00  0.00     0.032 C 
ATOM      8  C   UNL     1     -18.622  27.685  41.938  1.00  0.00     0.014 C 
BRANCH   7   9
ATOM      9  C   UNL     1     -20.911  27.995  42.857  1.00  0.00     0.044 C 
ATOM     10  O   UNL     1     -21.138  29.007  42.140  1.00  0.00    -0.550 OA
ATOM     11  O   UNL     1     -21.617  27.823  44.041  1.00  0.00    -0.550 OA
ENDBRANCH   7   9
ENDBRANCH   6   7
ENDBRANCH   5   6
ENDBRANCH   4   5
ENDBRANCH   3   4
ENDBRANCH   2   3
ENDBRANCH   1   2
BRANCH   1  12
ATOM     12  C   UNL     1     -17.640  20.566  44.464  1.00  0.00     0.000 C 
BRANCH  12  13
ATOM     13  C   UNL     1     -18.887  21.032  45.226  1.00  0.00    -0.000 C 
BRANCH  13  14
ATOM     14  C   UNL     1     -18.538  22.149  46.221  1.00  0.00    -0.000 C 
BRANCH  14  15
ATOM     15  C   UNL     1     -19.503  23.342  46.138  1.00  0.00    -0.000 C 
BRANCH  15  16
ATOM     16  C   UNL     1     -20.908  22.932  45.662  1.00  0.00    -0.000 C 
BRANCH  16  17
ATOM     17  C   UNL     1     -21.967  24.021  45.916  1.00  0.00    -0.000 C 
BRANCH  17  18
ATOM     18  C   UNL     1     -22.753  24.466  44.669  1.00  0.00    -0.003 C 
ATOM     19  C   UNL     1     -24.197  23.966  44.661  1.00  0.00     0.004 C 
ENDBRANCH  17  18
ENDBRANCH  16  17
ENDBRANCH  15  16
ENDBRANCH  14  15
ENDBRANCH  13  14
ENDBRANCH  12  13
ENDBRANCH   1  12
TORSDOF 14
ENDMDL
MODEL 5
REMARK VINA RESULT:    -3.535      2.184      4.328
REMARK INTER + INTRA:          -8.434
REMARK INTER:                  -5.576
REMARK INTRA:                  -2.857
REMARK UNBOUND:                -2.006
REMARK SMILES CCCCCCCCCCCCCC[C@H](C)C(=O)[O-]
REMARK SMILES IDX 9 1 10 2 11 3 12 4 13 5 14 6 15 7 16 8 17 9 18 10 19 11 8 12
REMARK SMILES IDX 7 13 6 14 5 15 4 16 3 17 2 18 1 19
REMARK H PARENT
REMARK Flexibility Score: inf
ROOT
ATOM      1  C   UNL     1     -16.664  20.984  44.713  1.00  0.00     0.000 C 
ENDROOT
BRANCH   1   2
ATOM      2  C   UNL     1     -16.380  21.824  43.455  1.00  0.00     0.000 C 
BRANCH   2   3
ATOM      3  C   UNL     1     -17.624  22.237  42.646  1.00  0.00     0.000 C 
BRANCH   3   4
ATOM      4  C   UNL     1     -17.674  23.745  42.351  1.00  0.00     0.000 C 
BRANCH   4   5
ATOM      5  C   UNL     1     -19.085  24.342  42.507  1.00  0.00     0.001 C 
BRANCH   5   6
ATOM      6  C   UNL     1     -19.146  25.881  42.611  1.00  0.00     0.009 C 
BRANCH   6   7
ATOM      7  C   UNL     1     -20.030  26.413  43.762  1.00  0.00     0.032 C 
ATOM      8  C   UNL     1     -21.263  25.522  43.947  1.00  0.00     0.014 C 
BRANCH   7   9
ATOM      9  C   UNL     1     -20.458  27.836  43.520  1.00  0.00     0.044 C 
ATOM     10  O   UNL     1     -20.966  28.518  44.450  1.00  0.00    -0.550 OA
ATOM     11  O   UNL     1     -20.294  28.404  42.264  1.00  0.00    -0.550 OA
ENDBRANCH   7   9
ENDBRANCH   6   7
ENDBRANCH   5   6
ENDBRANCH   4   5
ENDBRANCH   3   4
ENDBRANCH   2   3
ENDBRANCH   1   2
BRANCH   1  12
ATOM     12  C   UNL     1     -18.063  20.350  44.711  1.00  0.00     0.000 C 
BRANCH  12  13
ATOM     13  C   UNL     1     -18.902  20.862  45.888  1.00  0.00    -0.000 C 
BRANCH  13  14
ATOM     14  C   UNL     1     -19.795  22.035  45.456  1.00  0.00    -0.000 C 
BRANCH  14  15
ATOM     15  C   UNL     1     -19.851  23.156  46.506  1.00  0.00    -0.000 C 
BRANCH  15  16
ATOM     16  C   UNL     1     -18.453  23.601  46.971  1.00  0.00    -0.000 C 
BRANCH  16  17
ATOM     17  C   UNL     1     -17.773  24.566  45.984  1.00  0.00    -0.000 C 
BRANCH  17  18
ATOM     18  C   UNL     1     -16.236  24.481  45.946  1.00  0.00    -0.003 C 
ATOM     19  C   UNL     1     -15.609  25.416  44.912  1.00  0.00     0.004 C 
ENDBRANCH  17  18
ENDBRANCH  16  17
ENDBRANCH  15  16
ENDBRANCH  14  15
ENDBRANCH  13  14
ENDBRANCH  12  13
ENDBRANCH   1  12
TORSDOF 14
ENDMDL
MODEL 6
REMARK VINA RESULT:    -3.528      1.468      3.267
REMARK INTER + INTRA:          -8.421
REMARK INTER:                  -5.944
REMARK INTRA:                  -2.477
REMARK UNBOUND:                -2.006
REMARK SMILES CCCCCCCCCCCCCC[C@H](C)C(=O)[O-]
REMARK SMILES IDX 9 1 10 2 11 3 12 4 13 5 14 6 15 7 16 8 17 9 18 10 19 11 8 12
REMARK SMILES IDX 7 13 6 14 5 15 4 16 3 17 2 18 1 19
REMARK H PARENT
REMARK Flexibility Score: inf
ROOT
ATOM      1  C   UNL     1     -16.895  22.801  44.806  1.00  0.00     0.000 C 
ENDROOT
BRANCH   1   2
ATOM      2  C   UNL     1     -17.574  21.791  43.864  1.00  0.00     0.000 C 
BRANCH   2   3
ATOM      3  C   UNL     1     -17.965  22.343  42.480  1.00  0.00     0.000 C 
BRANCH   3   4
ATOM      4  C   UNL     1     -17.687  23.849  42.336  1.00  0.00     0.000 C 
BRANCH   4   5
ATOM      5  C   UNL     1     -18.967  24.704  42.383  1.00  0.00     0.001 C 
BRANCH   5   6
ATOM      6  C   UNL     1     -19.035  25.731  43.533  1.00  0.00     0.009 C 
BRANCH   6   7
ATOM      7  C   UNL     1     -20.254  25.568  44.468  1.00  0.00     0.032 C 
ATOM      8  C   UNL     1     -20.352  24.125  44.975  1.00  0.00     0.014 C 
BRANCH   7   9
ATOM      9  C   UNL     1     -21.536  25.957  43.782  1.00  0.00     0.044 C 
ATOM     10  O   UNL     1     -21.603  27.014  43.099  1.00  0.00    -0.550 OA
ATOM     11  O   UNL     1     -22.658  25.147  43.900  1.00  0.00    -0.550 OA
ENDBRANCH   7   9
ENDBRANCH   6   7
ENDBRANCH   5   6
ENDBRANCH   4   5
ENDBRANCH   3   4
ENDBRANCH   2   3
ENDBRANCH   1   2
BRANCH   1  12
ATOM     12  C   UNL     1     -15.524  22.326  45.311  1.00  0.00     0.000 C 
BRANCH  12  13
ATOM     13  C   UNL     1     -14.949  21.236  44.399  1.00  0.00    -0.000 C 
BRANCH  13  14
ATOM     14  C   UNL     1     -13.642  21.704  43.741  1.00  0.00    -0.000 C 
BRANCH  14  15
ATOM     15  C   UNL     1     -13.882  22.629  42.537  1.00  0.00    -0.000 C 
BRANCH  15  16
ATOM     16  C   UNL     1     -13.343  24.052  42.770  1.00  0.00    -0.000 C 
BRANCH  16  17
ATOM     17  C   UNL     1     -14.179  25.132  42.059  1.00  0.00    -0.000 C 
BRANCH  17  18
ATOM     18  C   UNL     1     -14.480  26.383  42.905  1.00  0.00    -0.003 C 
ATOM     19  C   UNL     1     -15.306  26.078  44.154  1.00  0.00     0.004 C 
ENDBRANCH  17  18
ENDBRANCH  16  17
ENDBRANCH  15  16
ENDBRANCH  14  15
ENDBRANCH  13  14
ENDBRANCH  12  13
ENDBRANCH   1  12
TORSDOF 14
ENDMDL
MODEL 7
REMARK VINA RESULT:    -3.518      3.599      6.708
REMARK INTER + INTRA:          -8.404
REMARK INTER:                  -6.321
REMARK INTRA:                  -2.083
REMARK UNBOUND:                -2.006
REMARK SMILES CCCCCCCCCCCCCC[C@H](C)C(=O)[O-]
REMARK SMILES IDX 9 1 10 2 11 3 12 4 13 5 14 6 15 7 16 8 17 9 18 10 19 11 8 12
REMARK SMILES IDX 7 13 6 14 5 15 4 16 3 17 2 18 1 19
REMARK H PARENT
REMARK Flexibility Score: inf
ROOT
ATOM      1  C   UNL     1     -20.509  22.911  45.504  1.00  0.00     0.000 C 
ENDROOT
BRANCH   1   2
ATOM      2  C   UNL     1     -18.986  22.715  45.393  1.00  0.00     0.000 C 
BRANCH   2   3
ATOM      3  C   UNL     1     -18.539  21.358  44.820  1.00  0.00     0.000 C 
BRANCH   3   4
ATOM      4  C   UNL     1     -17.584  21.498  43.622  1.00  0.00     0.000 C 
BRANCH   4   5
ATOM      5  C   UNL     1     -18.070  22.525  42.583  1.00  0.00     0.001 C 
BRANCH   5   6
ATOM      6  C   UNL     1     -17.095  23.686  42.294  1.00  0.00     0.009 C 
BRANCH   6   7
ATOM      7  C   UNL     1     -16.077  23.966  43.423  1.00  0.00     0.032 C 
ATOM      8  C   UNL     1     -16.249  25.392  43.959  1.00  0.00     0.014 C 
BRANCH   7   9
ATOM      9  C   UNL     1     -14.660  23.763  42.956  1.00  0.00     0.044 C 
ATOM     10  O   UNL     1     -13.873  24.742  42.853  1.00  0.00    -0.550 OA
ATOM     11  O   UNL     1     -14.214  22.488  42.634  1.00  0.00    -0.550 OA
ENDBRANCH   7   9
ENDBRANCH   6   7
ENDBRANCH   5   6
ENDBRANCH   4   5
ENDBRANCH   3   4
ENDBRANCH   2   3
ENDBRANCH   1   2
BRANCH   1  12
ATOM     12  C   UNL     1     -20.959  24.339  45.162  1.00  0.00     0.000 C 
BRANCH  12  13
ATOM     13  C   UNL     1     -19.867  25.091  44.392  1.00  0.00    -0.000 C 
BRANCH  13  14
ATOM     14  C   UNL     1     -20.465  25.870  43.210  1.00  0.00    -0.000 C 
BRANCH  14  15
ATOM     15  C   UNL     1     -19.421  26.214  42.136  1.00  0.00    -0.000 C 
BRANCH  15  16
ATOM     16  C   UNL     1     -18.992  27.692  42.181  1.00  0.00    -0.000 C 
BRANCH  16  17
ATOM     17  C   UNL     1     -20.023  28.593  42.884  1.00  0.00    -0.000 C 
BRANCH  17  18
ATOM     18  C   UNL     1     -20.687  29.649  41.981  1.00  0.00    -0.003 C 
ATOM     19  C   UNL     1     -22.210  29.534  41.945  1.00  0.00     0.004 C 
ENDBRANCH  17  18
ENDBRANCH  16  17
ENDBRANCH  15  16
ENDBRANCH  14  15
ENDBRANCH  13  14
ENDBRANCH  12  13
ENDBRANCH   1  12
TORSDOF 14
ENDMDL
MODEL 8
REMARK VINA RESULT:    -3.518      3.783      6.805
REMARK INTER + INTRA:          -8.404
REMARK INTER:                  -6.206
REMARK INTRA:                  -2.198
REMARK UNBOUND:                -2.006
REMARK SMILES CCCCCCCCCCCCCC[C@H](C)C(=O)[O-]
REMARK SMILES IDX 9 1 10 2 11 3 12 4 13 5 14 6 15 7 16 8 17 9 18 10 19 11 8 12
REMARK SMILES IDX 7 13 6 14 5 15 4 16 3 17 2 18 1 19
REMARK H PARENT
REMARK Flexibility Score: inf
ROOT
ATOM      1  C   UNL     1     -17.999  20.396  44.671  1.00  0.00     0.000 C 
ENDROOT
BRANCH   1   2
ATOM      2  C   UNL     1     -17.647  21.401  43.560  1.00  0.00     0.000 C 
BRANCH   2   3
ATOM      3  C   UNL     1     -16.200  21.927  43.584  1.00  0.00     0.000 C 
BRANCH   3   4
ATOM      4  C   UNL     1     -15.985  23.043  44.619  1.00  0.00     0.000 C 
BRANCH   4   5
ATOM      5  C   UNL     1     -15.530  24.371  43.986  1.00  0.00     0.001 C 
BRANCH   5   6
ATOM      6  C   UNL     1     -15.177  24.302  42.484  1.00  0.00     0.009 C 
BRANCH   6   7
ATOM      7  C   UNL     1     -13.703  24.629  42.155  1.00  0.00     0.032 C 
ATOM      8  C   UNL     1     -13.398  24.312  40.687  1.00  0.00     0.014 C 
BRANCH   7   9
ATOM      9  C   UNL     1     -12.754  23.876  43.049  1.00  0.00     0.044 C 
ATOM     10  O   UNL     1     -11.952  24.495  43.799  1.00  0.00    -0.550 OA
ATOM     11  O   UNL     1     -12.759  22.488  43.050  1.00  0.00    -0.550 OA
ENDBRANCH   7   9
ENDBRANCH   6   7
ENDBRANCH   5   6
ENDBRANCH   4   5
ENDBRANCH   3   4
ENDBRANCH   2   3
ENDBRANCH   1   2
BRANCH   1  12
ATOM     12  C   UNL     1     -18.990  20.959  45.701  1.00  0.00     0.000 C 
BRANCH  12  13
ATOM     13  C   UNL     1     -19.530  22.324  45.256  1.00  0.00    -0.000 C 
BRANCH  13  14
ATOM     14  C   UNL     1     -19.276  23.392  46.331  1.00  0.00    -0.000 C 
BRANCH  14  15
ATOM     15  C   UNL     1     -19.994  24.717  46.032  1.00  0.00    -0.000 C 
BRANCH  15  16
ATOM     16  C   UNL     1     -20.837  24.656  44.745  1.00  0.00    -0.000 C 
BRANCH  16  17
ATOM     17  C   UNL     1     -20.483  25.771  43.745  1.00  0.00    -0.000 C 
BRANCH  17  18
ATOM     18  C   UNL     1     -19.054  25.706  43.176  1.00  0.00    -0.003 C 
ATOM     19  C   UNL     1     -18.844  24.537  42.215  1.00  0.00     0.004 C 
ENDBRANCH  17  18
ENDBRANCH  16  17
ENDBRANCH  15  16
ENDBRANCH  14  15
ENDBRANCH  13  14
ENDBRANCH  12  13
ENDBRANCH   1  12
TORSDOF 14
ENDMDL
MODEL 9
REMARK VINA RESULT:    -3.516      2.668      4.628
REMARK INTER + INTRA:          -8.399
REMARK INTER:                  -6.131
REMARK INTRA:                  -2.268
REMARK UNBOUND:                -2.006
REMARK SMILES CCCCCCCCCCCCCC[C@H](C)C(=O)[O-]
REMARK SMILES IDX 9 1 10 2 11 3 12 4 13 5 14 6 15 7 16 8 17 9 18 10 19 11 8 12
REMARK SMILES IDX 7 13 6 14 5 15 4 16 3 17 2 18 1 19
REMARK H PARENT
REMARK Flexibility Score: inf
ROOT
ATOM      1  C   UNL     1     -13.445  22.169  44.146  1.00  0.00     0.000 C 
ENDROOT
BRANCH   1   2
ATOM      2  C   UNL     1     -14.651  21.397  43.583  1.00  0.00     0.000 C 
BRANCH   2   3
ATOM      3  C   UNL     1     -15.813  21.182  44.570  1.00  0.00     0.000 C 
BRANCH   3   4
ATOM      4  C   UNL     1     -17.174  21.023  43.870  1.00  0.00     0.000 C 
BRANCH   4   5
ATOM      5  C   UNL     1     -17.942  22.352  43.742  1.00  0.00     0.001 C 
BRANCH   5   6
ATOM      6  C   UNL     1     -17.552  23.228  42.532  1.00  0.00     0.009 C 
BRANCH   6   7
ATOM      7  C   UNL     1     -17.106  24.662  42.895  1.00  0.00     0.032 C 
ATOM      8  C   UNL     1     -16.546  24.705  44.321  1.00  0.00     0.014 C 
BRANCH   7   9
ATOM      9  C   UNL     1     -18.238  25.646  42.761  1.00  0.00     0.044 C 
ATOM     10  O   UNL     1     -19.216  25.399  42.006  1.00  0.00    -0.550 OA
ATOM     11  O   UNL     1     -18.207  26.838  43.473  1.00  0.00    -0.550 OA
ENDBRANCH   7   9
ENDBRANCH   6   7
ENDBRANCH   5   6
ENDBRANCH   4   5
ENDBRANCH   3   4
ENDBRANCH   2   3
ENDBRANCH   1   2
BRANCH   1  12
ATOM     12  C   UNL     1     -13.002  23.334  43.249  1.00  0.00     0.000 C 
BRANCH  12  13
ATOM     13  C   UNL     1     -13.617  23.213  41.848  1.00  0.00    -0.000 C 
BRANCH  13  14
ATOM     14  C   UNL     1     -13.589  24.565  41.118  1.00  0.00    -0.000 C 
BRANCH  14  15
ATOM     15  C   UNL     1     -12.411  25.451  41.555  1.00  0.00    -0.000 C 
BRANCH  15  16
ATOM     16  C   UNL     1     -12.842  26.896  41.862  1.00  0.00    -0.000 C 
BRANCH  16  17
ATOM     17  C   UNL     1     -14.277  26.989  42.412  1.00  0.00    -0.000 C 
BRANCH  17  18
ATOM     18  C   UNL     1     -14.775  28.420  42.692  1.00  0.00    -0.003 C 
ATOM     19  C   UNL     1     -15.955  28.826  41.810  1.00  0.00     0.004 C 
ENDBRANCH  17  18
ENDBRANCH  16  17
ENDBRANCH  15  16
ENDBRANCH  14  15
ENDBRANCH  13  14
ENDBRANCH  12  13
ENDBRANCH   1  12
TORSDOF 14
ENDMDL
