MODEL 1
REMARK VINA RESULT:    -3.273      0.000      0.000
REMARK INTER + INTRA:          -3.969
REMARK INTER:                  -3.847
REMARK INTRA:                  -0.122
REMARK UNBOUND:                -0.122
REMARK SMILES CCCCC(=O)[O-]
REMARK SMILES IDX 4 1 5 2 6 3 7 4 3 5 2 6 1 7
REMARK H PARENT
REMARK Flexibility Score: inf
ROOT
ATOM      1  C   UNL     1      60.155  29.401  10.924  1.00  0.00     0.053 C 
ENDROOT
BRANCH   1   2
ATOM      2  C   UNL     1      61.111  28.539  10.162  1.00  0.00     0.041 C 
ATOM      3  O   UNL     1      60.683  27.711   9.316  1.00  0.00    -0.550 OA
ATOM      4  O   UNL     1      62.480  28.683  10.352  1.00  0.00    -0.550 OA
ENDBRANCH   1   2
BRANCH   1   5
ATOM      5  C   UNL     1      59.357  28.559  11.927  1.00  0.00     0.006 C 
BRANCH   5   6
ATOM      6  C   UNL     1      60.241  27.968  13.036  1.00  0.00    -0.003 C 
ATOM      7  C   UNL     1      61.027  29.035  13.796  1.00  0.00     0.004 C 
ENDBRANCH   5   6
ENDBRANCH   1   5
TORSDOF 3
ENDMDL
MODEL 2
REMARK VINA RESULT:    -3.264     14.583     16.045
REMARK INTER + INTRA:          -3.959
REMARK INTER:                  -3.884
REMARK INTRA:                  -0.075
REMARK UNBOUND:                -0.122
REMARK SMILES CCCCC(=O)[O-]
REMARK SMILES IDX 4 1 5 2 6 3 7 4 3 5 2 6 1 7
REMARK H PARENT
REMARK Flexibility Score: inf
ROOT
ATOM      1  C   UNL     1      62.032  27.883  27.292  1.00  0.00     0.053 C 
ENDROOT
BRANCH   1   2
ATOM      2  C   UNL     1      61.610  29.045  28.134  1.00  0.00     0.041 C 
ATOM      3  O   UNL     1      62.202  30.152  28.030  1.00  0.00    -0.550 OA
ATOM      4  O   UNL     1      60.531  28.921  29.000  1.00  0.00    -0.550 OA
ENDBRANCH   1   2
BRANCH   1   5
ATOM      5  C   UNL     1      60.804  27.109  26.795  1.00  0.00     0.006 C 
BRANCH   5   6
ATOM      6  C   UNL     1      60.408  27.489  25.360  1.00  0.00    -0.003 C 
ATOM      7  C   UNL     1      61.561  28.117  24.576  1.00  0.00     0.004 C 
ENDBRANCH   5   6
ENDBRANCH   1   5
TORSDOF 3
ENDMDL
MODEL 3
REMARK VINA RESULT:    -3.248      1.168      1.407
REMARK INTER + INTRA:          -3.940
REMARK INTER:                  -3.832
REMARK INTRA:                  -0.108
REMARK UNBOUND:                -0.122
REMARK SMILES CCCCC(=O)[O-]
REMARK SMILES IDX 4 1 5 2 6 3 7 4 3 5 2 6 1 7
REMARK H PARENT
REMARK Flexibility Score: inf
ROOT
ATOM      1  C   UNL     1      59.670  29.422  11.340  1.00  0.00     0.053 C 
ENDROOT
BRANCH   1   2
ATOM      2  C   UNL     1      60.082  28.989   9.969  1.00  0.00     0.041 C 
ATOM      3  O   UNL     1      59.799  29.697   8.968  1.00  0.00    -0.550 OA
ATOM      4  O   UNL     1      60.825  27.826   9.801  1.00  0.00    -0.550 OA
ENDBRANCH   1   2
BRANCH   1   5
ATOM      5  C   UNL     1      59.830  28.267  12.337  1.00  0.00     0.006 C 
BRANCH   5   6
ATOM      6  C   UNL     1      60.761  28.623  13.507  1.00  0.00    -0.003 C 
ATOM      7  C   UNL     1      62.239  28.585  13.119  1.00  0.00     0.004 C 
ENDBRANCH   5   6
ENDBRANCH   1   5
TORSDOF 3
ENDMDL
MODEL 4
REMARK VINA RESULT:    -3.199     14.633     15.866
REMARK INTER + INTRA:          -3.883
REMARK INTER:                  -3.781
REMARK INTRA:                  -0.102
REMARK UNBOUND:                -0.122
REMARK SMILES CCCCC(=O)[O-]
REMARK SMILES IDX 4 1 5 2 6 3 7 4 3 5 2 6 1 7
REMARK H PARENT
REMARK Flexibility Score: inf
ROOT
ATOM      1  C   UNL     1      61.666  27.136  26.902  1.00  0.00     0.053 C 
ENDROOT
BRANCH   1   2
ATOM      2  C   UNL     1      61.109  27.718  28.162  1.00  0.00     0.041 C 
ATOM      3  O   UNL     1      61.101  28.965  28.337  1.00  0.00    -0.550 OA
ATOM      4  O   UNL     1      60.551  26.885  29.125  1.00  0.00    -0.550 OA
ENDBRANCH   1   2
BRANCH   1   5
ATOM      5  C   UNL     1      60.749  27.456  25.714  1.00  0.00     0.006 C 
BRANCH   5   6
ATOM      6  C   UNL     1      61.510  28.082  24.534  1.00  0.00    -0.003 C 
ATOM      7  C   UNL     1      62.181  29.406  24.899  1.00  0.00     0.004 C 
ENDBRANCH   5   6
ENDBRANCH   1   5
TORSDOF 3
ENDMDL
MODEL 5
REMARK VINA RESULT:    -3.145      2.292      3.183
REMARK INTER + INTRA:          -3.819
REMARK INTER:                  -3.717
REMARK INTRA:                  -0.102
REMARK UNBOUND:                -0.122
REMARK SMILES CCCCC(=O)[O-]
REMARK SMILES IDX 4 1 5 2 6 3 7 4 3 5 2 6 1 7
REMARK H PARENT
REMARK Flexibility Score: inf
ROOT
ATOM      1  C   UNL     1      59.615  28.892  11.077  1.00  0.00     0.053 C 
ENDROOT
BRANCH   1   2
ATOM      2  C   UNL     1      59.488  28.335  12.460  1.00  0.00     0.041 C 
ATOM      3  O   UNL     1      58.402  27.822  12.840  1.00  0.00    -0.550 OA
ATOM      4  O   UNL     1      60.584  28.336  13.314  1.00  0.00    -0.550 OA
ENDBRANCH   1   2
BRANCH   1   5
ATOM      5  C   UNL     1      60.726  28.166  10.308  1.00  0.00     0.006 C 
BRANCH   5   6
ATOM      6  C   UNL     1      61.827  29.121   9.822  1.00  0.00    -0.003 C 
ATOM      7  C   UNL     1      63.052  29.126  10.738  1.00  0.00     0.004 C 
ENDBRANCH   5   6
ENDBRANCH   1   5
TORSDOF 3
ENDMDL
MODEL 6
REMARK VINA RESULT:    -3.145      2.716      3.095
REMARK INTER + INTRA:          -3.819
REMARK INTER:                  -3.801
REMARK INTRA:                  -0.018
REMARK UNBOUND:                -0.122
REMARK SMILES CCCCC(=O)[O-]
REMARK SMILES IDX 4 1 5 2 6 3 7 4 3 5 2 6 1 7
REMARK H PARENT
REMARK Flexibility Score: inf
ROOT
ATOM      1  C   UNL     1      60.448  30.254  11.469  1.00  0.00     0.053 C 
ENDROOT
BRANCH   1   2
ATOM      2  C   UNL     1      59.594  29.048  11.234  1.00  0.00     0.041 C 
ATOM      3  O   UNL     1      59.372  28.646  10.062  1.00  0.00    -0.550 OA
ATOM      4  O   UNL     1      59.082  28.337  12.313  1.00  0.00    -0.550 OA
ENDBRANCH   1   2
BRANCH   1   5
ATOM      5  C   UNL     1      59.966  31.017  12.709  1.00  0.00     0.006 C 
BRANCH   5   6
ATOM      6  C   UNL     1      60.675  32.370  12.881  1.00  0.00    -0.003 C 
ATOM      7  C   UNL     1      60.301  33.071  14.188  1.00  0.00     0.004 C 
ENDBRANCH   5   6
ENDBRANCH   1   5
TORSDOF 3
ENDMDL
MODEL 7
REMARK VINA RESULT:    -3.103      2.312      3.224
REMARK INTER + INTRA:          -3.769
REMARK INTER:                  -3.665
REMARK INTRA:                  -0.104
REMARK UNBOUND:                -0.122
REMARK SMILES CCCCC(=O)[O-]
REMARK SMILES IDX 4 1 5 2 6 3 7 4 3 5 2 6 1 7
REMARK H PARENT
REMARK Flexibility Score: inf
ROOT
ATOM      1  C   UNL     1      60.576  28.627  13.336  1.00  0.00     0.053 C 
ENDROOT
BRANCH   1   2
ATOM      2  C   UNL     1      59.397  28.238  12.501  1.00  0.00     0.041 C 
ATOM      3  O   UNL     1      58.495  27.503  12.981  1.00  0.00    -0.550 OA
ATOM      4  O   UNL     1      59.270  28.728  11.207  1.00  0.00    -0.550 OA
ENDBRANCH   1   2
BRANCH   1   5
ATOM      5  C   UNL     1      61.466  29.618  12.576  1.00  0.00     0.006 C 
BRANCH   5   6
ATOM      6  C   UNL     1      62.761  28.972  12.060  1.00  0.00    -0.003 C 
ATOM      7  C   UNL     1      62.879  29.020  10.536  1.00  0.00     0.004 C 
ENDBRANCH   5   6
ENDBRANCH   1   5
TORSDOF 3
ENDMDL
MODEL 8
REMARK VINA RESULT:    -3.090      1.594      2.127
REMARK INTER + INTRA:          -3.755
REMARK INTER:                  -3.645
REMARK INTRA:                  -0.109
REMARK UNBOUND:                -0.122
REMARK SMILES CCCCC(=O)[O-]
REMARK SMILES IDX 4 1 5 2 6 3 7 4 3 5 2 6 1 7
REMARK H PARENT
REMARK Flexibility Score: inf
ROOT
ATOM      1  C   UNL     1      61.523  29.379   9.684  1.00  0.00     0.053 C 
ENDROOT
BRANCH   1   2
ATOM      2  C   UNL     1      62.930  29.054  10.075  1.00  0.00     0.041 C 
ATOM      3  O   UNL     1      63.772  28.728   9.197  1.00  0.00    -0.550 OA
ATOM      4  O   UNL     1      63.325  29.159  11.403  1.00  0.00    -0.550 OA
ENDBRANCH   1   2
BRANCH   1   5
ATOM      5  C   UNL     1      60.575  28.252  10.115  1.00  0.00     0.006 C 
BRANCH   5   6
ATOM      6  C   UNL     1      59.624  28.681  11.244  1.00  0.00    -0.003 C 
ATOM      7  C   UNL     1      60.064  28.166  12.614  1.00  0.00     0.004 C 
ENDBRANCH   5   6
ENDBRANCH   1   5
TORSDOF 3
ENDMDL
MODEL 9
REMARK VINA RESULT:    -3.090     14.454     15.623
REMARK INTER + INTRA:          -3.754
REMARK INTER:                  -3.681
REMARK INTRA:                  -0.073
REMARK UNBOUND:                -0.122
REMARK SMILES CCCCC(=O)[O-]
REMARK SMILES IDX 4 1 5 2 6 3 7 4 3 5 2 6 1 7
REMARK H PARENT
REMARK Flexibility Score: inf
ROOT
ATOM      1  C   UNL     1      61.475  27.165  27.327  1.00  0.00     0.053 C 
ENDROOT
BRANCH   1   2
ATOM      2  C   UNL     1      61.251  27.132  25.848  1.00  0.00     0.041 C 
ATOM      3  O   UNL     1      62.202  26.861  25.068  1.00  0.00    -0.550 OA
ATOM      4  O   UNL     1      59.979  27.350  25.332  1.00  0.00    -0.550 OA
ENDBRANCH   1   2
BRANCH   1   5
ATOM      5  C   UNL     1      61.169  28.562  27.883  1.00  0.00     0.006 C 
BRANCH   5   6
ATOM      6  C   UNL     1      62.252  29.590  27.523  1.00  0.00    -0.003 C 
ATOM      7  C   UNL     1      62.616  30.500  28.697  1.00  0.00     0.004 C 
ENDBRANCH   5   6
ENDBRANCH   1   5
TORSDOF 3
ENDMDL
