MODEL 1
REMARK VINA RESULT:    -4.677      0.000      0.000
REMARK INTER + INTRA:         -10.168
REMARK INTER:                  -8.505
REMARK INTRA:                  -1.663
REMARK UNBOUND:                -1.663
REMARK SMILES CCCCCCCCCCCCCCCC(=O)[O-]
REMARK SMILES IDX 9 1 10 2 11 3 12 4 13 5 14 6 15 7 16 8 17 9 18 10 8 11 7 12
REMARK SMILES IDX 6 13 5 14 4 15 3 16 2 17 1 18
REMARK H PARENT
REMARK Flexibility Score: inf
ROOT
ATOM      1  C   UNL     1      43.970  21.034  21.252  1.00  0.00     0.000 C 
ENDROOT
BRANCH   1   2
ATOM      2  C   UNL     1      45.502  21.015  21.111  1.00  0.00     0.000 C 
BRANCH   2   3
ATOM      3  C   UNL     1      46.123  22.416  21.230  1.00  0.00     0.000 C 
BRANCH   3   4
ATOM      4  C   UNL     1      46.837  22.860  19.942  1.00  0.00     0.000 C 
BRANCH   4   5
ATOM      5  C   UNL     1      46.038  23.951  19.221  1.00  0.00     0.000 C 
BRANCH   5   6
ATOM      6  C   UNL     1      45.562  25.028  20.208  1.00  0.00     0.006 C 
BRANCH   6   7
ATOM      7  C   UNL     1      44.917  26.224  19.496  1.00  0.00     0.053 C 
BRANCH   7   8
ATOM      8  C   UNL     1      43.915  26.916  20.369  1.00  0.00     0.041 C 
ATOM      9  O   UNL     1      42.702  26.957  20.033  1.00  0.00    -0.550 OA
ATOM     10  O   UNL     1      44.328  27.543  21.538  1.00  0.00    -0.550 OA
ENDBRANCH   7   8
ENDBRANCH   6   7
ENDBRANCH   5   6
ENDBRANCH   4   5
ENDBRANCH   3   4
ENDBRANCH   2   3
ENDBRANCH   1   2
BRANCH   1  11
ATOM     11  C   UNL     1      43.432  22.417  21.653  1.00  0.00     0.000 C 
BRANCH  11  12
ATOM     12  C   UNL     1      42.077  22.741  21.002  1.00  0.00    -0.000 C 
BRANCH  12  13
ATOM     13  C   UNL     1      42.272  23.507  19.686  1.00  0.00    -0.000 C 
BRANCH  13  14
ATOM     14  C   UNL     1      42.426  22.578  18.467  1.00  0.00    -0.000 C 
BRANCH  14  15
ATOM     15  C   UNL     1      41.146  22.378  17.635  1.00  0.00    -0.000 C 
BRANCH  15  16
ATOM     16  C   UNL     1      39.999  23.304  18.069  1.00  0.00    -0.000 C 
BRANCH  16  17
ATOM     17  C   UNL     1      38.877  23.314  17.024  1.00  0.00    -0.003 C 
ATOM     18  C   UNL     1      37.535  22.949  17.653  1.00  0.00     0.004 C 
ENDBRANCH  16  17
ENDBRANCH  15  16
ENDBRANCH  14  15
ENDBRANCH  13  14
ENDBRANCH  12  13
ENDBRANCH  11  12
ENDBRANCH   1  11
TORSDOF 14
ENDMDL
MODEL 2
REMARK VINA RESULT:    -4.565      1.164      1.907
REMARK INTER + INTRA:          -9.964
REMARK INTER:                  -8.182
REMARK INTRA:                  -1.782
REMARK UNBOUND:                -1.663
REMARK SMILES CCCCCCCCCCCCCCCC(=O)[O-]
REMARK SMILES IDX 9 1 10 2 11 3 12 4 13 5 14 6 15 7 16 8 17 9 18 10 8 11 7 12
REMARK SMILES IDX 6 13 5 14 4 15 3 16 2 17 1 18
REMARK H PARENT
REMARK Flexibility Score: inf
ROOT
ATOM      1  C   UNL     1      46.105  21.674  21.061  1.00  0.00     0.000 C 
ENDROOT
BRANCH   1   2
ATOM      2  C   UNL     1      46.282  22.850  20.085  1.00  0.00     0.000 C 
BRANCH   2   3
ATOM      3  C   UNL     1      47.105  24.000  20.689  1.00  0.00     0.000 C 
BRANCH   3   4
ATOM      4  C   UNL     1      46.298  25.301  20.823  1.00  0.00     0.000 C 
BRANCH   4   5
ATOM      5  C   UNL     1      45.154  25.344  19.803  1.00  0.00     0.000 C 
BRANCH   5   6
ATOM      6  C   UNL     1      44.437  26.702  19.837  1.00  0.00     0.006 C 
BRANCH   6   7
ATOM      7  C   UNL     1      42.912  26.555  19.763  1.00  0.00     0.053 C 
BRANCH   7   8
ATOM      8  C   UNL     1      42.273  26.722  21.109  1.00  0.00     0.041 C 
ATOM      9  O   UNL     1      42.418  27.795  21.752  1.00  0.00    -0.550 OA
ATOM     10  O   UNL     1      41.543  25.679  21.665  1.00  0.00    -0.550 OA
ENDBRANCH   7   8
ENDBRANCH   6   7
ENDBRANCH   5   6
ENDBRANCH   4   5
ENDBRANCH   3   4
ENDBRANCH   2   3
ENDBRANCH   1   2
BRANCH   1  11
ATOM     11  C   UNL     1      44.628  21.331  21.309  1.00  0.00     0.000 C 
BRANCH  11  12
ATOM     12  C   UNL     1      43.754  22.578  21.522  1.00  0.00    -0.000 C 
BRANCH  12  13
ATOM     13  C   UNL     1      42.441  22.468  20.733  1.00  0.00    -0.000 C 
BRANCH  13  14
ATOM     14  C   UNL     1      42.585  22.900  19.262  1.00  0.00    -0.000 C 
BRANCH  14  15
ATOM     15  C   UNL     1      41.278  22.886  18.449  1.00  0.00    -0.000 C 
BRANCH  15  16
ATOM     16  C   UNL     1      40.281  23.965  18.899  1.00  0.00    -0.000 C 
BRANCH  16  17
ATOM     17  C   UNL     1      39.110  24.073  17.916  1.00  0.00    -0.003 C 
ATOM     18  C   UNL     1      38.997  22.821  17.052  1.00  0.00     0.004 C 
ENDBRANCH  16  17
ENDBRANCH  15  16
ENDBRANCH  14  15
ENDBRANCH  13  14
ENDBRANCH  12  13
ENDBRANCH  11  12
ENDBRANCH   1  11
TORSDOF 14
ENDMDL
MODEL 3
REMARK VINA RESULT:    -4.559      2.316      5.374
REMARK INTER + INTRA:          -9.953
REMARK INTER:                  -8.189
REMARK INTRA:                  -1.763
REMARK UNBOUND:                -1.663
REMARK SMILES CCCCCCCCCCCCCCCC(=O)[O-]
REMARK SMILES IDX 9 1 10 2 11 3 12 4 13 5 14 6 15 7 16 8 17 9 18 10 8 11 7 12
REMARK SMILES IDX 6 13 5 14 4 15 3 16 2 17 1 18
REMARK H PARENT
REMARK Flexibility Score: inf
ROOT
ATOM      1  C   UNL     1      45.295  21.049  21.009  1.00  0.00     0.000 C 
ENDROOT
BRANCH   1   2
ATOM      2  C   UNL     1      43.791  20.958  21.324  1.00  0.00     0.000 C 
BRANCH   2   3
ATOM      3  C   UNL     1      43.118  22.339  21.394  1.00  0.00     0.000 C 
BRANCH   3   4
ATOM      4  C   UNL     1      43.084  23.052  20.032  1.00  0.00     0.000 C 
BRANCH   4   5
ATOM      5  C   UNL     1      42.431  24.435  20.155  1.00  0.00     0.000 C 
BRANCH   5   6
ATOM      6  C   UNL     1      41.040  24.446  19.505  1.00  0.00     0.006 C 
BRANCH   6   7
ATOM      7  C   UNL     1      40.857  23.297  18.504  1.00  0.00     0.053 C 
BRANCH   7   8
ATOM      8  C   UNL     1      39.519  23.354  17.832  1.00  0.00     0.041 C 
ATOM      9  O   UNL     1      38.826  24.405  17.886  1.00  0.00    -0.550 OA
ATOM     10  O   UNL     1      39.025  22.236  17.173  1.00  0.00    -0.550 OA
ENDBRANCH   7   8
ENDBRANCH   6   7
ENDBRANCH   5   6
ENDBRANCH   4   5
ENDBRANCH   3   4
ENDBRANCH   2   3
ENDBRANCH   1   2
BRANCH   1  11
ATOM     11  C   UNL     1      46.066  21.873  22.053  1.00  0.00     0.000 C 
BRANCH  11  12
ATOM     12  C   UNL     1      46.872  23.023  21.426  1.00  0.00    -0.000 C 
BRANCH  12  13
ATOM     13  C   UNL     1      46.753  23.004  19.896  1.00  0.00    -0.000 C 
BRANCH  13  14
ATOM     14  C   UNL     1      46.597  24.410  19.287  1.00  0.00    -0.000 C 
BRANCH  14  15
ATOM     15  C   UNL     1      46.201  25.512  20.286  1.00  0.00    -0.000 C 
BRANCH  15  16
ATOM     16  C   UNL     1      46.054  26.892  19.629  1.00  0.00    -0.000 C 
BRANCH  16  17
ATOM     17  C   UNL     1      44.599  27.157  19.226  1.00  0.00    -0.003 C 
ATOM     18  C   UNL     1      43.842  27.880  20.337  1.00  0.00     0.004 C 
ENDBRANCH  16  17
ENDBRANCH  15  16
ENDBRANCH  14  15
ENDBRANCH  13  14
ENDBRANCH  12  13
ENDBRANCH  11  12
ENDBRANCH   1  11
TORSDOF 14
ENDMDL
MODEL 4
REMARK VINA RESULT:    -4.551      1.619      2.197
REMARK INTER + INTRA:          -9.938
REMARK INTER:                  -8.529
REMARK INTRA:                  -1.409
REMARK UNBOUND:                -1.663
REMARK SMILES CCCCCCCCCCCCCCCC(=O)[O-]
REMARK SMILES IDX 9 1 10 2 11 3 12 4 13 5 14 6 15 7 16 8 17 9 18 10 8 11 7 12
REMARK SMILES IDX 6 13 5 14 4 15 3 16 2 17 1 18
REMARK H PARENT
REMARK Flexibility Score: inf
ROOT
ATOM      1  C   UNL     1      43.410  21.733  20.661  1.00  0.00     0.000 C 
ENDROOT
BRANCH   1   2
ATOM      2  C   UNL     1      44.239  20.992  21.724  1.00  0.00     0.000 C 
BRANCH   2   3
ATOM      3  C   UNL     1      45.726  20.889  21.347  1.00  0.00     0.000 C 
BRANCH   3   4
ATOM      4  C   UNL     1      46.481  22.214  21.541  1.00  0.00     0.000 C 
BRANCH   4   5
ATOM      5  C   UNL     1      47.237  22.605  20.265  1.00  0.00     0.000 C 
BRANCH   5   6
ATOM      6  C   UNL     1      46.432  23.619  19.437  1.00  0.00     0.006 C 
BRANCH   6   7
ATOM      7  C   UNL     1      47.242  24.882  19.120  1.00  0.00     0.053 C 
BRANCH   7   8
ATOM      8  C   UNL     1      46.971  25.978  20.105  1.00  0.00     0.041 C 
ATOM      9  O   UNL     1      47.657  27.034  20.085  1.00  0.00    -0.550 OA
ATOM     10  O   UNL     1      45.982  25.818  21.067  1.00  0.00    -0.550 OA
ENDBRANCH   7   8
ENDBRANCH   6   7
ENDBRANCH   5   6
ENDBRANCH   4   5
ENDBRANCH   3   4
ENDBRANCH   2   3
ENDBRANCH   1   2
BRANCH   1  11
ATOM     11  C   UNL     1      42.832  23.058  21.184  1.00  0.00     0.000 C 
BRANCH  11  12
ATOM     12  C   UNL     1      42.951  24.203  20.164  1.00  0.00    -0.000 C 
BRANCH  12  13
ATOM     13  C   UNL     1      41.580  24.839  19.894  1.00  0.00    -0.000 C 
BRANCH  13  14
ATOM     14  C   UNL     1      40.476  23.798  19.627  1.00  0.00    -0.000 C 
BRANCH  14  15
ATOM     15  C   UNL     1      40.079  23.636  18.149  1.00  0.00    -0.000 C 
BRANCH  15  16
ATOM     16  C   UNL     1      40.529  22.294  17.551  1.00  0.00    -0.000 C 
BRANCH  16  17
ATOM     17  C   UNL     1      39.356  21.572  16.877  1.00  0.00    -0.003 C 
ATOM     18  C   UNL     1      38.022  22.197  17.274  1.00  0.00     0.004 C 
ENDBRANCH  16  17
ENDBRANCH  15  16
ENDBRANCH  14  15
ENDBRANCH  13  14
ENDBRANCH  12  13
ENDBRANCH  11  12
ENDBRANCH   1  11
TORSDOF 14
ENDMDL
MODEL 5
REMARK VINA RESULT:    -4.544      9.336     11.796
REMARK INTER + INTRA:          -9.926
REMARK INTER:                  -7.961
REMARK INTRA:                  -1.965
REMARK UNBOUND:                -1.663
REMARK SMILES CCCCCCCCCCCCCCCC(=O)[O-]
REMARK SMILES IDX 9 1 10 2 11 3 12 4 13 5 14 6 15 7 16 8 17 9 18 10 8 11 7 12
REMARK SMILES IDX 6 13 5 14 4 15 3 16 2 17 1 18
REMARK H PARENT
REMARK Flexibility Score: inf
ROOT
ATOM      1  C   UNL     1      46.903  32.513  14.101  1.00  0.00     0.000 C 
ENDROOT
BRANCH   1   2
ATOM      2  C   UNL     1      46.038  33.207  13.034  1.00  0.00     0.000 C 
BRANCH   2   3
ATOM      3  C   UNL     1      45.373  32.208  12.073  1.00  0.00     0.000 C 
BRANCH   3   4
ATOM      4  C   UNL     1      46.258  31.867  10.864  1.00  0.00     0.000 C 
BRANCH   4   5
ATOM      5  C   UNL     1      47.156  33.053  10.491  1.00  0.00     0.000 C 
BRANCH   5   6
ATOM      6  C   UNL     1      48.616  32.607  10.325  1.00  0.00     0.006 C 
BRANCH   6   7
ATOM      7  C   UNL     1      48.805  31.115  10.628  1.00  0.00     0.053 C 
BRANCH   7   8
ATOM      8  C   UNL     1      49.964  30.877  11.547  1.00  0.00     0.041 C 
ATOM      9  O   UNL     1      51.137  30.823  11.089  1.00  0.00    -0.550 OA
ATOM     10  O   UNL     1      49.746  30.684  12.905  1.00  0.00    -0.550 OA
ENDBRANCH   7   8
ENDBRANCH   6   7
ENDBRANCH   5   6
ENDBRANCH   4   5
ENDBRANCH   3   4
ENDBRANCH   2   3
ENDBRANCH   1   2
BRANCH   1  11
ATOM     11  C   UNL     1      46.846  33.228  15.461  1.00  0.00     0.000 C 
BRANCH  11  12
ATOM     12  C   UNL     1      45.560  34.048  15.650  1.00  0.00    -0.000 C 
BRANCH  12  13
ATOM     13  C   UNL     1      44.777  33.562  16.879  1.00  0.00    -0.000 C 
BRANCH  13  14
ATOM     14  C   UNL     1      43.388  32.999  16.524  1.00  0.00    -0.000 C 
BRANCH  14  15
ATOM     15  C   UNL     1      43.370  32.005  15.348  1.00  0.00    -0.000 C 
BRANCH  15  16
ATOM     16  C   UNL     1      44.019  30.656  15.694  1.00  0.00    -0.000 C 
BRANCH  16  17
ATOM     17  C   UNL     1      44.107  29.756  14.457  1.00  0.00    -0.003 C 
ATOM     18  C   UNL     1      42.727  29.513  13.852  1.00  0.00     0.004 C 
ENDBRANCH  16  17
ENDBRANCH  15  16
ENDBRANCH  14  15
ENDBRANCH  13  14
ENDBRANCH  12  13
ENDBRANCH  11  12
ENDBRANCH   1  11
TORSDOF 14
ENDMDL
MODEL 6
REMARK VINA RESULT:    -4.527      8.668     11.175
REMARK INTER + INTRA:          -9.895
REMARK INTER:                  -7.762
REMARK INTRA:                  -2.133
REMARK UNBOUND:                -1.663
REMARK SMILES CCCCCCCCCCCCCCCC(=O)[O-]
REMARK SMILES IDX 9 1 10 2 11 3 12 4 13 5 14 6 15 7 16 8 17 9 18 10 8 11 7 12
REMARK SMILES IDX 6 13 5 14 4 15 3 16 2 17 1 18
REMARK H PARENT
REMARK Flexibility Score: inf
ROOT
ATOM      1  C   UNL     1      44.438  33.437  15.289  1.00  0.00     0.000 C 
ENDROOT
BRANCH   1   2
ATOM      2  C   UNL     1      45.797  34.056  14.918  1.00  0.00     0.000 C 
BRANCH   2   3
ATOM      3  C   UNL     1      46.496  33.303  13.775  1.00  0.00     0.000 C 
BRANCH   3   4
ATOM      4  C   UNL     1      45.574  33.069  12.567  1.00  0.00     0.000 C 
BRANCH   4   5
ATOM      5  C   UNL     1      46.129  31.963  11.661  1.00  0.00     0.000 C 
BRANCH   5   6
ATOM      6  C   UNL     1      46.848  32.560  10.442  1.00  0.00     0.006 C 
BRANCH   6   7
ATOM      7  C   UNL     1      48.374  32.538  10.600  1.00  0.00     0.053 C 
BRANCH   7   8
ATOM      8  C   UNL     1      48.876  31.168  10.942  1.00  0.00     0.041 C 
ATOM      9  O   UNL     1      48.796  30.234  10.101  1.00  0.00    -0.550 OA
ATOM     10  O   UNL     1      49.404  30.917  12.202  1.00  0.00    -0.550 OA
ENDBRANCH   7   8
ENDBRANCH   6   7
ENDBRANCH   5   6
ENDBRANCH   4   5
ENDBRANCH   3   4
ENDBRANCH   2   3
ENDBRANCH   1   2
BRANCH   1  11
ATOM     11  C   UNL     1      44.232  33.337  16.809  1.00  0.00     0.000 C 
BRANCH  11  12
ATOM     12  C   UNL     1      43.524  32.039  17.230  1.00  0.00    -0.000 C 
BRANCH  12  13
ATOM     13  C   UNL     1      44.501  31.087  17.935  1.00  0.00    -0.000 C 
BRANCH  13  14
ATOM     14  C   UNL     1      44.814  29.827  17.107  1.00  0.00    -0.000 C 
BRANCH  14  15
ATOM     15  C   UNL     1      45.901  30.008  16.032  1.00  0.00    -0.000 C 
BRANCH  15  16
ATOM     16  C   UNL     1      45.338  30.002  14.603  1.00  0.00    -0.000 C 
BRANCH  16  17
ATOM     17  C   UNL     1      43.932  29.393  14.570  1.00  0.00    -0.003 C 
ATOM     18  C   UNL     1      42.937  30.336  13.899  1.00  0.00     0.004 C 
ENDBRANCH  16  17
ENDBRANCH  15  16
ENDBRANCH  14  15
ENDBRANCH  13  14
ENDBRANCH  12  13
ENDBRANCH  11  12
ENDBRANCH   1  11
TORSDOF 14
ENDMDL
MODEL 7
REMARK VINA RESULT:    -4.525      9.053     12.164
REMARK INTER + INTRA:          -9.890
REMARK INTER:                  -7.882
REMARK INTRA:                  -2.009
REMARK UNBOUND:                -1.663
REMARK SMILES CCCCCCCCCCCCCCCC(=O)[O-]
REMARK SMILES IDX 9 1 10 2 11 3 12 4 13 5 14 6 15 7 16 8 17 9 18 10 8 11 7 12
REMARK SMILES IDX 6 13 5 14 4 15 3 16 2 17 1 18
REMARK H PARENT
REMARK Flexibility Score: inf
ROOT
ATOM      1  C   UNL     1      46.761  34.631  17.444  1.00  0.00     0.000 C 
ENDROOT
BRANCH   1   2
ATOM      2  C   UNL     1      45.329  34.161  17.755  1.00  0.00     0.000 C 
BRANCH   2   3
ATOM      3  C   UNL     1      45.256  32.658  18.067  1.00  0.00     0.000 C 
BRANCH   3   4
ATOM      4  C   UNL     1      43.925  32.025  17.632  1.00  0.00     0.000 C 
BRANCH   4   5
ATOM      5  C   UNL     1      43.223  32.894  16.581  1.00  0.00     0.000 C 
BRANCH   5   6
ATOM      6  C   UNL     1      43.424  32.322  15.170  1.00  0.00     0.006 C 
BRANCH   6   7
ATOM      7  C   UNL     1      43.724  30.817  15.192  1.00  0.00     0.053 C 
BRANCH   7   8
ATOM      8  C   UNL     1      43.339  30.156  13.903  1.00  0.00     0.041 C 
ATOM      9  O   UNL     1      43.928  30.462  12.832  1.00  0.00    -0.550 OA
ATOM     10  O   UNL     1      42.309  29.225  13.881  1.00  0.00    -0.550 OA
ENDBRANCH   7   8
ENDBRANCH   6   7
ENDBRANCH   5   6
ENDBRANCH   4   5
ENDBRANCH   3   4
ENDBRANCH   2   3
ENDBRANCH   1   2
BRANCH   1  11
ATOM     11  C   UNL     1      46.875  35.297  16.063  1.00  0.00     0.000 C 
BRANCH  11  12
ATOM     12  C   UNL     1      46.289  34.433  14.935  1.00  0.00    -0.000 C 
BRANCH  12  13
ATOM     13  C   UNL     1      47.298  33.368  14.482  1.00  0.00    -0.000 C 
BRANCH  13  14
ATOM     14  C   UNL     1      46.949  32.753  13.113  1.00  0.00    -0.000 C 
BRANCH  14  15
ATOM     15  C   UNL     1      45.944  33.562  12.274  1.00  0.00    -0.000 C 
BRANCH  15  16
ATOM     16  C   UNL     1      46.611  34.350  11.136  1.00  0.00    -0.000 C 
BRANCH  16  17
ATOM     17  C   UNL     1      46.422  35.859  11.330  1.00  0.00    -0.003 C 
ATOM     18  C   UNL     1      47.614  36.474  12.057  1.00  0.00     0.004 C 
ENDBRANCH  16  17
ENDBRANCH  15  16
ENDBRANCH  14  15
ENDBRANCH  13  14
ENDBRANCH  12  13
ENDBRANCH  11  12
ENDBRANCH   1  11
TORSDOF 14
ENDMDL
MODEL 8
REMARK VINA RESULT:    -4.520      8.570     11.273
REMARK INTER + INTRA:          -9.882
REMARK INTER:                  -7.545
REMARK INTRA:                  -2.337
REMARK UNBOUND:                -1.663
REMARK SMILES CCCCCCCCCCCCCCCC(=O)[O-]
REMARK SMILES IDX 9 1 10 2 11 3 12 4 13 5 14 6 15 7 16 8 17 9 18 10 8 11 7 12
REMARK SMILES IDX 6 13 5 14 4 15 3 16 2 17 1 18
REMARK H PARENT
REMARK Flexibility Score: inf
ROOT
ATOM      1  C   UNL     1      44.586  33.499  17.569  1.00  0.00     0.000 C 
ENDROOT
BRANCH   1   2
ATOM      2  C   UNL     1      45.779  33.451  16.599  1.00  0.00     0.000 C 
BRANCH   2   3
ATOM      3  C   UNL     1      46.547  34.782  16.542  1.00  0.00     0.000 C 
BRANCH   3   4
ATOM      4  C   UNL     1      46.948  35.175  15.111  1.00  0.00     0.000 C 
BRANCH   4   5
ATOM      5  C   UNL     1      46.126  34.396  14.078  1.00  0.00     0.000 C 
BRANCH   5   6
ATOM      6  C   UNL     1      46.951  34.122  12.811  1.00  0.00     0.006 C 
BRANCH   6   7
ATOM      7  C   UNL     1      47.076  32.623  12.513  1.00  0.00     0.053 C 
BRANCH   7   8
ATOM      8  C   UNL     1      46.647  32.297  11.115  1.00  0.00     0.041 C 
ATOM      9  O   UNL     1      46.052  31.214  10.869  1.00  0.00    -0.550 OA
ATOM     10  O   UNL     1      46.932  33.177  10.078  1.00  0.00    -0.550 OA
ENDBRANCH   7   8
ENDBRANCH   6   7
ENDBRANCH   5   6
ENDBRANCH   4   5
ENDBRANCH   3   4
ENDBRANCH   2   3
ENDBRANCH   1   2
BRANCH   1  11
ATOM     11  C   UNL     1      43.390  32.669  17.074  1.00  0.00     0.000 C 
BRANCH  11  12
ATOM     12  C   UNL     1      42.966  33.032  15.641  1.00  0.00    -0.000 C 
BRANCH  12  13
ATOM     13  C   UNL     1      42.738  31.767  14.801  1.00  0.00    -0.000 C 
BRANCH  13  14
ATOM     14  C   UNL     1      43.857  31.519  13.772  1.00  0.00    -0.000 C 
BRANCH  14  15
ATOM     15  C   UNL     1      44.591  30.174  13.920  1.00  0.00    -0.000 C 
BRANCH  15  16
ATOM     16  C   UNL     1      44.556  29.627  15.355  1.00  0.00    -0.000 C 
BRANCH  16  17
ATOM     17  C   UNL     1      45.881  29.894  16.077  1.00  0.00    -0.003 C 
ATOM     18  C   UNL     1      45.735  29.708  17.585  1.00  0.00     0.004 C 
ENDBRANCH  16  17
ENDBRANCH  15  16
ENDBRANCH  14  15
ENDBRANCH  13  14
ENDBRANCH  12  13
ENDBRANCH  11  12
ENDBRANCH   1  11
TORSDOF 14
ENDMDL
MODEL 9
REMARK VINA RESULT:    -4.515      2.773      6.234
REMARK INTER + INTRA:          -9.872
REMARK INTER:                  -8.027
REMARK INTRA:                  -1.845
REMARK UNBOUND:                -1.663
REMARK SMILES CCCCCCCCCCCCCCCC(=O)[O-]
REMARK SMILES IDX 9 1 10 2 11 3 12 4 13 5 14 6 15 7 16 8 17 9 18 10 8 11 7 12
REMARK SMILES IDX 6 13 5 14 4 15 3 16 2 17 1 18
REMARK H PARENT
REMARK Flexibility Score: inf
ROOT
ATOM      1  C   UNL     1      42.111  25.673  20.200  1.00  0.00     0.000 C 
ENDROOT
BRANCH   1   2
ATOM      2  C   UNL     1      42.543  24.395  20.940  1.00  0.00     0.000 C 
BRANCH   2   3
ATOM      3  C   UNL     1      42.118  23.114  20.204  1.00  0.00     0.000 C 
BRANCH   3   4
ATOM      4  C   UNL     1      42.909  22.885  18.905  1.00  0.00     0.000 C 
BRANCH   4   5
ATOM      5  C   UNL     1      41.973  22.495  17.755  1.00  0.00     0.000 C 
BRANCH   5   6
ATOM      6  C   UNL     1      40.525  22.910  18.059  1.00  0.00     0.006 C 
BRANCH   6   7
ATOM      7  C   UNL     1      39.524  22.283  17.080  1.00  0.00     0.053 C 
BRANCH   7   8
ATOM      8  C   UNL     1      38.107  22.540  17.495  1.00  0.00     0.041 C 
ATOM      9  O   UNL     1      37.775  22.454  18.707  1.00  0.00    -0.550 OA
ATOM     10  O   UNL     1      37.148  22.845  16.538  1.00  0.00    -0.550 OA
ENDBRANCH   7   8
ENDBRANCH   6   7
ENDBRANCH   5   6
ENDBRANCH   4   5
ENDBRANCH   3   4
ENDBRANCH   2   3
ENDBRANCH   1   2
BRANCH   1  11
ATOM     11  C   UNL     1      43.307  26.536  19.768  1.00  0.00     0.000 C 
BRANCH  11  12
ATOM     12  C   UNL     1      44.559  26.292  20.625  1.00  0.00    -0.000 C 
BRANCH  12  13
ATOM     13  C   UNL     1      45.744  25.856  19.752  1.00  0.00    -0.000 C 
BRANCH  13  14
ATOM     14  C   UNL     1      46.545  24.691  20.363  1.00  0.00    -0.000 C 
BRANCH  14  15
ATOM     15  C   UNL     1      46.419  23.351  19.616  1.00  0.00    -0.000 C 
BRANCH  15  16
ATOM     16  C   UNL     1      46.732  22.138  20.504  1.00  0.00    -0.000 C 
BRANCH  16  17
ATOM     17  C   UNL     1      45.612  21.901  21.524  1.00  0.00    -0.003 C 
ATOM     18  C   UNL     1      44.882  20.590  21.246  1.00  0.00     0.004 C 
ENDBRANCH  16  17
ENDBRANCH  15  16
ENDBRANCH  14  15
ENDBRANCH  13  14
ENDBRANCH  12  13
ENDBRANCH  11  12
ENDBRANCH   1  11
TORSDOF 14
ENDMDL
