MODEL 1
REMARK VINA RESULT:    -6.138      0.000      0.000
REMARK INTER + INTRA:          -7.726
REMARK INTER:                  -7.394
REMARK INTRA:                  -0.332
REMARK UNBOUND:                -0.332
REMARK SMILES O=c1c(O)c(-c2ccc(O)c(O)c2)oc2cc(O)cc(O)c12
REMARK SMILES IDX 5 1 3 2 2 3 1 4 22 5 20 6 19 7 17 8 16 9 15 10 14 11 6 12
REMARK SMILES IDX 7 13 8 14 9 15 13 16 11 17 10 18 12 20 4 22 21 24 18 26
REMARK H PARENT 10 19 12 21 4 23 21 25 18 27
REMARK Flexibility Score: inf
ROOT
ATOM      1  C   UNL     1      -6.737  15.497  18.170  1.00  0.00     0.180 A 
ATOM      2  C   UNL     1      -6.920  15.070  16.843  1.00  0.00     0.208 A 
ATOM      3  C   UNL     1      -7.231  13.723  16.598  1.00  0.00     0.238 A 
ATOM      4  O   UNL     1      -7.468  13.365  15.415  1.00  0.00    -0.285 OA
ATOM      5  C   UNL     1      -7.298  12.807  17.676  1.00  0.00     0.111 A 
ATOM      6  C   UNL     1      -7.560  11.410  17.539  1.00  0.00     0.134 A 
ATOM      7  C   UNL     1      -7.708  10.620  18.687  1.00  0.00     0.093 A 
ATOM      8  C   UNL     1      -7.540  11.161  19.960  1.00  0.00     0.123 A 
ATOM      9  C   UNL     1      -7.229  12.513  20.104  1.00  0.00     0.094 A 
ATOM     10  C   UNL     1      -7.114  13.335  18.980  1.00  0.00     0.146 A 
ATOM     11  O   UNL     1      -6.838  14.621  19.162  1.00  0.00    -0.452 OA
ENDROOT
BRANCH   1  12
ATOM     12  C   UNL     1      -6.422  16.903  18.509  1.00  0.00     0.025 A 
ATOM     13  C   UNL     1      -5.084  17.286  18.693  1.00  0.00     0.016 A 
ATOM     14  C   UNL     1      -4.765  18.602  19.036  1.00  0.00     0.051 A 
ATOM     15  C   UNL     1      -5.778  19.551  19.215  1.00  0.00     0.157 A 
ATOM     16  C   UNL     1      -7.438  17.854  18.711  1.00  0.00     0.062 A 
ATOM     17  C   UNL     1      -7.122  19.173  19.056  1.00  0.00     0.158 A 
BRANCH  15  18
ATOM     18  O   UNL     1      -5.457  20.865  19.554  1.00  0.00    -0.504 OA
ATOM     19  H   UNL     1      -5.883  21.654  19.080  1.00  0.00     0.293 HD
ENDBRANCH  15  18
BRANCH  17  20
ATOM     20  O   UNL     1      -8.155  20.091  19.243  1.00  0.00    -0.504 OA
ATOM     21  H   UNL     1      -8.033  21.081  19.071  1.00  0.00     0.293 HD
ENDBRANCH  17  20
ENDBRANCH   1  12
BRANCH   2  22
ATOM     22  O   UNL     1      -6.775  15.975  15.787  1.00  0.00    -0.502 OA
ATOM     23  H   UNL     1      -6.618  16.964  15.936  1.00  0.00     0.293 HD
ENDBRANCH   2  22
BRANCH   6  24
ATOM     24  O   UNL     1      -7.658  10.748  16.311  1.00  0.00    -0.507 OA
ATOM     25  H   UNL     1      -8.482  10.274  15.975  1.00  0.00     0.293 HD
ENDBRANCH   6  24
BRANCH   8  26
ATOM     26  O   UNL     1      -7.677  10.341  21.078  1.00  0.00    -0.508 OA
ATOM     27  H   UNL     1      -8.204  10.638  21.892  1.00  0.00     0.293 HD
ENDBRANCH   8  26
TORSDOF 6
ENDMDL
MODEL 2
REMARK VINA RESULT:    -6.021      2.260      7.405
REMARK INTER + INTRA:          -7.586
REMARK INTER:                  -7.275
REMARK INTRA:                  -0.311
REMARK UNBOUND:                -0.332
REMARK SMILES O=c1c(O)c(-c2ccc(O)c(O)c2)oc2cc(O)cc(O)c12
REMARK SMILES IDX 5 1 3 2 2 3 1 4 22 5 20 6 19 7 17 8 16 9 15 10 14 11 6 12
REMARK SMILES IDX 7 13 8 14 9 15 13 16 11 17 10 18 12 20 4 22 21 24 18 26
REMARK H PARENT 10 19 12 21 4 23 21 25 18 27
REMARK Flexibility Score: inf
ROOT
ATOM      1  C   UNL     1      -6.651  11.258  18.182  1.00  0.00     0.180 A 
ATOM      2  C   UNL     1      -7.293  11.563  16.970  1.00  0.00     0.208 A 
ATOM      3  C   UNL     1      -7.426  12.909  16.590  1.00  0.00     0.238 A 
ATOM      4  O   UNL     1      -7.933  13.171  15.469  1.00  0.00    -0.285 OA
ATOM      5  C   UNL     1      -6.967  13.934  17.453  1.00  0.00     0.111 A 
ATOM      6  C   UNL     1      -7.091  15.332  17.190  1.00  0.00     0.134 A 
ATOM      7  C   UNL     1      -6.505  16.254  18.068  1.00  0.00     0.093 A 
ATOM      8  C   UNL     1      -5.857  15.832  19.228  1.00  0.00     0.123 A 
ATOM      9  C   UNL     1      -5.778  14.471  19.523  1.00  0.00     0.094 A 
ATOM     10  C   UNL     1      -6.319  13.526  18.648  1.00  0.00     0.146 A 
ATOM     11  O   UNL     1      -6.203  12.239  18.955  1.00  0.00    -0.452 OA
ENDROOT
BRANCH   1  12
ATOM     12  C   UNL     1      -6.461   9.864  18.644  1.00  0.00     0.025 A 
ATOM     13  C   UNL     1      -5.262   9.197  18.350  1.00  0.00     0.016 A 
ATOM     14  C   UNL     1      -5.069   7.874  18.756  1.00  0.00     0.051 A 
ATOM     15  C   UNL     1      -6.079   7.193  19.448  1.00  0.00     0.157 A 
ATOM     16  C   UNL     1      -7.480   9.170  19.321  1.00  0.00     0.062 A 
ATOM     17  C   UNL     1      -7.292   7.844  19.728  1.00  0.00     0.158 A 
BRANCH  15  18
ATOM     18  O   UNL     1      -5.883   5.875  19.855  1.00  0.00    -0.504 OA
ATOM     19  H   UNL     1      -5.116   5.615  20.465  1.00  0.00     0.293 HD
ENDBRANCH  15  18
BRANCH  17  20
ATOM     20  O   UNL     1      -8.322   7.190  20.401  1.00  0.00    -0.504 OA
ATOM     21  H   UNL     1      -9.277   7.527  20.383  1.00  0.00     0.293 HD
ENDBRANCH  17  20
ENDBRANCH   1  12
BRANCH   2  22
ATOM     22  O   UNL     1      -7.807  10.540  16.168  1.00  0.00    -0.502 OA
ATOM     23  H   UNL     1      -8.490  10.711  15.440  1.00  0.00     0.293 HD
ENDBRANCH   2  22
BRANCH   6  24
ATOM     24  O   UNL     1      -7.794  15.866  16.106  1.00  0.00    -0.507 OA
ATOM     25  H   UNL     1      -8.243  16.769  16.097  1.00  0.00     0.293 HD
ENDBRANCH   6  24
BRANCH   8  26
ATOM     26  O   UNL     1      -5.301  16.779  20.086  1.00  0.00    -0.508 OA
ATOM     27  H   UNL     1      -5.749  17.672  20.252  1.00  0.00     0.293 HD
ENDBRANCH   8  26
TORSDOF 6
ENDMDL
MODEL 3
REMARK VINA RESULT:    -5.997      2.354      3.184
REMARK INTER + INTRA:          -7.556
REMARK INTER:                  -7.227
REMARK INTRA:                  -0.329
REMARK UNBOUND:                -0.332
REMARK SMILES O=c1c(O)c(-c2ccc(O)c(O)c2)oc2cc(O)cc(O)c12
REMARK SMILES IDX 5 1 3 2 2 3 1 4 22 5 20 6 19 7 17 8 16 9 15 10 14 11 6 12
REMARK SMILES IDX 7 13 8 14 9 15 13 16 11 17 10 18 12 20 4 22 21 24 18 26
REMARK H PARENT 10 19 12 21 4 23 21 25 18 27
REMARK Flexibility Score: inf
ROOT
ATOM      1  C   UNL     1      -5.715  14.526  17.894  1.00  0.00     0.180 A 
ATOM      2  C   UNL     1      -4.455  14.100  18.348  1.00  0.00     0.208 A 
ATOM      3  C   UNL     1      -4.209  12.724  18.479  1.00  0.00     0.238 A 
ATOM      4  O   UNL     1      -3.056  12.347  18.813  1.00  0.00    -0.285 OA
ATOM      5  C   UNL     1      -5.242  11.793  18.209  1.00  0.00     0.111 A 
ATOM      6  C   UNL     1      -5.118  10.378  18.352  1.00  0.00     0.134 A 
ATOM      7  C   UNL     1      -6.175   9.549  17.954  1.00  0.00     0.093 A 
ATOM      8  C   UNL     1      -7.372  10.084  17.480  1.00  0.00     0.123 A 
ATOM      9  C   UNL     1      -7.524  11.468  17.388  1.00  0.00     0.094 A 
ATOM     10  C   UNL     1      -6.474  12.320  17.741  1.00  0.00     0.146 A 
ATOM     11  O   UNL     1      -6.653  13.630  17.618  1.00  0.00    -0.452 OA
ENDROOT
BRANCH   1  12
ATOM     12  C   UNL     1      -6.045  15.959  17.718  1.00  0.00     0.025 A 
ATOM     13  C   UNL     1      -6.729  16.641  18.736  1.00  0.00     0.016 A 
ATOM     14  C   UNL     1      -7.070  17.986  18.582  1.00  0.00     0.051 A 
ATOM     15  C   UNL     1      -6.748  18.667  17.401  1.00  0.00     0.157 A 
ATOM     16  C   UNL     1      -5.742  16.640  16.525  1.00  0.00     0.062 A 
ATOM     17  C   UNL     1      -6.084  17.987  16.366  1.00  0.00     0.158 A 
BRANCH  15  18
ATOM     18  O   UNL     1      -7.087  20.010  17.251  1.00  0.00    -0.504 OA
ATOM     19  H   UNL     1      -7.912  20.295  16.735  1.00  0.00     0.293 HD
ENDBRANCH  15  18
BRANCH  17  20
ATOM     20  O   UNL     1      -5.763  18.632  15.172  1.00  0.00    -0.504 OA
ATOM     21  H   UNL     1      -4.817  18.656  14.811  1.00  0.00     0.293 HD
ENDBRANCH  17  20
ENDBRANCH   1  12
BRANCH   2  22
ATOM     22  O   UNL     1      -3.473  15.037  18.682  1.00  0.00    -0.502 OA
ATOM     23  H   UNL     1      -2.567  15.061  18.229  1.00  0.00     0.293 HD
ENDBRANCH   2  22
BRANCH   6  24
ATOM     24  O   UNL     1      -3.999   9.741  18.897  1.00  0.00    -0.507 OA
ATOM     25  H   UNL     1      -3.960   8.769  19.161  1.00  0.00     0.293 HD
ENDBRANCH   6  24
BRANCH   8  26
ATOM     26  O   UNL     1      -8.408   9.229  17.110  1.00  0.00    -0.508 OA
ATOM     27  H   UNL     1      -9.075   9.486  16.392  1.00  0.00     0.293 HD
ENDBRANCH   8  26
TORSDOF 6
ENDMDL
MODEL 4
REMARK VINA RESULT:    -5.958      2.416      7.572
REMARK INTER + INTRA:          -7.509
REMARK INTER:                  -7.205
REMARK INTRA:                  -0.305
REMARK UNBOUND:                -0.332
REMARK SMILES O=c1c(O)c(-c2ccc(O)c(O)c2)oc2cc(O)cc(O)c12
REMARK SMILES IDX 5 1 3 2 2 3 1 4 22 5 20 6 19 7 17 8 16 9 15 10 14 11 6 12
REMARK SMILES IDX 7 13 8 14 9 15 13 16 11 17 10 18 12 20 4 22 21 24 18 26
REMARK H PARENT 10 19 12 21 4 23 21 25 18 27
REMARK Flexibility Score: inf
ROOT
ATOM      1  C   UNL     1      -5.645  15.617  17.105  1.00  0.00     0.180 A 
ATOM      2  C   UNL     1      -6.086  16.388  18.194  1.00  0.00     0.208 A 
ATOM      3  C   UNL     1      -5.570  17.683  18.366  1.00  0.00     0.238 A 
ATOM      4  O   UNL     1      -6.025  18.394  19.298  1.00  0.00    -0.285 OA
ATOM      5  C   UNL     1      -4.578  18.170  17.480  1.00  0.00     0.111 A 
ATOM      6  C   UNL     1      -3.952  19.449  17.585  1.00  0.00     0.134 A 
ATOM      7  C   UNL     1      -3.060  19.865  16.588  1.00  0.00     0.093 A 
ATOM      8  C   UNL     1      -2.724  19.027  15.527  1.00  0.00     0.123 A 
ATOM      9  C   UNL     1      -3.287  17.753  15.443  1.00  0.00     0.094 A 
ATOM     10  C   UNL     1      -4.209  17.324  16.401  1.00  0.00     0.146 A 
ATOM     11  O   UNL     1      -4.738  16.113  16.273  1.00  0.00    -0.452 OA
ENDROOT
BRANCH   1  12
ATOM     12  C   UNL     1      -6.152  14.250  16.850  1.00  0.00     0.025 A 
ATOM     13  C   UNL     1      -7.383  14.081  16.196  1.00  0.00     0.016 A 
ATOM     14  C   UNL     1      -7.891  12.800  15.965  1.00  0.00     0.051 A 
ATOM     15  C   UNL     1      -7.186  11.670  16.398  1.00  0.00     0.157 A 
ATOM     16  C   UNL     1      -5.458  13.114  17.303  1.00  0.00     0.062 A 
ATOM     17  C   UNL     1      -5.965  11.830  17.075  1.00  0.00     0.158 A 
BRANCH  15  18
ATOM     18  O   UNL     1      -7.694  10.394  16.164  1.00  0.00    -0.504 OA
ATOM     19  H   UNL     1      -8.618  10.254  15.771  1.00  0.00     0.293 HD
ENDBRANCH  15  18
BRANCH  17  20
ATOM     20  O   UNL     1      -5.246  10.726  17.533  1.00  0.00    -0.504 OA
ATOM     21  H   UNL     1      -4.375  10.436  17.105  1.00  0.00     0.293 HD
ENDBRANCH  17  20
ENDBRANCH   1  12
BRANCH   2  22
ATOM     22  O   UNL     1      -7.009  15.860  19.102  1.00  0.00    -0.502 OA
ATOM     23  H   UNL     1      -6.755  15.167  19.796  1.00  0.00     0.293 HD
ENDBRANCH   2  22
BRANCH   6  24
ATOM     24  O   UNL     1      -4.149  20.332  18.652  1.00  0.00    -0.507 OA
ATOM     25  H   UNL     1      -3.480  20.512  19.384  1.00  0.00     0.293 HD
ENDBRANCH   6  24
BRANCH   8  26
ATOM     26  O   UNL     1      -1.819  19.468  14.563  1.00  0.00    -0.508 OA
ATOM     27  H   UNL     1      -1.153  18.837  14.133  1.00  0.00     0.293 HD
ENDBRANCH   8  26
TORSDOF 6
ENDMDL
MODEL 5
REMARK VINA RESULT:    -5.900      1.702      6.950
REMARK INTER + INTRA:          -7.440
REMARK INTER:                  -7.232
REMARK INTRA:                  -0.208
REMARK UNBOUND:                -0.332
REMARK SMILES O=c1c(O)c(-c2ccc(O)c(O)c2)oc2cc(O)cc(O)c12
REMARK SMILES IDX 5 1 3 2 2 3 1 4 22 5 20 6 19 7 17 8 16 9 15 10 14 11 6 12
REMARK SMILES IDX 7 13 8 14 9 15 13 16 11 17 10 18 12 20 4 22 21 24 18 26
REMARK H PARENT 10 19 12 21 4 23 21 25 18 27
REMARK Flexibility Score: inf
ROOT
ATOM      1  C   UNL     1      -6.183  15.155  17.434  1.00  0.00     0.180 A 
ATOM      2  C   UNL     1      -4.911  15.504  16.947  1.00  0.00     0.208 A 
ATOM      3  C   UNL     1      -4.514  16.850  16.984  1.00  0.00     0.238 A 
ATOM      4  O   UNL     1      -3.347  17.144  16.617  1.00  0.00    -0.285 OA
ATOM      5  C   UNL     1      -5.413  17.838  17.454  1.00  0.00     0.111 A 
ATOM      6  C   UNL     1      -5.133  19.238  17.494  1.00  0.00     0.134 A 
ATOM      7  C   UNL     1      -6.060  20.111  18.079  1.00  0.00     0.093 A 
ATOM      8  C   UNL     1      -7.280  19.645  18.566  1.00  0.00     0.123 A 
ATOM      9  C   UNL     1      -7.587  18.287  18.482  1.00  0.00     0.094 A 
ATOM     10  C   UNL     1      -6.668  17.387  17.939  1.00  0.00     0.146 A 
ATOM     11  O   UNL     1      -6.991  16.099  17.898  1.00  0.00    -0.452 OA
ENDROOT
BRANCH   1  12
ATOM     12  C   UNL     1      -6.667  13.756  17.440  1.00  0.00     0.025 A 
ATOM     13  C   UNL     1      -6.990  13.131  16.226  1.00  0.00     0.016 A 
ATOM     14  C   UNL     1      -7.471  11.819  16.210  1.00  0.00     0.051 A 
ATOM     15  C   UNL     1      -7.650  11.118  17.409  1.00  0.00     0.157 A 
ATOM     16  C   UNL     1      -6.869  13.056  18.643  1.00  0.00     0.062 A 
ATOM     17  C   UNL     1      -7.351  11.742  18.632  1.00  0.00     0.158 A 
BRANCH  15  18
ATOM     18  O   UNL     1      -8.126   9.808  17.391  1.00  0.00    -0.504 OA
ATOM     19  H   UNL     1      -8.584   9.398  18.198  1.00  0.00     0.293 HD
ENDBRANCH  15  18
BRANCH  17  20
ATOM     20  O   UNL     1      -7.534  11.077  19.843  1.00  0.00    -0.504 OA
ATOM     21  H   UNL     1      -8.449  10.959  20.261  1.00  0.00     0.293 HD
ENDBRANCH  17  20
ENDBRANCH   1  12
BRANCH   2  22
ATOM     22  O   UNL     1      -4.068  14.524  16.416  1.00  0.00    -0.502 OA
ATOM     23  H   UNL     1      -3.798  14.508  15.440  1.00  0.00     0.293 HD
ENDBRANCH   2  22
BRANCH   6  24
ATOM     24  O   UNL     1      -3.982  19.822  16.956  1.00  0.00    -0.507 OA
ATOM     25  H   UNL     1      -3.117  19.962  17.455  1.00  0.00     0.293 HD
ENDBRANCH   6  24
BRANCH   8  26
ATOM     26  O   UNL     1      -8.185  20.546  19.125  1.00  0.00    -0.508 OA
ATOM     27  H   UNL     1      -9.172  20.515  18.898  1.00  0.00     0.293 HD
ENDBRANCH   8  26
TORSDOF 6
ENDMDL
MODEL 6
REMARK VINA RESULT:    -5.871      2.246      2.968
REMARK INTER + INTRA:          -7.404
REMARK INTER:                  -7.082
REMARK INTRA:                  -0.322
REMARK UNBOUND:                -0.332
REMARK SMILES O=c1c(O)c(-c2ccc(O)c(O)c2)oc2cc(O)cc(O)c12
REMARK SMILES IDX 5 1 3 2 2 3 1 4 22 5 20 6 19 7 17 8 16 9 15 10 14 11 6 12
REMARK SMILES IDX 7 13 8 14 9 15 13 16 11 17 10 18 12 20 4 22 21 24 18 26
REMARK H PARENT 10 19 12 21 4 23 21 25 18 27
REMARK Flexibility Score: inf
ROOT
ATOM      1  C   UNL     1      -5.770  14.684  17.876  1.00  0.00     0.180 A 
ATOM      2  C   UNL     1      -4.555  14.287  18.460  1.00  0.00     0.208 A 
ATOM      3  C   UNL     1      -4.281  12.917  18.598  1.00  0.00     0.238 A 
ATOM      4  O   UNL     1      -3.161  12.568  19.052  1.00  0.00    -0.285 OA
ATOM      5  C   UNL     1      -5.249  11.961  18.203  1.00  0.00     0.111 A 
ATOM      6  C   UNL     1      -5.097  10.548  18.338  1.00  0.00     0.134 A 
ATOM      7  C   UNL     1      -6.077   9.695  17.814  1.00  0.00     0.093 A 
ATOM      8  C   UNL     1      -7.231  10.203  17.219  1.00  0.00     0.123 A 
ATOM      9  C   UNL     1      -7.416  11.583  17.131  1.00  0.00     0.094 A 
ATOM     10  C   UNL     1      -6.438  12.459  17.609  1.00  0.00     0.146 A 
ATOM     11  O   UNL     1      -6.644  13.765  17.486  1.00  0.00    -0.452 OA
ENDROOT
BRANCH   1  12
ATOM     12  C   UNL     1      -6.123  16.109  17.685  1.00  0.00     0.025 A 
ATOM     13  C   UNL     1      -5.711  16.772  16.519  1.00  0.00     0.016 A 
ATOM     14  C   UNL     1      -6.014  18.123  16.327  1.00  0.00     0.051 A 
ATOM     15  C   UNL     1      -6.721  18.834  17.305  1.00  0.00     0.157 A 
ATOM     16  C   UNL     1      -6.814  16.832  18.674  1.00  0.00     0.062 A 
ATOM     17  C   UNL     1      -7.118  18.186  18.486  1.00  0.00     0.158 A 
BRANCH  15  18
ATOM     18  O   UNL     1      -7.025  20.180  17.110  1.00  0.00    -0.504 OA
ATOM     19  H   UNL     1      -7.506  20.723  17.818  1.00  0.00     0.293 HD
ENDBRANCH  15  18
BRANCH  17  20
ATOM     20  O   UNL     1      -7.810  18.869  19.485  1.00  0.00    -0.504 OA
ATOM     21  H   UNL     1      -8.821  18.917  19.504  1.00  0.00     0.293 HD
ENDBRANCH  17  20
ENDBRANCH   1  12
BRANCH   2  22
ATOM     22  O   UNL     1      -3.645  15.247  18.914  1.00  0.00    -0.502 OA
ATOM     23  H   UNL     1      -2.676  15.027  19.112  1.00  0.00     0.293 HD
ENDBRANCH   2  22
BRANCH   6  24
ATOM     24  O   UNL     1      -4.026   9.934  18.995  1.00  0.00    -0.507 OA
ATOM     25  H   UNL     1      -3.724   8.984  18.845  1.00  0.00     0.293 HD
ENDBRANCH   6  24
BRANCH   8  26
ATOM     26  O   UNL     1      -8.193   9.324  16.724  1.00  0.00    -0.508 OA
ATOM     27  H   UNL     1      -8.250   9.102  15.738  1.00  0.00     0.293 HD
ENDBRANCH   8  26
TORSDOF 6
ENDMDL
MODEL 7
REMARK VINA RESULT:    -5.855      1.576      1.626
REMARK INTER + INTRA:          -7.386
REMARK INTER:                  -7.239
REMARK INTRA:                  -0.147
REMARK UNBOUND:                -0.332
REMARK SMILES O=c1c(O)c(-c2ccc(O)c(O)c2)oc2cc(O)cc(O)c12
REMARK SMILES IDX 5 1 3 2 2 3 1 4 22 5 20 6 19 7 17 8 16 9 15 10 14 11 6 12
REMARK SMILES IDX 7 13 8 14 9 15 13 16 11 17 10 18 12 20 4 22 21 24 18 26
REMARK H PARENT 10 19 12 21 4 23 21 25 18 27
REMARK Flexibility Score: inf
ROOT
ATOM      1  C   UNL     1      -6.139  14.952  17.694  1.00  0.00     0.180 A 
ATOM      2  C   UNL     1      -7.171  14.617  16.802  1.00  0.00     0.208 A 
ATOM      3  C   UNL     1      -7.453  13.261  16.565  1.00  0.00     0.238 A 
ATOM      4  O   UNL     1      -8.427  12.968  15.825  1.00  0.00    -0.285 OA
ATOM      5  C   UNL     1      -6.662  12.259  17.178  1.00  0.00     0.111 A 
ATOM      6  C   UNL     1      -6.828  10.856  16.974  1.00  0.00     0.134 A 
ATOM      7  C   UNL     1      -6.054   9.954  17.717  1.00  0.00     0.093 A 
ATOM      8  C   UNL     1      -5.080  10.403  18.606  1.00  0.00     0.123 A 
ATOM      9  C   UNL     1      -4.870  11.772  18.772  1.00  0.00     0.094 A 
ATOM     10  C   UNL     1      -5.652  12.696  18.075  1.00  0.00     0.146 A 
ATOM     11  O   UNL     1      -5.435  13.991  18.278  1.00  0.00    -0.452 OA
ENDROOT
BRANCH   1  12
ATOM     12  C   UNL     1      -5.792  16.358  18.005  1.00  0.00     0.025 A 
ATOM     13  C   UNL     1      -4.490  16.820  17.756  1.00  0.00     0.016 A 
ATOM     14  C   UNL     1      -4.135  18.135  18.063  1.00  0.00     0.051 A 
ATOM     15  C   UNL     1      -5.071  19.005  18.638  1.00  0.00     0.157 A 
ATOM     16  C   UNL     1      -6.723  17.227  18.603  1.00  0.00     0.062 A 
ATOM     17  C   UNL     1      -6.370  18.546  18.913  1.00  0.00     0.158 A 
BRANCH  15  18
ATOM     18  O   UNL     1      -4.715  20.318  18.940  1.00  0.00    -0.504 OA
ATOM     19  H   UNL     1      -3.781  20.670  18.760  1.00  0.00     0.293 HD
ENDBRANCH  15  18
BRANCH  17  20
ATOM     20  O   UNL     1      -7.320  19.381  19.499  1.00  0.00    -0.504 OA
ATOM     21  H   UNL     1      -7.313  19.592  20.489  1.00  0.00     0.293 HD
ENDBRANCH  17  20
ENDBRANCH   1  12
BRANCH   2  22
ATOM     22  O   UNL     1      -7.891  15.621  16.148  1.00  0.00    -0.502 OA
ATOM     23  H   UNL     1      -7.570  16.581  16.106  1.00  0.00     0.293 HD
ENDBRANCH   2  22
BRANCH   6  24
ATOM     24  O   UNL     1      -7.712  10.298  16.045  1.00  0.00    -0.507 OA
ATOM     25  H   UNL     1      -8.707  10.455  16.029  1.00  0.00     0.293 HD
ENDBRANCH   6  24
BRANCH   8  26
ATOM     26  O   UNL     1      -4.317   9.477  19.315  1.00  0.00    -0.508 OA
ATOM     27  H   UNL     1      -4.408   8.481  19.153  1.00  0.00     0.293 HD
ENDBRANCH   8  26
TORSDOF 6
ENDMDL
MODEL 8
REMARK VINA RESULT:    -5.806     14.490     17.211
REMARK INTER + INTRA:          -7.326
REMARK INTER:                  -7.198
REMARK INTRA:                  -0.128
REMARK UNBOUND:                -0.332
REMARK SMILES O=c1c(O)c(-c2ccc(O)c(O)c2)oc2cc(O)cc(O)c12
REMARK SMILES IDX 5 1 3 2 2 3 1 4 22 5 20 6 19 7 17 8 16 9 15 10 14 11 6 12
REMARK SMILES IDX 7 13 8 14 9 15 13 16 11 17 10 18 12 20 4 22 21 24 18 26
REMARK H PARENT 10 19 12 21 4 23 21 25 18 27
REMARK Flexibility Score: inf
ROOT
ATOM      1  C   UNL     1     -15.638   7.542   7.038  1.00  0.00     0.180 A 
ATOM      2  C   UNL     1     -16.208   8.826   7.060  1.00  0.00     0.208 A 
ATOM      3  C   UNL     1     -15.395   9.936   6.779  1.00  0.00     0.238 A 
ATOM      4  O   UNL     1     -15.927  11.075   6.726  1.00  0.00    -0.285 OA
ATOM      5  C   UNL     1     -14.012   9.754   6.535  1.00  0.00     0.111 A 
ATOM      6  C   UNL     1     -13.086  10.811   6.284  1.00  0.00     0.134 A 
ATOM      7  C   UNL     1     -11.760  10.503   5.951  1.00  0.00     0.093 A 
ATOM      8  C   UNL     1     -11.313   9.183   5.922  1.00  0.00     0.123 A 
ATOM      9  C   UNL     1     -12.196   8.145   6.220  1.00  0.00     0.094 A 
ATOM     10  C   UNL     1     -13.533   8.418   6.518  1.00  0.00     0.146 A 
ATOM     11  O   UNL     1     -14.345   7.399   6.775  1.00  0.00    -0.452 OA
ENDROOT
BRANCH   1  12
ATOM     12  C   UNL     1     -16.433   6.323   7.311  1.00  0.00     0.025 A 
ATOM     13  C   UNL     1     -17.506   5.995   6.468  1.00  0.00     0.016 A 
ATOM     14  C   UNL     1     -18.284   4.862   6.719  1.00  0.00     0.051 A 
ATOM     15  C   UNL     1     -18.009   4.047   7.825  1.00  0.00     0.157 A 
ATOM     16  C   UNL     1     -16.174   5.514   8.432  1.00  0.00     0.062 A 
ATOM     17  C   UNL     1     -16.951   4.379   8.688  1.00  0.00     0.158 A 
BRANCH  15  18
ATOM     18  O   UNL     1     -18.784   2.915   8.072  1.00  0.00    -0.504 OA
ATOM     19  H   UNL     1     -18.923   2.562   9.012  1.00  0.00     0.293 HD
ENDBRANCH  15  18
BRANCH  17  20
ATOM     20  O   UNL     1     -16.662   3.597   9.806  1.00  0.00    -0.504 OA
ATOM     21  H   UNL     1     -17.264   2.839  10.103  1.00  0.00     0.293 HD
ENDBRANCH  17  20
ENDBRANCH   1  12
BRANCH   2  22
ATOM     22  O   UNL     1     -17.559   8.992   7.378  1.00  0.00    -0.502 OA
ATOM     23  H   UNL     1     -18.207   8.214   7.420  1.00  0.00     0.293 HD
ENDBRANCH   2  22
BRANCH   6  24
ATOM     24  O   UNL     1     -13.405  12.170   6.372  1.00  0.00    -0.507 OA
ATOM     25  H   UNL     1     -14.340  12.546   6.361  1.00  0.00     0.293 HD
ENDBRANCH   6  24
BRANCH   8  26
ATOM     26  O   UNL     1      -9.983   8.915   5.604  1.00  0.00    -0.508 OA
ATOM     27  H   UNL     1      -9.420   8.288   6.167  1.00  0.00     0.293 HD
ENDBRANCH   8  26
TORSDOF 6
ENDMDL
MODEL 9
REMARK VINA RESULT:    -5.792      2.753      7.452
REMARK INTER + INTRA:          -7.310
REMARK INTER:                  -7.263
REMARK INTRA:                  -0.047
REMARK UNBOUND:                -0.332
REMARK SMILES O=c1c(O)c(-c2ccc(O)c(O)c2)oc2cc(O)cc(O)c12
REMARK SMILES IDX 5 1 3 2 2 3 1 4 22 5 20 6 19 7 17 8 16 9 15 10 14 11 6 12
REMARK SMILES IDX 7 13 8 14 9 15 13 16 11 17 10 18 12 20 4 22 21 24 18 26
REMARK H PARENT 10 19 12 21 4 23 21 25 18 27
REMARK Flexibility Score: inf
ROOT
ATOM      1  C   UNL     1      -5.402  12.658  16.955  1.00  0.00     0.180 A 
ATOM      2  C   UNL     1      -4.151  12.942  16.380  1.00  0.00     0.208 A 
ATOM      3  C   UNL     1      -3.760  14.282  16.229  1.00  0.00     0.238 A 
ATOM      4  O   UNL     1      -2.609  14.528  15.784  1.00  0.00    -0.285 OA
ATOM      5  C   UNL     1      -4.647  15.322  16.601  1.00  0.00     0.111 A 
ATOM      6  C   UNL     1      -4.374  16.715  16.451  1.00  0.00     0.134 A 
ATOM      7  C   UNL     1      -5.283  17.656  16.952  1.00  0.00     0.093 A 
ATOM      8  C   UNL     1      -6.482  17.256  17.540  1.00  0.00     0.123 A 
ATOM      9  C   UNL     1      -6.785  15.898  17.643  1.00  0.00     0.094 A 
ATOM     10  C   UNL     1      -5.881  14.936  17.187  1.00  0.00     0.146 A 
ATOM     11  O   UNL     1      -6.199  13.653  17.323  1.00  0.00    -0.452 OA
ENDROOT
BRANCH   1  12
ATOM     12  C   UNL     1      -5.878  11.271  17.159  1.00  0.00     0.025 A 
ATOM     13  C   UNL     1      -7.159  10.908  16.715  1.00  0.00     0.016 A 
ATOM     14  C   UNL     1      -7.638   9.611  16.918  1.00  0.00     0.051 A 
ATOM     15  C   UNL     1      -6.850   8.662  17.580  1.00  0.00     0.157 A 
ATOM     16  C   UNL     1      -5.098  10.322  17.843  1.00  0.00     0.062 A 
ATOM     17  C   UNL     1      -5.575   9.022  18.049  1.00  0.00     0.158 A 
BRANCH  15  18
ATOM     18  O   UNL     1      -7.328   7.368  17.779  1.00  0.00    -0.504 OA
ATOM     19  H   UNL     1      -7.406   6.967  18.707  1.00  0.00     0.293 HD
ENDBRANCH  15  18
BRANCH  17  20
ATOM     20  O   UNL     1      -4.772   8.105  18.726  1.00  0.00    -0.504 OA
ATOM     21  H   UNL     1      -3.769   8.065  18.591  1.00  0.00     0.293 HD
ENDBRANCH  17  20
ENDBRANCH   1  12
BRANCH   2  22
ATOM     22  O   UNL     1      -3.322  11.903  15.949  1.00  0.00    -0.502 OA
ATOM     23  H   UNL     1      -2.448  11.678  16.409  1.00  0.00     0.293 HD
ENDBRANCH   2  22
BRANCH   6  24
ATOM     24  O   UNL     1      -3.247  17.227  15.799  1.00  0.00    -0.507 OA
ATOM     25  H   UNL     1      -3.174  18.155  15.413  1.00  0.00     0.293 HD
ENDBRANCH   6  24
BRANCH   8  26
ATOM     26  O   UNL     1      -7.371  18.220  18.012  1.00  0.00    -0.508 OA
ATOM     27  H   UNL     1      -7.920  18.789  17.379  1.00  0.00     0.293 HD
ENDBRANCH   8  26
TORSDOF 6
ENDMDL
