MODEL 1
REMARK VINA RESULT:    -4.422      0.000      0.000
REMARK INTER + INTRA:          -8.758
REMARK INTER:                  -8.041
REMARK INTRA:                  -0.718
REMARK UNBOUND:                -0.718
REMARK SMILES CCCCCCCCCCCCCCCC(=O)[O-]
REMARK SMILES IDX 9 1 10 2 11 3 12 4 13 5 14 6 15 7 16 8 17 9 18 10 8 11 7 12
REMARK SMILES IDX 6 13 5 14 4 15 3 16 2 17 1 18
REMARK H PARENT
REMARK Flexibility Score: inf
ROOT
ATOM      1  C   UNL     1      53.713  70.773  59.437  1.00  0.00     0.000 C 
ENDROOT
BRANCH   1   2
ATOM      2  C   UNL     1      53.786  69.394  58.763  1.00  0.00     0.000 C 
BRANCH   2   3
ATOM      3  C   UNL     1      54.599  69.461  57.464  1.00  0.00     0.000 C 
BRANCH   3   4
ATOM      4  C   UNL     1      55.374  68.155  57.233  1.00  0.00     0.000 C 
BRANCH   4   5
ATOM      5  C   UNL     1      55.482  67.288  58.500  1.00  0.00     0.000 C 
BRANCH   5   6
ATOM      6  C   UNL     1      55.871  65.819  58.252  1.00  0.00     0.006 C 
BRANCH   6   7
ATOM      7  C   UNL     1      56.213  65.531  56.784  1.00  0.00     0.053 C 
BRANCH   7   8
ATOM      8  C   UNL     1      56.288  64.055  56.545  1.00  0.00     0.041 C 
ATOM      9  O   UNL     1      55.514  63.275  57.158  1.00  0.00    -0.550 OA
ATOM     10  O   UNL     1      57.179  63.548  55.608  1.00  0.00    -0.550 OA
ENDBRANCH   7   8
ENDBRANCH   6   7
ENDBRANCH   5   6
ENDBRANCH   4   5
ENDBRANCH   3   4
ENDBRANCH   2   3
ENDBRANCH   1   2
BRANCH   1  11
ATOM     11  C   UNL     1      52.694  70.820  60.587  1.00  0.00     0.000 C 
BRANCH  11  12
ATOM     12  C   UNL     1      51.255  70.560  60.110  1.00  0.00    -0.000 C 
BRANCH  12  13
ATOM     13  C   UNL     1      50.568  69.435  60.902  1.00  0.00    -0.000 C 
BRANCH  13  14
ATOM     14  C   UNL     1      49.276  68.937  60.228  1.00  0.00    -0.000 C 
BRANCH  14  15
ATOM     15  C   UNL     1      49.016  67.443  60.475  1.00  0.00    -0.000 C 
BRANCH  15  16
ATOM     16  C   UNL     1      49.217  67.045  61.947  1.00  0.00    -0.000 C 
BRANCH  16  17
ATOM     17  C   UNL     1      47.887  66.847  62.690  1.00  0.00    -0.003 C 
ATOM     18  C   UNL     1      48.074  66.302  64.107  1.00  0.00     0.004 C 
ENDBRANCH  16  17
ENDBRANCH  15  16
ENDBRANCH  14  15
ENDBRANCH  13  14
ENDBRANCH  12  13
ENDBRANCH  11  12
ENDBRANCH   1  11
TORSDOF 14
ENDMDL
MODEL 2
REMARK VINA RESULT:    -4.335      1.130      1.463
REMARK INTER + INTRA:          -8.602
REMARK INTER:                  -7.771
REMARK INTRA:                  -0.831
REMARK UNBOUND:                -0.718
REMARK SMILES CCCCCCCCCCCCCCCC(=O)[O-]
REMARK SMILES IDX 9 1 10 2 11 3 12 4 13 5 14 6 15 7 16 8 17 9 18 10 8 11 7 12
REMARK SMILES IDX 6 13 5 14 4 15 3 16 2 17 1 18
REMARK H PARENT
REMARK Flexibility Score: inf
ROOT
ATOM      1  C   UNL     1      54.057  70.714  60.823  1.00  0.00     0.000 C 
ENDROOT
BRANCH   1   2
ATOM      2  C   UNL     1      53.410  70.272  59.502  1.00  0.00     0.000 C 
BRANCH   2   3
ATOM      3  C   UNL     1      54.292  70.648  58.306  1.00  0.00     0.000 C 
BRANCH   3   4
ATOM      4  C   UNL     1      54.688  69.402  57.500  1.00  0.00     0.000 C 
BRANCH   4   5
ATOM      5  C   UNL     1      54.548  68.097  58.304  1.00  0.00     0.000 C 
BRANCH   5   6
ATOM      6  C   UNL     1      55.716  67.106  58.146  1.00  0.00     0.006 C 
BRANCH   6   7
ATOM      7  C   UNL     1      55.251  65.648  58.032  1.00  0.00     0.053 C 
BRANCH   7   8
ATOM      8  C   UNL     1      56.088  64.909  57.036  1.00  0.00     0.041 C 
ATOM      9  O   UNL     1      56.677  65.535  56.116  1.00  0.00    -0.550 OA
ATOM     10  O   UNL     1      56.259  63.536  57.154  1.00  0.00    -0.550 OA
ENDBRANCH   7   8
ENDBRANCH   6   7
ENDBRANCH   5   6
ENDBRANCH   4   5
ENDBRANCH   3   4
ENDBRANCH   2   3
ENDBRANCH   1   2
BRANCH   1  11
ATOM     11  C   UNL     1      53.038  70.863  61.964  1.00  0.00     0.000 C 
BRANCH  11  12
ATOM     12  C   UNL     1      51.585  70.718  61.481  1.00  0.00    -0.000 C 
BRANCH  12  13
ATOM     13  C   UNL     1      50.722  69.890  62.448  1.00  0.00    -0.000 C 
BRANCH  13  14
ATOM     14  C   UNL     1      49.321  69.589  61.885  1.00  0.00    -0.000 C 
BRANCH  14  15
ATOM     15  C   UNL     1      49.346  68.547  60.756  1.00  0.00    -0.000 C 
BRANCH  15  16
ATOM     16  C   UNL     1      48.713  67.209  61.175  1.00  0.00    -0.000 C 
BRANCH  16  17
ATOM     17  C   UNL     1      47.619  67.384  62.240  1.00  0.00    -0.003 C 
ATOM     18  C   UNL     1      47.968  66.705  63.565  1.00  0.00     0.004 C 
ENDBRANCH  16  17
ENDBRANCH  15  16
ENDBRANCH  14  15
ENDBRANCH  13  14
ENDBRANCH  12  13
ENDBRANCH  11  12
ENDBRANCH   1  11
TORSDOF 14
ENDMDL
MODEL 3
REMARK VINA RESULT:    -4.326      1.556      2.802
REMARK INTER + INTRA:          -8.584
REMARK INTER:                  -7.409
REMARK INTRA:                  -1.175
REMARK UNBOUND:                -0.718
REMARK SMILES CCCCCCCCCCCCCCCC(=O)[O-]
REMARK SMILES IDX 9 1 10 2 11 3 12 4 13 5 14 6 15 7 16 8 17 9 18 10 8 11 7 12
REMARK SMILES IDX 6 13 5 14 4 15 3 16 2 17 1 18
REMARK H PARENT
REMARK Flexibility Score: inf
ROOT
ATOM      1  C   UNL     1      52.006  70.886  61.820  1.00  0.00     0.000 C 
ENDROOT
BRANCH   1   2
ATOM      2  C   UNL     1      53.498  70.841  62.180  1.00  0.00     0.000 C 
BRANCH   2   3
ATOM      3  C   UNL     1      54.365  70.753  60.918  1.00  0.00     0.000 C 
BRANCH   3   4
ATOM      4  C   UNL     1      53.508  70.440  59.683  1.00  0.00     0.000 C 
BRANCH   4   5
ATOM      5  C   UNL     1      54.341  70.277  58.399  1.00  0.00     0.000 C 
BRANCH   5   6
ATOM      6  C   UNL     1      54.303  68.871  57.772  1.00  0.00     0.006 C 
BRANCH   6   7
ATOM      7  C   UNL     1      55.122  67.842  58.563  1.00  0.00     0.053 C 
BRANCH   7   8
ATOM      8  C   UNL     1      55.733  66.838  57.637  1.00  0.00     0.041 C 
ATOM      9  O   UNL     1      56.418  67.221  56.652  1.00  0.00    -0.550 OA
ATOM     10  O   UNL     1      55.590  65.480  57.892  1.00  0.00    -0.550 OA
ENDBRANCH   7   8
ENDBRANCH   6   7
ENDBRANCH   5   6
ENDBRANCH   4   5
ENDBRANCH   3   4
ENDBRANCH   2   3
ENDBRANCH   1   2
BRANCH   1  11
ATOM     11  C   UNL     1      51.149  69.979  62.718  1.00  0.00     0.000 C 
BRANCH  11  12
ATOM     12  C   UNL     1      49.734  69.758  62.155  1.00  0.00    -0.000 C 
BRANCH  12  13
ATOM     13  C   UNL     1      49.721  69.654  60.621  1.00  0.00    -0.000 C 
BRANCH  13  14
ATOM     14  C   UNL     1      49.463  68.220  60.125  1.00  0.00    -0.000 C 
BRANCH  14  15
ATOM     15  C   UNL     1      49.116  67.251  61.266  1.00  0.00    -0.000 C 
BRANCH  15  16
ATOM     16  C   UNL     1      47.672  66.730  61.178  1.00  0.00    -0.000 C 
BRANCH  16  17
ATOM     17  C   UNL     1      47.161  66.182  62.520  1.00  0.00    -0.003 C 
ATOM     18  C   UNL     1      48.047  66.581  63.700  1.00  0.00     0.004 C 
ENDBRANCH  16  17
ENDBRANCH  15  16
ENDBRANCH  14  15
ENDBRANCH  13  14
ENDBRANCH  12  13
ENDBRANCH  11  12
ENDBRANCH   1  11
TORSDOF 14
ENDMDL
MODEL 4
REMARK VINA RESULT:    -4.177      4.028      8.020
REMARK INTER + INTRA:          -8.313
REMARK INTER:                  -7.705
REMARK INTRA:                  -0.608
REMARK UNBOUND:                -0.718
REMARK SMILES CCCCCCCCCCCCCCCC(=O)[O-]
REMARK SMILES IDX 9 1 10 2 11 3 12 4 13 5 14 6 15 7 16 8 17 9 18 10 8 11 7 12
REMARK SMILES IDX 6 13 5 14 4 15 3 16 2 17 1 18
REMARK H PARENT
REMARK Flexibility Score: inf
ROOT
ATOM      1  C   UNL     1      53.939  70.810  60.826  1.00  0.00     0.000 C 
ENDROOT
BRANCH   1   2
ATOM      2  C   UNL     1      52.963  70.846  62.011  1.00  0.00     0.000 C 
BRANCH   2   3
ATOM      3  C   UNL     1      51.509  70.788  61.527  1.00  0.00     0.000 C 
BRANCH   3   4
ATOM      4  C   UNL     1      50.573  70.319  62.650  1.00  0.00     0.000 C 
BRANCH   4   5
ATOM      5  C   UNL     1      49.226  69.787  62.127  1.00  0.00     0.000 C 
BRANCH   5   6
ATOM      6  C   UNL     1      49.296  68.423  61.417  1.00  0.00     0.006 C 
BRANCH   6   7
ATOM      7  C   UNL     1      49.416  67.246  62.394  1.00  0.00     0.053 C 
BRANCH   7   8
ATOM      8  C   UNL     1      48.069  66.867  62.923  1.00  0.00     0.041 C 
ATOM      9  O   UNL     1      47.970  66.238  64.009  1.00  0.00    -0.550 OA
ATOM     10  O   UNL     1      46.921  67.254  62.244  1.00  0.00    -0.550 OA
ENDBRANCH   7   8
ENDBRANCH   6   7
ENDBRANCH   5   6
ENDBRANCH   4   5
ENDBRANCH   3   4
ENDBRANCH   2   3
ENDBRANCH   1   2
BRANCH   1  11
ATOM     11  C   UNL     1      53.235  70.567  59.481  1.00  0.00     0.000 C 
BRANCH  11  12
ATOM     12  C   UNL     1      54.204  70.095  58.384  1.00  0.00    -0.000 C 
BRANCH  12  13
ATOM     13  C   UNL     1      54.111  68.581  58.129  1.00  0.00    -0.000 C 
BRANCH  13  14
ATOM     14  C   UNL     1      55.388  68.007  57.489  1.00  0.00    -0.000 C 
BRANCH  14  15
ATOM     15  C   UNL     1      55.668  66.558  57.920  1.00  0.00    -0.000 C 
BRANCH  15  16
ATOM     16  C   UNL     1      56.249  65.706  56.778  1.00  0.00    -0.000 C 
BRANCH  16  17
ATOM     17  C   UNL     1      56.063  64.199  57.016  1.00  0.00    -0.003 C 
ATOM     18  C   UNL     1      56.793  63.341  55.982  1.00  0.00     0.004 C 
ENDBRANCH  16  17
ENDBRANCH  15  16
ENDBRANCH  14  15
ENDBRANCH  13  14
ENDBRANCH  12  13
ENDBRANCH  11  12
ENDBRANCH   1  11
TORSDOF 14
ENDMDL
MODEL 5
REMARK VINA RESULT:    -4.019     15.056     17.476
REMARK INTER + INTRA:          -8.026
REMARK INTER:                  -6.329
REMARK INTRA:                  -1.697
REMARK UNBOUND:                -0.718
REMARK SMILES CCCCCCCCCCCCCCCC(=O)[O-]
REMARK SMILES IDX 9 1 10 2 11 3 12 4 13 5 14 6 15 7 16 8 17 9 18 10 8 11 7 12
REMARK SMILES IDX 6 13 5 14 4 15 3 16 2 17 1 18
REMARK H PARENT
REMARK Flexibility Score: inf
ROOT
ATOM      1  C   UNL     1      50.594  51.859  49.458  1.00  0.00     0.000 C 
ENDROOT
BRANCH   1   2
ATOM      2  C   UNL     1      51.746  50.884  49.739  1.00  0.00     0.000 C 
BRANCH   2   3
ATOM      3  C   UNL     1      53.043  51.360  49.074  1.00  0.00     0.000 C 
BRANCH   3   4
ATOM      4  C   UNL     1      53.986  52.002  50.102  1.00  0.00     0.000 C 
BRANCH   4   5
ATOM      5  C   UNL     1      54.761  50.966  50.936  1.00  0.00     0.000 C 
BRANCH   5   6
ATOM      6  C   UNL     1      54.342  50.875  52.415  1.00  0.00     0.006 C 
BRANCH   6   7
ATOM      7  C   UNL     1      53.619  52.135  52.910  1.00  0.00     0.053 C 
BRANCH   7   8
ATOM      8  C   UNL     1      53.364  52.047  54.381  1.00  0.00     0.041 C 
ATOM      9  O   UNL     1      52.953  50.970  54.889  1.00  0.00    -0.550 OA
ATOM     10  O   UNL     1      53.628  53.138  55.199  1.00  0.00    -0.550 OA
ENDBRANCH   7   8
ENDBRANCH   6   7
ENDBRANCH   5   6
ENDBRANCH   4   5
ENDBRANCH   3   4
ENDBRANCH   2   3
ENDBRANCH   1   2
BRANCH   1  11
ATOM     11  C   UNL     1      49.404  51.667  50.413  1.00  0.00     0.000 C 
BRANCH  11  12
ATOM     12  C   UNL     1      49.833  51.129  51.788  1.00  0.00    -0.000 C 
BRANCH  12  13
ATOM     13  C   UNL     1      49.894  52.232  52.859  1.00  0.00    -0.000 C 
BRANCH  13  14
ATOM     14  C   UNL     1      48.930  53.396  52.567  1.00  0.00    -0.000 C 
BRANCH  14  15
ATOM     15  C   UNL     1      49.604  54.771  52.699  1.00  0.00    -0.000 C 
BRANCH  15  16
ATOM     16  C   UNL     1      49.058  55.795  51.688  1.00  0.00    -0.000 C 
BRANCH  16  17
ATOM     17  C   UNL     1      49.167  55.303  50.237  1.00  0.00    -0.003 C 
ATOM     18  C   UNL     1      48.111  55.922  49.320  1.00  0.00     0.004 C 
ENDBRANCH  16  17
ENDBRANCH  15  16
ENDBRANCH  14  15
ENDBRANCH  13  14
ENDBRANCH  12  13
ENDBRANCH  11  12
ENDBRANCH   1  11
TORSDOF 14
ENDMDL
MODEL 6
REMARK VINA RESULT:    -3.954     15.093     17.979
REMARK INTER + INTRA:          -7.908
REMARK INTER:                  -6.178
REMARK INTRA:                  -1.730
REMARK UNBOUND:                -0.718
REMARK SMILES CCCCCCCCCCCCCCCC(=O)[O-]
REMARK SMILES IDX 9 1 10 2 11 3 12 4 13 5 14 6 15 7 16 8 17 9 18 10 8 11 7 12
REMARK SMILES IDX 6 13 5 14 4 15 3 16 2 17 1 18
REMARK H PARENT
REMARK Flexibility Score: inf
ROOT
ATOM      1  C   UNL     1      51.361  52.530  50.073  1.00  0.00     0.000 C 
ENDROOT
BRANCH   1   2
ATOM      2  C   UNL     1      50.094  51.666  49.984  1.00  0.00     0.000 C 
BRANCH   2   3
ATOM      3  C   UNL     1      49.537  51.364  51.380  1.00  0.00     0.000 C 
BRANCH   3   4
ATOM      4  C   UNL     1      50.521  51.805  52.473  1.00  0.00     0.000 C 
BRANCH   4   5
ATOM      5  C   UNL     1      49.969  52.936  53.359  1.00  0.00     0.000 C 
BRANCH   5   6
ATOM      6  C   UNL     1      48.741  53.669  52.788  1.00  0.00     0.006 C 
BRANCH   6   7
ATOM      7  C   UNL     1      48.922  55.192  52.741  1.00  0.00     0.053 C 
BRANCH   7   8
ATOM      8  C   UNL     1      48.678  55.705  51.357  1.00  0.00     0.041 C 
ATOM      9  O   UNL     1      49.405  55.322  50.403  1.00  0.00    -0.550 OA
ATOM     10  O   UNL     1      47.617  56.567  51.113  1.00  0.00    -0.550 OA
ENDBRANCH   7   8
ENDBRANCH   6   7
ENDBRANCH   5   6
ENDBRANCH   4   5
ENDBRANCH   3   4
ENDBRANCH   2   3
ENDBRANCH   1   2
BRANCH   1  11
ATOM     11  C   UNL     1      52.416  52.151  49.021  1.00  0.00     0.000 C 
BRANCH  11  12
ATOM     12  C   UNL     1      53.853  52.264  49.559  1.00  0.00    -0.000 C 
BRANCH  12  13
ATOM     13  C   UNL     1      54.447  50.898  49.943  1.00  0.00    -0.000 C 
BRANCH  13  14
ATOM     14  C   UNL     1      55.005  50.875  51.377  1.00  0.00    -0.000 C 
BRANCH  14  15
ATOM     15  C   UNL     1      54.140  51.676  52.364  1.00  0.00    -0.000 C 
BRANCH  15  16
ATOM     16  C   UNL     1      53.802  50.877  53.634  1.00  0.00    -0.000 C 
BRANCH  16  17
ATOM     17  C   UNL     1      53.319  51.775  54.783  1.00  0.00    -0.003 C 
ATOM     18  C   UNL     1      53.582  53.259  54.527  1.00  0.00     0.004 C 
ENDBRANCH  16  17
ENDBRANCH  15  16
ENDBRANCH  14  15
ENDBRANCH  13  14
ENDBRANCH  12  13
ENDBRANCH  11  12
ENDBRANCH   1  11
TORSDOF 14
ENDMDL
MODEL 7
REMARK VINA RESULT:    -3.758     14.844     17.908
REMARK INTER + INTRA:          -7.551
REMARK INTER:                  -6.740
REMARK INTRA:                  -0.811
REMARK UNBOUND:                -0.718
REMARK SMILES CCCCCCCCCCCCCCCC(=O)[O-]
REMARK SMILES IDX 9 1 10 2 11 3 12 4 13 5 14 6 15 7 16 8 17 9 18 10 8 11 7 12
REMARK SMILES IDX 6 13 5 14 4 15 3 16 2 17 1 18
REMARK H PARENT
REMARK Flexibility Score: inf
ROOT
ATOM      1  C   UNL     1      63.697  51.710  60.567  1.00  0.00     0.000 C 
ENDROOT
BRANCH   1   2
ATOM      2  C   UNL     1      63.646  52.761  59.448  1.00  0.00     0.000 C 
BRANCH   2   3
ATOM      3  C   UNL     1      64.551  53.955  59.774  1.00  0.00     0.000 C 
BRANCH   3   4
ATOM      4  C   UNL     1      64.365  54.405  61.230  1.00  0.00     0.000 C 
BRANCH   4   5
ATOM      5  C   UNL     1      65.322  55.541  61.635  1.00  0.00     0.000 C 
BRANCH   5   6
ATOM      6  C   UNL     1      65.573  55.673  63.148  1.00  0.00     0.006 C 
BRANCH   6   7
ATOM      7  C   UNL     1      66.813  56.515  63.477  1.00  0.00     0.053 C 
BRANCH   7   8
ATOM      8  C   UNL     1      66.414  57.797  64.137  1.00  0.00     0.041 C 
ATOM      9  O   UNL     1      65.752  57.778  65.208  1.00  0.00    -0.550 OA
ATOM     10  O   UNL     1      66.817  59.012  63.597  1.00  0.00    -0.550 OA
ENDBRANCH   7   8
ENDBRANCH   6   7
ENDBRANCH   5   6
ENDBRANCH   4   5
ENDBRANCH   3   4
ENDBRANCH   2   3
ENDBRANCH   1   2
BRANCH   1  11
ATOM     11  C   UNL     1      62.340  51.515  61.263  1.00  0.00     0.000 C 
BRANCH  11  12
ATOM     12  C   UNL     1      61.290  50.875  60.338  1.00  0.00    -0.000 C 
BRANCH  12  13
ATOM     13  C   UNL     1      59.874  51.416  60.594  1.00  0.00    -0.000 C 
BRANCH  13  14
ATOM     14  C   UNL     1      59.050  51.558  59.302  1.00  0.00    -0.000 C 
BRANCH  14  15
ATOM     15  C   UNL     1      59.916  51.907  58.081  1.00  0.00    -0.000 C 
BRANCH  15  16
ATOM     16  C   UNL     1      59.330  53.063  57.253  1.00  0.00    -0.000 C 
BRANCH  16  17
ATOM     17  C   UNL     1      58.063  53.658  57.888  1.00  0.00    -0.003 C 
ATOM     18  C   UNL     1      57.386  54.700  56.997  1.00  0.00     0.004 C 
ENDBRANCH  16  17
ENDBRANCH  15  16
ENDBRANCH  14  15
ENDBRANCH  13  14
ENDBRANCH  12  13
ENDBRANCH  11  12
ENDBRANCH   1  11
TORSDOF 14
ENDMDL
MODEL 8
REMARK VINA RESULT:    -3.649      2.834      7.213
REMARK INTER + INTRA:          -7.354
REMARK INTER:                  -6.446
REMARK INTRA:                  -0.907
REMARK UNBOUND:                -0.718
REMARK SMILES CCCCCCCCCCCCCCCC(=O)[O-]
REMARK SMILES IDX 9 1 10 2 11 3 12 4 13 5 14 6 15 7 16 8 17 9 18 10 8 11 7 12
REMARK SMILES IDX 6 13 5 14 4 15 3 16 2 17 1 18
REMARK H PARENT
REMARK Flexibility Score: inf
ROOT
ATOM      1  C   UNL     1      52.760  71.125  60.715  1.00  0.00     0.000 C 
ENDROOT
BRANCH   1   2
ATOM      2  C   UNL     1      52.432  70.709  62.157  1.00  0.00     0.000 C 
BRANCH   2   3
ATOM      3  C   UNL     1      50.929  70.831  62.434  1.00  0.00     0.000 C 
BRANCH   3   4
ATOM      4  C   UNL     1      50.314  69.459  62.747  1.00  0.00     0.000 C 
BRANCH   4   5
ATOM      5  C   UNL     1      48.788  69.426  62.552  1.00  0.00     0.000 C 
BRANCH   5   6
ATOM      6  C   UNL     1      48.314  68.811  61.222  1.00  0.00     0.006 C 
BRANCH   6   7
ATOM      7  C   UNL     1      49.106  67.558  60.828  1.00  0.00     0.053 C 
BRANCH   7   8
ATOM      8  C   UNL     1      49.869  67.798  59.563  1.00  0.00     0.041 C 
ATOM      9  O   UNL     1      50.201  68.968  59.237  1.00  0.00    -0.550 OA
ATOM     10  O   UNL     1      50.256  66.725  58.771  1.00  0.00    -0.550 OA
ENDBRANCH   7   8
ENDBRANCH   6   7
ENDBRANCH   5   6
ENDBRANCH   4   5
ENDBRANCH   3   4
ENDBRANCH   2   3
ENDBRANCH   1   2
BRANCH   1  11
ATOM     11  C   UNL     1      54.051  70.477  60.188  1.00  0.00     0.000 C 
BRANCH  11  12
ATOM     12  C   UNL     1      53.988  70.178  58.680  1.00  0.00    -0.000 C 
BRANCH  12  13
ATOM     13  C   UNL     1      54.188  68.685  58.368  1.00  0.00    -0.000 C 
BRANCH  13  14
ATOM     14  C   UNL     1      55.098  68.450  57.149  1.00  0.00    -0.000 C 
BRANCH  14  15
ATOM     15  C   UNL     1      56.077  67.284  57.355  1.00  0.00    -0.000 C 
BRANCH  15  16
ATOM     16  C   UNL     1      55.480  66.158  58.217  1.00  0.00    -0.000 C 
BRANCH  16  17
ATOM     17  C   UNL     1      55.507  64.796  57.507  1.00  0.00    -0.003 C 
ATOM     18  C   UNL     1      56.601  64.703  56.442  1.00  0.00     0.004 C 
ENDBRANCH  16  17
ENDBRANCH  15  16
ENDBRANCH  14  15
ENDBRANCH  13  14
ENDBRANCH  12  13
ENDBRANCH  11  12
ENDBRANCH   1  11
TORSDOF 14
ENDMDL
MODEL 9
REMARK VINA RESULT:    -3.475     15.936     18.071
REMARK INTER + INTRA:          -7.037
REMARK INTER:                  -5.235
REMARK INTRA:                  -1.802
REMARK UNBOUND:                -0.718
REMARK SMILES CCCCCCCCCCCCCCCC(=O)[O-]
REMARK SMILES IDX 9 1 10 2 11 3 12 4 13 5 14 6 15 7 16 8 17 9 18 10 8 11 7 12
REMARK SMILES IDX 6 13 5 14 4 15 3 16 2 17 1 18
REMARK H PARENT
REMARK Flexibility Score: inf
ROOT
ATOM      1  C   UNL     1      53.847  52.381  49.432  1.00  0.00     0.000 C 
ENDROOT
BRANCH   1   2
ATOM      2  C   UNL     1      52.419  52.355  48.865  1.00  0.00     0.000 C 
BRANCH   2   3
ATOM      3  C   UNL     1      51.611  51.199  49.466  1.00  0.00     0.000 C 
BRANCH   3   4
ATOM      4  C   UNL     1      50.483  51.726  50.366  1.00  0.00     0.000 C 
BRANCH   4   5
ATOM      5  C   UNL     1      49.864  53.037  49.849  1.00  0.00     0.000 C 
BRANCH   5   6
ATOM      6  C   UNL     1      49.103  53.858  50.905  1.00  0.00     0.006 C 
BRANCH   6   7
ATOM      7  C   UNL     1      49.298  55.371  50.740  1.00  0.00     0.053 C 
BRANCH   7   8
ATOM      8  C   UNL     1      48.125  55.975  50.033  1.00  0.00     0.041 C 
ATOM      9  O   UNL     1      48.068  55.960  48.776  1.00  0.00    -0.550 OA
ATOM     10  O   UNL     1      47.072  56.508  50.765  1.00  0.00    -0.550 OA
ENDBRANCH   7   8
ENDBRANCH   6   7
ENDBRANCH   5   6
ENDBRANCH   4   5
ENDBRANCH   3   4
ENDBRANCH   2   3
ENDBRANCH   1   2
BRANCH   1  11
ATOM     11  C   UNL     1      54.423  50.974  49.658  1.00  0.00     0.000 C 
BRANCH  11  12
ATOM     12  C   UNL     1      55.258  50.879  50.947  1.00  0.00    -0.000 C 
BRANCH  12  13
ATOM     13  C   UNL     1      54.679  51.733  52.087  1.00  0.00    -0.000 C 
BRANCH  13  14
ATOM     14  C   UNL     1      54.003  50.885  53.180  1.00  0.00    -0.000 C 
BRANCH  14  15
ATOM     15  C   UNL     1      52.492  51.151  53.288  1.00  0.00    -0.000 C 
BRANCH  15  16
ATOM     16  C   UNL     1      52.177  52.598  53.702  1.00  0.00    -0.000 C 
BRANCH  16  17
ATOM     17  C   UNL     1      50.669  52.850  53.859  1.00  0.00    -0.003 C 
ATOM     18  C   UNL     1      49.837  51.575  53.720  1.00  0.00     0.004 C 
ENDBRANCH  16  17
ENDBRANCH  15  16
ENDBRANCH  14  15
ENDBRANCH  13  14
ENDBRANCH  12  13
ENDBRANCH  11  12
ENDBRANCH   1  11
TORSDOF 14
ENDMDL
