MODEL 1
REMARK VINA RESULT:    -5.061      0.000      0.000
REMARK INTER + INTRA:         -11.973
REMARK INTER:                  -9.498
REMARK INTRA:                  -2.475
REMARK UNBOUND:                -2.475
REMARK SMILES CCCCCCCCC=CCCCCCCCC(=O)[O-]
REMARK SMILES IDX 10 1 9 2 11 3 12 4 13 5 14 6 15 7 16 8 17 9 18 10 19 11
REMARK SMILES IDX 20 12 8 13 7 14 6 15 5 16 4 17 3 18 2 19 1 20
REMARK H PARENT
REMARK Flexibility Score: inf
ROOT
ATOM      1  C   UNL     1     -19.526 -23.128  12.531  1.00  0.00    -0.031 C 
ATOM      2  C   UNL     1     -19.085 -23.804  11.455  1.00  0.00    -0.031 C 
ENDROOT
BRANCH   1   3
ATOM      3  C   UNL     1     -20.380 -23.717  13.625  1.00  0.00     0.027 C 
BRANCH   3   4
ATOM      4  C   UNL     1     -19.517 -24.284  14.762  1.00  0.00     0.004 C 
BRANCH   4   5
ATOM      5  C   UNL     1     -20.247 -25.375  15.561  1.00  0.00     0.000 C 
BRANCH   5   6
ATOM      6  C   UNL     1     -21.182 -26.222  14.681  1.00  0.00     0.000 C 
BRANCH   6   7
ATOM      7  C   UNL     1     -20.489 -27.471  14.114  1.00  0.00     0.000 C 
BRANCH   7   8
ATOM      8  C   UNL     1     -21.187 -28.773  14.533  1.00  0.00     0.006 C 
BRANCH   8   9
ATOM      9  C   UNL     1     -21.668 -28.697  15.985  1.00  0.00     0.053 C 
BRANCH   9  10
ATOM     10  C   UNL     1     -21.749 -30.065  16.585  1.00  0.00     0.041 C 
ATOM     11  O   UNL     1     -21.111 -30.335  17.636  1.00  0.00    -0.550 OA
ATOM     12  O   UNL     1     -22.483 -31.060  15.953  1.00  0.00    -0.550 OA
ENDBRANCH   9  10
ENDBRANCH   8   9
ENDBRANCH   7   8
ENDBRANCH   6   7
ENDBRANCH   5   6
ENDBRANCH   4   5
ENDBRANCH   3   4
ENDBRANCH   1   3
BRANCH   2  13
ATOM     13  C   UNL     1     -19.378 -25.255  11.160  1.00  0.00     0.027 C 
BRANCH  13  14
ATOM     14  C   UNL     1     -18.187 -26.172  11.494  1.00  0.00     0.004 C 
BRANCH  14  15
ATOM     15  C   UNL     1     -16.890 -25.406  11.819  1.00  0.00     0.000 C 
BRANCH  15  16
ATOM     16  C   UNL     1     -16.387 -25.664  13.250  1.00  0.00     0.000 C 
BRANCH  16  17
ATOM     17  C   UNL     1     -17.111 -26.836  13.930  1.00  0.00    -0.000 C 
BRANCH  17  18
ATOM     18  C   UNL     1     -16.697 -27.018  15.399  1.00  0.00    -0.000 C 
BRANCH  18  19
ATOM     19  C   UNL     1     -16.069 -25.747  15.994  1.00  0.00    -0.003 C 
ATOM     20  C   UNL     1     -15.072 -26.045  17.114  1.00  0.00     0.004 C 
ENDBRANCH  18  19
ENDBRANCH  17  18
ENDBRANCH  16  17
ENDBRANCH  15  16
ENDBRANCH  14  15
ENDBRANCH  13  14
ENDBRANCH   2  13
TORSDOF 15
ENDMDL
MODEL 2
REMARK VINA RESULT:    -4.890     10.352     11.909
REMARK INTER + INTRA:         -11.653
REMARK INTER:                 -10.199
REMARK INTRA:                  -1.454
REMARK UNBOUND:                -2.475
REMARK SMILES CCCCCCCCC=CCCCCCCCC(=O)[O-]
REMARK SMILES IDX 10 1 9 2 11 3 12 4 13 5 14 6 15 7 16 8 17 9 18 10 19 11
REMARK SMILES IDX 20 12 8 13 7 14 6 15 5 16 4 17 3 18 2 19 1 20
REMARK H PARENT
REMARK Flexibility Score: inf
ROOT
ATOM      1  C   UNL     1     -22.886 -25.903   3.306  1.00  0.00    -0.031 C 
ATOM      2  C   UNL     1     -23.083 -24.715   2.704  1.00  0.00    -0.031 C 
ENDROOT
BRANCH   1   3
ATOM      3  C   UNL     1     -22.662 -27.206   2.583  1.00  0.00     0.027 C 
BRANCH   3   4
ATOM      4  C   UNL     1     -22.639 -28.391   3.561  1.00  0.00     0.004 C 
BRANCH   4   5
ATOM      5  C   UNL     1     -23.933 -29.217   3.509  1.00  0.00     0.000 C 
BRANCH   5   6
ATOM      6  C   UNL     1     -24.538 -29.451   4.904  1.00  0.00     0.000 C 
BRANCH   6   7
ATOM      7  C   UNL     1     -25.444 -28.296   5.356  1.00  0.00     0.000 C 
BRANCH   7   8
ATOM      8  C   UNL     1     -26.896 -28.742   5.589  1.00  0.00     0.006 C 
BRANCH   8   9
ATOM      9  C   UNL     1     -27.000 -29.658   6.811  1.00  0.00     0.053 C 
BRANCH   9  10
ATOM     10  C   UNL     1     -26.867 -28.866   8.074  1.00  0.00     0.041 C 
ATOM     11  O   UNL     1     -27.804 -28.116   8.454  1.00  0.00    -0.550 OA
ATOM     12  O   UNL     1     -25.685 -28.911   8.802  1.00  0.00    -0.550 OA
ENDBRANCH   9  10
ENDBRANCH   8   9
ENDBRANCH   7   8
ENDBRANCH   6   7
ENDBRANCH   5   6
ENDBRANCH   4   5
ENDBRANCH   3   4
ENDBRANCH   1   3
BRANCH   2  13
ATOM     13  C   UNL     1     -23.123 -24.494   1.211  1.00  0.00     0.027 C 
BRANCH  13  14
ATOM     14  C   UNL     1     -21.723 -24.245   0.620  1.00  0.00     0.004 C 
BRANCH  14  15
ATOM     15  C   UNL     1     -21.467 -24.997  -0.700  1.00  0.00     0.000 C 
BRANCH  15  16
ATOM     16  C   UNL     1     -20.277 -25.970  -0.612  1.00  0.00     0.000 C 
BRANCH  16  17
ATOM     17  C   UNL     1     -19.690 -26.059   0.806  1.00  0.00    -0.000 C 
BRANCH  17  18
ATOM     18  C   UNL     1     -18.718 -27.238   0.972  1.00  0.00    -0.000 C 
BRANCH  18  19
ATOM     19  C   UNL     1     -18.226 -27.396   2.420  1.00  0.00    -0.003 C 
ATOM     20  C   UNL     1     -16.907 -26.671   2.682  1.00  0.00     0.004 C 
ENDBRANCH  18  19
ENDBRANCH  17  18
ENDBRANCH  16  17
ENDBRANCH  15  16
ENDBRANCH  14  15
ENDBRANCH  13  14
ENDBRANCH   2  13
TORSDOF 15
ENDMDL
MODEL 3
REMARK VINA RESULT:    -4.836      4.359      7.481
REMARK INTER + INTRA:         -11.551
REMARK INTER:                  -9.847
REMARK INTRA:                  -1.705
REMARK UNBOUND:                -2.475
REMARK SMILES CCCCCCCCC=CCCCCCCCC(=O)[O-]
REMARK SMILES IDX 10 1 9 2 11 3 12 4 13 5 14 6 15 7 16 8 17 9 18 10 19 11
REMARK SMILES IDX 20 12 8 13 7 14 6 15 5 16 4 17 3 18 2 19 1 20
REMARK H PARENT
REMARK Flexibility Score: inf
ROOT
ATOM      1  C   UNL     1     -21.775 -25.390  14.936  1.00  0.00    -0.031 C 
ATOM      2  C   UNL     1     -22.826 -25.766  15.688  1.00  0.00    -0.031 C 
ENDROOT
BRANCH   1   3
ATOM      3  C   UNL     1     -20.351 -25.313  15.426  1.00  0.00     0.027 C 
BRANCH   3   4
ATOM      4  C   UNL     1     -19.550 -24.258  14.650  1.00  0.00     0.004 C 
BRANCH   4   5
ATOM      5  C   UNL     1     -19.136 -24.749  13.254  1.00  0.00     0.000 C 
BRANCH   5   6
ATOM      6  C   UNL     1     -19.817 -23.957  12.125  1.00  0.00     0.000 C 
BRANCH   6   7
ATOM      7  C   UNL     1     -19.891 -22.451  12.423  1.00  0.00     0.000 C 
BRANCH   7   8
ATOM      8  C   UNL     1     -18.910 -21.632  11.571  1.00  0.00     0.006 C 
BRANCH   8   9
ATOM      9  C   UNL     1     -19.658 -20.663  10.651  1.00  0.00     0.053 C 
BRANCH   9  10
ATOM     10  C   UNL     1     -20.129 -21.366   9.418  1.00  0.00     0.041 C 
ATOM     11  O   UNL     1     -19.478 -22.340   8.955  1.00  0.00    -0.550 OA
ATOM     12  O   UNL     1     -21.256 -20.913   8.745  1.00  0.00    -0.550 OA
ENDBRANCH   9  10
ENDBRANCH   8   9
ENDBRANCH   7   8
ENDBRANCH   6   7
ENDBRANCH   5   6
ENDBRANCH   4   5
ENDBRANCH   3   4
ENDBRANCH   1   3
BRANCH   2  13
ATOM     13  C   UNL     1     -22.756 -26.162  17.143  1.00  0.00     0.027 C 
BRANCH  13  14
ATOM     14  C   UNL     1     -23.695 -27.335  17.475  1.00  0.00     0.004 C 
BRANCH  14  15
ATOM     15  C   UNL     1     -22.967 -28.570  18.039  1.00  0.00     0.000 C 
BRANCH  15  16
ATOM     16  C   UNL     1     -21.661 -28.887  17.290  1.00  0.00     0.000 C 
BRANCH  16  17
ATOM     17  C   UNL     1     -21.689 -30.264  16.608  1.00  0.00    -0.000 C 
BRANCH  17  18
ATOM     18  C   UNL     1     -21.738 -30.166  15.075  1.00  0.00    -0.000 C 
BRANCH  18  19
ATOM     19  C   UNL     1     -20.996 -28.930  14.541  1.00  0.00    -0.003 C 
ATOM     20  C   UNL     1     -20.552 -29.085  13.086  1.00  0.00     0.004 C 
ENDBRANCH  18  19
ENDBRANCH  17  18
ENDBRANCH  16  17
ENDBRANCH  15  16
ENDBRANCH  14  15
ENDBRANCH  13  14
ENDBRANCH   2  13
TORSDOF 15
ENDMDL
MODEL 4
REMARK VINA RESULT:    -4.786      7.483      9.296
REMARK INTER + INTRA:         -11.457
REMARK INTER:                 -10.022
REMARK INTRA:                  -1.435
REMARK UNBOUND:                -2.475
REMARK SMILES CCCCCCCCC=CCCCCCCCC(=O)[O-]
REMARK SMILES IDX 10 1 9 2 11 3 12 4 13 5 14 6 15 7 16 8 17 9 18 10 19 11
REMARK SMILES IDX 20 12 8 13 7 14 6 15 5 16 4 17 3 18 2 19 1 20
REMARK H PARENT
REMARK Flexibility Score: inf
ROOT
ATOM      1  C   UNL     1     -26.584 -23.816  15.061  1.00  0.00    -0.031 C 
ATOM      2  C   UNL     1     -25.481 -24.113  15.773  1.00  0.00    -0.031 C 
ENDROOT
BRANCH   1   3
ATOM      3  C   UNL     1     -27.336 -24.792  14.193  1.00  0.00     0.027 C 
BRANCH   3   4
ATOM      4  C   UNL     1     -28.539 -25.391  14.939  1.00  0.00     0.004 C 
BRANCH   4   5
ATOM      5  C   UNL     1     -29.865 -24.727  14.535  1.00  0.00     0.000 C 
BRANCH   5   6
ATOM      6  C   UNL     1     -30.183 -23.484  15.383  1.00  0.00     0.000 C 
BRANCH   6   7
ATOM      7  C   UNL     1     -30.796 -23.841  16.746  1.00  0.00     0.000 C 
BRANCH   7   8
ATOM      8  C   UNL     1     -29.971 -23.298  17.923  1.00  0.00     0.006 C 
BRANCH   8   9
ATOM      9  C   UNL     1     -29.027 -22.183  17.464  1.00  0.00     0.053 C 
BRANCH   9  10
ATOM     10  C   UNL     1     -29.570 -20.843  17.849  1.00  0.00     0.041 C 
ATOM     11  O   UNL     1     -30.333 -20.219  17.065  1.00  0.00    -0.550 OA
ATOM     12  O   UNL     1     -29.189 -20.257  19.049  1.00  0.00    -0.550 OA
ENDBRANCH   9  10
ENDBRANCH   8   9
ENDBRANCH   7   8
ENDBRANCH   6   7
ENDBRANCH   5   6
ENDBRANCH   4   5
ENDBRANCH   3   4
ENDBRANCH   1   3
BRANCH   2  13
ATOM     13  C   UNL     1     -24.811 -25.465  15.812  1.00  0.00     0.027 C 
BRANCH  13  14
ATOM     14  C   UNL     1     -24.886 -26.115  17.205  1.00  0.00     0.004 C 
BRANCH  14  15
ATOM     15  C   UNL     1     -23.662 -26.984  17.550  1.00  0.00     0.000 C 
BRANCH  15  16
ATOM     16  C   UNL     1     -22.344 -26.399  17.010  1.00  0.00     0.000 C 
BRANCH  16  17
ATOM     17  C   UNL     1     -21.243 -27.461  16.862  1.00  0.00    -0.000 C 
BRANCH  17  18
ATOM     18  C   UNL     1     -21.779 -28.895  17.004  1.00  0.00    -0.000 C 
BRANCH  18  19
ATOM     19  C   UNL     1     -21.797 -29.651  15.666  1.00  0.00    -0.003 C 
ATOM     20  C   UNL     1     -22.332 -31.077  15.796  1.00  0.00     0.004 C 
ENDBRANCH  18  19
ENDBRANCH  17  18
ENDBRANCH  16  17
ENDBRANCH  15  16
ENDBRANCH  14  15
ENDBRANCH  13  14
ENDBRANCH   2  13
TORSDOF 15
ENDMDL
MODEL 5
REMARK VINA RESULT:    -4.780     10.314     12.742
REMARK INTER + INTRA:         -11.446
REMARK INTER:                  -9.383
REMARK INTRA:                  -2.064
REMARK UNBOUND:                -2.475
REMARK SMILES CCCCCCCCC=CCCCCCCCC(=O)[O-]
REMARK SMILES IDX 10 1 9 2 11 3 12 4 13 5 14 6 15 7 16 8 17 9 18 10 19 11
REMARK SMILES IDX 20 12 8 13 7 14 6 15 5 16 4 17 3 18 2 19 1 20
REMARK H PARENT
REMARK Flexibility Score: inf
ROOT
ATOM      1  C   UNL     1     -22.234 -28.352   2.262  1.00  0.00    -0.031 C 
ATOM      2  C   UNL     1     -21.627 -29.492   2.642  1.00  0.00    -0.031 C 
ENDROOT
BRANCH   1   3
ATOM      3  C   UNL     1     -22.148 -27.044   3.005  1.00  0.00     0.027 C 
BRANCH   3   4
ATOM      4  C   UNL     1     -21.800 -25.886   2.057  1.00  0.00     0.004 C 
BRANCH   4   5
ATOM      5  C   UNL     1     -21.126 -26.371   0.764  1.00  0.00     0.000 C 
BRANCH   5   6
ATOM      6  C   UNL     1     -19.621 -26.056   0.731  1.00  0.00     0.000 C 
BRANCH   6   7
ATOM      7  C   UNL     1     -18.751 -27.315   0.861  1.00  0.00     0.000 C 
BRANCH   7   8
ATOM      8  C   UNL     1     -18.327 -27.591   2.312  1.00  0.00     0.006 C 
BRANCH   8   9
ATOM      9  C   UNL     1     -17.114 -26.742   2.700  1.00  0.00     0.053 C 
BRANCH   9  10
ATOM     10  C   UNL     1     -16.918 -26.752   4.183  1.00  0.00     0.041 C 
ATOM     11  O   UNL     1     -17.189 -27.784   4.851  1.00  0.00    -0.550 OA
ATOM     12  O   UNL     1     -16.492 -25.603   4.837  1.00  0.00    -0.550 OA
ENDBRANCH   9  10
ENDBRANCH   8   9
ENDBRANCH   7   8
ENDBRANCH   6   7
ENDBRANCH   5   6
ENDBRANCH   4   5
ENDBRANCH   3   4
ENDBRANCH   1   3
BRANCH   2  13
ATOM     13  C   UNL     1     -20.770 -29.651   3.874  1.00  0.00     0.027 C 
BRANCH  13  14
ATOM     14  C   UNL     1     -21.077 -30.954   4.635  1.00  0.00     0.004 C 
BRANCH  14  15
ATOM     15  C   UNL     1     -22.555 -31.381   4.556  1.00  0.00     0.000 C 
BRANCH  15  16
ATOM     16  C   UNL     1     -23.202 -31.551   5.942  1.00  0.00     0.000 C 
BRANCH  16  17
ATOM     17  C   UNL     1     -24.151 -30.395   6.297  1.00  0.00    -0.000 C 
BRANCH  17  18
ATOM     18  C   UNL     1     -24.423 -29.464   5.104  1.00  0.00    -0.000 C 
BRANCH  18  19
ATOM     19  C   UNL     1     -25.727 -28.667   5.266  1.00  0.00    -0.003 C 
ATOM     20  C   UNL     1     -26.623 -29.211   6.378  1.00  0.00     0.004 C 
ENDBRANCH  18  19
ENDBRANCH  17  18
ENDBRANCH  16  17
ENDBRANCH  15  16
ENDBRANCH  14  15
ENDBRANCH  13  14
ENDBRANCH   2  13
TORSDOF 15
ENDMDL
MODEL 6
REMARK VINA RESULT:    -4.752      7.298      9.685
REMARK INTER + INTRA:         -11.393
REMARK INTER:                  -8.882
REMARK INTRA:                  -2.511
REMARK UNBOUND:                -2.475
REMARK SMILES CCCCCCCCC=CCCCCCCCC(=O)[O-]
REMARK SMILES IDX 10 1 9 2 11 3 12 4 13 5 14 6 15 7 16 8 17 9 18 10 19 11
REMARK SMILES IDX 20 12 8 13 7 14 6 15 5 16 4 17 3 18 2 19 1 20
REMARK H PARENT
REMARK Flexibility Score: inf
ROOT
ATOM      1  C   UNL     1     -25.583 -26.288   8.981  1.00  0.00    -0.031 C 
ATOM      2  C   UNL     1     -26.404 -27.280   9.372  1.00  0.00    -0.031 C 
ENDROOT
BRANCH   1   3
ATOM      3  C   UNL     1     -24.571 -26.398   7.869  1.00  0.00     0.027 C 
BRANCH   3   4
ATOM      4  C   UNL     1     -23.183 -26.770   8.412  1.00  0.00     0.004 C 
BRANCH   4   5
ATOM      5  C   UNL     1     -22.595 -28.007   7.713  1.00  0.00     0.000 C 
BRANCH   5   6
ATOM      6  C   UNL     1     -22.171 -29.099   8.709  1.00  0.00     0.000 C 
BRANCH   6   7
ATOM      7  C   UNL     1     -23.159 -30.275   8.753  1.00  0.00     0.000 C 
BRANCH   7   8
ATOM      8  C   UNL     1     -22.468 -31.633   8.565  1.00  0.00     0.006 C 
BRANCH   8   9
ATOM      9  C   UNL     1     -21.277 -31.780   9.517  1.00  0.00     0.053 C 
BRANCH   9  10
ATOM     10  C   UNL     1     -21.684 -32.507  10.759  1.00  0.00     0.041 C 
ATOM     11  O   UNL     1     -21.030 -32.357  11.825  1.00  0.00    -0.550 OA
ATOM     12  O   UNL     1     -22.751 -33.395  10.728  1.00  0.00    -0.550 OA
ENDBRANCH   9  10
ENDBRANCH   8   9
ENDBRANCH   7   8
ENDBRANCH   6   7
ENDBRANCH   5   6
ENDBRANCH   4   5
ENDBRANCH   3   4
ENDBRANCH   1   3
BRANCH   2  13
ATOM     13  C   UNL     1     -26.441 -28.665   8.772  1.00  0.00     0.027 C 
BRANCH  13  14
ATOM     14  C   UNL     1     -27.582 -28.829   7.752  1.00  0.00     0.004 C 
BRANCH  14  15
ATOM     15  C   UNL     1     -27.094 -29.133   6.322  1.00  0.00     0.000 C 
BRANCH  15  16
ATOM     16  C   UNL     1     -25.616 -29.557   6.273  1.00  0.00     0.000 C 
BRANCH  16  17
ATOM     17  C   UNL     1     -24.930 -29.159   4.957  1.00  0.00    -0.000 C 
BRANCH  17  18
ATOM     18  C   UNL     1     -25.087 -27.664   4.635  1.00  0.00    -0.000 C 
BRANCH  18  19
ATOM     19  C   UNL     1     -23.747 -26.990   4.300  1.00  0.00    -0.003 C 
ATOM     20  C   UNL     1     -22.887 -27.818   3.345  1.00  0.00     0.004 C 
ENDBRANCH  18  19
ENDBRANCH  17  18
ENDBRANCH  16  17
ENDBRANCH  15  16
ENDBRANCH  14  15
ENDBRANCH  13  14
ENDBRANCH   2  13
TORSDOF 15
ENDMDL
MODEL 7
REMARK VINA RESULT:    -4.706      2.868      6.205
REMARK INTER + INTRA:         -11.307
REMARK INTER:                  -8.739
REMARK INTRA:                  -2.569
REMARK UNBOUND:                -2.475
REMARK SMILES CCCCCCCCC=CCCCCCCCC(=O)[O-]
REMARK SMILES IDX 10 1 9 2 11 3 12 4 13 5 14 6 15 7 16 8 17 9 18 10 19 11
REMARK SMILES IDX 20 12 8 13 7 14 6 15 5 16 4 17 3 18 2 19 1 20
REMARK H PARENT
REMARK Flexibility Score: inf
ROOT
ATOM      1  C   UNL     1     -19.627 -26.404  15.935  1.00  0.00    -0.031 C 
ATOM      2  C   UNL     1     -20.047 -27.678  15.827  1.00  0.00    -0.031 C 
ENDROOT
BRANCH   1   3
ATOM      3  C   UNL     1     -20.375 -25.205  15.409  1.00  0.00     0.027 C 
BRANCH   3   4
ATOM      4  C   UNL     1     -19.422 -24.202  14.741  1.00  0.00     0.004 C 
BRANCH   4   5
ATOM      5  C   UNL     1     -20.040 -23.551  13.494  1.00  0.00     0.000 C 
BRANCH   5   6
ATOM      6  C   UNL     1     -19.005 -23.308  12.382  1.00  0.00     0.000 C 
BRANCH   6   7
ATOM      7  C   UNL     1     -18.085 -24.518  12.158  1.00  0.00     0.000 C 
BRANCH   7   8
ATOM      8  C   UNL     1     -18.709 -25.570  11.229  1.00  0.00     0.006 C 
BRANCH   8   9
ATOM      9  C   UNL     1     -19.200 -26.783  12.024  1.00  0.00     0.053 C 
BRANCH   9  10
ATOM     10  C   UNL     1     -18.085 -27.757  12.239  1.00  0.00     0.041 C 
ATOM     11  O   UNL     1     -17.669 -27.997  13.403  1.00  0.00    -0.550 OA
ATOM     12  O   UNL     1     -17.467 -28.358  11.150  1.00  0.00    -0.550 OA
ENDBRANCH   9  10
ENDBRANCH   8   9
ENDBRANCH   7   8
ENDBRANCH   6   7
ENDBRANCH   5   6
ENDBRANCH   4   5
ENDBRANCH   3   4
ENDBRANCH   1   3
BRANCH   2  13
ATOM     13  C   UNL     1     -21.326 -28.118  15.155  1.00  0.00     0.027 C 
BRANCH  13  14
ATOM     14  C   UNL     1     -22.095 -29.158  15.988  1.00  0.00     0.004 C 
BRANCH  14  15
ATOM     15  C   UNL     1     -22.008 -28.920  17.508  1.00  0.00     0.000 C 
BRANCH  15  16
ATOM     16  C   UNL     1     -23.279 -28.273  18.085  1.00  0.00     0.000 C 
BRANCH  16  17
ATOM     17  C   UNL     1     -23.002 -26.915  18.749  1.00  0.00    -0.000 C 
BRANCH  17  18
ATOM     18  C   UNL     1     -23.184 -25.734  17.780  1.00  0.00    -0.000 C 
BRANCH  18  19
ATOM     19  C   UNL     1     -24.316 -25.973  16.768  1.00  0.00    -0.003 C 
ATOM     20  C   UNL     1     -24.086 -25.256  15.438  1.00  0.00     0.004 C 
ENDBRANCH  18  19
ENDBRANCH  17  18
ENDBRANCH  16  17
ENDBRANCH  15  16
ENDBRANCH  14  15
ENDBRANCH  13  14
ENDBRANCH   2  13
TORSDOF 15
ENDMDL
MODEL 8
REMARK VINA RESULT:    -4.691      7.315      8.980
REMARK INTER + INTRA:         -11.279
REMARK INTER:                 -10.133
REMARK INTRA:                  -1.146
REMARK UNBOUND:                -2.475
REMARK SMILES CCCCCCCCC=CCCCCCCCC(=O)[O-]
REMARK SMILES IDX 10 1 9 2 11 3 12 4 13 5 14 6 15 7 16 8 17 9 18 10 19 11
REMARK SMILES IDX 20 12 8 13 7 14 6 15 5 16 4 17 3 18 2 19 1 20
REMARK H PARENT
REMARK Flexibility Score: inf
ROOT
ATOM      1  C   UNL     1     -24.887 -26.136   8.438  1.00  0.00    -0.031 C 
ATOM      2  C   UNL     1     -23.986 -25.276   7.928  1.00  0.00    -0.031 C 
ENDROOT
BRANCH   1   3
ATOM      3  C   UNL     1     -26.053 -25.744   9.307  1.00  0.00     0.027 C 
BRANCH   3   4
ATOM      4  C   UNL     1     -26.977 -26.941   9.577  1.00  0.00     0.004 C 
BRANCH   4   5
ATOM      5  C   UNL     1     -26.565 -28.188   8.778  1.00  0.00     0.000 C 
BRANCH   5   6
ATOM      6  C   UNL     1     -27.720 -28.755   7.935  1.00  0.00     0.000 C 
BRANCH   6   7
ATOM      7  C   UNL     1     -27.232 -29.435   6.647  1.00  0.00     0.000 C 
BRANCH   7   8
ATOM      8  C   UNL     1     -25.982 -28.760   6.062  1.00  0.00     0.006 C 
BRANCH   8   9
ATOM      9  C   UNL     1     -24.807 -29.740   5.999  1.00  0.00     0.053 C 
BRANCH   9  10
ATOM     10  C   UNL     1     -24.083 -29.609   4.696  1.00  0.00     0.041 C 
ATOM     11  O   UNL     1     -23.152 -30.406   4.405  1.00  0.00    -0.550 OA
ATOM     12  O   UNL     1     -24.395 -28.572   3.827  1.00  0.00    -0.550 OA
ENDBRANCH   9  10
ENDBRANCH   8   9
ENDBRANCH   7   8
ENDBRANCH   6   7
ENDBRANCH   5   6
ENDBRANCH   4   5
ENDBRANCH   3   4
ENDBRANCH   1   3
BRANCH   2  13
ATOM     13  C   UNL     1     -23.989 -23.782   8.149  1.00  0.00     0.027 C 
BRANCH  13  14
ATOM     14  C   UNL     1     -22.788 -23.314   8.991  1.00  0.00     0.004 C 
BRANCH  14  15
ATOM     15  C   UNL     1     -22.201 -21.966   8.533  1.00  0.00     0.000 C 
BRANCH  15  16
ATOM     16  C   UNL     1     -20.668 -21.907   8.663  1.00  0.00     0.000 C 
BRANCH  16  17
ATOM     17  C   UNL     1     -20.197 -20.787   9.604  1.00  0.00    -0.000 C 
BRANCH  17  18
ATOM     18  C   UNL     1     -19.065 -21.238  10.542  1.00  0.00    -0.000 C 
BRANCH  18  19
ATOM     19  C   UNL     1     -19.592 -21.933  11.808  1.00  0.00    -0.003 C 
ATOM     20  C   UNL     1     -18.979 -23.316  12.026  1.00  0.00     0.004 C 
ENDBRANCH  18  19
ENDBRANCH  17  18
ENDBRANCH  16  17
ENDBRANCH  15  16
ENDBRANCH  14  15
ENDBRANCH  13  14
ENDBRANCH   2  13
TORSDOF 15
ENDMDL
MODEL 9
REMARK VINA RESULT:    -4.665      2.483      3.770
REMARK INTER + INTRA:         -11.230
REMARK INTER:                  -8.562
REMARK INTRA:                  -2.668
REMARK UNBOUND:                -2.475
REMARK SMILES CCCCCCCCC=CCCCCCCCC(=O)[O-]
REMARK SMILES IDX 10 1 9 2 11 3 12 4 13 5 14 6 15 7 16 8 17 9 18 10 19 11
REMARK SMILES IDX 20 12 8 13 7 14 6 15 5 16 4 17 3 18 2 19 1 20
REMARK H PARENT
REMARK Flexibility Score: inf
ROOT
ATOM      1  C   UNL     1     -20.386 -26.006  15.282  1.00  0.00    -0.031 C 
ATOM      2  C   UNL     1     -20.335 -24.682  15.043  1.00  0.00    -0.031 C 
ENDROOT
BRANCH   1   3
ATOM      3  C   UNL     1     -20.709 -27.053  14.247  1.00  0.00     0.027 C 
BRANCH   3   4
ATOM      4  C   UNL     1     -20.785 -28.453  14.874  1.00  0.00     0.004 C 
BRANCH   4   5
ATOM      5  C   UNL     1     -20.431 -28.443  16.369  1.00  0.00     0.000 C 
BRANCH   5   6
ATOM      6  C   UNL     1     -21.490 -29.152  17.230  1.00  0.00     0.000 C 
BRANCH   6   7
ATOM      7  C   UNL     1     -22.865 -28.469  17.156  1.00  0.00     0.000 C 
BRANCH   7   8
ATOM      8  C   UNL     1     -22.894 -27.122  17.894  1.00  0.00     0.006 C 
BRANCH   8   9
ATOM      9  C   UNL     1     -23.375 -26.000  16.971  1.00  0.00     0.053 C 
BRANCH   9  10
ATOM     10  C   UNL     1     -24.870 -25.961  16.926  1.00  0.00     0.041 C 
ATOM     11  O   UNL     1     -25.545 -26.421  17.885  1.00  0.00    -0.550 OA
ATOM     12  O   UNL     1     -25.521 -25.471  15.801  1.00  0.00    -0.550 OA
ENDBRANCH   9  10
ENDBRANCH   8   9
ENDBRANCH   7   8
ENDBRANCH   6   7
ENDBRANCH   5   6
ENDBRANCH   4   5
ENDBRANCH   3   4
ENDBRANCH   1   3
BRANCH   2  13
ATOM     13  C   UNL     1     -20.602 -24.028  13.709  1.00  0.00     0.027 C 
BRANCH  13  14
ATOM     14  C   UNL     1     -19.399 -23.207  13.210  1.00  0.00     0.004 C 
BRANCH  14  15
ATOM     15  C   UNL     1     -18.835 -23.696  11.862  1.00  0.00     0.000 C 
BRANCH  15  16
ATOM     16  C   UNL     1     -18.341 -25.152  11.914  1.00  0.00     0.000 C 
BRANCH  16  17
ATOM     17  C   UNL     1     -17.314 -25.389  13.032  1.00  0.00    -0.000 C 
BRANCH  17  18
ATOM     18  C   UNL     1     -17.269 -26.854  13.496  1.00  0.00    -0.000 C 
BRANCH  18  19
ATOM     19  C   UNL     1     -16.824 -26.994  14.961  1.00  0.00    -0.003 C 
ATOM     20  C   UNL     1     -16.743 -25.652  15.689  1.00  0.00     0.004 C 
ENDBRANCH  18  19
ENDBRANCH  17  18
ENDBRANCH  16  17
ENDBRANCH  15  16
ENDBRANCH  14  15
ENDBRANCH  13  14
ENDBRANCH   2  13
TORSDOF 15
ENDMDL
