MODEL 1
REMARK VINA RESULT:    -3.364      0.000      0.000
REMARK INTER + INTRA:          -7.527
REMARK INTER:                  -6.118
REMARK INTRA:                  -1.409
REMARK UNBOUND:                -1.409
REMARK SMILES CCCCCC=CCC=CCCCCCCCC(=O)[O-]
REMARK SMILES IDX 11 1 12 2 13 3 14 4 15 5 16 6 17 7 18 8 19 9 20 10 10 11
REMARK SMILES IDX 9 12 8 13 7 14 6 15 5 16 4 17 3 18 2 19 1 20
REMARK H PARENT
REMARK Flexibility Score: inf
ROOT
ATOM      1  C   UNL     1      15.025  16.340  25.426  1.00  0.00     0.027 C 
ENDROOT
BRANCH   1   2
ATOM      2  C   UNL     1      15.100  17.795  24.942  1.00  0.00     0.004 C 
BRANCH   2   3
ATOM      3  C   UNL     1      13.986  18.125  23.932  1.00  0.00     0.000 C 
BRANCH   3   4
ATOM      4  C   UNL     1      12.930  17.012  23.838  1.00  0.00     0.000 C 
BRANCH   4   5
ATOM      5  C   UNL     1      11.494  17.563  23.849  1.00  0.00     0.000 C 
BRANCH   5   6
ATOM      6  C   UNL     1      10.813  17.291  25.196  1.00  0.00     0.006 C 
BRANCH   6   7
ATOM      7  C   UNL     1      11.505  18.054  26.328  1.00  0.00     0.053 C 
BRANCH   7   8
ATOM      8  C   UNL     1      12.110  17.102  27.312  1.00  0.00     0.041 C 
ATOM      9  O   UNL     1      12.732  17.543  28.324  1.00  0.00    -0.550 OA
ATOM     10  O   UNL     1      12.005  15.730  27.104  1.00  0.00    -0.550 OA
ENDBRANCH   7   8
ENDBRANCH   6   7
ENDBRANCH   5   6
ENDBRANCH   4   5
ENDBRANCH   3   4
ENDBRANCH   2   3
ENDBRANCH   1   2
BRANCH   1  11
ATOM     11  C   UNL     1      15.252  16.217  26.909  1.00  0.00    -0.031 C 
ATOM     12  C   UNL     1      15.405  15.023  27.504  1.00  0.00    -0.027 C 
BRANCH  12  13
ATOM     13  C   UNL     1      15.628  14.907  28.986  1.00  0.00     0.054 C 
BRANCH  13  14
ATOM     14  C   UNL     1      14.313  14.885  29.721  1.00  0.00    -0.027 C 
ATOM     15  C   UNL     1      14.153  14.469  30.991  1.00  0.00    -0.031 C 
BRANCH  15  16
ATOM     16  C   UNL     1      15.266  13.983  31.890  1.00  0.00     0.027 C 
BRANCH  16  17
ATOM     17  C   UNL     1      15.091  12.503  32.250  1.00  0.00     0.004 C 
BRANCH  17  18
ATOM     18  C   UNL     1      15.934  11.588  31.348  1.00  0.00     0.000 C 
BRANCH  18  19
ATOM     19  C   UNL     1      15.112  11.088  30.153  1.00  0.00    -0.003 C 
ATOM     20  C   UNL     1      15.966  11.019  28.891  1.00  0.00     0.004 C 
ENDBRANCH  18  19
ENDBRANCH  17  18
ENDBRANCH  16  17
ENDBRANCH  15  16
ENDBRANCH  13  14
ENDBRANCH  12  13
ENDBRANCH   1  11
TORSDOF 14
ENDMDL
MODEL 2
REMARK VINA RESULT:    -3.007      1.329      2.675
REMARK INTER + INTRA:          -6.877
REMARK INTER:                  -5.839
REMARK INTRA:                  -1.039
REMARK UNBOUND:                -1.409
REMARK SMILES CCCCCC=CCC=CCCCCCCCC(=O)[O-]
REMARK SMILES IDX 11 1 12 2 13 3 14 4 15 5 16 6 17 7 18 8 19 9 20 10 10 11
REMARK SMILES IDX 9 12 8 13 7 14 6 15 5 16 4 17 3 18 2 19 1 20
REMARK H PARENT
REMARK Flexibility Score: inf
ROOT
ATOM      1  C   UNL     1      11.690  18.003  27.419  1.00  0.00     0.027 C 
ENDROOT
BRANCH   1   2
ATOM      2  C   UNL     1      11.373  18.125  25.921  1.00  0.00     0.004 C 
BRANCH   2   3
ATOM      3  C   UNL     1      11.161  16.750  25.263  1.00  0.00     0.000 C 
BRANCH   3   4
ATOM      4  C   UNL     1      11.975  16.585  23.970  1.00  0.00     0.000 C 
BRANCH   4   5
ATOM      5  C   UNL     1      12.885  17.792  23.691  1.00  0.00     0.000 C 
BRANCH   5   6
ATOM      6  C   UNL     1      14.359  17.432  23.920  1.00  0.00     0.006 C 
BRANCH   6   7
ATOM      7  C   UNL     1      14.714  17.484  25.408  1.00  0.00     0.053 C 
BRANCH   7   8
ATOM      8  C   UNL     1      14.899  16.102  25.953  1.00  0.00     0.041 C 
ATOM      9  O   UNL     1      14.151  15.158  25.561  1.00  0.00    -0.550 OA
ATOM     10  O   UNL     1      15.884  15.858  26.906  1.00  0.00    -0.550 OA
ENDBRANCH   7   8
ENDBRANCH   6   7
ENDBRANCH   5   6
ENDBRANCH   4   5
ENDBRANCH   3   4
ENDBRANCH   2   3
ENDBRANCH   1   2
BRANCH   1  11
ATOM     11  C   UNL     1      12.179  16.629  27.792  1.00  0.00    -0.031 C 
ATOM     12  C   UNL     1      12.885  16.411  28.912  1.00  0.00    -0.027 C 
BRANCH  12  13
ATOM     13  C   UNL     1      13.374  15.036  29.277  1.00  0.00     0.054 C 
BRANCH  13  14
ATOM     14  C   UNL     1      14.827  15.077  29.674  1.00  0.00    -0.027 C 
ATOM     15  C   UNL     1      15.323  14.564  30.815  1.00  0.00    -0.031 C 
BRANCH  15  16
ATOM     16  C   UNL     1      14.510  13.845  31.867  1.00  0.00     0.027 C 
BRANCH  16  17
ATOM     17  C   UNL     1      15.245  12.608  32.396  1.00  0.00     0.004 C 
BRANCH  17  18
ATOM     18  C   UNL     1      16.181  11.999  31.339  1.00  0.00     0.000 C 
BRANCH  18  19
ATOM     19  C   UNL     1      15.470  10.892  30.551  1.00  0.00    -0.003 C 
ATOM     20  C   UNL     1      15.757  11.011  29.057  1.00  0.00     0.004 C 
ENDBRANCH  18  19
ENDBRANCH  17  18
ENDBRANCH  16  17
ENDBRANCH  15  16
ENDBRANCH  13  14
ENDBRANCH  12  13
ENDBRANCH   1  11
TORSDOF 14
ENDMDL
MODEL 3
REMARK VINA RESULT:    -2.981      1.421      2.700
REMARK INTER + INTRA:          -6.830
REMARK INTER:                  -5.380
REMARK INTRA:                  -1.450
REMARK UNBOUND:                -1.409
REMARK SMILES CCCCCC=CCC=CCCCCCCCC(=O)[O-]
REMARK SMILES IDX 11 1 12 2 13 3 14 4 15 5 16 6 17 7 18 8 19 9 20 10 10 11
REMARK SMILES IDX 9 12 8 13 7 14 6 15 5 16 4 17 3 18 2 19 1 20
REMARK H PARENT
REMARK Flexibility Score: inf
ROOT
ATOM      1  C   UNL     1      12.860  15.804  27.879  1.00  0.00     0.027 C 
ENDROOT
BRANCH   1   2
ATOM      2  C   UNL     1      12.912  17.337  27.805  1.00  0.00     0.004 C 
BRANCH   2   3
ATOM      3  C   UNL     1      14.112  17.834  26.980  1.00  0.00     0.000 C 
BRANCH   3   4
ATOM      4  C   UNL     1      14.706  16.735  26.084  1.00  0.00     0.000 C 
BRANCH   4   5
ATOM      5  C   UNL     1      14.920  17.209  24.637  1.00  0.00     0.000 C 
BRANCH   5   6
ATOM      6  C   UNL     1      13.774  18.123  24.184  1.00  0.00     0.006 C 
BRANCH   6   7
ATOM      7  C   UNL     1      12.716  17.337  23.406  1.00  0.00     0.053 C 
BRANCH   7   8
ATOM      8  C   UNL     1      11.759  16.670  24.344  1.00  0.00     0.041 C 
ATOM      9  O   UNL     1      11.777  15.411  24.482  1.00  0.00    -0.550 OA
ATOM     10  O   UNL     1      10.837  17.433  25.053  1.00  0.00    -0.550 OA
ENDBRANCH   7   8
ENDBRANCH   6   7
ENDBRANCH   5   6
ENDBRANCH   4   5
ENDBRANCH   3   4
ENDBRANCH   2   3
ENDBRANCH   1   2
BRANCH   1  11
ATOM     11  C   UNL     1      13.617  15.262  29.062  1.00  0.00    -0.031 C 
ATOM     12  C   UNL     1      14.958  15.306  29.123  1.00  0.00    -0.027 C 
BRANCH  12  13
ATOM     13  C   UNL     1      15.708  14.759  30.306  1.00  0.00     0.054 C 
BRANCH  13  14
ATOM     14  C   UNL     1      14.757  14.399  31.418  1.00  0.00    -0.027 C 
ATOM     15  C   UNL     1      14.811  13.260  32.132  1.00  0.00    -0.031 C 
BRANCH  15  16
ATOM     16  C   UNL     1      15.844  12.172  31.951  1.00  0.00     0.027 C 
BRANCH  16  17
ATOM     17  C   UNL     1      15.193  10.835  31.581  1.00  0.00     0.004 C 
BRANCH  17  18
ATOM     18  C   UNL     1      14.791  10.780  30.099  1.00  0.00     0.000 C 
BRANCH  18  19
ATOM     19  C   UNL     1      15.927  11.292  29.205  1.00  0.00    -0.003 C 
ATOM     20  C   UNL     1      16.283  10.269  28.130  1.00  0.00     0.004 C 
ENDBRANCH  18  19
ENDBRANCH  17  18
ENDBRANCH  16  17
ENDBRANCH  15  16
ENDBRANCH  13  14
ENDBRANCH  12  13
ENDBRANCH   1  11
TORSDOF 14
ENDMDL
MODEL 4
REMARK VINA RESULT:    -2.937      2.349      7.297
REMARK INTER + INTRA:          -6.750
REMARK INTER:                  -5.003
REMARK INTRA:                  -1.747
REMARK UNBOUND:                -1.409
REMARK SMILES CCCCCC=CCC=CCCCCCCCC(=O)[O-]
REMARK SMILES IDX 11 1 12 2 13 3 14 4 15 5 16 6 17 7 18 8 19 9 20 10 10 11
REMARK SMILES IDX 9 12 8 13 7 14 6 15 5 16 4 17 3 18 2 19 1 20
REMARK H PARENT
REMARK Flexibility Score: inf
ROOT
ATOM      1  C   UNL     1      13.100  16.543  29.645  1.00  0.00     0.027 C 
ENDROOT
BRANCH   1   2
ATOM      2  C   UNL     1      13.633  15.176  29.191  1.00  0.00     0.004 C 
BRANCH   2   3
ATOM      3  C   UNL     1      15.167  15.166  29.075  1.00  0.00     0.000 C 
BRANCH   3   4
ATOM      4  C   UNL     1      15.840  14.408  30.231  1.00  0.00     0.000 C 
BRANCH   4   5
ATOM      5  C   UNL     1      14.841  14.005  31.328  1.00  0.00     0.000 C 
BRANCH   5   6
ATOM      6  C   UNL     1      15.170  12.614  31.886  1.00  0.00     0.006 C 
BRANCH   6   7
ATOM      7  C   UNL     1      16.207  11.902  31.014  1.00  0.00     0.053 C 
BRANCH   7   8
ATOM      8  C   UNL     1      15.534  10.996  30.030  1.00  0.00     0.041 C 
ATOM      9  O   UNL     1      16.101  10.719  28.931  1.00  0.00    -0.550 OA
ATOM     10  O   UNL     1      14.276  10.474  30.315  1.00  0.00    -0.550 OA
ENDBRANCH   7   8
ENDBRANCH   6   7
ENDBRANCH   5   6
ENDBRANCH   4   5
ENDBRANCH   3   4
ENDBRANCH   2   3
ENDBRANCH   1   2
BRANCH   1  11
ATOM     11  C   UNL     1      12.838  17.470  28.488  1.00  0.00    -0.031 C 
ATOM     12  C   UNL     1      11.930  17.180  27.542  1.00  0.00    -0.027 C 
BRANCH  12  13
ATOM     13  C   UNL     1      11.676  18.108  26.387  1.00  0.00     0.054 C 
BRANCH  13  14
ATOM     14  C   UNL     1      11.016  17.372  25.250  1.00  0.00    -0.027 C 
ATOM     15  C   UNL     1      11.449  17.388  23.975  1.00  0.00    -0.031 C 
BRANCH  15  16
ATOM     16  C   UNL     1      12.675  18.123  23.485  1.00  0.00     0.027 C 
BRANCH  16  17
ATOM     17  C   UNL     1      13.938  17.268  23.633  1.00  0.00     0.004 C 
BRANCH  17  18
ATOM     18  C   UNL     1      14.800  17.716  24.825  1.00  0.00     0.000 C 
BRANCH  18  19
ATOM     19  C   UNL     1      14.969  16.576  25.837  1.00  0.00    -0.003 C 
ATOM     20  C   UNL     1      14.101  15.378  25.464  1.00  0.00     0.004 C 
ENDBRANCH  18  19
ENDBRANCH  17  18
ENDBRANCH  16  17
ENDBRANCH  15  16
ENDBRANCH  13  14
ENDBRANCH  12  13
ENDBRANCH   1  11
TORSDOF 14
ENDMDL
MODEL 5
REMARK VINA RESULT:    -2.919      2.291      7.220
REMARK INTER + INTRA:          -6.717
REMARK INTER:                  -5.240
REMARK INTRA:                  -1.478
REMARK UNBOUND:                -1.409
REMARK SMILES CCCCCC=CCC=CCCCCCCCC(=O)[O-]
REMARK SMILES IDX 11 1 12 2 13 3 14 4 15 5 16 6 17 7 18 8 19 9 20 10 10 11
REMARK SMILES IDX 9 12 8 13 7 14 6 15 5 16 4 17 3 18 2 19 1 20
REMARK H PARENT
REMARK Flexibility Score: inf
ROOT
ATOM      1  C   UNL     1      13.584  14.940  29.404  1.00  0.00     0.027 C 
ENDROOT
BRANCH   1   2
ATOM      2  C   UNL     1      15.109  15.094  29.317  1.00  0.00     0.004 C 
BRANCH   2   3
ATOM      3  C   UNL     1      15.818  14.533  30.562  1.00  0.00     0.000 C 
BRANCH   3   4
ATOM      4  C   UNL     1      14.854  14.315  31.739  1.00  0.00     0.000 C 
BRANCH   4   5
ATOM      5  C   UNL     1      14.830  12.853  32.216  1.00  0.00     0.000 C 
BRANCH   5   6
ATOM      6  C   UNL     1      15.844  12.006  31.435  1.00  0.00     0.006 C 
BRANCH   6   7
ATOM      7  C   UNL     1      15.135  11.025  30.498  1.00  0.00     0.053 C 
BRANCH   7   8
ATOM      8  C   UNL     1      15.798  11.008  29.155  1.00  0.00     0.041 C 
ATOM      9  O   UNL     1      15.737  12.025  28.403  1.00  0.00    -0.550 OA
ATOM     10  O   UNL     1      16.467   9.865  28.726  1.00  0.00    -0.550 OA
ENDBRANCH   7   8
ENDBRANCH   6   7
ENDBRANCH   5   6
ENDBRANCH   4   5
ENDBRANCH   3   4
ENDBRANCH   2   3
ENDBRANCH   1   2
BRANCH   1  11
ATOM     11  C   UNL     1      12.856  15.930  28.535  1.00  0.00    -0.031 C 
ATOM     12  C   UNL     1      13.372  17.138  28.258  1.00  0.00    -0.027 C 
BRANCH  12  13
ATOM     13  C   UNL     1      12.638  18.125  27.391  1.00  0.00     0.054 C 
BRANCH  13  14
ATOM     14  C   UNL     1      11.341  17.537  26.899  1.00  0.00    -0.027 C 
ATOM     15  C   UNL     1      10.971  17.473  25.606  1.00  0.00    -0.031 C 
BRANCH  15  16
ATOM     16  C   UNL     1      11.805  17.954  24.442  1.00  0.00     0.027 C 
BRANCH  16  17
ATOM     17  C   UNL     1      12.851  16.911  24.031  1.00  0.00     0.004 C 
BRANCH  17  18
ATOM     18  C   UNL     1      12.649  15.575  24.763  1.00  0.00     0.000 C 
BRANCH  18  19
ATOM     19  C   UNL     1      13.947  15.120  25.441  1.00  0.00    -0.003 C 
ATOM     20  C   UNL     1      14.965  16.256  25.495  1.00  0.00     0.004 C 
ENDBRANCH  18  19
ENDBRANCH  17  18
ENDBRANCH  16  17
ENDBRANCH  15  16
ENDBRANCH  13  14
ENDBRANCH  12  13
ENDBRANCH   1  11
TORSDOF 14
ENDMDL
MODEL 6
REMARK VINA RESULT:    -2.812      2.368      3.023
REMARK INTER + INTRA:          -6.523
REMARK INTER:                  -6.180
REMARK INTRA:                  -0.343
REMARK UNBOUND:                -1.409
REMARK SMILES CCCCCC=CCC=CCCCCCCCC(=O)[O-]
REMARK SMILES IDX 11 1 12 2 13 3 14 4 15 5 16 6 17 7 18 8 19 9 20 10 10 11
REMARK SMILES IDX 9 12 8 13 7 14 6 15 5 16 4 17 3 18 2 19 1 20
REMARK H PARENT
REMARK Flexibility Score: inf
ROOT
ATOM      1  C   UNL     1      13.957  15.034  26.484  1.00  0.00     0.027 C 
ENDROOT
BRANCH   1   2
ATOM      2  C   UNL     1      14.629  16.238  25.807  1.00  0.00     0.004 C 
BRANCH   2   3
ATOM      3  C   UNL     1      14.081  17.575  26.335  1.00  0.00     0.000 C 
BRANCH   3   4
ATOM      4  C   UNL     1      12.553  17.679  26.204  1.00  0.00     0.000 C 
BRANCH   4   5
ATOM      5  C   UNL     1      11.996  16.766  25.099  1.00  0.00     0.000 C 
BRANCH   5   6
ATOM      6  C   UNL     1      11.668  17.573  23.835  1.00  0.00     0.006 C 
BRANCH   6   7
ATOM      7  C   UNL     1      12.940  18.122  23.186  1.00  0.00     0.053 C 
BRANCH   7   8
ATOM      8  C   UNL     1      12.872  17.986  21.696  1.00  0.00     0.041 C 
ATOM      9  O   UNL     1      11.768  17.730  21.131  1.00  0.00    -0.550 OA
ATOM     10  O   UNL     1      14.028  18.124  20.934  1.00  0.00    -0.550 OA
ENDBRANCH   7   8
ENDBRANCH   6   7
ENDBRANCH   5   6
ENDBRANCH   4   5
ENDBRANCH   3   4
ENDBRANCH   2   3
ENDBRANCH   1   2
BRANCH   1  11
ATOM     11  C   UNL     1      14.209  14.997  27.968  1.00  0.00    -0.031 C 
ATOM     12  C   UNL     1      15.382  15.384  28.495  1.00  0.00    -0.027 C 
BRANCH  12  13
ATOM     13  C   UNL     1      15.628  15.341  29.978  1.00  0.00     0.054 C 
BRANCH  13  14
ATOM     14  C   UNL     1      14.355  15.022  30.719  1.00  0.00    -0.027 C 
ATOM     15  C   UNL     1      14.257  14.128  31.720  1.00  0.00    -0.031 C 
BRANCH  15  16
ATOM     16  C   UNL     1      15.406  13.322  32.278  1.00  0.00     0.027 C 
BRANCH  16  17
ATOM     17  C   UNL     1      15.428  11.902  31.701  1.00  0.00     0.004 C 
BRANCH  17  18
ATOM     18  C   UNL     1      15.419  11.905  30.164  1.00  0.00     0.000 C 
BRANCH  18  19
ATOM     19  C   UNL     1      15.685  10.499  29.612  1.00  0.00    -0.003 C 
ATOM     20  C   UNL     1      16.116  10.557  28.149  1.00  0.00     0.004 C 
ENDBRANCH  18  19
ENDBRANCH  17  18
ENDBRANCH  16  17
ENDBRANCH  15  16
ENDBRANCH  13  14
ENDBRANCH  12  13
ENDBRANCH   1  11
TORSDOF 14
ENDMDL
MODEL 7
REMARK VINA RESULT:    -2.771      2.262      7.793
REMARK INTER + INTRA:          -6.447
REMARK INTER:                  -5.775
REMARK INTRA:                  -0.672
REMARK UNBOUND:                -1.409
REMARK SMILES CCCCCC=CCC=CCCCCCCCC(=O)[O-]
REMARK SMILES IDX 11 1 12 2 13 3 14 4 15 5 16 6 17 7 18 8 19 9 20 10 10 11
REMARK SMILES IDX 9 12 8 13 7 14 6 15 5 16 4 17 3 18 2 19 1 20
REMARK H PARENT
REMARK Flexibility Score: inf
ROOT
ATOM      1  C   UNL     1      14.737  15.089  28.092  1.00  0.00     0.027 C 
ENDROOT
BRANCH   1   2
ATOM      2  C   UNL     1      14.272  15.088  29.555  1.00  0.00     0.004 C 
BRANCH   2   3
ATOM      3  C   UNL     1      15.316  14.455  30.491  1.00  0.00     0.000 C 
BRANCH   3   4
ATOM      4  C   UNL     1      14.746  14.148  31.886  1.00  0.00     0.000 C 
BRANCH   4   5
ATOM      5  C   UNL     1      14.840  12.656  32.243  1.00  0.00     0.000 C 
BRANCH   5   6
ATOM      6  C   UNL     1      15.862  11.941  31.349  1.00  0.00     0.006 C 
BRANCH   6   7
ATOM      7  C   UNL     1      15.172  10.967  30.392  1.00  0.00     0.053 C 
BRANCH   7   8
ATOM      8  C   UNL     1      15.900  10.908  29.085  1.00  0.00     0.041 C 
ATOM      9  O   UNL     1      15.933  11.924  28.329  1.00  0.00    -0.550 OA
ATOM     10  O   UNL     1      16.526   9.729  28.693  1.00  0.00    -0.550 OA
ENDBRANCH   7   8
ENDBRANCH   6   7
ENDBRANCH   5   6
ENDBRANCH   4   5
ENDBRANCH   3   4
ENDBRANCH   2   3
ENDBRANCH   1   2
BRANCH   1  11
ATOM     11  C   UNL     1      14.430  16.387  27.393  1.00  0.00    -0.031 C 
ATOM     12  C   UNL     1      14.952  16.684  26.193  1.00  0.00    -0.027 C 
BRANCH  12  13
ATOM     13  C   UNL     1      14.645  17.984  25.502  1.00  0.00     0.054 C 
BRANCH  13  14
ATOM     14  C   UNL     1      15.143  17.960  24.080  1.00  0.00    -0.027 C 
ATOM     15  C   UNL     1      14.352  17.977  22.992  1.00  0.00    -0.031 C 
BRANCH  15  16
ATOM     16  C   UNL     1      12.843  18.047  23.019  1.00  0.00     0.027 C 
BRANCH  16  17
ATOM     17  C   UNL     1      12.241  16.885  23.818  1.00  0.00     0.004 C 
BRANCH  17  18
ATOM     18  C   UNL     1      11.024  17.325  24.646  1.00  0.00     0.000 C 
BRANCH  18  19
ATOM     19  C   UNL     1      11.436  17.675  26.082  1.00  0.00    -0.003 C 
ATOM     20  C   UNL     1      10.218  18.018  26.934  1.00  0.00     0.004 C 
ENDBRANCH  18  19
ENDBRANCH  17  18
ENDBRANCH  16  17
ENDBRANCH  15  16
ENDBRANCH  13  14
ENDBRANCH  12  13
ENDBRANCH   1  11
TORSDOF 14
ENDMDL
MODEL 8
REMARK VINA RESULT:    -2.584      1.575      2.625
REMARK INTER + INTRA:          -6.108
REMARK INTER:                  -4.707
REMARK INTRA:                  -1.401
REMARK UNBOUND:                -1.409
REMARK SMILES CCCCCC=CCC=CCCCCCCCC(=O)[O-]
REMARK SMILES IDX 11 1 12 2 13 3 14 4 15 5 16 6 17 7 18 8 19 9 20 10 10 11
REMARK SMILES IDX 9 12 8 13 7 14 6 15 5 16 4 17 3 18 2 19 1 20
REMARK H PARENT
REMARK Flexibility Score: inf
ROOT
ATOM      1  C   UNL     1      12.725  16.192  27.699  1.00  0.00     0.027 C 
ENDROOT
BRANCH   1   2
ATOM      2  C   UNL     1      12.517  17.710  27.600  1.00  0.00     0.004 C 
BRANCH   2   3
ATOM      3  C   UNL     1      11.230  18.068  26.836  1.00  0.00     0.000 C 
BRANCH   3   4
ATOM      4  C   UNL     1      10.892  17.043  25.741  1.00  0.00     0.000 C 
BRANCH   4   5
ATOM      5  C   UNL     1      11.041  17.626  24.326  1.00  0.00     0.000 C 
BRANCH   5   6
ATOM      6  C   UNL     1      12.318  17.107  23.651  1.00  0.00     0.006 C 
BRANCH   6   7
ATOM      7  C   UNL     1      13.454  18.125  23.764  1.00  0.00     0.053 C 
BRANCH   7   8
ATOM      8  C   UNL     1      14.655  17.505  24.410  1.00  0.00     0.041 C 
ATOM      9  O   UNL     1      15.789  18.058  24.307  1.00  0.00    -0.550 OA
ATOM     10  O   UNL     1      14.525  16.309  25.109  1.00  0.00    -0.550 OA
ENDBRANCH   7   8
ENDBRANCH   6   7
ENDBRANCH   5   6
ENDBRANCH   4   5
ENDBRANCH   3   4
ENDBRANCH   2   3
ENDBRANCH   1   2
BRANCH   1  11
ATOM     11  C   UNL     1      13.584  15.806  28.874  1.00  0.00    -0.031 C 
ATOM     12  C   UNL     1      14.699  15.073  28.722  1.00  0.00    -0.027 C 
BRANCH  12  13
ATOM     13  C   UNL     1      15.551  14.688  29.900  1.00  0.00     0.054 C 
BRANCH  13  14
ATOM     14  C   UNL     1      14.773  14.819  31.184  1.00  0.00    -0.027 C 
ATOM     15  C   UNL     1      14.767  13.905  32.172  1.00  0.00    -0.031 C 
BRANCH  15  16
ATOM     16  C   UNL     1      15.557  12.616  32.164  1.00  0.00     0.027 C 
BRANCH  16  17
ATOM     17  C   UNL     1      14.842  11.525  31.358  1.00  0.00     0.004 C 
BRANCH  17  18
ATOM     18  C   UNL     1      15.823  10.704  30.506  1.00  0.00     0.000 C 
BRANCH  18  19
ATOM     19  C   UNL     1      15.759  11.131  29.034  1.00  0.00    -0.003 C 
ATOM     20  C   UNL     1      16.353  10.058  28.126  1.00  0.00     0.004 C 
ENDBRANCH  18  19
ENDBRANCH  17  18
ENDBRANCH  16  17
ENDBRANCH  15  16
ENDBRANCH  13  14
ENDBRANCH  12  13
ENDBRANCH   1  11
TORSDOF 14
ENDMDL
MODEL 9
REMARK VINA RESULT:    -2.258      2.285      6.882
REMARK INTER + INTRA:          -5.515
REMARK INTER:                  -5.070
REMARK INTRA:                  -0.445
REMARK UNBOUND:                -1.409
REMARK SMILES CCCCCC=CCC=CCCCCCCCC(=O)[O-]
REMARK SMILES IDX 11 1 12 2 13 3 14 4 15 5 16 6 17 7 18 8 19 9 20 10 10 11
REMARK SMILES IDX 9 12 8 13 7 14 6 15 5 16 4 17 3 18 2 19 1 20
REMARK H PARENT
REMARK Flexibility Score: inf
ROOT
ATOM      1  C   UNL     1      14.803  16.972  27.702  1.00  0.00     0.027 C 
ENDROOT
BRANCH   1   2
ATOM      2  C   UNL     1      15.526  15.631  27.511  1.00  0.00     0.004 C 
BRANCH   2   3
ATOM      3  C   UNL     1      15.132  14.605  28.588  1.00  0.00     0.000 C 
BRANCH   3   4
ATOM      4  C   UNL     1      14.139  15.179  29.611  1.00  0.00     0.000 C 
BRANCH   4   5
ATOM      5  C   UNL     1      14.167  14.417  30.947  1.00  0.00     0.000 C 
BRANCH   5   6
ATOM      6  C   UNL     1      15.580  13.905  31.256  1.00  0.00     0.006 C 
BRANCH   6   7
ATOM      7  C   UNL     1      15.537  12.498  31.856  1.00  0.00     0.053 C 
BRANCH   7   8
ATOM      8  C   UNL     1      15.307  11.476  30.786  1.00  0.00     0.041 C 
ATOM      9  O   UNL     1      14.528  10.499  30.996  1.00  0.00    -0.550 OA
ATOM     10  O   UNL     1      15.964  11.590  29.564  1.00  0.00    -0.550 OA
ENDBRANCH   7   8
ENDBRANCH   6   7
ENDBRANCH   5   6
ENDBRANCH   4   5
ENDBRANCH   3   4
ENDBRANCH   2   3
ENDBRANCH   1   2
BRANCH   1  11
ATOM     11  C   UNL     1      14.735  17.773  26.428  1.00  0.00    -0.031 C 
ATOM     12  C   UNL     1      14.844  17.193  25.223  1.00  0.00    -0.027 C 
BRANCH  12  13
ATOM     13  C   UNL     1      14.779  17.999  23.955  1.00  0.00     0.054 C 
BRANCH  13  14
ATOM     14  C   UNL     1      13.354  18.125  23.479  1.00  0.00    -0.027 C 
ATOM     15  C   UNL     1      12.404  17.188  23.652  1.00  0.00    -0.031 C 
BRANCH  15  16
ATOM     16  C   UNL     1      12.604  15.873  24.371  1.00  0.00     0.027 C 
BRANCH  16  17
ATOM     17  C   UNL     1      11.450  15.580  25.336  1.00  0.00     0.004 C 
BRANCH  17  18
ATOM     18  C   UNL     1      11.904  15.618  26.804  1.00  0.00     0.000 C 
BRANCH  18  19
ATOM     19  C   UNL     1      11.712  17.018  27.400  1.00  0.00    -0.003 C 
ATOM     20  C   UNL     1      10.734  17.840  26.566  1.00  0.00     0.004 C 
ENDBRANCH  18  19
ENDBRANCH  17  18
ENDBRANCH  16  17
ENDBRANCH  15  16
ENDBRANCH  13  14
ENDBRANCH  12  13
ENDBRANCH   1  11
TORSDOF 14
ENDMDL
