MODEL 1
REMARK VINA RESULT:    -3.542      0.000      0.000
REMARK INTER + INTRA:          -5.036
REMARK INTER:                  -4.784
REMARK INTRA:                  -0.252
REMARK UNBOUND:                -0.252
REMARK SMILES C=C1C(=O)O[C@@H]2[C@H]3O[C@@]3(C)CCC=C(C)CC[C@@H]12
REMARK SMILES IDX 6 1 18 2 2 3 1 4 3 5 4 6 5 7 17 8 16 9 14 10 15 11 13 12
REMARK SMILES IDX 7 14 9 15 8 16 10 17 11 18 12 19
REMARK H PARENT
REMARK Flexibility Score: 70.00
ROOT
ATOM      1  C   UNL     1      12.822  15.714  30.704  1.00  0.00     0.216 C 
ATOM      2  C   UNL     1      12.703  15.873  32.253  1.00  0.00     0.070 C 
ATOM      3  C   UNL     1      11.216  15.865  32.465  1.00  0.00     0.037 C 
ATOM      4  C   UNL     1      10.552  16.131  33.591  1.00  0.00     0.021 C 
ATOM      5  C   UNL     1      10.643  15.269  31.276  1.00  0.00     0.334 C 
ATOM      6  O   UNL     1       9.438  14.936  31.128  1.00  0.00    -0.247 OA
ATOM      7  O   UNL     1      11.616  15.063  30.318  1.00  0.00    -0.455 OA
ENDROOT
BRANCH   2   8
ATOM      8  C   UNL     1      13.489  17.036  32.919  1.00  0.00     0.017 C 
BRANCH   8   9
ATOM      9  C   UNL     1      14.975  16.784  33.246  1.00  0.00     0.031 C 
BRANCH   9  10
ATOM     10  C   UNL     1      15.869  18.009  33.079  1.00  0.00    -0.077 C 
ATOM     11  C   UNL     1      15.948  18.985  34.228  1.00  0.00     0.039 C 
ATOM     12  C   UNL     1      16.516  18.355  31.930  1.00  0.00    -0.028 CG0
ATOM     13  G   UNL     1      16.771  17.503  30.699  1.00  0.00     0.000 G0
ENDBRANCH   9  10
ENDBRANCH   8   9
ENDBRANCH   2   8
BRANCH   1  14
ATOM     14  C   UNL     1      14.050  14.908  30.264  1.00  0.00     0.192 C 
ATOM     15  C   UNL     1      15.327  15.588  29.868  1.00  0.00     0.096 C 
ATOM     16  O   UNL     1      14.366  15.191  28.916  1.00  0.00    -0.362 OA
ATOM     17  C   UNL     1      16.579  14.713  29.774  1.00  0.00     0.045 C 
BRANCH  15  18
ATOM     18  C   UNL     1      15.521  17.125  29.887  1.00  0.00     0.042 C 
BRANCH  18  19
ATOM     19  C   UNL     1      16.772  17.513  30.695  1.00  0.00     0.030 CG0
ATOM     20  G   UNL     1      16.527  18.371  31.924  1.00  0.00     0.000 G0
ENDBRANCH  18  19
ENDBRANCH  15  18
ENDBRANCH   1  14
TORSDOF 0
ENDMDL
MODEL 2
REMARK VINA RESULT:    -3.516      3.265      6.148
REMARK INTER + INTRA:          -5.001
REMARK INTER:                  -4.746
REMARK INTRA:                  -0.255
REMARK UNBOUND:                -0.252
REMARK SMILES C=C1C(=O)O[C@@H]2[C@H]3O[C@@]3(C)CCC=C(C)CC[C@@H]12
REMARK SMILES IDX 6 1 18 2 2 3 1 4 3 5 4 6 5 7 17 8 16 9 14 10 15 11 13 12
REMARK SMILES IDX 7 14 9 15 8 16 10 17 11 18 12 19
REMARK H PARENT
REMARK Flexibility Score: 70.00
ROOT
ATOM      1  C   UNL     1      13.657  16.642  32.320  1.00  0.00     0.216 C 
ATOM      2  C   UNL     1      14.056  16.015  30.946  1.00  0.00     0.070 C 
ATOM      3  C   UNL     1      15.078  16.988  30.432  1.00  0.00     0.037 C 
ATOM      4  C   UNL     1      15.634  17.022  29.220  1.00  0.00     0.021 C 
ATOM      5  C   UNL     1      15.538  17.735  31.584  1.00  0.00     0.334 C 
ATOM      6  O   UNL     1      16.509  18.536  31.602  1.00  0.00    -0.247 OA
ATOM      7  O   UNL     1      14.789  17.418  32.700  1.00  0.00    -0.455 OA
ENDROOT
BRANCH   2   8
ATOM      8  C   UNL     1      12.909  15.638  29.969  1.00  0.00     0.017 C 
BRANCH   8   9
ATOM      9  C   UNL     1      12.151  14.323  30.248  1.00  0.00     0.031 C 
BRANCH   9  10
ATOM     10  C   UNL     1      10.657  14.387  29.943  1.00  0.00    -0.077 C 
ATOM     11  C   UNL     1      10.224  14.227  28.506  1.00  0.00     0.039 C 
ATOM     12  C   UNL     1       9.686  14.691  30.850  1.00  0.00    -0.028 CG0
ATOM     13  G   UNL     1       9.788  14.720  32.365  1.00  0.00     0.000 G0
ENDBRANCH   9  10
ENDBRANCH   8   9
ENDBRANCH   2   8
BRANCH   1  14
ATOM     14  C   UNL     1      13.317  15.600  33.393  1.00  0.00     0.192 C 
ATOM     15  C   UNL     1      11.895  15.229  33.694  1.00  0.00     0.096 C 
ATOM     16  O   UNL     1      12.588  16.199  34.445  1.00  0.00    -0.362 OA
ATOM     17  C   UNL     1      11.669  13.960  34.521  1.00  0.00     0.045 C 
BRANCH  15  18
ATOM     18  C   UNL     1      10.676  15.834  32.953  1.00  0.00     0.042 C 
BRANCH  18  19
ATOM     19  C   UNL     1       9.782  14.727  32.367  1.00  0.00     0.030 CG0
ATOM     20  G   UNL     1       9.688  14.685  30.852  1.00  0.00     0.000 G0
ENDBRANCH  18  19
ENDBRANCH  15  18
ENDBRANCH   1  14
TORSDOF 0
ENDMDL
MODEL 3
REMARK VINA RESULT:    -3.440      1.696      2.137
REMARK INTER + INTRA:          -4.899
REMARK INTER:                  -4.585
REMARK INTRA:                  -0.314
REMARK UNBOUND:                -0.252
REMARK SMILES C=C1C(=O)O[C@@H]2[C@H]3O[C@@]3(C)CCC=C(C)CC[C@@H]12
REMARK SMILES IDX 6 1 18 2 2 3 1 4 3 5 4 6 5 7 17 8 16 9 14 10 15 11 13 12
REMARK SMILES IDX 7 14 9 15 8 16 10 17 11 18 12 19
REMARK H PARENT
REMARK Flexibility Score: 70.00
ROOT
ATOM      1  C   UNL     1      13.339  16.809  32.334  1.00  0.00     0.216 C 
ATOM      2  C   UNL     1      14.012  17.029  33.726  1.00  0.00     0.070 C 
ATOM      3  C   UNL     1      12.835  17.329  34.610  1.00  0.00     0.037 C 
ATOM      4  C   UNL     1      12.852  17.754  35.874  1.00  0.00     0.021 C 
ATOM      5  C   UNL     1      11.669  16.831  33.910  1.00  0.00     0.334 C 
ATOM      6  O   UNL     1      10.506  16.747  34.386  1.00  0.00    -0.247 OA
ATOM      7  O   UNL     1      12.008  16.407  32.641  1.00  0.00    -0.455 OA
ENDROOT
BRANCH   2   8
ATOM      8  C   UNL     1      15.202  18.025  33.800  1.00  0.00     0.017 C 
BRANCH   8   9
ATOM      9  C   UNL     1      16.577  17.514  33.321  1.00  0.00     0.031 C 
BRANCH   9  10
ATOM     10  C   UNL     1      17.411  18.560  32.588  1.00  0.00    -0.077 C 
ATOM     11  C   UNL     1      18.208  19.535  33.421  1.00  0.00     0.039 C 
ATOM     12  C   UNL     1      17.408  18.760  31.239  1.00  0.00    -0.028 CG0
ATOM     13  G   UNL     1      16.867  17.846  30.153  1.00  0.00     0.000 G0
ENDBRANCH   9  10
ENDBRANCH   8   9
ENDBRANCH   2   8
BRANCH   1  14
ATOM     14  C   UNL     1      14.048  15.758  31.471  1.00  0.00     0.192 C 
ATOM     15  C   UNL     1      15.006  16.158  30.388  1.00  0.00     0.096 C 
ATOM     16  O   UNL     1      13.650  15.883  30.121  1.00  0.00    -0.362 OA
ATOM     17  C   UNL     1      15.907  15.060  29.818  1.00  0.00     0.045 C 
BRANCH  15  18
ATOM     18  C   UNL     1      15.371  17.629  30.067  1.00  0.00     0.042 C 
BRANCH  18  19
ATOM     19  C   UNL     1      16.893  17.846  30.129  1.00  0.00     0.030 CG0
ATOM     20  G   UNL     1      17.386  18.765  31.233  1.00  0.00     0.000 G0
ENDBRANCH  18  19
ENDBRANCH  15  18
ENDBRANCH   1  14
TORSDOF 0
ENDMDL
MODEL 4
REMARK VINA RESULT:    -3.339      1.944      3.643
REMARK INTER + INTRA:          -4.762
REMARK INTER:                  -4.497
REMARK INTRA:                  -0.265
REMARK UNBOUND:                -0.252
REMARK SMILES C=C1C(=O)O[C@@H]2[C@H]3O[C@@]3(C)CCC=C(C)CC[C@@H]12
REMARK SMILES IDX 6 1 18 2 2 3 1 4 3 5 4 6 5 7 17 8 16 9 14 10 15 11 13 12
REMARK SMILES IDX 7 14 9 15 8 16 10 17 11 18 12 19
REMARK H PARENT
REMARK Flexibility Score: 70.00
ROOT
ATOM      1  C   UNL     1      11.786  15.543  32.821  1.00  0.00     0.216 C 
ATOM      2  C   UNL     1      11.885  15.956  31.318  1.00  0.00     0.070 C 
ATOM      3  C   UNL     1      10.849  15.079  30.674  1.00  0.00     0.037 C 
ATOM      4  C   UNL     1      10.624  14.906  29.370  1.00  0.00     0.021 C 
ATOM      5  C   UNL     1       9.971  14.644  31.740  1.00  0.00     0.334 C 
ATOM      6  O   UNL     1       8.885  14.025  31.591  1.00  0.00    -0.247 OA
ATOM      7  O   UNL     1      10.462  15.042  32.967  1.00  0.00    -0.455 OA
ENDROOT
BRANCH   2   8
ATOM      8  C   UNL     1      13.294  15.955  30.664  1.00  0.00     0.017 C 
BRANCH   8   9
ATOM      9  C   UNL     1      14.145  17.231  30.828  1.00  0.00     0.031 C 
BRANCH   9  10
ATOM     10  C   UNL     1      15.643  16.971  30.953  1.00  0.00    -0.077 C 
ATOM     11  C   UNL     1      16.447  16.848  29.681  1.00  0.00     0.039 C 
ATOM     12  C   UNL     1      16.300  16.725  32.123  1.00  0.00    -0.028 CG0
ATOM     13  G   UNL     1      15.813  16.956  33.543  1.00  0.00     0.000 G0
ENDBRANCH   9  10
ENDBRANCH   8   9
ENDBRANCH   2   8
BRANCH   1  14
ATOM     14  C   UNL     1      12.049  16.700  33.792  1.00  0.00     0.192 C 
ATOM     15  C   UNL     1      13.415  16.942  34.364  1.00  0.00     0.096 C 
ATOM     16  O   UNL     1      12.436  16.202  35.057  1.00  0.00    -0.362 OA
ATOM     17  C   UNL     1      13.655  18.294  35.041  1.00  0.00     0.045 C 
BRANCH  15  18
ATOM     18  C   UNL     1      14.654  16.079  34.017  1.00  0.00     0.042 C 
BRANCH  18  19
ATOM     19  C   UNL     1      15.826  16.960  33.548  1.00  0.00     0.030 CG0
ATOM     20  G   UNL     1      16.313  16.714  32.131  1.00  0.00     0.000 G0
ENDBRANCH  18  19
ENDBRANCH  15  18
ENDBRANCH   1  14
TORSDOF 0
ENDMDL
MODEL 5
REMARK VINA RESULT:    -3.285      2.324      3.867
REMARK INTER + INTRA:          -4.689
REMARK INTER:                  -4.454
REMARK INTRA:                  -0.235
REMARK UNBOUND:                -0.252
REMARK SMILES C=C1C(=O)O[C@@H]2[C@H]3O[C@@]3(C)CCC=C(C)CC[C@@H]12
REMARK SMILES IDX 6 1 18 2 2 3 1 4 3 5 4 6 5 7 17 8 16 9 14 10 15 11 13 12
REMARK SMILES IDX 7 14 9 15 8 16 10 17 11 18 12 19
REMARK H PARENT
REMARK Flexibility Score: 70.00
ROOT
ATOM      1  C   UNL     1      12.303  15.987  33.672  1.00  0.00     0.216 C 
ATOM      2  C   UNL     1      11.437  16.326  32.417  1.00  0.00     0.070 C 
ATOM      3  C   UNL     1      10.363  15.276  32.473  1.00  0.00     0.037 C 
ATOM      4  C   UNL     1       9.443  15.001  31.547  1.00  0.00     0.021 C 
ATOM      5  C   UNL     1      10.356  14.781  33.834  1.00  0.00     0.334 C 
ATOM      6  O   UNL     1       9.495  14.007  34.330  1.00  0.00    -0.247 OA
ATOM      7  O   UNL     1      11.409  15.312  34.551  1.00  0.00    -0.455 OA
ENDROOT
BRANCH   2   8
ATOM      8  C   UNL     1      12.172  16.489  31.059  1.00  0.00     0.017 C 
BRANCH   8   9
ATOM      9  C   UNL     1      13.544  17.194  31.083  1.00  0.00     0.031 C 
BRANCH   9  10
ATOM     10  C   UNL     1      14.720  16.284  30.742  1.00  0.00    -0.077 C 
ATOM     11  C   UNL     1      14.684  15.550  29.423  1.00  0.00     0.039 C 
ATOM     12  C   UNL     1      15.752  15.989  31.583  1.00  0.00    -0.028 CG0
ATOM     13  G   UNL     1      16.151  16.694  32.867  1.00  0.00     0.000 G0
ENDBRANCH   9  10
ENDBRANCH   8   9
ENDBRANCH   2   8
BRANCH   1  14
ATOM     14  C   UNL     1      12.912  17.222  34.346  1.00  0.00     0.192 C 
ATOM     15  C   UNL     1      14.391  17.334  34.575  1.00  0.00     0.096 C 
ATOM     16  O   UNL     1      13.515  16.864  35.574  1.00  0.00    -0.362 OA
ATOM     17  C   UNL     1      14.935  18.719  34.936  1.00  0.00     0.045 C 
BRANCH  15  18
ATOM     18  C   UNL     1      15.409  16.250  34.143  1.00  0.00     0.042 C 
BRANCH  18  19
ATOM     19  C   UNL     1      16.170  16.680  32.876  1.00  0.00     0.030 CG0
ATOM     20  G   UNL     1      15.749  15.996  31.587  1.00  0.00     0.000 G0
ENDBRANCH  18  19
ENDBRANCH  15  18
ENDBRANCH   1  14
TORSDOF 0
ENDMDL
MODEL 6
REMARK VINA RESULT:    -3.256      2.446      5.128
REMARK INTER + INTRA:          -4.649
REMARK INTER:                  -4.465
REMARK INTRA:                  -0.185
REMARK UNBOUND:                -0.252
REMARK SMILES C=C1C(=O)O[C@@H]2[C@H]3O[C@@]3(C)CCC=C(C)CC[C@@H]12
REMARK SMILES IDX 6 1 18 2 2 3 1 4 3 5 4 6 5 7 17 8 16 9 14 10 15 11 13 12
REMARK SMILES IDX 7 14 9 15 8 16 10 17 11 18 12 19
REMARK H PARENT
REMARK Flexibility Score: 70.00
ROOT
ATOM      1  C   UNL     1      16.116  17.470  31.030  1.00  0.00     0.216 C 
ATOM      2  C   UNL     1      16.574  18.749  31.801  1.00  0.00     0.070 C 
ATOM      3  C   UNL     1      17.971  18.952  31.287  1.00  0.00     0.037 C 
ATOM      4  C   UNL     1      18.885  19.815  31.732  1.00  0.00     0.021 C 
ATOM      5  C   UNL     1      18.056  18.208  30.047  1.00  0.00     0.334 C 
ATOM      6  O   UNL     1      19.010  18.252  29.227  1.00  0.00    -0.247 OA
ATOM      7  O   UNL     1      16.912  17.460  29.850  1.00  0.00    -0.455 OA
ENDROOT
BRANCH   2   8
ATOM      8  C   UNL     1      16.399  18.758  33.344  1.00  0.00     0.017 C 
BRANCH   8   9
ATOM      9  C   UNL     1      15.298  17.851  33.933  1.00  0.00     0.031 C 
BRANCH   9  10
ATOM     10  C   UNL     1      15.798  16.492  34.411  1.00  0.00    -0.077 C 
ATOM     11  C   UNL     1      16.954  16.468  35.383  1.00  0.00     0.039 C 
ATOM     12  C   UNL     1      15.359  15.288  33.945  1.00  0.00    -0.028 CG0
ATOM     13  G   UNL     1      14.115  14.992  33.126  1.00  0.00     0.000 G0
ENDBRANCH   9  10
ENDBRANCH   8   9
ENDBRANCH   2   8
BRANCH   1  14
ATOM     14  C   UNL     1      14.621  17.464  30.688  1.00  0.00     0.192 C 
ATOM     15  C   UNL     1      13.766  16.260  30.953  1.00  0.00     0.096 C 
ATOM     16  O   UNL     1      14.349  16.499  29.692  1.00  0.00    -0.362 OA
ATOM     17  C   UNL     1      12.249  16.459  30.898  1.00  0.00     0.045 C 
BRANCH  15  18
ATOM     18  C   UNL     1      14.299  14.956  31.597  1.00  0.00     0.042 C 
BRANCH  18  19
ATOM     19  C   UNL     1      14.114  14.980  33.125  1.00  0.00     0.030 CG0
ATOM     20  G   UNL     1      15.358  15.293  33.938  1.00  0.00     0.000 G0
ENDBRANCH  18  19
ENDBRANCH  15  18
ENDBRANCH   1  14
TORSDOF 0
ENDMDL
MODEL 7
REMARK VINA RESULT:    -3.246      2.272      4.334
REMARK INTER + INTRA:          -4.637
REMARK INTER:                  -4.351
REMARK INTRA:                  -0.285
REMARK UNBOUND:                -0.252
REMARK SMILES C=C1C(=O)O[C@@H]2[C@H]3O[C@@]3(C)CCC=C(C)CC[C@@H]12
REMARK SMILES IDX 6 1 18 2 2 3 1 4 3 5 4 6 5 7 17 8 16 9 14 10 15 11 13 12
REMARK SMILES IDX 7 14 9 15 8 16 10 17 11 18 12 19
REMARK H PARENT
REMARK Flexibility Score: 70.00
ROOT
ATOM      1  C   UNL     1      13.476  16.012  32.454  1.00  0.00     0.216 C 
ATOM      2  C   UNL     1      14.393  16.885  31.539  1.00  0.00     0.070 C 
ATOM      3  C   UNL     1      14.367  16.128  30.242  1.00  0.00     0.037 C 
ATOM      4  C   UNL     1      15.113  16.346  29.157  1.00  0.00     0.021 C 
ATOM      5  C   UNL     1      13.202  15.271  30.298  1.00  0.00     0.334 C 
ATOM      6  O   UNL     1      12.738  14.596  29.342  1.00  0.00    -0.247 OA
ATOM      7  O   UNL     1      12.620  15.324  31.549  1.00  0.00    -0.455 OA
ENDROOT
BRANCH   2   8
ATOM      8  C   UNL     1      15.795  17.271  32.085  1.00  0.00     0.017 C 
BRANCH   8   9
ATOM      9  C   UNL     1      15.854  18.402  33.133  1.00  0.00     0.031 C 
BRANCH   9  10
ATOM     10  C   UNL     1      16.893  18.184  34.229  1.00  0.00    -0.077 C 
ATOM     11  C   UNL     1      18.332  18.510  33.911  1.00  0.00     0.039 C 
ATOM     12  C   UNL     1      16.644  17.611  35.441  1.00  0.00    -0.028 CG0
ATOM     13  G   UNL     1      15.302  17.356  36.105  1.00  0.00     0.000 G0
ENDBRANCH   9  10
ENDBRANCH   8   9
ENDBRANCH   2   8
BRANCH   1  14
ATOM     14  C   UNL     1      12.667  16.830  33.467  1.00  0.00     0.192 C 
ATOM     15  C   UNL     1      13.106  16.954  34.896  1.00  0.00     0.096 C 
ATOM     16  O   UNL     1      12.163  15.990  34.486  1.00  0.00    -0.362 OA
ATOM     17  C   UNL     1      12.437  18.045  35.736  1.00  0.00     0.045 C 
BRANCH  15  18
ATOM     18  C   UNL     1      14.394  16.301  35.457  1.00  0.00     0.042 C 
BRANCH  18  19
ATOM     19  C   UNL     1      15.299  17.351  36.125  1.00  0.00     0.030 CG0
ATOM     20  G   UNL     1      16.627  17.615  35.436  1.00  0.00     0.000 G0
ENDBRANCH  18  19
ENDBRANCH  15  18
ENDBRANCH   1  14
TORSDOF 0
ENDMDL
MODEL 8
REMARK VINA RESULT:    -3.115      2.052      3.002
REMARK INTER + INTRA:          -4.459
REMARK INTER:                  -4.187
REMARK INTRA:                  -0.272
REMARK UNBOUND:                -0.252
REMARK SMILES C=C1C(=O)O[C@@H]2[C@H]3O[C@@]3(C)CCC=C(C)CC[C@@H]12
REMARK SMILES IDX 6 1 18 2 2 3 1 4 3 5 4 6 5 7 17 8 16 9 14 10 15 11 13 12
REMARK SMILES IDX 7 14 9 15 8 16 10 17 11 18 12 19
REMARK H PARENT
REMARK Flexibility Score: 70.00
ROOT
ATOM      1  C   UNL     1      10.593  15.058  31.189  1.00  0.00     0.216 C 
ATOM      2  C   UNL     1       9.995  15.046  32.633  1.00  0.00     0.070 C 
ATOM      3  C   UNL     1       8.516  15.051  32.369  1.00  0.00     0.037 C 
ATOM      4  C   UNL     1       7.531  15.206  33.255  1.00  0.00     0.021 C 
ATOM      5  C   UNL     1       8.349  14.606  31.001  1.00  0.00     0.334 C 
ATOM      6  O   UNL     1       7.254  14.321  30.448  1.00  0.00    -0.247 OA
ATOM      7  O   UNL     1       9.574  14.484  30.376  1.00  0.00    -0.455 OA
ENDROOT
BRANCH   2   8
ATOM      8  C   UNL     1      10.521  16.107  33.637  1.00  0.00     0.017 C 
BRANCH   8   9
ATOM      9  C   UNL     1      11.791  15.750  34.436  1.00  0.00     0.031 C 
BRANCH   9  10
ATOM     10  C   UNL     1      12.699  16.940  34.732  1.00  0.00    -0.077 C 
ATOM     11  C   UNL     1      12.419  17.748  35.976  1.00  0.00     0.039 C 
ATOM     12  C   UNL     1      13.676  17.405  33.902  1.00  0.00    -0.028 CG0
ATOM     13  G   UNL     1      14.299  16.714  32.702  1.00  0.00     0.000 G0
ENDBRANCH   9  10
ENDBRANCH   8   9
ENDBRANCH   2   8
BRANCH   1  14
ATOM     14  C   UNL     1      11.906  14.276  31.064  1.00  0.00     0.192 C 
ATOM     15  C   UNL     1      13.235  14.958  31.199  1.00  0.00     0.096 C 
ATOM     16  O   UNL     1      12.639  14.724  29.943  1.00  0.00    -0.362 OA
ATOM     17  C   UNL     1      14.459  14.061  31.396  1.00  0.00     0.045 C 
BRANCH  15  18
ATOM     18  C   UNL     1      13.395  16.471  31.489  1.00  0.00     0.042 C 
BRANCH  18  19
ATOM     19  C   UNL     1      14.319  16.706  32.697  1.00  0.00     0.030 CG0
ATOM     20  G   UNL     1      13.684  17.397  33.891  1.00  0.00     0.000 G0
ENDBRANCH  18  19
ENDBRANCH  15  18
ENDBRANCH   1  14
TORSDOF 0
ENDMDL
MODEL 9
REMARK VINA RESULT:    -3.114      2.555      3.900
REMARK INTER + INTRA:          -4.458
REMARK INTER:                  -4.248
REMARK INTRA:                  -0.209
REMARK UNBOUND:                -0.252
REMARK SMILES C=C1C(=O)O[C@@H]2[C@H]3O[C@@]3(C)CCC=C(C)CC[C@@H]12
REMARK SMILES IDX 6 1 18 2 2 3 1 4 3 5 4 6 5 7 17 8 16 9 14 10 15 11 13 12
REMARK SMILES IDX 7 14 9 15 8 16 10 17 11 18 12 19
REMARK H PARENT
REMARK Flexibility Score: 70.00
ROOT
ATOM      1  C   UNL     1      14.174  16.352  33.439  1.00  0.00     0.216 C 
ATOM      2  C   UNL     1      12.746  16.802  32.994  1.00  0.00     0.070 C 
ATOM      3  C   UNL     1      11.860  16.036  33.936  1.00  0.00     0.037 C 
ATOM      4  C   UNL     1      10.531  15.923  33.894  1.00  0.00     0.021 C 
ATOM      5  C   UNL     1      12.698  15.645  35.050  1.00  0.00     0.334 C 
ATOM      6  O   UNL     1      12.299  15.126  36.125  1.00  0.00    -0.247 OA
ATOM      7  O   UNL     1      14.019  15.961  34.799  1.00  0.00    -0.455 OA
ENDROOT
BRANCH   2   8
ATOM      8  C   UNL     1      12.398  16.701  31.484  1.00  0.00     0.017 C 
BRANCH   8   9
ATOM      9  C   UNL     1      13.560  16.867  30.483  1.00  0.00     0.031 C 
BRANCH   9  10
ATOM     10  C   UNL     1      14.067  15.555  29.891  1.00  0.00    -0.077 C 
ATOM     11  C   UNL     1      13.057  14.632  29.253  1.00  0.00     0.039 C 
ATOM     12  C   UNL     1      15.346  15.093  29.993  1.00  0.00    -0.028 CG0
ATOM     13  G   UNL     1      16.594  15.857  30.403  1.00  0.00     0.000 G0
ENDBRANCH   9  10
ENDBRANCH   8   9
ENDBRANCH   2   8
BRANCH   1  14
ATOM     14  C   UNL     1      15.233  17.452  33.298  1.00  0.00     0.192 C 
ATOM     15  C   UNL     1      16.529  17.199  32.586  1.00  0.00     0.096 C 
ATOM     16  O   UNL     1      16.413  17.089  33.986  1.00  0.00    -0.362 OA
ATOM     17  C   UNL     1      17.363  18.424  32.203  1.00  0.00     0.045 C 
BRANCH  15  18
ATOM     18  C   UNL     1      16.895  15.844  31.928  1.00  0.00     0.042 C 
BRANCH  18  19
ATOM     19  C   UNL     1      16.588  15.862  30.420  1.00  0.00     0.030 CG0
ATOM     20  G   UNL     1      15.355  15.088  29.987  1.00  0.00     0.000 G0
ENDBRANCH  18  19
ENDBRANCH  15  18
ENDBRANCH   1  14
TORSDOF 0
ENDMDL
