MODEL 1
REMARK VINA RESULT:    -3.307      0.000      0.000
REMARK INTER + INTRA:          -6.334
REMARK INTER:                  -5.046
REMARK INTRA:                  -1.288
REMARK UNBOUND:                -1.288
REMARK SMILES CCCCCCCCCCC(=O)[O-]
REMARK SMILES IDX 7 1 8 2 9 3 10 4 11 5 12 6 13 7 6 8 5 9 4 10 3 11 2 12 1 13
REMARK H PARENT
REMARK Flexibility Score: inf
ROOT
ATOM      1  C   UNL     1      -2.040 -11.112 -41.502  1.00  0.00     0.000 C 
ENDROOT
BRANCH   1   2
ATOM      2  C   UNL     1      -0.794 -11.334 -42.372  1.00  0.00     0.000 C 
BRANCH   2   3
ATOM      3  C   UNL     1       0.513 -11.251 -41.567  1.00  0.00     0.006 C 
BRANCH   3   4
ATOM      4  C   UNL     1       1.200  -9.886 -41.699  1.00  0.00     0.053 C 
BRANCH   4   5
ATOM      5  C   UNL     1       1.553  -9.615 -43.128  1.00  0.00     0.041 C 
ATOM      6  O   UNL     1       1.225  -8.525 -43.666  1.00  0.00    -0.550 OA
ATOM      7  O   UNL     1       2.201 -10.587 -43.880  1.00  0.00    -0.550 OA
ENDBRANCH   4   5
ENDBRANCH   3   4
ENDBRANCH   2   3
ENDBRANCH   1   2
BRANCH   1   8
ATOM      8  C   UNL     1      -2.874  -9.937 -42.026  1.00  0.00     0.000 C 
BRANCH   8   9
ATOM      9  C   UNL     1      -2.279  -8.594 -41.579  1.00  0.00    -0.000 C 
BRANCH   9  10
ATOM     10  C   UNL     1      -2.466  -8.328 -40.075  1.00  0.00    -0.000 C 
BRANCH  10  11
ATOM     11  C   UNL     1      -1.168  -8.035 -39.296  1.00  0.00    -0.000 C 
BRANCH  11  12
ATOM     12  C   UNL     1      -0.555  -9.250 -38.577  1.00  0.00    -0.003 C 
ATOM     13  C   UNL     1      -1.609 -10.178 -37.972  1.00  0.00     0.004 C 
ENDBRANCH  11  12
ENDBRANCH  10  11
ENDBRANCH   9  10
ENDBRANCH   8   9
ENDBRANCH   1   8
TORSDOF 9
ENDMDL
MODEL 2
REMARK VINA RESULT:    -3.300      1.501      3.003
REMARK INTER + INTRA:          -6.324
REMARK INTER:                  -5.112
REMARK INTRA:                  -1.212
REMARK UNBOUND:                -1.288
REMARK SMILES CCCCCCCCCCC(=O)[O-]
REMARK SMILES IDX 7 1 8 2 9 3 10 4 11 5 12 6 13 7 6 8 5 9 4 10 3 11 2 12 1 13
REMARK H PARENT
REMARK Flexibility Score: inf
ROOT
ATOM      1  C   UNL     1      -0.792  -8.856 -40.241  1.00  0.00     0.000 C 
ENDROOT
BRANCH   1   2
ATOM      2  C   UNL     1      -0.389 -10.281 -39.835  1.00  0.00     0.000 C 
BRANCH   2   3
ATOM      3  C   UNL     1       0.436 -10.994 -40.918  1.00  0.00     0.006 C 
BRANCH   3   4
ATOM      4  C   UNL     1       1.277 -10.023 -41.756  1.00  0.00     0.053 C 
BRANCH   4   5
ATOM      5  C   UNL     1       2.500 -10.709 -42.277  1.00  0.00     0.041 C 
ATOM      6  O   UNL     1       3.545 -10.761 -41.576  1.00  0.00    -0.550 OA
ATOM      7  O   UNL     1       2.503 -11.248 -43.558  1.00  0.00    -0.550 OA
ENDBRANCH   4   5
ENDBRANCH   3   4
ENDBRANCH   2   3
ENDBRANCH   1   2
BRANCH   1   8
ATOM      8  C   UNL     1      -2.304  -8.757 -40.475  1.00  0.00     0.000 C 
BRANCH   8   9
ATOM      9  C   UNL     1      -2.613  -8.337 -41.919  1.00  0.00    -0.000 C 
BRANCH   9  10
ATOM     10  C   UNL     1      -2.714  -9.532 -42.882  1.00  0.00    -0.000 C 
BRANCH  10  11
ATOM     11  C   UNL     1      -3.451 -10.765 -42.320  1.00  0.00    -0.000 C 
BRANCH  11  12
ATOM     12  C   UNL     1      -2.687 -12.094 -42.452  1.00  0.00    -0.003 C 
ATOM     13  C   UNL     1      -2.748 -12.945 -41.184  1.00  0.00     0.004 C 
ENDBRANCH  11  12
ENDBRANCH  10  11
ENDBRANCH   9  10
ENDBRANCH   8   9
ENDBRANCH   1   8
TORSDOF 9
ENDMDL
MODEL 3
REMARK VINA RESULT:    -3.252      3.748      5.681
REMARK INTER + INTRA:          -6.251
REMARK INTER:                  -5.708
REMARK INTRA:                  -0.543
REMARK UNBOUND:                -1.288
REMARK SMILES CCCCCCCCCCC(=O)[O-]
REMARK SMILES IDX 7 1 8 2 9 3 10 4 11 5 12 6 13 7 6 8 5 9 4 10 3 11 2 12 1 13
REMARK H PARENT
REMARK Flexibility Score: inf
ROOT
ATOM      1  C   UNL     1      -1.611  -9.070 -39.715  1.00  0.00     0.000 C 
ENDROOT
BRANCH   1   2
ATOM      2  C   UNL     1      -1.185  -7.757 -39.044  1.00  0.00     0.000 C 
BRANCH   2   3
ATOM      3  C   UNL     1      -0.561  -7.976 -37.657  1.00  0.00     0.006 C 
BRANCH   3   4
ATOM      4  C   UNL     1      -0.596  -9.446 -37.219  1.00  0.00     0.053 C 
BRANCH   4   5
ATOM      5  C   UNL     1      -0.653  -9.544 -35.726  1.00  0.00     0.041 C 
ATOM      6  O   UNL     1      -1.494  -8.867 -35.079  1.00  0.00    -0.550 OA
ATOM      7  O   UNL     1       0.255 -10.346 -35.047  1.00  0.00    -0.550 OA
ENDBRANCH   4   5
ENDBRANCH   3   4
ENDBRANCH   2   3
ENDBRANCH   1   2
BRANCH   1   8
ATOM      8  C   UNL     1      -1.963  -8.845 -41.191  1.00  0.00     0.000 C 
BRANCH   8   9
ATOM      9  C   UNL     1      -0.783  -9.214 -42.102  1.00  0.00    -0.000 C 
BRANCH   9  10
ATOM     10  C   UNL     1       0.301 -10.030 -41.377  1.00  0.00    -0.000 C 
BRANCH  10  11
ATOM     11  C   UNL     1       1.719  -9.908 -41.971  1.00  0.00    -0.000 C 
BRANCH  11  12
ATOM     12  C   UNL     1       1.843 -10.332 -43.446  1.00  0.00    -0.003 C 
ATOM     13  C   UNL     1       1.898 -11.848 -43.627  1.00  0.00     0.004 C 
ENDBRANCH  11  12
ENDBRANCH  10  11
ENDBRANCH   9  10
ENDBRANCH   8   9
ENDBRANCH   1   8
TORSDOF 9
ENDMDL
MODEL 4
REMARK VINA RESULT:    -3.229      1.383      2.453
REMARK INTER + INTRA:          -6.216
REMARK INTER:                  -5.033
REMARK INTRA:                  -1.183
REMARK UNBOUND:                -1.288
REMARK SMILES CCCCCCCCCCC(=O)[O-]
REMARK SMILES IDX 7 1 8 2 9 3 10 4 11 5 12 6 13 7 6 8 5 9 4 10 3 11 2 12 1 13
REMARK H PARENT
REMARK Flexibility Score: inf
ROOT
ATOM      1  C   UNL     1      -1.072 -11.142 -42.377  1.00  0.00     0.000 C 
ENDROOT
BRANCH   1   2
ATOM      2  C   UNL     1      -0.804  -9.632 -42.462  1.00  0.00     0.000 C 
BRANCH   2   3
ATOM      3  C   UNL     1       0.687  -9.303 -42.631  1.00  0.00     0.006 C 
BRANCH   3   4
ATOM      4  C   UNL     1       1.568 -10.005 -41.590  1.00  0.00     0.053 C 
BRANCH   4   5
ATOM      5  C   UNL     1       2.713 -10.699 -42.259  1.00  0.00     0.041 C 
ATOM      6  O   UNL     1       2.606 -11.096 -43.449  1.00  0.00    -0.550 OA
ATOM      7  O   UNL     1       3.882 -10.952 -41.552  1.00  0.00    -0.550 OA
ENDBRANCH   4   5
ENDBRANCH   3   4
ENDBRANCH   2   3
ENDBRANCH   1   2
BRANCH   1   8
ATOM      8  C   UNL     1      -1.932 -11.480 -41.153  1.00  0.00     0.000 C 
BRANCH   8   9
ATOM      9  C   UNL     1      -1.099 -12.177 -40.068  1.00  0.00    -0.000 C 
BRANCH   9  10
ATOM     10  C   UNL     1      -1.521 -11.781 -38.642  1.00  0.00    -0.000 C 
BRANCH  10  11
ATOM     11  C   UNL     1      -1.849 -10.287 -38.449  1.00  0.00    -0.000 C 
BRANCH  11  12
ATOM     12  C   UNL     1      -0.652  -9.333 -38.610  1.00  0.00    -0.003 C 
ATOM     13  C   UNL     1      -1.054  -7.960 -39.149  1.00  0.00     0.004 C 
ENDBRANCH  11  12
ENDBRANCH  10  11
ENDBRANCH   9  10
ENDBRANCH   8   9
ENDBRANCH   1   8
TORSDOF 9
ENDMDL
MODEL 5
REMARK VINA RESULT:    -3.177      3.562      5.587
REMARK INTER + INTRA:          -6.136
REMARK INTER:                  -5.749
REMARK INTRA:                  -0.387
REMARK UNBOUND:                -1.288
REMARK SMILES CCCCCCCCCCC(=O)[O-]
REMARK SMILES IDX 7 1 8 2 9 3 10 4 11 5 12 6 13 7 6 8 5 9 4 10 3 11 2 12 1 13
REMARK H PARENT
REMARK Flexibility Score: inf
ROOT
ATOM      1  C   UNL     1      -0.857  -8.752 -39.764  1.00  0.00     0.000 C 
ENDROOT
BRANCH   1   2
ATOM      2  C   UNL     1      -1.273  -7.684 -38.743  1.00  0.00     0.000 C 
BRANCH   2   3
ATOM      3  C   UNL     1      -0.369  -7.667 -37.501  1.00  0.00     0.006 C 
BRANCH   3   4
ATOM      4  C   UNL     1      -1.069  -8.221 -36.253  1.00  0.00     0.053 C 
BRANCH   4   5
ATOM      5  C   UNL     1      -0.792  -9.685 -36.108  1.00  0.00     0.041 C 
ATOM      6  O   UNL     1      -1.501 -10.528 -36.719  1.00  0.00    -0.550 OA
ATOM      7  O   UNL     1       0.218 -10.121 -35.259  1.00  0.00    -0.550 OA
ENDBRANCH   4   5
ENDBRANCH   3   4
ENDBRANCH   2   3
ENDBRANCH   1   2
BRANCH   1   8
ATOM      8  C   UNL     1      -1.798  -8.752 -40.975  1.00  0.00     0.000 C 
BRANCH   8   9
ATOM      9  C   UNL     1      -1.061  -9.198 -42.246  1.00  0.00    -0.000 C 
BRANCH   9  10
ATOM     10  C   UNL     1       0.013 -10.264 -41.972  1.00  0.00    -0.000 C 
BRANCH  10  11
ATOM     11  C   UNL     1       1.465  -9.812 -42.229  1.00  0.00    -0.000 C 
BRANCH  11  12
ATOM     12  C   UNL     1       2.451 -10.949 -42.554  1.00  0.00    -0.003 C 
ATOM     13  C   UNL     1       3.706 -10.915 -41.682  1.00  0.00     0.004 C 
ENDBRANCH  11  12
ENDBRANCH  10  11
ENDBRANCH   9  10
ENDBRANCH   8   9
ENDBRANCH   1   8
TORSDOF 9
ENDMDL
MODEL 6
REMARK VINA RESULT:    -3.157      1.489      1.839
REMARK INTER + INTRA:          -6.106
REMARK INTER:                  -5.201
REMARK INTRA:                  -0.905
REMARK UNBOUND:                -1.288
REMARK SMILES CCCCCCCCCCC(=O)[O-]
REMARK SMILES IDX 7 1 8 2 9 3 10 4 11 5 12 6 13 7 6 8 5 9 4 10 3 11 2 12 1 13
REMARK H PARENT
REMARK Flexibility Score: inf
ROOT
ATOM      1  C   UNL     1      -1.454  -9.243 -42.453  1.00  0.00     0.000 C 
ENDROOT
BRANCH   1   2
ATOM      2  C   UNL     1      -0.385 -10.328 -42.259  1.00  0.00     0.000 C 
BRANCH   2   3
ATOM      3  C   UNL     1       0.986  -9.747 -41.880  1.00  0.00     0.006 C 
BRANCH   3   4
ATOM      4  C   UNL     1       2.109 -10.232 -42.805  1.00  0.00     0.053 C 
BRANCH   4   5
ATOM      5  C   UNL     1       2.142 -11.728 -42.845  1.00  0.00     0.041 C 
ATOM      6  O   UNL     1       1.997 -12.336 -43.939  1.00  0.00    -0.550 OA
ATOM      7  O   UNL     1       2.283 -12.452 -41.668  1.00  0.00    -0.550 OA
ENDBRANCH   4   5
ENDBRANCH   3   4
ENDBRANCH   2   3
ENDBRANCH   1   2
BRANCH   1   8
ATOM      8  C   UNL     1      -2.807  -9.696 -41.890  1.00  0.00     0.000 C 
BRANCH   8   9
ATOM      9  C   UNL     1      -2.918  -9.371 -40.393  1.00  0.00    -0.000 C 
BRANCH   9  10
ATOM     10  C   UNL     1      -2.323  -7.999 -40.033  1.00  0.00    -0.000 C 
BRANCH  10  11
ATOM     11  C   UNL     1      -1.174  -8.033 -39.005  1.00  0.00    -0.000 C 
BRANCH  11  12
ATOM     12  C   UNL     1      -0.763  -9.441 -38.538  1.00  0.00    -0.003 C 
ATOM     13  C   UNL     1      -0.750  -9.583 -37.017  1.00  0.00     0.004 C 
ENDBRANCH  11  12
ENDBRANCH  10  11
ENDBRANCH   9  10
ENDBRANCH   8   9
ENDBRANCH   1   8
TORSDOF 9
ENDMDL
MODEL 7
REMARK VINA RESULT:    -3.104      1.802      3.461
REMARK INTER + INTRA:          -6.025
REMARK INTER:                  -4.885
REMARK INTRA:                  -1.139
REMARK UNBOUND:                -1.288
REMARK SMILES CCCCCCCCCCC(=O)[O-]
REMARK SMILES IDX 7 1 8 2 9 3 10 4 11 5 12 6 13 7 6 8 5 9 4 10 3 11 2 12 1 13
REMARK H PARENT
REMARK Flexibility Score: inf
ROOT
ATOM      1  C   UNL     1      -3.197  -8.262 -41.705  1.00  0.00     0.000 C 
ENDROOT
BRANCH   1   2
ATOM      2  C   UNL     1      -1.899  -8.771 -41.063  1.00  0.00     0.000 C 
BRANCH   2   3
ATOM      3  C   UNL     1      -0.944  -9.410 -42.083  1.00  0.00     0.006 C 
BRANCH   3   4
ATOM      4  C   UNL     1       0.226 -10.145 -41.417  1.00  0.00     0.053 C 
BRANCH   4   5
ATOM      5  C   UNL     1       1.513  -9.801 -42.098  1.00  0.00     0.041 C 
ATOM      6  O   UNL     1       2.602 -10.261 -41.665  1.00  0.00    -0.550 OA
ATOM      7  O   UNL     1       1.515  -8.933 -43.183  1.00  0.00    -0.550 OA
ENDBRANCH   4   5
ENDBRANCH   3   4
ENDBRANCH   2   3
ENDBRANCH   1   2
BRANCH   1   8
ATOM      8  C   UNL     1      -3.185  -8.484 -43.223  1.00  0.00     0.000 C 
BRANCH   8   9
ATOM      9  C   UNL     1      -4.404  -9.302 -43.670  1.00  0.00    -0.000 C 
BRANCH   9  10
ATOM     10  C   UNL     1      -4.924 -10.250 -42.576  1.00  0.00    -0.000 C 
BRANCH  10  11
ATOM     11  C   UNL     1      -4.653 -11.748 -42.824  1.00  0.00    -0.000 C 
BRANCH  11  12
ATOM     12  C   UNL     1      -3.203 -12.197 -42.567  1.00  0.00    -0.003 C 
ATOM     13  C   UNL     1      -2.938 -12.538 -41.101  1.00  0.00     0.004 C 
ENDBRANCH  11  12
ENDBRANCH  10  11
ENDBRANCH   9  10
ENDBRANCH   8   9
ENDBRANCH   1   8
TORSDOF 9
ENDMDL
MODEL 8
REMARK VINA RESULT:    -3.091      2.083      3.270
REMARK INTER + INTRA:          -6.005
REMARK INTER:                  -4.933
REMARK INTRA:                  -1.072
REMARK UNBOUND:                -1.288
REMARK SMILES CCCCCCCCCCC(=O)[O-]
REMARK SMILES IDX 7 1 8 2 9 3 10 4 11 5 12 6 13 7 6 8 5 9 4 10 3 11 2 12 1 13
REMARK H PARENT
REMARK Flexibility Score: inf
ROOT
ATOM      1  C   UNL     1      -1.229  -8.872 -41.227  1.00  0.00     0.000 C 
ENDROOT
BRANCH   1   2
ATOM      2  C   UNL     1       0.151  -9.511 -41.021  1.00  0.00     0.000 C 
BRANCH   2   3
ATOM      3  C   UNL     1       0.986  -9.549 -42.310  1.00  0.00     0.006 C 
BRANCH   3   4
ATOM      4  C   UNL     1       1.344 -10.977 -42.740  1.00  0.00     0.053 C 
BRANCH   4   5
ATOM      5  C   UNL     1       2.476 -11.501 -41.913  1.00  0.00     0.041 C 
ATOM      6  O   UNL     1       2.456 -12.688 -41.490  1.00  0.00    -0.550 OA
ATOM      7  O   UNL     1       3.530 -10.665 -41.567  1.00  0.00    -0.550 OA
ENDBRANCH   4   5
ENDBRANCH   3   4
ENDBRANCH   2   3
ENDBRANCH   1   2
BRANCH   1   8
ATOM      8  C   UNL     1      -1.841  -9.303 -42.566  1.00  0.00     0.000 C 
BRANCH   8   9
ATOM      9  C   UNL     1      -2.857 -10.437 -42.368  1.00  0.00    -0.000 C 
BRANCH   9  10
ATOM     10  C   UNL     1      -2.212 -11.833 -42.411  1.00  0.00    -0.000 C 
BRANCH  10  11
ATOM     11  C   UNL     1      -2.834 -12.871 -41.455  1.00  0.00    -0.000 C 
BRANCH  11  12
ATOM     12  C   UNL     1      -2.259 -12.866 -40.028  1.00  0.00    -0.003 C 
ATOM     13  C   UNL     1      -0.732 -12.818 -40.002  1.00  0.00     0.004 C 
ENDBRANCH  11  12
ENDBRANCH  10  11
ENDBRANCH   9  10
ENDBRANCH   8   9
ENDBRANCH   1   8
TORSDOF 9
ENDMDL
MODEL 9
REMARK VINA RESULT:    -3.057      1.874      2.579
REMARK INTER + INTRA:          -5.954
REMARK INTER:                  -5.451
REMARK INTRA:                  -0.503
REMARK UNBOUND:                -1.288
REMARK SMILES CCCCCCCCCCC(=O)[O-]
REMARK SMILES IDX 7 1 8 2 9 3 10 4 11 5 12 6 13 7 6 8 5 9 4 10 3 11 2 12 1 13
REMARK H PARENT
REMARK Flexibility Score: inf
ROOT
ATOM      1  C   UNL     1      -2.048  -9.545 -40.920  1.00  0.00     0.000 C 
ENDROOT
BRANCH   1   2
ATOM      2  C   UNL     1      -1.581  -9.238 -42.350  1.00  0.00     0.000 C 
BRANCH   2   3
ATOM      3  C   UNL     1      -0.070  -9.449 -42.538  1.00  0.00     0.006 C 
BRANCH   3   4
ATOM      4  C   UNL     1       0.316 -10.932 -42.602  1.00  0.00     0.053 C 
BRANCH   4   5
ATOM      5  C   UNL     1       1.550 -11.184 -41.795  1.00  0.00     0.041 C 
ATOM      6  O   UNL     1       2.412 -10.276 -41.653  1.00  0.00    -0.550 OA
ATOM      7  O   UNL     1       1.774 -12.438 -41.239  1.00  0.00    -0.550 OA
ENDBRANCH   4   5
ENDBRANCH   3   4
ENDBRANCH   2   3
ENDBRANCH   1   2
BRANCH   1   8
ATOM      8  C   UNL     1      -1.897  -8.316 -40.016  1.00  0.00     0.000 C 
BRANCH   8   9
ATOM      9  C   UNL     1      -0.689  -8.463 -39.081  1.00  0.00    -0.000 C 
BRANCH   9  10
ATOM     10  C   UNL     1      -0.715  -7.469 -37.907  1.00  0.00    -0.000 C 
BRANCH  10  11
ATOM     11  C   UNL     1      -0.422  -8.082 -36.523  1.00  0.00    -0.000 C 
BRANCH  11  12
ATOM     12  C   UNL     1      -0.882  -9.540 -36.348  1.00  0.00    -0.003 C 
ATOM     13  C   UNL     1      -0.191 -10.247 -35.183  1.00  0.00     0.004 C 
ENDBRANCH  11  12
ENDBRANCH  10  11
ENDBRANCH   9  10
ENDBRANCH   8   9
ENDBRANCH   1   8
TORSDOF 9
ENDMDL
