MODEL 1
REMARK VINA RESULT:    -6.250      0.000      0.000
REMARK INTER + INTRA:          -7.609
REMARK INTER:                  -7.346
REMARK INTRA:                  -0.263
REMARK UNBOUND:                -0.263
REMARK SMILES O=c1cc(-c2ccc(O)c(O)c2)oc2cc(O)cc(O)c12
REMARK SMILES IDX 4 1 3 2 2 3 1 4 21 5 19 6 18 7 16 8 15 9 14 10 13 11 5 12
REMARK SMILES IDX 6 13 7 14 8 15 12 16 10 17 9 18 11 20 20 22 17 24
REMARK H PARENT 9 19 11 21 20 23 17 25
REMARK Flexibility Score: inf
ROOT
ATOM      1  C   UNL     1      14.571  55.959  33.960  1.00  0.00     0.138 A 
ATOM      2  C   UNL     1      14.458  55.728  32.581  1.00  0.00     0.100 A 
ATOM      3  C   UNL     1      14.995  56.648  31.680  1.00  0.00     0.197 A 
ATOM      4  O   UNL     1      14.927  56.384  30.452  1.00  0.00    -0.289 OA
ATOM      5  C   UNL     1      15.618  57.825  32.163  1.00  0.00     0.107 A 
ATOM      6  C   UNL     1      16.171  58.850  31.338  1.00  0.00     0.134 A 
ATOM      7  C   UNL     1      16.850  59.922  31.931  1.00  0.00     0.093 A 
ATOM      8  C   UNL     1      16.946  60.036  33.318  1.00  0.00     0.123 A 
ATOM      9  C   UNL     1      16.365  59.066  34.135  1.00  0.00     0.094 A 
ATOM     10  C   UNL     1      15.711  57.966  33.573  1.00  0.00     0.146 A 
ATOM     11  O   UNL     1      15.188  57.055  34.387  1.00  0.00    -0.456 OA
ENDROOT
BRANCH   1  12
ATOM     12  C   UNL     1      14.015  55.015  34.961  1.00  0.00     0.021 A 
ATOM     13  C   UNL     1      12.818  55.339  35.625  1.00  0.00     0.016 A 
ATOM     14  C   UNL     1      12.276  54.473  36.577  1.00  0.00     0.051 A 
ATOM     15  C   UNL     1      12.927  53.273  36.892  1.00  0.00     0.157 A 
ATOM     16  C   UNL     1      14.671  53.814  35.293  1.00  0.00     0.062 A 
ATOM     17  C   UNL     1      14.131  52.946  36.249  1.00  0.00     0.158 A 
BRANCH  15  18
ATOM     18  O   UNL     1      12.382  52.410  37.842  1.00  0.00    -0.504 OA
ATOM     19  H   UNL     1      12.858  51.560  38.121  1.00  0.00     0.293 HD
ENDBRANCH  15  18
BRANCH  17  20
ATOM     20  O   UNL     1      14.808  51.764  36.549  1.00  0.00    -0.504 OA
ATOM     21  H   UNL     1      15.820  51.704  36.534  1.00  0.00     0.293 HD
ENDBRANCH  17  20
ENDBRANCH   1  12
BRANCH   6  22
ATOM     22  O   UNL     1      16.065  58.877  29.944  1.00  0.00    -0.507 OA
ATOM     23  H   UNL     1      16.841  58.876  29.303  1.00  0.00     0.293 HD
ENDBRANCH   6  22
BRANCH   8  24
ATOM     24  O   UNL     1      17.615  61.125  33.874  1.00  0.00    -0.508 OA
ATOM     25  H   UNL     1      18.550  61.378  33.578  1.00  0.00     0.293 HD
ENDBRANCH   8  24
TORSDOF 5
ENDMDL
MODEL 2
REMARK VINA RESULT:    -5.932      0.653      1.469
REMARK INTER + INTRA:          -7.236
REMARK INTER:                  -6.973
REMARK INTRA:                  -0.263
REMARK UNBOUND:                -0.263
REMARK SMILES O=c1cc(-c2ccc(O)c(O)c2)oc2cc(O)cc(O)c12
REMARK SMILES IDX 4 1 3 2 2 3 1 4 21 5 19 6 18 7 16 8 15 9 14 10 13 11 5 12
REMARK SMILES IDX 6 13 7 14 8 15 12 16 10 17 9 18 11 20 20 22 17 24
REMARK H PARENT 9 19 11 21 20 23 17 25
REMARK Flexibility Score: inf
ROOT
ATOM      1  C   UNL     1      14.625  55.974  33.806  1.00  0.00     0.138 A 
ATOM      2  C   UNL     1      14.483  55.716  32.436  1.00  0.00     0.100 A 
ATOM      3  C   UNL     1      15.006  56.615  31.506  1.00  0.00     0.197 A 
ATOM      4  O   UNL     1      14.912  56.326  30.285  1.00  0.00    -0.289 OA
ATOM      5  C   UNL     1      15.643  57.799  31.951  1.00  0.00     0.107 A 
ATOM      6  C   UNL     1      16.183  58.805  31.095  1.00  0.00     0.134 A 
ATOM      7  C   UNL     1      16.877  59.885  31.653  1.00  0.00     0.093 A 
ATOM      8  C   UNL     1      17.001  60.027  33.035  1.00  0.00     0.123 A 
ATOM      9  C   UNL     1      16.433  59.076  33.882  1.00  0.00     0.094 A 
ATOM     10  C   UNL     1      15.764  57.968  33.357  1.00  0.00     0.146 A 
ATOM     11  O   UNL     1      15.254  57.077  34.199  1.00  0.00    -0.456 OA
ENDROOT
BRANCH   1  12
ATOM     12  C   UNL     1      14.085  55.054  34.838  1.00  0.00     0.021 A 
ATOM     13  C   UNL     1      14.935  54.097  35.422  1.00  0.00     0.016 A 
ATOM     14  C   UNL     1      14.452  53.213  36.390  1.00  0.00     0.051 A 
ATOM     15  C   UNL     1      13.109  53.263  36.784  1.00  0.00     0.157 A 
ATOM     16  C   UNL     1      12.733  55.088  35.229  1.00  0.00     0.062 A 
ATOM     17  C   UNL     1      12.246  54.202  36.197  1.00  0.00     0.158 A 
BRANCH  15  18
ATOM     18  O   UNL     1      12.630  52.380  37.752  1.00  0.00    -0.504 OA
ATOM     19  H   UNL     1      11.873  52.635  38.374  1.00  0.00     0.293 HD
ENDBRANCH  15  18
BRANCH  17  20
ATOM     20  O   UNL     1      10.901  54.268  36.560  1.00  0.00    -0.504 OA
ATOM     21  H   UNL     1      10.187  54.606  35.925  1.00  0.00     0.293 HD
ENDBRANCH  17  20
ENDBRANCH   1  12
BRANCH   6  22
ATOM     22  O   UNL     1      16.048  58.804  29.703  1.00  0.00    -0.507 OA
ATOM     23  H   UNL     1      15.525  59.481  29.170  1.00  0.00     0.293 HD
ENDBRANCH   6  22
BRANCH   8  24
ATOM     24  O   UNL     1      17.686  61.125  33.554  1.00  0.00    -0.508 OA
ATOM     25  H   UNL     1      18.467  61.542  33.063  1.00  0.00     0.293 HD
ENDBRANCH   8  24
TORSDOF 5
ENDMDL
MODEL 3
REMARK VINA RESULT:    -5.292      1.839      2.219
REMARK INTER + INTRA:          -6.484
REMARK INTER:                  -6.189
REMARK INTRA:                  -0.294
REMARK UNBOUND:                -0.263
REMARK SMILES O=c1cc(-c2ccc(O)c(O)c2)oc2cc(O)cc(O)c12
REMARK SMILES IDX 4 1 3 2 2 3 1 4 21 5 19 6 18 7 16 8 15 9 14 10 13 11 5 12
REMARK SMILES IDX 6 13 7 14 8 15 12 16 10 17 9 18 11 20 20 22 17 24
REMARK H PARENT 9 19 11 21 20 23 17 25
REMARK Flexibility Score: inf
ROOT
ATOM      1  C   UNL     1      14.253  56.267  34.043  1.00  0.00     0.138 A 
ATOM      2  C   UNL     1      15.552  56.256  33.515  1.00  0.00     0.100 A 
ATOM      3  C   UNL     1      15.933  57.236  32.597  1.00  0.00     0.197 A 
ATOM      4  O   UNL     1      17.122  57.232  32.186  1.00  0.00    -0.289 OA
ATOM      5  C   UNL     1      14.996  58.211  32.178  1.00  0.00     0.107 A 
ATOM      6  C   UNL     1      15.261  59.238  31.222  1.00  0.00     0.134 A 
ATOM      7  C   UNL     1      14.283  60.206  30.961  1.00  0.00     0.093 A 
ATOM      8  C   UNL     1      13.033  60.153  31.576  1.00  0.00     0.123 A 
ATOM      9  C   UNL     1      12.745  59.125  32.474  1.00  0.00     0.094 A 
ATOM     10  C   UNL     1      13.711  58.163  32.782  1.00  0.00     0.146 A 
ATOM     11  O   UNL     1      13.402  57.212  33.657  1.00  0.00    -0.456 OA
ENDROOT
BRANCH   1  12
ATOM     12  C   UNL     1      13.794  55.247  35.019  1.00  0.00     0.021 A 
ATOM     13  C   UNL     1      12.623  55.480  35.761  1.00  0.00     0.016 A 
ATOM     14  C   UNL     1      12.172  54.541  36.692  1.00  0.00     0.051 A 
ATOM     15  C   UNL     1      12.890  53.357  36.905  1.00  0.00     0.157 A 
ATOM     16  C   UNL     1      14.518  54.061  35.248  1.00  0.00     0.062 A 
ATOM     17  C   UNL     1      14.069  53.120  36.182  1.00  0.00     0.158 A 
BRANCH  15  18
ATOM     18  O   UNL     1      12.436  52.421  37.833  1.00  0.00    -0.504 OA
ATOM     19  H   UNL     1      11.648  51.816  37.635  1.00  0.00     0.293 HD
ENDBRANCH  15  18
BRANCH  17  20
ATOM     20  O   UNL     1      14.812  51.956  36.379  1.00  0.00    -0.504 OA
ATOM     21  H   UNL     1      15.775  51.872  36.073  1.00  0.00     0.293 HD
ENDBRANCH  17  20
ENDBRANCH   1  12
BRANCH   6  22
ATOM     22  O   UNL     1      16.448  59.339  30.491  1.00  0.00    -0.507 OA
ATOM     23  H   UNL     1      16.520  59.689  29.549  1.00  0.00     0.293 HD
ENDBRANCH   6  22
BRANCH   8  24
ATOM     24  O   UNL     1      12.079  61.125  31.279  1.00  0.00    -0.508 OA
ATOM     25  H   UNL     1      11.277  61.280  31.879  1.00  0.00     0.293 HD
ENDBRANCH   8  24
TORSDOF 5
ENDMDL
MODEL 4
REMARK VINA RESULT:    -5.251      1.351      2.997
REMARK INTER + INTRA:          -6.435
REMARK INTER:                  -6.167
REMARK INTRA:                  -0.268
REMARK UNBOUND:                -0.263
REMARK SMILES O=c1cc(-c2ccc(O)c(O)c2)oc2cc(O)cc(O)c12
REMARK SMILES IDX 4 1 3 2 2 3 1 4 21 5 19 6 18 7 16 8 15 9 14 10 13 11 5 12
REMARK SMILES IDX 6 13 7 14 8 15 12 16 10 17 9 18 11 20 20 22 17 24
REMARK H PARENT 9 19 11 21 20 23 17 25
REMARK Flexibility Score: inf
ROOT
ATOM      1  C   UNL     1      14.344  55.977  33.825  1.00  0.00     0.138 A 
ATOM      2  C   UNL     1      14.985  57.184  34.138  1.00  0.00     0.100 A 
ATOM      3  C   UNL     1      15.412  58.026  33.110  1.00  0.00     0.197 A 
ATOM      4  O   UNL     1      15.932  59.128  33.425  1.00  0.00    -0.289 OA
ATOM      5  C   UNL     1      15.227  57.640  31.761  1.00  0.00     0.107 A 
ATOM      6  C   UNL     1      15.652  58.401  30.630  1.00  0.00     0.134 A 
ATOM      7  C   UNL     1      15.325  57.962  29.341  1.00  0.00     0.093 A 
ATOM      8  C   UNL     1      14.642  56.764  29.139  1.00  0.00     0.123 A 
ATOM      9  C   UNL     1      14.266  55.987  30.234  1.00  0.00     0.094 A 
ATOM     10  C   UNL     1      14.546  56.413  31.535  1.00  0.00     0.146 A 
ATOM     11  O   UNL     1      14.154  55.652  32.551  1.00  0.00    -0.456 OA
ENDROOT
BRANCH   1  12
ATOM     12  C   UNL     1      13.873  55.043  34.878  1.00  0.00     0.021 A 
ATOM     13  C   UNL     1      12.702  55.344  35.595  1.00  0.00     0.016 A 
ATOM     14  C   UNL     1      12.240  54.486  36.596  1.00  0.00     0.051 A 
ATOM     15  C   UNL     1      12.947  53.318  36.906  1.00  0.00     0.157 A 
ATOM     16  C   UNL     1      14.586  53.873  35.204  1.00  0.00     0.062 A 
ATOM     17  C   UNL     1      14.126  53.013  36.209  1.00  0.00     0.158 A 
BRANCH  15  18
ATOM     18  O   UNL     1      12.482  52.462  37.905  1.00  0.00    -0.504 OA
ATOM     19  H   UNL     1      11.637  51.917  37.786  1.00  0.00     0.293 HD
ENDBRANCH  15  18
BRANCH  17  20
ATOM     20  O   UNL     1      14.858  51.862  36.502  1.00  0.00    -0.504 OA
ATOM     21  H   UNL     1      14.440  50.939  36.488  1.00  0.00     0.293 HD
ENDBRANCH  17  20
ENDBRANCH   1  12
BRANCH   6  22
ATOM     22  O   UNL     1      16.409  59.573  30.715  1.00  0.00    -0.507 OA
ATOM     23  H   UNL     1      17.376  59.620  30.994  1.00  0.00     0.293 HD
ENDBRANCH   6  22
BRANCH   8  24
ATOM     24  O   UNL     1      14.348  56.351  27.840  1.00  0.00    -0.508 OA
ATOM     25  H   UNL     1      15.075  56.232  27.145  1.00  0.00     0.293 HD
ENDBRANCH   8  24
TORSDOF 5
ENDMDL
MODEL 5
REMARK VINA RESULT:    -5.126      2.666      3.672
REMARK INTER + INTRA:          -6.288
REMARK INTER:                  -6.025
REMARK INTRA:                  -0.263
REMARK UNBOUND:                -0.263
REMARK SMILES O=c1cc(-c2ccc(O)c(O)c2)oc2cc(O)cc(O)c12
REMARK SMILES IDX 4 1 3 2 2 3 1 4 21 5 19 6 18 7 16 8 15 9 14 10 13 11 5 12
REMARK SMILES IDX 6 13 7 14 8 15 12 16 10 17 9 18 11 20 20 22 17 24
REMARK H PARENT 9 19 11 21 20 23 17 25
REMARK Flexibility Score: inf
ROOT
ATOM      1  C   UNL     1      15.587  56.010  33.072  1.00  0.00     0.138 A 
ATOM      2  C   UNL     1      16.886  56.480  32.835  1.00  0.00     0.100 A 
ATOM      3  C   UNL     1      17.175  57.833  33.014  1.00  0.00     0.197 A 
ATOM      4  O   UNL     1      18.363  58.213  32.848  1.00  0.00    -0.289 OA
ATOM      5  C   UNL     1      16.147  58.728  33.399  1.00  0.00     0.107 A 
ATOM      6  C   UNL     1      16.316  60.134  33.579  1.00  0.00     0.134 A 
ATOM      7  C   UNL     1      15.247  60.901  34.057  1.00  0.00     0.093 A 
ATOM      8  C   UNL     1      14.001  60.326  34.307  1.00  0.00     0.123 A 
ATOM      9  C   UNL     1      13.811  58.963  34.087  1.00  0.00     0.094 A 
ATOM     10  C   UNL     1      14.867  58.162  33.643  1.00  0.00     0.146 A 
ATOM     11  O   UNL     1      14.647  56.864  33.463  1.00  0.00    -0.456 OA
ENDROOT
BRANCH   1  12
ATOM     12  C   UNL     1      15.224  54.582  32.894  1.00  0.00     0.021 A 
ATOM     13  C   UNL     1      15.166  53.739  34.018  1.00  0.00     0.016 A 
ATOM     14  C   UNL     1      14.834  52.389  33.878  1.00  0.00     0.051 A 
ATOM     15  C   UNL     1      14.566  51.855  32.612  1.00  0.00     0.157 A 
ATOM     16  C   UNL     1      14.966  54.035  31.622  1.00  0.00     0.062 A 
ATOM     17  C   UNL     1      14.636  52.682  31.479  1.00  0.00     0.158 A 
BRANCH  15  18
ATOM     18  O   UNL     1      14.233  50.508  32.475  1.00  0.00    -0.504 OA
ATOM     19  H   UNL     1      14.123  49.905  33.282  1.00  0.00     0.293 HD
ENDBRANCH  15  18
BRANCH  17  20
ATOM     20  O   UNL     1      14.385  52.178  30.203  1.00  0.00    -0.504 OA
ATOM     21  H   UNL     1      14.109  51.215  30.049  1.00  0.00     0.293 HD
ENDBRANCH  17  20
ENDBRANCH   1  12
BRANCH   6  22
ATOM     22  O   UNL     1      17.495  60.825  33.284  1.00  0.00    -0.507 OA
ATOM     23  H   UNL     1      17.984  61.434  33.920  1.00  0.00     0.293 HD
ENDBRANCH   6  22
BRANCH   8  24
ATOM     24  O   UNL     1      12.956  61.125  34.767  1.00  0.00    -0.508 OA
ATOM     25  H   UNL     1      12.081  61.197  34.260  1.00  0.00     0.293 HD
ENDBRANCH   8  24
TORSDOF 5
ENDMDL
MODEL 6
REMARK VINA RESULT:    -5.074      3.474      6.937
REMARK INTER + INTRA:          -6.227
REMARK INTER:                  -5.963
REMARK INTRA:                  -0.264
REMARK UNBOUND:                -0.263
REMARK SMILES O=c1cc(-c2ccc(O)c(O)c2)oc2cc(O)cc(O)c12
REMARK SMILES IDX 4 1 3 2 2 3 1 4 21 5 19 6 18 7 16 8 15 9 14 10 13 11 5 12
REMARK SMILES IDX 6 13 7 14 8 15 12 16 10 17 9 18 11 20 20 22 17 24
REMARK H PARENT 9 19 11 21 20 23 17 25
REMARK Flexibility Score: inf
ROOT
ATOM      1  C   UNL     1      15.373  54.890  31.508  1.00  0.00     0.138 A 
ATOM      2  C   UNL     1      15.232  54.893  30.113  1.00  0.00     0.100 A 
ATOM      3  C   UNL     1      14.855  53.722  29.454  1.00  0.00     0.197 A 
ATOM      4  O   UNL     1      14.682  53.772  28.209  1.00  0.00    -0.289 OA
ATOM      5  C   UNL     1      14.652  52.532  30.194  1.00  0.00     0.107 A 
ATOM      6  C   UNL     1      14.298  51.271  29.627  1.00  0.00     0.134 A 
ATOM      7  C   UNL     1      14.028  50.187  30.471  1.00  0.00     0.093 A 
ATOM      8  C   UNL     1      14.154  50.300  31.855  1.00  0.00     0.123 A 
ATOM      9  C   UNL     1      14.548  51.515  32.417  1.00  0.00     0.094 A 
ATOM     10  C   UNL     1      14.792  52.625  31.605  1.00  0.00     0.146 A 
ATOM     11  O   UNL     1      15.147  53.768  32.183  1.00  0.00    -0.456 OA
ENDROOT
BRANCH   1  12
ATOM     12  C   UNL     1      15.776  56.106  32.258  1.00  0.00     0.021 A 
ATOM     13  C   UNL     1      14.821  56.785  33.035  1.00  0.00     0.016 A 
ATOM     14  C   UNL     1      15.171  57.936  33.746  1.00  0.00     0.051 A 
ATOM     15  C   UNL     1      16.478  58.434  33.684  1.00  0.00     0.157 A 
ATOM     16  C   UNL     1      17.085  56.620  32.190  1.00  0.00     0.062 A 
ATOM     17  C   UNL     1      17.437  57.774  32.899  1.00  0.00     0.158 A 
BRANCH  15  18
ATOM     18  O   UNL     1      16.825  59.582  34.396  1.00  0.00    -0.504 OA
ATOM     19  H   UNL     1      17.792  59.847  34.537  1.00  0.00     0.293 HD
ENDBRANCH  15  18
BRANCH  17  20
ATOM     20  O   UNL     1      18.745  58.252  32.808  1.00  0.00    -0.504 OA
ATOM     21  H   UNL     1      19.401  58.177  33.577  1.00  0.00     0.293 HD
ENDBRANCH  17  20
ENDBRANCH   1  12
BRANCH   6  22
ATOM     22  O   UNL     1      14.220  51.024  28.253  1.00  0.00    -0.507 OA
ATOM     23  H   UNL     1      13.376  51.055  27.705  1.00  0.00     0.293 HD
ENDBRANCH   6  22
BRANCH   8  24
ATOM     24  O   UNL     1      13.892  49.195  32.662  1.00  0.00    -0.508 OA
ATOM     25  H   UNL     1      13.076  49.158  33.261  1.00  0.00     0.293 HD
ENDBRANCH   8  24
TORSDOF 5
ENDMDL
MODEL 7
REMARK VINA RESULT:    -5.069      3.206      7.032
REMARK INTER + INTRA:          -6.221
REMARK INTER:                  -5.944
REMARK INTRA:                  -0.277
REMARK UNBOUND:                -0.263
REMARK SMILES O=c1cc(-c2ccc(O)c(O)c2)oc2cc(O)cc(O)c12
REMARK SMILES IDX 4 1 3 2 2 3 1 4 21 5 19 6 18 7 16 8 15 9 14 10 13 11 5 12
REMARK SMILES IDX 6 13 7 14 8 15 12 16 10 17 9 18 11 20 20 22 17 24
REMARK H PARENT 9 19 11 21 20 23 17 25
REMARK Flexibility Score: inf
ROOT
ATOM      1  C   UNL     1      15.396  54.810  32.709  1.00  0.00     0.138 A 
ATOM      2  C   UNL     1      15.114  53.889  33.727  1.00  0.00     0.100 A 
ATOM      3  C   UNL     1      14.767  52.578  33.396  1.00  0.00     0.197 A 
ATOM      4  O   UNL     1      14.575  51.761  34.333  1.00  0.00    -0.289 OA
ATOM      5  C   UNL     1      14.667  52.199  32.035  1.00  0.00     0.107 A 
ATOM      6  C   UNL     1      14.288  50.901  31.578  1.00  0.00     0.134 A 
ATOM      7  C   UNL     1      14.320  50.617  30.207  1.00  0.00     0.093 A 
ATOM      8  C   UNL     1      14.660  51.596  29.274  1.00  0.00     0.123 A 
ATOM      9  C   UNL     1      14.983  52.882  29.707  1.00  0.00     0.094 A 
ATOM     10  C   UNL     1      14.994  53.189  31.070  1.00  0.00     0.146 A 
ATOM     11  O   UNL     1      15.326  54.421  31.441  1.00  0.00    -0.456 OA
ENDROOT
BRANCH   1  12
ATOM     12  C   UNL     1      15.767  56.217  33.005  1.00  0.00     0.021 A 
ATOM     13  C   UNL     1      14.858  57.040  33.692  1.00  0.00     0.016 A 
ATOM     14  C   UNL     1      15.178  58.370  33.978  1.00  0.00     0.051 A 
ATOM     15  C   UNL     1      16.408  58.903  33.571  1.00  0.00     0.157 A 
ATOM     16  C   UNL     1      16.996  56.764  32.587  1.00  0.00     0.062 A 
ATOM     17  C   UNL     1      17.317  58.097  32.870  1.00  0.00     0.158 A 
BRANCH  15  18
ATOM     18  O   UNL     1      16.725  60.230  33.859  1.00  0.00    -0.504 OA
ATOM     19  H   UNL     1      17.200  60.820  33.186  1.00  0.00     0.293 HD
ENDBRANCH  15  18
BRANCH  17  20
ATOM     20  O   UNL     1      18.545  58.601  32.442  1.00  0.00    -0.504 OA
ATOM     21  H   UNL     1      19.104  58.134  31.737  1.00  0.00     0.293 HD
ENDBRANCH  17  20
ENDBRANCH   1  12
BRANCH   6  22
ATOM     22  O   UNL     1      13.855  49.870  32.417  1.00  0.00    -0.507 OA
ATOM     23  H   UNL     1      13.309  49.995  33.254  1.00  0.00     0.293 HD
ENDBRANCH   6  22
BRANCH   8  24
ATOM     24  O   UNL     1      14.665  51.281  27.917  1.00  0.00    -0.508 OA
ATOM     25  H   UNL     1      15.515  51.323  27.367  1.00  0.00     0.293 HD
ENDBRANCH   8  24
TORSDOF 5
ENDMDL
MODEL 8
REMARK VINA RESULT:    -5.068      3.136      6.815
REMARK INTER + INTRA:          -6.220
REMARK INTER:                  -5.907
REMARK INTRA:                  -0.313
REMARK UNBOUND:                -0.263
REMARK SMILES O=c1cc(-c2ccc(O)c(O)c2)oc2cc(O)cc(O)c12
REMARK SMILES IDX 4 1 3 2 2 3 1 4 21 5 19 6 18 7 16 8 15 9 14 10 13 11 5 12
REMARK SMILES IDX 6 13 7 14 8 15 12 16 10 17 9 18 11 20 20 22 17 24
REMARK H PARENT 9 19 11 21 20 23 17 25
REMARK Flexibility Score: inf
ROOT
ATOM      1  C   UNL     1      14.414  55.727  32.850  1.00  0.00     0.138 A 
ATOM      2  C   UNL     1      13.014  55.792  32.815  1.00  0.00     0.100 A 
ATOM      3  C   UNL     1      12.275  54.633  32.570  1.00  0.00     0.197 A 
ATOM      4  O   UNL     1      11.020  54.714  32.600  1.00  0.00    -0.289 OA
ATOM      5  C   UNL     1      12.944  53.410  32.323  1.00  0.00     0.107 A 
ATOM      6  C   UNL     1      12.297  52.172  32.028  1.00  0.00     0.134 A 
ATOM      7  C   UNL     1      13.062  51.007  31.900  1.00  0.00     0.093 A 
ATOM      8  C   UNL     1      14.453  51.043  31.999  1.00  0.00     0.123 A 
ATOM      9  C   UNL     1      15.099  52.255  32.237  1.00  0.00     0.094 A 
ATOM     10  C   UNL     1      14.363  53.430  32.404  1.00  0.00     0.146 A 
ATOM     11  O   UNL     1      15.018  54.561  32.647  1.00  0.00    -0.456 OA
ENDROOT
BRANCH   1  12
ATOM     12  C   UNL     1      15.249  56.928  33.103  1.00  0.00     0.021 A 
ATOM     13  C   UNL     1      14.656  58.076  33.659  1.00  0.00     0.016 A 
ATOM     14  C   UNL     1      15.417  59.223  33.901  1.00  0.00     0.051 A 
ATOM     15  C   UNL     1      16.780  59.246  33.581  1.00  0.00     0.157 A 
ATOM     16  C   UNL     1      16.617  56.964  32.771  1.00  0.00     0.062 A 
ATOM     17  C   UNL     1      17.380  58.113  33.010  1.00  0.00     0.158 A 
BRANCH  15  18
ATOM     18  O   UNL     1      17.536  60.392  33.825  1.00  0.00    -0.504 OA
ATOM     19  H   UNL     1      17.101  61.296  33.965  1.00  0.00     0.293 HD
ENDBRANCH  15  18
BRANCH  17  20
ATOM     20  O   UNL     1      18.733  58.110  32.670  1.00  0.00    -0.504 OA
ATOM     21  H   UNL     1      19.121  57.444  32.012  1.00  0.00     0.293 HD
ENDBRANCH  17  20
ENDBRANCH   1  12
BRANCH   6  22
ATOM     22  O   UNL     1      10.919  52.037  31.831  1.00  0.00    -0.507 OA
ATOM     23  H   UNL     1      10.207  52.374  32.459  1.00  0.00     0.293 HD
ENDBRANCH   6  22
BRANCH   8  24
ATOM     24  O   UNL     1      15.183  49.865  31.849  1.00  0.00    -0.508 OA
ATOM     25  H   UNL     1      14.849  49.105  31.269  1.00  0.00     0.293 HD
ENDBRANCH   8  24
TORSDOF 5
ENDMDL
MODEL 9
REMARK VINA RESULT:    -5.054      2.700      6.877
REMARK INTER + INTRA:          -6.203
REMARK INTER:                  -5.939
REMARK INTRA:                  -0.264
REMARK UNBOUND:                -0.263
REMARK SMILES O=c1cc(-c2ccc(O)c(O)c2)oc2cc(O)cc(O)c12
REMARK SMILES IDX 4 1 3 2 2 3 1 4 21 5 19 6 18 7 16 8 15 9 14 10 13 11 5 12
REMARK SMILES IDX 6 13 7 14 8 15 12 16 10 17 9 18 11 20 20 22 17 24
REMARK H PARENT 9 19 11 21 20 23 17 25
REMARK Flexibility Score: inf
ROOT
ATOM      1  C   UNL     1      15.664  55.774  32.838  1.00  0.00     0.138 A 
ATOM      2  C   UNL     1      15.369  54.871  33.869  1.00  0.00     0.100 A 
ATOM      3  C   UNL     1      14.992  53.564  33.555  1.00  0.00     0.197 A 
ATOM      4  O   UNL     1      14.788  52.763  34.504  1.00  0.00    -0.289 OA
ATOM      5  C   UNL     1      14.875  53.170  32.200  1.00  0.00     0.107 A 
ATOM      6  C   UNL     1      14.466  51.875  31.761  1.00  0.00     0.134 A 
ATOM      7  C   UNL     1      14.483  51.574  30.393  1.00  0.00     0.093 A 
ATOM      8  C   UNL     1      14.838  52.535  29.447  1.00  0.00     0.123 A 
ATOM      9  C   UNL     1      15.192  53.819  29.862  1.00  0.00     0.094 A 
ATOM     10  C   UNL     1      15.218  54.142  31.221  1.00  0.00     0.146 A 
ATOM     11  O   UNL     1      15.578  55.371  31.575  1.00  0.00    -0.456 OA
ENDROOT
BRANCH   1  12
ATOM     12  C   UNL     1      16.067  57.176  33.114  1.00  0.00     0.021 A 
ATOM     13  C   UNL     1      17.411  57.554  32.947  1.00  0.00     0.016 A 
ATOM     14  C   UNL     1      17.819  58.864  33.207  1.00  0.00     0.051 A 
ATOM     15  C   UNL     1      16.893  59.817  33.649  1.00  0.00     0.157 A 
ATOM     16  C   UNL     1      15.145  58.136  33.573  1.00  0.00     0.062 A 
ATOM     17  C   UNL     1      15.552  59.449  33.836  1.00  0.00     0.158 A 
BRANCH  15  18
ATOM     18  O   UNL     1      17.303  61.125  33.906  1.00  0.00    -0.504 OA
ATOM     19  H   UNL     1      18.284  61.375  33.947  1.00  0.00     0.293 HD
ENDBRANCH  15  18
BRANCH  17  20
ATOM     20  O   UNL     1      14.608  60.372  34.287  1.00  0.00    -0.504 OA
ATOM     21  H   UNL     1      14.133  60.268  35.176  1.00  0.00     0.293 HD
ENDBRANCH  17  20
ENDBRANCH   1  12
BRANCH   6  22
ATOM     22  O   UNL     1      14.015  50.864  32.615  1.00  0.00    -0.507 OA
ATOM     23  H   UNL     1      14.514  50.521  33.420  1.00  0.00     0.293 HD
ENDBRANCH   6  22
BRANCH   8  24
ATOM     24  O   UNL     1      14.829  52.203  28.093  1.00  0.00    -0.508 OA
ATOM     25  H   UNL     1      14.098  51.625  27.696  1.00  0.00     0.293 HD
ENDBRANCH   8  24
TORSDOF 5
ENDMDL
