MODEL 1
REMARK VINA RESULT:    -2.822      0.000      0.000
REMARK INTER + INTRA:          -3.694
REMARK INTER:                  -3.564
REMARK INTRA:                  -0.130
REMARK UNBOUND:                -0.130
REMARK SMILES CSCC[C@@H]([NH3+])C(=O)[O-]
REMARK SMILES IDX 4 1 5 2 6 3 7 7 8 8 9 9 3 10 2 11 1 12
REMARK H PARENT 6 4 6 5 6 6
REMARK Flexibility Score: inf
ROOT
ATOM      1  C   UNL     1       6.659  -0.647  -0.566  1.00  0.00     0.082 C 
ENDROOT
BRANCH   1   2
ATOM      2  C   UNL     1       6.596   0.860  -0.903  1.00  0.00     0.228 C 
BRANCH   2   3
ATOM      3  N   UNL     1       6.968   1.123  -2.300  1.00  0.00    -0.350 N 
ATOM      4  H   UNL     1       8.003   1.042  -2.431  1.00  0.00     0.345 HD
ATOM      5  H   UNL     1       6.657   2.080  -2.581  1.00  0.00     0.345 HD
ATOM      6  H   UNL     1       6.490   0.439  -2.932  1.00  0.00     0.345 HD
ENDBRANCH   2   3
BRANCH   2   7
ATOM      7  C   UNL     1       5.212   1.382  -0.627  1.00  0.00     0.099 C 
ATOM      8  O   UNL     1       4.267   1.141  -1.424  1.00  0.00    -0.544 OA
ATOM      9  O   UNL     1       4.965   2.119   0.525  1.00  0.00    -0.544 OA
ENDBRANCH   2   7
ENDBRANCH   1   2
BRANCH   1  10
ATOM     10  C   UNL     1       7.605  -0.953   0.598  1.00  0.00     0.076 C 
BRANCH  10  11
ATOM     11  S   UNL     1       6.827  -2.163   1.722  1.00  0.00    -0.165 SA
ATOM     12  C   UNL     1       5.198  -2.093   0.912  1.00  0.00     0.085 C 
ENDBRANCH  10  11
ENDBRANCH   1  10
TORSDOF 5
ENDMDL
MODEL 2
REMARK VINA RESULT:    -2.788      2.037      2.474
REMARK INTER + INTRA:          -3.651
REMARK INTER:                  -3.508
REMARK INTRA:                  -0.143
REMARK UNBOUND:                -0.130
REMARK SMILES CSCC[C@@H]([NH3+])C(=O)[O-]
REMARK SMILES IDX 4 1 5 2 6 3 7 7 8 8 9 9 3 10 2 11 1 12
REMARK H PARENT 6 4 6 5 6 6
REMARK Flexibility Score: inf
ROOT
ATOM      1  C   UNL     1       7.217  -1.273   0.996  1.00  0.00     0.082 C 
ENDROOT
BRANCH   1   2
ATOM      2  C   UNL     1       6.493  -1.083  -0.355  1.00  0.00     0.228 C 
BRANCH   2   3
ATOM      3  N   UNL     1       5.169  -1.720  -0.358  1.00  0.00    -0.350 N 
ATOM      4  H   UNL     1       5.245  -2.735  -0.600  1.00  0.00     0.345 HD
ATOM      5  H   UNL     1       4.543  -1.246  -1.048  1.00  0.00     0.345 HD
ATOM      6  H   UNL     1       4.725  -1.627   0.584  1.00  0.00     0.345 HD
ENDBRANCH   2   3
BRANCH   2   7
ATOM      7  C   UNL     1       6.362   0.386  -0.657  1.00  0.00     0.099 C 
ATOM      8  O   UNL     1       5.877   1.173   0.198  1.00  0.00    -0.544 OA
ATOM      9  O   UNL     1       6.798   0.885  -1.879  1.00  0.00    -0.544 OA
ENDBRANCH   2   7
ENDBRANCH   1   2
BRANCH   1  10
ATOM     10  C   UNL     1       6.541  -2.319   1.887  1.00  0.00     0.076 C 
BRANCH  10  11
ATOM     11  S   UNL     1       5.737  -1.496   3.303  1.00  0.00    -0.165 SA
ATOM     12  C   UNL     1       4.128  -2.313   3.056  1.00  0.00     0.085 C 
ENDBRANCH  10  11
ENDBRANCH   1  10
TORSDOF 5
ENDMDL
MODEL 3
REMARK VINA RESULT:    -2.767      3.478      4.395
REMARK INTER + INTRA:          -3.625
REMARK INTER:                  -3.503
REMARK INTRA:                  -0.121
REMARK UNBOUND:                -0.130
REMARK SMILES CSCC[C@@H]([NH3+])C(=O)[O-]
REMARK SMILES IDX 4 1 5 2 6 3 7 7 8 8 9 9 3 10 2 11 1 12
REMARK H PARENT 6 4 6 5 6 6
REMARK Flexibility Score: inf
ROOT
ATOM      1  C   UNL     1       6.890  -2.214   1.759  1.00  0.00     0.082 C 
ENDROOT
BRANCH   1   2
ATOM      2  C   UNL     1       5.436  -1.871   2.153  1.00  0.00     0.228 C 
BRANCH   2   3
ATOM      3  N   UNL     1       4.586  -3.070   2.198  1.00  0.00    -0.350 N 
ATOM      4  H   UNL     1       3.666  -2.891   1.733  1.00  0.00     0.345 HD
ATOM      5  H   UNL     1       4.423  -3.358   3.188  1.00  0.00     0.345 HD
ATOM      6  H   UNL     1       5.064  -3.865   1.714  1.00  0.00     0.345 HD
ENDBRANCH   2   3
BRANCH   2   7
ATOM      7  C   UNL     1       5.423  -1.176   3.487  1.00  0.00     0.099 C 
ATOM      8  O   UNL     1       6.155  -1.584   4.427  1.00  0.00    -0.544 OA
ATOM      9  O   UNL     1       4.615  -0.062   3.683  1.00  0.00    -0.544 OA
ENDBRANCH   2   7
ENDBRANCH   1   2
BRANCH   1  10
ATOM     10  C   UNL     1       7.346  -1.482   0.494  1.00  0.00     0.076 C 
BRANCH  10  11
ATOM     11  S   UNL     1       5.895  -0.823  -0.395  1.00  0.00    -0.165 SA
ATOM     12  C   UNL     1       6.654   0.796  -0.739  1.00  0.00     0.085 C 
ENDBRANCH  10  11
ENDBRANCH   1  10
TORSDOF 5
ENDMDL
MODEL 4
REMARK VINA RESULT:    -2.766      3.879      5.065
REMARK INTER + INTRA:          -3.623
REMARK INTER:                  -3.565
REMARK INTRA:                  -0.058
REMARK UNBOUND:                -0.130
REMARK SMILES CSCC[C@@H]([NH3+])C(=O)[O-]
REMARK SMILES IDX 4 1 5 2 6 3 7 7 8 8 9 9 3 10 2 11 1 12
REMARK H PARENT 6 4 6 5 6 6
REMARK Flexibility Score: inf
ROOT
ATOM      1  C   UNL     1       4.886   1.768  -2.414  1.00  0.00     0.082 C 
ENDROOT
BRANCH   1   2
ATOM      2  C   UNL     1       6.156   0.891  -2.341  1.00  0.00     0.228 C 
BRANCH   2   3
ATOM      3  N   UNL     1       7.278   1.494  -3.074  1.00  0.00    -0.350 N 
ATOM      4  H   UNL     1       7.465   2.466  -2.734  1.00  0.00     0.345 HD
ATOM      5  H   UNL     1       7.068   1.519  -4.097  1.00  0.00     0.345 HD
ATOM      6  H   UNL     1       8.141   0.916  -2.944  1.00  0.00     0.345 HD
ENDBRANCH   2   3
BRANCH   2   7
ATOM      7  C   UNL     1       6.536   0.669  -0.902  1.00  0.00     0.099 C 
ATOM      8  O   UNL     1       6.082   1.419   0.002  1.00  0.00    -0.544 OA
ATOM      9  O   UNL     1       7.377  -0.383  -0.560  1.00  0.00    -0.544 OA
ENDBRANCH   2   7
ENDBRANCH   1   2
BRANCH   1  10
ATOM     10  C   UNL     1       4.831   2.623  -3.683  1.00  0.00     0.076 C 
BRANCH  10  11
ATOM     11  S   UNL     1       3.787   4.091  -3.392  1.00  0.00    -0.165 SA
ATOM     12  C   UNL     1       4.863   5.226  -4.325  1.00  0.00     0.085 C 
ENDBRANCH  10  11
ENDBRANCH   1  10
TORSDOF 5
ENDMDL
MODEL 5
REMARK VINA RESULT:    -2.760      3.244      4.122
REMARK INTER + INTRA:          -3.616
REMARK INTER:                  -3.470
REMARK INTRA:                  -0.145
REMARK UNBOUND:                -0.130
REMARK SMILES CSCC[C@@H]([NH3+])C(=O)[O-]
REMARK SMILES IDX 4 1 5 2 6 3 7 7 8 8 9 9 3 10 2 11 1 12
REMARK H PARENT 6 4 6 5 6 6
REMARK Flexibility Score: inf
ROOT
ATOM      1  C   UNL     1       5.354  -0.568  -0.367  1.00  0.00     0.082 C 
ENDROOT
BRANCH   1   2
ATOM      2  C   UNL     1       6.651  -1.346  -0.051  1.00  0.00     0.228 C 
BRANCH   2   3
ATOM      3  N   UNL     1       7.850  -0.566  -0.387  1.00  0.00    -0.350 N 
ATOM      4  H   UNL     1       7.623   0.453  -0.460  1.00  0.00     0.345 HD
ATOM      5  H   UNL     1       8.253  -0.897  -1.291  1.00  0.00     0.345 HD
ATOM      6  H   UNL     1       8.581  -0.700   0.350  1.00  0.00     0.345 HD
ENDBRANCH   2   3
BRANCH   2   7
ATOM      7  C   UNL     1       6.671  -1.728   1.404  1.00  0.00     0.099 C 
ATOM      8  O   UNL     1       7.250  -2.782   1.780  1.00  0.00    -0.544 OA
ATOM      9  O   UNL     1       6.066  -0.905   2.347  1.00  0.00    -0.544 OA
ENDBRANCH   2   7
ENDBRANCH   1   2
BRANCH   1  10
ATOM     10  C   UNL     1       5.626   0.820  -0.951  1.00  0.00     0.076 C 
BRANCH  10  11
ATOM     11  S   UNL     1       5.146   0.852  -2.712  1.00  0.00    -0.165 SA
ATOM     12  C   UNL     1       6.741   1.515  -3.289  1.00  0.00     0.085 C 
ENDBRANCH  10  11
ENDBRANCH   1  10
TORSDOF 5
ENDMDL
MODEL 6
REMARK VINA RESULT:    -2.748      2.842      3.286
REMARK INTER + INTRA:          -3.600
REMARK INTER:                  -3.425
REMARK INTRA:                  -0.176
REMARK UNBOUND:                -0.130
REMARK SMILES CSCC[C@@H]([NH3+])C(=O)[O-]
REMARK SMILES IDX 4 1 5 2 6 3 7 7 8 8 9 9 3 10 2 11 1 12
REMARK H PARENT 6 4 6 5 6 6
REMARK Flexibility Score: inf
ROOT
ATOM      1  C   UNL     1       5.865  -2.374   1.454  1.00  0.00     0.082 C 
ENDROOT
BRANCH   1   2
ATOM      2  C   UNL     1       5.750  -1.488   0.194  1.00  0.00     0.228 C 
BRANCH   2   3
ATOM      3  N   UNL     1       4.539  -0.656   0.220  1.00  0.00    -0.350 N 
ATOM      4  H   UNL     1       3.766  -1.109  -0.321  1.00  0.00     0.345 HD
ATOM      5  H   UNL     1       4.740   0.285  -0.185  1.00  0.00     0.345 HD
ATOM      6  H   UNL     1       4.225  -0.513   1.207  1.00  0.00     0.345 HD
ENDBRANCH   2   3
BRANCH   2   7
ATOM      7  C   UNL     1       6.973  -0.618   0.073  1.00  0.00     0.099 C 
ATOM      8  O   UNL     1       8.109  -1.134  -0.096  1.00  0.00    -0.544 OA
ATOM      9  O   UNL     1       6.849   0.765   0.126  1.00  0.00    -0.544 OA
ENDBRANCH   2   7
ENDBRANCH   1   2
BRANCH   1  10
ATOM     10  C   UNL     1       5.960  -1.555   2.745  1.00  0.00     0.076 C 
BRANCH  10  11
ATOM     11  S   UNL     1       4.508  -1.891   3.797  1.00  0.00    -0.165 SA
ATOM     12  C   UNL     1       4.022  -0.142   3.943  1.00  0.00     0.085 C 
ENDBRANCH  10  11
ENDBRANCH   1  10
TORSDOF 5
ENDMDL
MODEL 7
REMARK VINA RESULT:    -2.710      3.144      3.930
REMARK INTER + INTRA:          -3.552
REMARK INTER:                  -3.478
REMARK INTRA:                  -0.074
REMARK UNBOUND:                -0.130
REMARK SMILES CSCC[C@@H]([NH3+])C(=O)[O-]
REMARK SMILES IDX 4 1 5 2 6 3 7 7 8 8 9 9 3 10 2 11 1 12
REMARK H PARENT 6 4 6 5 6 6
REMARK Flexibility Score: inf
ROOT
ATOM      1  C   UNL     1       4.771   0.399   0.003  1.00  0.00     0.082 C 
ENDROOT
BRANCH   1   2
ATOM      2  C   UNL     1       5.999  -0.183  -0.733  1.00  0.00     0.228 C 
BRANCH   2   3
ATOM      3  N   UNL     1       6.648   0.821  -1.588  1.00  0.00    -0.350 N 
ATOM      4  H   UNL     1       7.688   0.702  -1.577  1.00  0.00     0.345 HD
ATOM      5  H   UNL     1       6.405   1.783  -1.262  1.00  0.00     0.345 HD
ATOM      6  H   UNL     1       6.305   0.727  -2.572  1.00  0.00     0.345 HD
ENDBRANCH   2   3
BRANCH   2   7
ATOM      7  C   UNL     1       6.982  -0.723   0.271  1.00  0.00     0.099 C 
ATOM      8  O   UNL     1       8.117  -1.125  -0.099  1.00  0.00    -0.544 OA
ATOM      9  O   UNL     1       6.649  -0.759   1.619  1.00  0.00    -0.544 OA
ENDBRANCH   2   7
ENDBRANCH   1   2
BRANCH   1  10
ATOM     10  C   UNL     1       4.718   1.928  -0.054  1.00  0.00     0.076 C 
BRANCH  10  11
ATOM     11  S   UNL     1       3.014   2.498   0.263  1.00  0.00    -0.165 SA
ATOM     12  C   UNL     1       3.439   3.396   1.789  1.00  0.00     0.085 C 
ENDBRANCH  10  11
ENDBRANCH   1  10
TORSDOF 5
ENDMDL
MODEL 8
REMARK VINA RESULT:    -2.697      5.687      6.425
REMARK INTER + INTRA:          -3.536
REMARK INTER:                  -3.405
REMARK INTRA:                  -0.130
REMARK UNBOUND:                -0.130
REMARK SMILES CSCC[C@@H]([NH3+])C(=O)[O-]
REMARK SMILES IDX 4 1 5 2 6 3 7 7 8 8 9 9 3 10 2 11 1 12
REMARK H PARENT 6 4 6 5 6 6
REMARK Flexibility Score: inf
ROOT
ATOM      1  C   UNL     1       1.338   3.824   2.043  1.00  0.00     0.082 C 
ENDROOT
BRANCH   1   2
ATOM      2  C   UNL     1       2.875   3.672   2.089  1.00  0.00     0.228 C 
BRANCH   2   3
ATOM      3  N   UNL     1       3.329   3.096   3.362  1.00  0.00    -0.350 N 
ATOM      4  H   UNL     1       2.516   2.764   3.931  1.00  0.00     0.345 HD
ATOM      5  H   UNL     1       3.866   3.806   3.907  1.00  0.00     0.345 HD
ATOM      6  H   UNL     1       3.969   2.289   3.181  1.00  0.00     0.345 HD
ENDBRANCH   2   3
BRANCH   2   7
ATOM      7  C   UNL     1       3.334   2.816   0.939  1.00  0.00     0.099 C 
ATOM      8  O   UNL     1       2.496   2.272   0.173  1.00  0.00    -0.544 OA
ATOM      9  O   UNL     1       4.692   2.637   0.705  1.00  0.00    -0.544 OA
ENDBRANCH   2   7
ENDBRANCH   1   2
BRANCH   1  10
ATOM     10  C   UNL     1       0.637   3.068   3.175  1.00  0.00     0.076 C 
BRANCH  10  11
ATOM     11  S   UNL     1      -0.616   1.939   2.478  1.00  0.00    -0.165 SA
ATOM     12  C   UNL     1      -1.855   2.276   3.769  1.00  0.00     0.085 C 
ENDBRANCH  10  11
ENDBRANCH   1  10
TORSDOF 5
ENDMDL
MODEL 9
REMARK VINA RESULT:    -2.671      3.487      4.261
REMARK INTER + INTRA:          -3.503
REMARK INTER:                  -3.287
REMARK INTRA:                  -0.216
REMARK UNBOUND:                -0.130
REMARK SMILES CSCC[C@@H]([NH3+])C(=O)[O-]
REMARK SMILES IDX 4 1 5 2 6 3 7 7 8 8 9 9 3 10 2 11 1 12
REMARK H PARENT 6 4 6 5 6 6
REMARK Flexibility Score: inf
ROOT
ATOM      1  C   UNL     1       4.978  -1.565  -0.470  1.00  0.00     0.082 C 
ENDROOT
BRANCH   1   2
ATOM      2  C   UNL     1       5.757  -0.992   0.734  1.00  0.00     0.228 C 
BRANCH   2   3
ATOM      3  N   UNL     1       5.037  -1.197   1.998  1.00  0.00    -0.350 N 
ATOM      4  H   UNL     1       5.701  -1.438   2.770  1.00  0.00     0.345 HD
ATOM      5  H   UNL     1       4.336  -1.964   1.892  1.00  0.00     0.345 HD
ATOM      6  H   UNL     1       4.515  -0.328   2.257  1.00  0.00     0.345 HD
ENDBRANCH   2   3
BRANCH   2   7
ATOM      7  C   UNL     1       7.120  -1.628   0.804  1.00  0.00     0.099 C 
ATOM      8  O   UNL     1       7.352  -2.552   1.628  1.00  0.00    -0.544 OA
ATOM      9  O   UNL     1       8.126  -1.211  -0.058  1.00  0.00    -0.544 OA
ENDBRANCH   2   7
ENDBRANCH   1   2
BRANCH   1  10
ATOM     10  C   UNL     1       4.565  -0.486  -1.474  1.00  0.00     0.076 C 
BRANCH  10  11
ATOM     11  S   UNL     1       5.297   1.116  -0.994  1.00  0.00    -0.165 SA
ATOM     12  C   UNL     1       6.556   1.105  -2.310  1.00  0.00     0.085 C 
ENDBRANCH  10  11
ENDBRANCH   1  10
TORSDOF 5
ENDMDL
