MODEL 1
REMARK VINA RESULT:    -2.760      0.000      0.000
REMARK INTER + INTRA:          -3.591
REMARK INTER:                  -3.405
REMARK INTRA:                  -0.186
REMARK UNBOUND:                -0.186
REMARK SMILES CCCCCC(=O)[O-]
REMARK SMILES IDX 4 1 5 2 6 3 7 4 8 5 3 6 2 7 1 8
REMARK H PARENT
REMARK Flexibility Score: inf
ROOT
ATOM      1  C   UNL     1      -2.403   8.093  40.029  1.00  0.00     0.006 C 
ENDROOT
BRANCH   1   2
ATOM      2  C   UNL     1      -2.519   9.124  38.899  1.00  0.00     0.053 C 
BRANCH   2   3
ATOM      3  C   UNL     1      -1.894   8.597  37.646  1.00  0.00     0.041 C 
ATOM      4  O   UNL     1      -2.243   9.050  36.525  1.00  0.00    -0.550 OA
ATOM      5  O   UNL     1      -0.890   7.639  37.720  1.00  0.00    -0.550 OA
ENDBRANCH   2   3
ENDBRANCH   1   2
BRANCH   1   6
ATOM      6  C   UNL     1      -3.772   7.603  40.536  1.00  0.00     0.000 C 
BRANCH   6   7
ATOM      7  C   UNL     1      -3.966   6.077  40.495  1.00  0.00    -0.003 C 
ATOM      8  C   UNL     1      -3.105   5.392  39.433  1.00  0.00     0.004 C 
ENDBRANCH   6   7
ENDBRANCH   1   6
TORSDOF 4
ENDMDL
MODEL 2
REMARK VINA RESULT:    -2.675      2.978      4.188
REMARK INTER + INTRA:          -3.486
REMARK INTER:                  -3.386
REMARK INTRA:                  -0.100
REMARK UNBOUND:                -0.186
REMARK SMILES CCCCCC(=O)[O-]
REMARK SMILES IDX 4 1 5 2 6 3 7 4 8 5 3 6 2 7 1 8
REMARK H PARENT
REMARK Flexibility Score: inf
ROOT
ATOM      1  C   UNL     1      -2.540   7.897  39.699  1.00  0.00     0.006 C 
ENDROOT
BRANCH   1   2
ATOM      2  C   UNL     1      -3.812   7.666  40.524  1.00  0.00     0.053 C 
BRANCH   2   3
ATOM      3  C   UNL     1      -3.500   7.708  41.987  1.00  0.00     0.041 C 
ATOM      4  O   UNL     1      -4.416   7.919  42.825  1.00  0.00    -0.550 OA
ATOM      5  O   UNL     1      -2.205   7.464  42.429  1.00  0.00    -0.550 OA
ENDBRANCH   2   3
ENDBRANCH   1   2
BRANCH   1   6
ATOM      6  C   UNL     1      -2.639   9.125  38.775  1.00  0.00     0.000 C 
BRANCH   6   7
ATOM      7  C   UNL     1      -1.837   9.013  37.466  1.00  0.00    -0.003 C 
ATOM      8  C   UNL     1      -1.461   7.574  37.114  1.00  0.00     0.004 C 
ENDBRANCH   6   7
ENDBRANCH   1   6
TORSDOF 4
ENDMDL
MODEL 3
REMARK VINA RESULT:    -2.663      2.451      3.848
REMARK INTER + INTRA:          -3.471
REMARK INTER:                  -3.277
REMARK INTRA:                  -0.195
REMARK UNBOUND:                -0.186
REMARK SMILES CCCCCC(=O)[O-]
REMARK SMILES IDX 4 1 5 2 6 3 7 4 8 5 3 6 2 7 1 8
REMARK H PARENT
REMARK Flexibility Score: inf
ROOT
ATOM      1  C   UNL     1      -2.649   7.844  41.163  1.00  0.00     0.006 C 
ENDROOT
BRANCH   1   2
ATOM      2  C   UNL     1      -3.972   7.273  40.638  1.00  0.00     0.053 C 
BRANCH   2   3
ATOM      3  C   UNL     1      -3.849   5.801  40.400  1.00  0.00     0.041 C 
ATOM      4  O   UNL     1      -3.413   5.372  39.299  1.00  0.00    -0.550 OA
ATOM      5  O   UNL     1      -4.167   4.904  41.412  1.00  0.00    -0.550 OA
ENDBRANCH   2   3
ENDBRANCH   1   2
BRANCH   1   6
ATOM      6  C   UNL     1      -1.750   8.401  40.044  1.00  0.00     0.000 C 
BRANCH   6   7
ATOM      7  C   UNL     1      -2.506   9.069  38.882  1.00  0.00    -0.003 C 
ATOM      8  C   UNL     1      -1.929   8.719  37.511  1.00  0.00     0.004 C 
ENDBRANCH   6   7
ENDBRANCH   1   6
TORSDOF 4
ENDMDL
MODEL 4
REMARK VINA RESULT:    -2.653      1.107      2.025
REMARK INTER + INTRA:          -3.460
REMARK INTER:                  -3.382
REMARK INTRA:                  -0.078
REMARK UNBOUND:                -0.186
REMARK SMILES CCCCCC(=O)[O-]
REMARK SMILES IDX 4 1 5 2 6 3 7 4 8 5 3 6 2 7 1 8
REMARK H PARENT
REMARK Flexibility Score: inf
ROOT
ATOM      1  C   UNL     1      -2.521   7.864  39.872  1.00  0.00     0.006 C 
ENDROOT
BRANCH   1   2
ATOM      2  C   UNL     1      -2.531   9.108  38.975  1.00  0.00     0.053 C 
BRANCH   2   3
ATOM      3  C   UNL     1      -1.751   8.856  37.724  1.00  0.00     0.041 C 
ATOM      4  O   UNL     1      -0.595   8.362  37.786  1.00  0.00    -0.550 OA
ATOM      5  O   UNL     1      -2.320   9.121  36.485  1.00  0.00    -0.550 OA
ENDBRANCH   2   3
ENDBRANCH   1   2
BRANCH   1   6
ATOM      6  C   UNL     1      -3.879   7.599  40.547  1.00  0.00     0.000 C 
BRANCH   6   7
ATOM      7  C   UNL     1      -3.793   6.917  41.924  1.00  0.00    -0.003 C 
ATOM      8  C   UNL     1      -3.386   7.876  43.043  1.00  0.00     0.004 C 
ENDBRANCH   6   7
ENDBRANCH   1   6
TORSDOF 4
ENDMDL
MODEL 5
REMARK VINA RESULT:    -2.613      1.765      2.706
REMARK INTER + INTRA:          -3.410
REMARK INTER:                  -3.263
REMARK INTRA:                  -0.147
REMARK UNBOUND:                -0.186
REMARK SMILES CCCCCC(=O)[O-]
REMARK SMILES IDX 4 1 5 2 6 3 7 4 8 5 3 6 2 7 1 8
REMARK H PARENT
REMARK Flexibility Score: inf
ROOT
ATOM      1  C   UNL     1      -1.692   8.432  37.701  1.00  0.00     0.006 C 
ENDROOT
BRANCH   1   2
ATOM      2  C   UNL     1      -0.722   7.290  38.027  1.00  0.00     0.053 C 
BRANCH   2   3
ATOM      3  C   UNL     1       0.650   7.609  37.522  1.00  0.00     0.041 C 
ATOM      4  O   UNL     1       0.953   8.792  37.216  1.00  0.00    -0.550 OA
ATOM      5  O   UNL     1       1.609   6.608  37.434  1.00  0.00    -0.550 OA
ENDBRANCH   2   3
ENDBRANCH   1   2
BRANCH   1   6
ATOM      6  C   UNL     1      -2.397   8.996  38.948  1.00  0.00     0.000 C 
BRANCH   6   7
ATOM      7  C   UNL     1      -2.388   8.062  40.171  1.00  0.00    -0.003 C 
ATOM      8  C   UNL     1      -3.785   7.604  40.587  1.00  0.00     0.004 C 
ENDBRANCH   6   7
ENDBRANCH   1   6
TORSDOF 4
ENDMDL
MODEL 6
REMARK VINA RESULT:    -2.579      1.317      1.967
REMARK INTER + INTRA:          -3.368
REMARK INTER:                  -3.103
REMARK INTRA:                  -0.264
REMARK UNBOUND:                -0.186
REMARK SMILES CCCCCC(=O)[O-]
REMARK SMILES IDX 4 1 5 2 6 3 7 4 8 5 3 6 2 7 1 8
REMARK H PARENT
REMARK Flexibility Score: inf
ROOT
ATOM      1  C   UNL     1      -2.464   8.758  39.114  1.00  0.00     0.006 C 
ENDROOT
BRANCH   1   2
ATOM      2  C   UNL     1      -1.131   8.477  38.410  1.00  0.00     0.053 C 
BRANCH   2   3
ATOM      3  C   UNL     1      -1.002   7.019  38.099  1.00  0.00     0.041 C 
ATOM      4  O   UNL     1      -0.065   6.345  38.603  1.00  0.00    -0.550 OA
ATOM      5  O   UNL     1      -1.944   6.394  37.293  1.00  0.00    -0.550 OA
ENDBRANCH   2   3
ENDBRANCH   1   2
BRANCH   1   6
ATOM      6  C   UNL     1      -2.601   8.017  40.457  1.00  0.00     0.000 C 
BRANCH   6   7
ATOM      7  C   UNL     1      -3.928   7.260  40.643  1.00  0.00    -0.003 C 
ATOM      8  C   UNL     1      -3.828   5.777  40.285  1.00  0.00     0.004 C 
ENDBRANCH   6   7
ENDBRANCH   1   6
TORSDOF 4
ENDMDL
MODEL 7
REMARK VINA RESULT:    -2.570      3.006      3.797
REMARK INTER + INTRA:          -3.356
REMARK INTER:                  -3.180
REMARK INTRA:                  -0.176
REMARK UNBOUND:                -0.186
REMARK SMILES CCCCCC(=O)[O-]
REMARK SMILES IDX 4 1 5 2 6 3 7 4 8 5 3 6 2 7 1 8
REMARK H PARENT
REMARK Flexibility Score: inf
ROOT
ATOM      1  C   UNL     1      -2.740   8.272  39.702  1.00  0.00     0.006 C 
ENDROOT
BRANCH   1   2
ATOM      2  C   UNL     1      -3.767   7.519  40.556  1.00  0.00     0.053 C 
BRANCH   2   3
ATOM      3  C   UNL     1      -3.501   7.742  42.011  1.00  0.00     0.041 C 
ATOM      4  O   UNL     1      -4.448   7.715  42.840  1.00  0.00    -0.550 OA
ATOM      5  O   UNL     1      -2.199   7.930  42.459  1.00  0.00    -0.550 OA
ENDBRANCH   2   3
ENDBRANCH   1   2
BRANCH   1   6
ATOM      6  C   UNL     1      -1.960   7.349  38.748  1.00  0.00     0.000 C 
BRANCH   6   7
ATOM      7  C   UNL     1      -2.051   5.850  39.083  1.00  0.00    -0.003 C 
ATOM      8  C   UNL     1      -2.541   5.002  37.910  1.00  0.00     0.004 C 
ENDBRANCH   6   7
ENDBRANCH   1   6
TORSDOF 4
ENDMDL
MODEL 8
REMARK VINA RESULT:    -2.451     10.267     12.198
REMARK INTER + INTRA:          -3.210
REMARK INTER:                  -3.100
REMARK INTRA:                  -0.110
REMARK UNBOUND:                -0.186
REMARK SMILES CCCCCC(=O)[O-]
REMARK SMILES IDX 4 1 5 2 6 3 7 4 8 5 3 6 2 7 1 8
REMARK H PARENT
REMARK Flexibility Score: inf
ROOT
ATOM      1  C   UNL     1       2.495   8.968  28.122  1.00  0.00     0.006 C 
ENDROOT
BRANCH   1   2
ATOM      2  C   UNL     1       1.582   7.792  28.489  1.00  0.00     0.053 C 
BRANCH   2   3
ATOM      3  C   UNL     1       1.240   7.831  29.945  1.00  0.00     0.041 C 
ATOM      4  O   UNL     1       1.481   6.836  30.680  1.00  0.00    -0.550 OA
ATOM      5  O   UNL     1       0.701   8.983  30.503  1.00  0.00    -0.550 OA
ENDBRANCH   2   3
ENDBRANCH   1   2
BRANCH   1   6
ATOM      6  C   UNL     1       3.583   8.586  27.101  1.00  0.00     0.000 C 
BRANCH   6   7
ATOM      7  C   UNL     1       3.587   7.105  26.687  1.00  0.00    -0.003 C 
ATOM      8  C   UNL     1       4.995   6.531  26.527  1.00  0.00     0.004 C 
ENDBRANCH   6   7
ENDBRANCH   1   6
TORSDOF 4
ENDMDL
MODEL 9
REMARK VINA RESULT:    -2.393      9.939     11.950
REMARK INTER + INTRA:          -3.139
REMARK INTER:                  -3.022
REMARK INTRA:                  -0.116
REMARK UNBOUND:                -0.186
REMARK SMILES CCCCCC(=O)[O-]
REMARK SMILES IDX 4 1 5 2 6 3 7 4 8 5 3 6 2 7 1 8
REMARK H PARENT
REMARK Flexibility Score: inf
ROOT
ATOM      1  C   UNL     1       1.749   8.018  28.046  1.00  0.00     0.006 C 
ENDROOT
BRANCH   1   2
ATOM      2  C   UNL     1       1.465   8.791  29.339  1.00  0.00     0.053 C 
BRANCH   2   3
ATOM      3  C   UNL     1       1.145   7.846  30.454  1.00  0.00     0.041 C 
ATOM      4  O   UNL     1       0.624   8.273  31.517  1.00  0.00    -0.550 OA
ATOM      5  O   UNL     1       1.376   6.485  30.298  1.00  0.00    -0.550 OA
ENDBRANCH   2   3
ENDBRANCH   1   2
BRANCH   1   6
ATOM      6  C   UNL     1       3.031   8.490  27.335  1.00  0.00     0.000 C 
BRANCH   6   7
ATOM      7  C   UNL     1       2.804   9.125  25.951  1.00  0.00    -0.003 C 
ATOM      8  C   UNL     1       1.394   8.893  25.409  1.00  0.00     0.004 C 
ENDBRANCH   6   7
ENDBRANCH   1   6
TORSDOF 4
ENDMDL
