MODEL 1
REMARK VINA RESULT:    -6.461      0.000      0.000
REMARK INTER + INTRA:          -8.648
REMARK INTER:                  -8.161
REMARK INTRA:                  -0.487
REMARK UNBOUND:                -0.487
REMARK SMILES O=C(C=Cc1ccc(O)cc1)c1ccc(O)cc1O
REMARK SMILES IDX 4 1 3 2 5 3 6 4 7 5 8 6 11 7 10 8 9 9 2 11 1 12 12 13 18 14
REMARK SMILES IDX 13 15 17 16 14 17 15 18 19 19 16 21
REMARK H PARENT 9 10 19 20 16 22
REMARK Flexibility Score: inf
ROOT
ATOM      1  C   UNL     1      31.063 -92.374  37.254  1.00  0.00     0.012 C 
ATOM      2  C   UNL     1      31.507 -93.160  38.245  1.00  0.00     0.053 C 
ENDROOT
BRANCH   1   3
ATOM      3  C   UNL     1      31.205 -90.897  37.250  1.00  0.00    -0.025 A 
ATOM      4  C   UNL     1      32.169 -90.316  36.409  1.00  0.00     0.012 A 
ATOM      5  C   UNL     1      32.331 -88.928  36.366  1.00  0.00     0.047 A 
ATOM      6  C   UNL     1      31.525 -88.100  37.151  1.00  0.00     0.115 A 
ATOM      7  C   UNL     1      30.385 -90.054  38.029  1.00  0.00     0.012 A 
ATOM      8  C   UNL     1      30.550 -88.667  37.981  1.00  0.00     0.047 A 
BRANCH   6   9
ATOM      9  O   UNL     1      31.699 -86.720  37.097  1.00  0.00    -0.508 OA
ATOM     10  H   UNL     1      31.112 -86.091  37.634  1.00  0.00     0.293 HD
ENDBRANCH   6   9
ENDBRANCH   1   3
BRANCH   2  11
ATOM     11  C   UNL     1      31.362 -94.632  38.208  1.00  0.00     0.189 C 
ATOM     12  O   UNL     1      32.387 -95.366  38.275  1.00  0.00    -0.289 OA
BRANCH  11  13
ATOM     13  C   UNL     1      30.026 -95.267  38.141  1.00  0.00     0.064 A 
ATOM     14  C   UNL     1      29.366 -95.740  39.297  1.00  0.00     0.130 A 
ATOM     15  C   UNL     1      29.384 -95.379  36.894  1.00  0.00     0.020 A 
ATOM     16  C   UNL     1      28.107 -96.348  39.183  1.00  0.00     0.093 A 
ATOM     17  C   UNL     1      28.128 -95.981  36.792  1.00  0.00     0.047 A 
ATOM     18  C   UNL     1      27.488 -96.470  37.933  1.00  0.00     0.119 A 
BRANCH  14  19
ATOM     19  O   UNL     1      29.943 -95.584  40.557  1.00  0.00    -0.507 OA
ATOM     20  H   UNL     1      29.882 -96.306  41.264  1.00  0.00     0.293 HD
ENDBRANCH  14  19
BRANCH  18  21
ATOM     21  O   UNL     1      26.236 -97.072  37.815  1.00  0.00    -0.508 OA
ATOM     22  H   UNL     1      26.029 -97.719  37.064  1.00  0.00     0.293 HD
ENDBRANCH  18  21
ENDBRANCH  11  13
ENDBRANCH   2  11
TORSDOF 6
ENDMDL
MODEL 2
REMARK VINA RESULT:    -6.389      1.031      1.979
REMARK INTER + INTRA:          -8.557
REMARK INTER:                  -8.018
REMARK INTRA:                  -0.539
REMARK UNBOUND:                -0.487
REMARK SMILES O=C(C=Cc1ccc(O)cc1)c1ccc(O)cc1O
REMARK SMILES IDX 4 1 3 2 5 3 6 4 7 5 8 6 11 7 10 8 9 9 2 11 1 12 12 13 18 14
REMARK SMILES IDX 13 15 17 16 14 17 15 18 19 19 16 21
REMARK H PARENT 9 10 19 20 16 22
REMARK Flexibility Score: inf
ROOT
ATOM      1  C   UNL     1      31.015 -92.599  37.664  1.00  0.00     0.012 C 
ATOM      2  C   UNL     1      31.975 -93.367  38.199  1.00  0.00     0.053 C 
ENDROOT
BRANCH   1   3
ATOM      3  C   UNL     1      31.149 -91.136  37.464  1.00  0.00    -0.025 A 
ATOM      4  C   UNL     1      30.328 -90.275  38.211  1.00  0.00     0.012 A 
ATOM      5  C   UNL     1      30.428 -88.889  38.061  1.00  0.00     0.047 A 
ATOM      6  C   UNL     1      31.357 -88.341  37.174  1.00  0.00     0.115 A 
ATOM      7  C   UNL     1      32.096 -90.575  36.581  1.00  0.00     0.012 A 
ATOM      8  C   UNL     1      32.193 -89.189  36.435  1.00  0.00     0.047 A 
BRANCH   6   9
ATOM      9  O   UNL     1      31.445 -86.958  37.035  1.00  0.00    -0.508 OA
ATOM     10  H   UNL     1      32.199 -86.525  36.514  1.00  0.00     0.293 HD
ENDBRANCH   6   9
ENDBRANCH   1   3
BRANCH   2  11
ATOM     11  C   UNL     1      31.812 -94.828  38.368  1.00  0.00     0.189 C 
ATOM     12  O   UNL     1      32.830 -95.573  38.413  1.00  0.00    -0.289 OA
BRANCH  11  13
ATOM     13  C   UNL     1      30.471 -95.433  38.537  1.00  0.00     0.064 A 
ATOM     14  C   UNL     1      29.676 -95.804  37.430  1.00  0.00     0.130 A 
ATOM     15  C   UNL     1      29.985 -95.668  39.836  1.00  0.00     0.020 A 
ATOM     16  C   UNL     1      28.405 -96.360  37.638  1.00  0.00     0.093 A 
ATOM     17  C   UNL     1      28.721 -96.227  40.032  1.00  0.00     0.047 A 
ATOM     18  C   UNL     1      27.926 -96.571  38.937  1.00  0.00     0.119 A 
BRANCH  14  19
ATOM     19  O   UNL     1      30.154 -95.648  36.129  1.00  0.00    -0.507 OA
ATOM     20  H   UNL     1      30.893 -96.233  35.758  1.00  0.00     0.293 HD
ENDBRANCH  14  19
BRANCH  18  21
ATOM     21  O   UNL     1      26.665 -97.125  39.149  1.00  0.00    -0.508 OA
ATOM     22  H   UNL     1      25.819 -96.620  38.914  1.00  0.00     0.293 HD
ENDBRANCH  18  21
ENDBRANCH  11  13
ENDBRANCH   2  11
TORSDOF 6
ENDMDL
MODEL 3
REMARK VINA RESULT:    -6.359      1.160      1.771
REMARK INTER + INTRA:          -8.519
REMARK INTER:                  -7.991
REMARK INTRA:                  -0.528
REMARK UNBOUND:                -0.487
REMARK SMILES O=C(C=Cc1ccc(O)cc1)c1ccc(O)cc1O
REMARK SMILES IDX 4 1 3 2 5 3 6 4 7 5 8 6 11 7 10 8 9 9 2 11 1 12 12 13 18 14
REMARK SMILES IDX 13 15 17 16 14 17 15 18 19 19 16 21
REMARK H PARENT 9 10 19 20 16 22
REMARK Flexibility Score: inf
ROOT
ATOM      1  C   UNL     1      30.630 -92.763  37.500  1.00  0.00     0.012 C 
ATOM      2  C   UNL     1      31.327 -93.629  38.251  1.00  0.00     0.053 C 
ENDROOT
BRANCH   1   3
ATOM      3  C   UNL     1      30.912 -91.307  37.448  1.00  0.00    -0.025 A 
ATOM      4  C   UNL     1      31.950 -90.851  36.619  1.00  0.00     0.012 A 
ATOM      5  C   UNL     1      32.243 -89.488  36.532  1.00  0.00     0.047 A 
ATOM      6  C   UNL     1      31.497 -88.558  37.261  1.00  0.00     0.115 A 
ATOM      7  C   UNL     1      30.153 -90.362  38.170  1.00  0.00     0.012 A 
ATOM      8  C   UNL     1      30.449 -89.000  38.078  1.00  0.00     0.047 A 
BRANCH   6   9
ATOM      9  O   UNL     1      31.802 -87.203  37.163  1.00  0.00    -0.508 OA
ATOM     10  H   UNL     1      32.507 -86.863  36.520  1.00  0.00     0.293 HD
ENDBRANCH   6   9
ENDBRANCH   1   3
BRANCH   2  11
ATOM     11  C   UNL     1      31.029 -95.077  38.264  1.00  0.00     0.189 C 
ATOM     12  O   UNL     1      31.914 -95.905  37.912  1.00  0.00    -0.289 OA
BRANCH  11  13
ATOM     13  C   UNL     1      29.718 -95.583  38.733  1.00  0.00     0.064 A 
ATOM     14  C   UNL     1      28.628 -95.759  37.852  1.00  0.00     0.130 A 
ATOM     15  C   UNL     1      29.562 -95.922  40.089  1.00  0.00     0.020 A 
ATOM     16  C   UNL     1      27.400 -96.227  38.344  1.00  0.00     0.093 A 
ATOM     17  C   UNL     1      28.337 -96.393  40.568  1.00  0.00     0.047 A 
ATOM     18  C   UNL     1      27.253 -96.543  39.700  1.00  0.00     0.119 A 
BRANCH  14  19
ATOM     19  O   UNL     1      28.768 -95.497  36.489  1.00  0.00    -0.507 OA
ATOM     20  H   UNL     1      28.990 -96.229  35.825  1.00  0.00     0.293 HD
ENDBRANCH  14  19
BRANCH  18  21
ATOM     21  O   UNL     1      26.036 -97.010  40.194  1.00  0.00    -0.508 OA
ATOM     22  H   UNL     1      25.896 -97.181  41.182  1.00  0.00     0.293 HD
ENDBRANCH  18  21
ENDBRANCH  11  13
ENDBRANCH   2  11
TORSDOF 6
ENDMDL
MODEL 4
REMARK VINA RESULT:    -5.938      1.277      1.939
REMARK INTER + INTRA:          -7.987
REMARK INTER:                  -7.257
REMARK INTRA:                  -0.730
REMARK UNBOUND:                -0.487
REMARK SMILES O=C(C=Cc1ccc(O)cc1)c1ccc(O)cc1O
REMARK SMILES IDX 4 1 3 2 5 3 6 4 7 5 8 6 11 7 10 8 9 9 2 11 1 12 12 13 18 14
REMARK SMILES IDX 13 15 17 16 14 17 15 18 19 19 16 21
REMARK H PARENT 9 10 19 20 16 22
REMARK Flexibility Score: inf
ROOT
ATOM      1  C   UNL     1      30.835 -92.633  36.889  1.00  0.00     0.012 C 
ATOM      2  C   UNL     1      30.870 -93.529  37.887  1.00  0.00     0.053 C 
ENDROOT
BRANCH   1   3
ATOM      3  C   UNL     1      30.979 -91.171  37.093  1.00  0.00    -0.025 A 
ATOM      4  C   UNL     1      32.022 -90.499  36.435  1.00  0.00     0.012 A 
ATOM      5  C   UNL     1      32.189 -89.120  36.590  1.00  0.00     0.047 A 
ATOM      6  C   UNL     1      31.309 -88.389  37.393  1.00  0.00     0.115 A 
ATOM      7  C   UNL     1      30.085 -90.425  37.890  1.00  0.00     0.012 A 
ATOM      8  C   UNL     1      30.255 -89.046  38.041  1.00  0.00     0.047 A 
BRANCH   6   9
ATOM      9  O   UNL     1      31.488 -87.016  37.538  1.00  0.00    -0.508 OA
ATOM     10  H   UNL     1      31.740 -86.429  36.751  1.00  0.00     0.293 HD
ENDBRANCH   6   9
ENDBRANCH   1   3
BRANCH   2  11
ATOM     11  C   UNL     1      30.740 -94.983  37.645  1.00  0.00     0.189 C 
ATOM     12  O   UNL     1      31.697 -95.755  37.930  1.00  0.00    -0.289 OA
BRANCH  11  13
ATOM     13  C   UNL     1      29.483 -95.560  37.115  1.00  0.00     0.064 A 
ATOM     14  C   UNL     1      29.466 -96.383  35.967  1.00  0.00     0.130 A 
ATOM     15  C   UNL     1      28.276 -95.303  37.789  1.00  0.00     0.020 A 
ATOM     16  C   UNL     1      28.249 -96.895  35.493  1.00  0.00     0.093 A 
ATOM     17  C   UNL     1      27.070 -95.823  37.312  1.00  0.00     0.047 A 
ATOM     18  C   UNL     1      27.051 -96.616  36.163  1.00  0.00     0.119 A 
BRANCH  14  19
ATOM     19  O   UNL     1      30.652 -96.713  35.313  1.00  0.00    -0.507 OA
ATOM     20  H   UNL     1      31.070 -96.100  34.624  1.00  0.00     0.293 HD
ENDBRANCH  14  19
BRANCH  18  21
ATOM     21  O   UNL     1      25.841 -97.124  35.698  1.00  0.00    -0.508 OA
ATOM     22  H   UNL     1      25.807 -97.868  35.011  1.00  0.00     0.293 HD
ENDBRANCH  18  21
ENDBRANCH  11  13
ENDBRANCH   2  11
TORSDOF 6
ENDMDL
MODEL 5
REMARK VINA RESULT:    -5.856      2.784      7.286
REMARK INTER + INTRA:          -7.883
REMARK INTER:                  -7.201
REMARK INTRA:                  -0.682
REMARK UNBOUND:                -0.487
REMARK SMILES O=C(C=Cc1ccc(O)cc1)c1ccc(O)cc1O
REMARK SMILES IDX 4 1 3 2 5 3 6 4 7 5 8 6 11 7 10 8 9 9 2 11 1 12 12 13 18 14
REMARK SMILES IDX 13 15 17 16 14 17 15 18 19 19 16 21
REMARK H PARENT 9 10 19 20 16 22
REMARK Flexibility Score: inf
ROOT
ATOM      1  C   UNL     1      31.084 -92.530  38.146  1.00  0.00     0.012 C 
ATOM      2  C   UNL     1      30.460 -92.276  36.986  1.00  0.00     0.053 C 
ENDROOT
BRANCH   1   3
ATOM      3  C   UNL     1      31.889 -93.750  38.397  1.00  0.00    -0.025 A 
ATOM      4  C   UNL     1      33.241 -93.756  38.012  1.00  0.00     0.012 A 
ATOM      5  C   UNL     1      34.039 -94.880  38.238  1.00  0.00     0.047 A 
ATOM      6  C   UNL     1      33.505 -96.010  38.863  1.00  0.00     0.115 A 
ATOM      7  C   UNL     1      31.361 -94.888  39.040  1.00  0.00     0.012 A 
ATOM      8  C   UNL     1      32.164 -96.010  39.265  1.00  0.00     0.047 A 
BRANCH   6   9
ATOM      9  O   UNL     1      34.313 -97.123  39.081  1.00  0.00    -0.508 OA
ATOM     10  H   UNL     1      34.466 -97.817  38.358  1.00  0.00     0.293 HD
ENDBRANCH   6   9
ENDBRANCH   1   3
BRANCH   2  11
ATOM     11  C   UNL     1      29.679 -91.040  36.766  1.00  0.00     0.189 C 
ATOM     12  O   UNL     1      28.436 -91.110  36.556  1.00  0.00    -0.289 OA
BRANCH  11  13
ATOM     13  C   UNL     1      30.322 -89.707  36.835  1.00  0.00     0.064 A 
ATOM     14  C   UNL     1      29.693 -88.607  37.460  1.00  0.00     0.130 A 
ATOM     15  C   UNL     1      31.606 -89.539  36.286  1.00  0.00     0.020 A 
ATOM     16  C   UNL     1      30.335 -87.359  37.488  1.00  0.00     0.093 A 
ATOM     17  C   UNL     1      32.238 -88.294  36.325  1.00  0.00     0.047 A 
ATOM     18  C   UNL     1      31.605 -87.201  36.921  1.00  0.00     0.119 A 
BRANCH  14  19
ATOM     19  O   UNL     1      28.450 -88.755  38.073  1.00  0.00    -0.507 OA
ATOM     20  H   UNL     1      27.762 -88.011  38.071  1.00  0.00     0.293 HD
ENDBRANCH  14  19
BRANCH  18  21
ATOM     21  O   UNL     1      32.247 -85.965  36.948  1.00  0.00    -0.508 OA
ATOM     22  H   UNL     1      33.243 -85.881  36.779  1.00  0.00     0.293 HD
ENDBRANCH  18  21
ENDBRANCH  11  13
ENDBRANCH   2  11
TORSDOF 6
ENDMDL
MODEL 6
REMARK VINA RESULT:    -5.461     16.006     16.843
REMARK INTER + INTRA:          -7.385
REMARK INTER:                  -6.752
REMARK INTRA:                  -0.633
REMARK UNBOUND:                -0.487
REMARK SMILES O=C(C=Cc1ccc(O)cc1)c1ccc(O)cc1O
REMARK SMILES IDX 4 1 3 2 5 3 6 4 7 5 8 6 11 7 10 8 9 9 2 11 1 12 12 13 18 14
REMARK SMILES IDX 13 15 17 16 14 17 15 18 19 19 16 21
REMARK H PARENT 9 10 19 20 16 22
REMARK Flexibility Score: inf
ROOT
ATOM      1  C   UNL     1      37.499 -78.399  39.144  1.00  0.00     0.012 C 
ATOM      2  C   UNL     1      36.658 -78.663  38.133  1.00  0.00     0.053 C 
ENDROOT
BRANCH   1   3
ATOM      3  C   UNL     1      38.600 -79.306  39.555  1.00  0.00    -0.025 A 
ATOM      4  C   UNL     1      39.605 -79.610  38.622  1.00  0.00     0.012 A 
ATOM      5  C   UNL     1      40.666 -80.452  38.969  1.00  0.00     0.047 A 
ATOM      6  C   UNL     1      40.745 -80.991  40.256  1.00  0.00     0.115 A 
ATOM      7  C   UNL     1      38.695 -79.841  40.856  1.00  0.00     0.012 A 
ATOM      8  C   UNL     1      39.758 -80.681  41.199  1.00  0.00     0.047 A 
BRANCH   6   9
ATOM      9  O   UNL     1      41.808 -81.827  40.587  1.00  0.00    -0.508 OA
ATOM     10  H   UNL     1      42.771 -81.527  40.485  1.00  0.00     0.293 HD
ENDBRANCH   6   9
ENDBRANCH   1   3
BRANCH   2  11
ATOM     11  C   UNL     1      35.582 -77.727  37.740  1.00  0.00     0.189 C 
ATOM     12  O   UNL     1      35.067 -76.963  38.603  1.00  0.00    -0.289 OA
BRANCH  11  13
ATOM     13  C   UNL     1      35.127 -77.633  36.334  1.00  0.00     0.064 A 
ATOM     14  C   UNL     1      33.756 -77.620  35.993  1.00  0.00     0.130 A 
ATOM     15  C   UNL     1      36.086 -77.526  35.311  1.00  0.00     0.020 A 
ATOM     16  C   UNL     1      33.372 -77.545  34.645  1.00  0.00     0.093 A 
ATOM     17  C   UNL     1      35.693 -77.446  33.973  1.00  0.00     0.047 A 
ATOM     18  C   UNL     1      34.339 -77.458  33.635  1.00  0.00     0.119 A 
BRANCH  14  19
ATOM     19  O   UNL     1      32.777 -77.656  36.986  1.00  0.00    -0.507 OA
ATOM     20  H   UNL     1      32.538 -78.515  37.468  1.00  0.00     0.293 HD
ENDBRANCH  14  19
BRANCH  18  21
ATOM     21  O   UNL     1      33.963 -77.381  32.296  1.00  0.00    -0.508 OA
ATOM     22  H   UNL     1      34.562 -77.729  31.557  1.00  0.00     0.293 HD
ENDBRANCH  18  21
ENDBRANCH  11  13
ENDBRANCH   2  11
TORSDOF 6
ENDMDL
MODEL 7
REMARK VINA RESULT:    -5.315     15.672     16.742
REMARK INTER + INTRA:          -7.200
REMARK INTER:                  -6.782
REMARK INTRA:                  -0.418
REMARK UNBOUND:                -0.487
REMARK SMILES O=C(C=Cc1ccc(O)cc1)c1ccc(O)cc1O
REMARK SMILES IDX 4 1 3 2 5 3 6 4 7 5 8 6 11 7 10 8 9 9 2 11 1 12 12 13 18 14
REMARK SMILES IDX 13 15 17 16 14 17 15 18 19 19 16 21
REMARK H PARENT 9 10 19 20 16 22
REMARK Flexibility Score: inf
ROOT
ATOM      1  C   UNL     1      35.994 -77.294  37.905  1.00  0.00     0.012 C 
ATOM      2  C   UNL     1      36.697 -78.282  38.479  1.00  0.00     0.053 C 
ENDROOT
BRANCH   1   3
ATOM      3  C   UNL     1      34.794 -77.522  37.062  1.00  0.00    -0.025 A 
ATOM      4  C   UNL     1      33.529 -77.504  37.673  1.00  0.00     0.012 A 
ATOM      5  C   UNL     1      32.371 -77.703  36.916  1.00  0.00     0.047 A 
ATOM      6  C   UNL     1      32.458 -77.911  35.538  1.00  0.00     0.115 A 
ATOM      7  C   UNL     1      34.873 -77.718  35.668  1.00  0.00     0.012 A 
ATOM      8  C   UNL     1      33.712 -77.916  34.915  1.00  0.00     0.047 A 
BRANCH   6   9
ATOM      9  O   UNL     1      31.296 -78.109  34.797  1.00  0.00    -0.508 OA
ATOM     10  H   UNL     1      30.747 -78.957  34.887  1.00  0.00     0.293 HD
ENDBRANCH   6   9
ENDBRANCH   1   3
BRANCH   2  11
ATOM     11  C   UNL     1      37.880 -78.016  39.327  1.00  0.00     0.189 C 
ATOM     12  O   UNL     1      38.034 -76.879  39.852  1.00  0.00    -0.289 OA
BRANCH  11  13
ATOM     13  C   UNL     1      38.869 -79.081  39.615  1.00  0.00     0.064 A 
ATOM     14  C   UNL     1      39.884 -79.424  38.695  1.00  0.00     0.130 A 
ATOM     15  C   UNL     1      38.811 -79.751  40.850  1.00  0.00     0.020 A 
ATOM     16  C   UNL     1      40.790 -80.449  39.005  1.00  0.00     0.093 A 
ATOM     17  C   UNL     1      39.721 -80.767  41.151  1.00  0.00     0.047 A 
ATOM     18  C   UNL     1      40.709 -81.122  40.231  1.00  0.00     0.119 A 
BRANCH  14  19
ATOM     19  O   UNL     1      40.013 -78.734  37.490  1.00  0.00    -0.507 OA
ATOM     20  H   UNL     1      39.407 -78.922  36.700  1.00  0.00     0.293 HD
ENDBRANCH  14  19
BRANCH  18  21
ATOM     21  O   UNL     1      41.608 -82.140  40.544  1.00  0.00    -0.508 OA
ATOM     22  H   UNL     1      42.247 -82.060  41.325  1.00  0.00     0.293 HD
ENDBRANCH  18  21
ENDBRANCH  11  13
ENDBRANCH   2  11
TORSDOF 6
ENDMDL
MODEL 8
REMARK VINA RESULT:    -5.171     15.932     16.748
REMARK INTER + INTRA:          -7.018
REMARK INTER:                  -6.369
REMARK INTRA:                  -0.649
REMARK UNBOUND:                -0.487
REMARK SMILES O=C(C=Cc1ccc(O)cc1)c1ccc(O)cc1O
REMARK SMILES IDX 4 1 3 2 5 3 6 4 7 5 8 6 11 7 10 8 9 9 2 11 1 12 12 13 18 14
REMARK SMILES IDX 13 15 17 16 14 17 15 18 19 19 16 21
REMARK H PARENT 9 10 19 20 16 22
REMARK Flexibility Score: inf
ROOT
ATOM      1  C   UNL     1      38.231 -78.379  38.249  1.00  0.00     0.012 C 
ATOM      2  C   UNL     1      37.285 -78.726  37.364  1.00  0.00     0.053 C 
ENDROOT
BRANCH   1   3
ATOM      3  C   UNL     1      38.982 -79.355  39.075  1.00  0.00    -0.025 A 
ATOM      4  C   UNL     1      40.028 -80.079  38.477  1.00  0.00     0.012 A 
ATOM      5  C   UNL     1      40.769 -81.002  39.220  1.00  0.00     0.047 A 
ATOM      6  C   UNL     1      40.487 -81.207  40.573  1.00  0.00     0.115 A 
ATOM      7  C   UNL     1      38.712 -79.557  40.445  1.00  0.00     0.012 A 
ATOM      8  C   UNL     1      39.457 -80.480  41.184  1.00  0.00     0.047 A 
BRANCH   6   9
ATOM      9  O   UNL     1      41.234 -82.130  41.300  1.00  0.00    -0.508 OA
ATOM     10  H   UNL     1      42.150 -81.899  41.667  1.00  0.00     0.293 HD
ENDBRANCH   6   9
ENDBRANCH   1   3
BRANCH   2  11
ATOM     11  C   UNL     1      36.567 -77.726  36.545  1.00  0.00     0.189 C 
ATOM     12  O   UNL     1      37.193 -77.062  35.673  1.00  0.00    -0.289 OA
BRANCH  11  13
ATOM     13  C   UNL     1      35.108 -77.519  36.695  1.00  0.00     0.064 A 
ATOM     14  C   UNL     1      34.207 -77.761  35.634  1.00  0.00     0.130 A 
ATOM     15  C   UNL     1      34.603 -77.096  37.938  1.00  0.00     0.020 A 
ATOM     16  C   UNL     1      32.835 -77.537  35.819  1.00  0.00     0.093 A 
ATOM     17  C   UNL     1      33.234 -76.881  38.113  1.00  0.00     0.047 A 
ATOM     18  C   UNL     1      32.347 -77.097  37.056  1.00  0.00     0.119 A 
BRANCH  14  19
ATOM     19  O   UNL     1      34.667 -78.245  34.410  1.00  0.00    -0.507 OA
ATOM     20  H   UNL     1      34.078 -78.803  33.803  1.00  0.00     0.293 HD
ENDBRANCH  14  19
BRANCH  18  21
ATOM     21  O   UNL     1      30.984 -76.875  37.245  1.00  0.00    -0.508 OA
ATOM     22  H   UNL     1      30.640 -76.332  38.027  1.00  0.00     0.293 HD
ENDBRANCH  18  21
ENDBRANCH  11  13
ENDBRANCH   2  11
TORSDOF 6
ENDMDL
MODEL 9
REMARK VINA RESULT:    -5.137     16.636     18.670
REMARK INTER + INTRA:          -6.975
REMARK INTER:                  -6.469
REMARK INTRA:                  -0.506
REMARK UNBOUND:                -0.487
REMARK SMILES O=C(C=Cc1ccc(O)cc1)c1ccc(O)cc1O
REMARK SMILES IDX 4 1 3 2 5 3 6 4 7 5 8 6 11 7 10 8 9 9 2 11 1 12 12 13 18 14
REMARK SMILES IDX 13 15 17 16 14 17 15 18 19 19 16 21
REMARK H PARENT 9 10 19 20 16 22
REMARK Flexibility Score: inf
ROOT
ATOM      1  C   UNL     1      38.078 -78.561  37.256  1.00  0.00     0.012 C 
ATOM      2  C   UNL     1      38.596 -77.557  36.533  1.00  0.00     0.053 C 
ENDROOT
BRANCH   1   3
ATOM      3  C   UNL     1      38.535 -78.909  38.624  1.00  0.00    -0.025 A 
ATOM      4  C   UNL     1      37.618 -78.817  39.684  1.00  0.00     0.012 A 
ATOM      5  C   UNL     1      38.003 -79.144  40.987  1.00  0.00     0.047 A 
ATOM      6  C   UNL     1      39.304 -79.581  41.249  1.00  0.00     0.115 A 
ATOM      7  C   UNL     1      39.843 -79.364  38.893  1.00  0.00     0.012 A 
ATOM      8  C   UNL     1      40.222 -79.692  40.198  1.00  0.00     0.047 A 
BRANCH   6   9
ATOM      9  O   UNL     1      39.672 -79.904  42.553  1.00  0.00    -0.508 OA
ATOM     10  H   UNL     1      39.994 -80.833  42.798  1.00  0.00     0.293 HD
ENDBRANCH   6   9
ENDBRANCH   1   3
BRANCH   2  11
ATOM     11  C   UNL     1      38.103 -77.228  35.177  1.00  0.00     0.189 C 
ATOM     12  O   UNL     1      36.896 -76.899  35.010  1.00  0.00    -0.289 OA
BRANCH  11  13
ATOM     13  C   UNL     1      39.016 -77.229  34.010  1.00  0.00     0.064 A 
ATOM     14  C   UNL     1      38.532 -77.276  32.685  1.00  0.00     0.130 A 
ATOM     15  C   UNL     1      40.403 -77.155  34.229  1.00  0.00     0.020 A 
ATOM     16  C   UNL     1      39.435 -77.290  31.611  1.00  0.00     0.093 A 
ATOM     17  C   UNL     1      41.294 -77.164  33.154  1.00  0.00     0.047 A 
ATOM     18  C   UNL     1      40.815 -77.235  31.844  1.00  0.00     0.119 A 
BRANCH  14  19
ATOM     19  O   UNL     1      37.161 -77.282  32.429  1.00  0.00    -0.507 OA
ATOM     20  H   UNL     1      36.484 -77.056  33.148  1.00  0.00     0.293 HD
ENDBRANCH  14  19
BRANCH  18  21
ATOM     21  O   UNL     1      41.716 -77.247  30.781  1.00  0.00    -0.508 OA
ATOM     22  H   UNL     1      42.656 -77.611  30.888  1.00  0.00     0.293 HD
ENDBRANCH  18  21
ENDBRANCH  11  13
ENDBRANCH   2  11
TORSDOF 6
ENDMDL
