MODEL 1
REMARK VINA RESULT:    -3.376      0.000      0.000
REMARK INTER + INTRA:          -4.982
REMARK INTER:                  -4.561
REMARK INTRA:                  -0.422
REMARK UNBOUND:                -0.422
REMARK SMILES CCCCCCCC(=O)[O-]
REMARK SMILES IDX 5 1 6 2 7 3 8 4 9 5 10 6 4 7 3 8 2 9 1 10
REMARK H PARENT
REMARK Flexibility Score: inf
ROOT
ATOM      1  C   UNL     1       4.056  15.030  12.387  1.00  0.00     0.000 C 
ENDROOT
BRANCH   1   2
ATOM      2  C   UNL     1       5.159  14.211  11.701  1.00  0.00     0.006 C 
BRANCH   2   3
ATOM      3  C   UNL     1       5.674  13.070  12.590  1.00  0.00     0.053 C 
BRANCH   3   4
ATOM      4  C   UNL     1       5.272  11.729  12.060  1.00  0.00     0.041 C 
ATOM      5  O   UNL     1       4.111  11.288  12.264  1.00  0.00    -0.550 OA
ATOM      6  O   UNL     1       6.193  10.951  11.369  1.00  0.00    -0.550 OA
ENDBRANCH   3   4
ENDBRANCH   2   3
ENDBRANCH   1   2
BRANCH   1   7
ATOM      7  C   UNL     1       2.686  14.737  11.765  1.00  0.00     0.000 C 
BRANCH   7   8
ATOM      8  C   UNL     1       2.837  14.125  10.364  1.00  0.00    -0.000 C 
BRANCH   8   9
ATOM      9  C   UNL     1       1.700  14.535   9.415  1.00  0.00    -0.003 C 
ATOM     10  C   UNL     1       1.342  16.017   9.527  1.00  0.00     0.004 C 
ENDBRANCH   8   9
ENDBRANCH   7   8
ENDBRANCH   1   7
TORSDOF 6
ENDMDL
MODEL 2
REMARK VINA RESULT:    -3.360      2.290      3.140
REMARK INTER + INTRA:          -4.960
REMARK INTER:                  -4.427
REMARK INTRA:                  -0.534
REMARK UNBOUND:                -0.422
REMARK SMILES CCCCCCCC(=O)[O-]
REMARK SMILES IDX 5 1 6 2 7 3 8 4 9 5 10 6 4 7 3 8 2 9 1 10
REMARK H PARENT
REMARK Flexibility Score: inf
ROOT
ATOM      1  C   UNL     1       5.984  13.927  11.040  1.00  0.00     0.000 C 
ENDROOT
BRANCH   1   2
ATOM      2  C   UNL     1       6.843  12.686  11.323  1.00  0.00     0.006 C 
BRANCH   2   3
ATOM      3  C   UNL     1       6.255  11.817  12.444  1.00  0.00     0.053 C 
BRANCH   3   4
ATOM      4  C   UNL     1       6.967  12.032  13.743  1.00  0.00     0.041 C 
ATOM      5  O   UNL     1       6.330  12.006  14.829  1.00  0.00    -0.550 OA
ATOM      6  O   UNL     1       8.332  12.293  13.753  1.00  0.00    -0.550 OA
ENDBRANCH   3   4
ENDBRANCH   2   3
ENDBRANCH   1   2
BRANCH   1   7
ATOM      7  C   UNL     1       4.554  13.531  10.655  1.00  0.00     0.000 C 
BRANCH   7   8
ATOM      8  C   UNL     1       3.532  14.164  11.612  1.00  0.00    -0.000 C 
BRANCH   8   9
ATOM      9  C   UNL     1       4.192  15.058  12.674  1.00  0.00    -0.003 C 
ATOM     10  C   UNL     1       3.888  14.603  14.101  1.00  0.00     0.004 C 
ENDBRANCH   8   9
ENDBRANCH   7   8
ENDBRANCH   1   7
TORSDOF 6
ENDMDL
MODEL 3
REMARK VINA RESULT:    -3.325      2.959      5.158
REMARK INTER + INTRA:          -4.912
REMARK INTER:                  -4.615
REMARK INTRA:                  -0.298
REMARK UNBOUND:                -0.422
REMARK SMILES CCCCCCCC(=O)[O-]
REMARK SMILES IDX 5 1 6 2 7 3 8 4 9 5 10 6 4 7 3 8 2 9 1 10
REMARK H PARENT
REMARK Flexibility Score: inf
ROOT
ATOM      1  C   UNL     1       4.471  14.508  12.211  1.00  0.00     0.000 C 
ENDROOT
BRANCH   1   2
ATOM      2  C   UNL     1       3.007  14.810  11.860  1.00  0.00     0.006 C 
BRANCH   2   3
ATOM      3  C   UNL     1       2.648  14.370  10.434  1.00  0.00     0.053 C 
BRANCH   3   4
ATOM      4  C   UNL     1       1.550  15.206   9.854  1.00  0.00     0.041 C 
ATOM      5  O   UNL     1       0.618  14.666   9.202  1.00  0.00    -0.550 OA
ATOM      6  O   UNL     1       1.574  16.587  10.007  1.00  0.00    -0.550 OA
ENDBRANCH   3   4
ENDBRANCH   2   3
ENDBRANCH   1   2
BRANCH   1   7
ATOM      7  C   UNL     1       5.213  13.911  11.010  1.00  0.00     0.000 C 
BRANCH   7   8
ATOM      8  C   UNL     1       6.409  13.062  11.468  1.00  0.00    -0.000 C 
BRANCH   8   9
ATOM      9  C   UNL     1       6.084  12.199  12.697  1.00  0.00    -0.003 C 
ATOM     10  C   UNL     1       7.283  12.019  13.627  1.00  0.00     0.004 C 
ENDBRANCH   8   9
ENDBRANCH   7   8
ENDBRANCH   1   7
TORSDOF 6
ENDMDL
MODEL 4
REMARK VINA RESULT:    -3.321      1.450      2.219
REMARK INTER + INTRA:          -4.908
REMARK INTER:                  -4.540
REMARK INTRA:                  -0.368
REMARK UNBOUND:                -0.422
REMARK SMILES CCCCCCCC(=O)[O-]
REMARK SMILES IDX 5 1 6 2 7 3 8 4 9 5 10 6 4 7 3 8 2 9 1 10
REMARK H PARENT
REMARK Flexibility Score: inf
ROOT
ATOM      1  C   UNL     1       3.034  14.801  11.597  1.00  0.00     0.000 C 
ENDROOT
BRANCH   1   2
ATOM      2  C   UNL     1       4.395  14.407  12.188  1.00  0.00     0.006 C 
BRANCH   2   3
ATOM      3  C   UNL     1       5.385  13.944  11.110  1.00  0.00     0.053 C 
BRANCH   3   4
ATOM      4  C   UNL     1       6.397  12.988  11.660  1.00  0.00     0.041 C 
ATOM      5  O   UNL     1       7.521  12.865  11.107  1.00  0.00    -0.550 OA
ATOM      6  O   UNL     1       6.086  12.207  12.767  1.00  0.00    -0.550 OA
ENDBRANCH   3   4
ENDBRANCH   2   3
ENDBRANCH   1   2
BRANCH   1   7
ATOM      7  C   UNL     1       2.660  13.891  10.421  1.00  0.00     0.000 C 
BRANCH   7   8
ATOM      8  C   UNL     1       1.838  14.655   9.373  1.00  0.00    -0.000 C 
BRANCH   8   9
ATOM      9  C   UNL     1       2.171  14.228   7.935  1.00  0.00    -0.003 C 
ATOM     10  C   UNL     1       3.388  13.306   7.859  1.00  0.00     0.004 C 
ENDBRANCH   8   9
ENDBRANCH   7   8
ENDBRANCH   1   7
TORSDOF 6
ENDMDL
MODEL 5
REMARK VINA RESULT:    -3.320      1.357      1.977
REMARK INTER + INTRA:          -4.906
REMARK INTER:                  -4.379
REMARK INTRA:                  -0.526
REMARK UNBOUND:                -0.422
REMARK SMILES CCCCCCCC(=O)[O-]
REMARK SMILES IDX 5 1 6 2 7 3 8 4 9 5 10 6 4 7 3 8 2 9 1 10
REMARK H PARENT
REMARK Flexibility Score: inf
ROOT
ATOM      1  C   UNL     1       2.307  14.373  11.221  1.00  0.00     0.000 C 
ENDROOT
BRANCH   1   2
ATOM      2  C   UNL     1       3.640  14.562  11.961  1.00  0.00     0.006 C 
BRANCH   2   3
ATOM      3  C   UNL     1       4.795  13.822  11.274  1.00  0.00     0.053 C 
BRANCH   3   4
ATOM      4  C   UNL     1       4.490  12.368  11.086  1.00  0.00     0.041 C 
ATOM      5  O   UNL     1       4.380  11.608  12.084  1.00  0.00    -0.550 OA
ATOM      6  O   UNL     1       4.359  11.845   9.805  1.00  0.00    -0.550 OA
ENDBRANCH   3   4
ENDBRANCH   2   3
ENDBRANCH   1   2
BRANCH   1   7
ATOM      7  C   UNL     1       1.913  15.646  10.464  1.00  0.00     0.000 C 
BRANCH   7   8
ATOM      8  C   UNL     1       1.265  15.305   9.114  1.00  0.00    -0.000 C 
BRANCH   8   9
ATOM      9  C   UNL     1       1.658  13.908   8.607  1.00  0.00    -0.003 C 
ATOM     10  C   UNL     1       2.648  13.958   7.443  1.00  0.00     0.004 C 
ENDBRANCH   8   9
ENDBRANCH   7   8
ENDBRANCH   1   7
TORSDOF 6
ENDMDL
MODEL 6
REMARK VINA RESULT:    -3.276      1.794      3.683
REMARK INTER + INTRA:          -4.847
REMARK INTER:                  -4.214
REMARK INTRA:                  -0.633
REMARK UNBOUND:                -0.422
REMARK SMILES CCCCCCCC(=O)[O-]
REMARK SMILES IDX 5 1 6 2 7 3 8 4 9 5 10 6 4 7 3 8 2 9 1 10
REMARK H PARENT
REMARK Flexibility Score: inf
ROOT
ATOM      1  C   UNL     1       2.300  15.076  10.893  1.00  0.00     0.000 C 
ENDROOT
BRANCH   1   2
ATOM      2  C   UNL     1       1.812  13.889  10.051  1.00  0.00     0.006 C 
BRANCH   2   3
ATOM      3  C   UNL     1       2.839  13.467   8.992  1.00  0.00     0.053 C 
BRANCH   3   4
ATOM      4  C   UNL     1       3.300  12.057   9.196  1.00  0.00     0.041 C 
ATOM      5  O   UNL     1       3.782  11.401   8.236  1.00  0.00    -0.550 OA
ATOM      6  O   UNL     1       3.167  11.457  10.443  1.00  0.00    -0.550 OA
ENDBRANCH   3   4
ENDBRANCH   2   3
ENDBRANCH   1   2
BRANCH   1   7
ATOM      7  C   UNL     1       2.669  14.630  12.313  1.00  0.00     0.000 C 
BRANCH   7   8
ATOM      8  C   UNL     1       4.142  14.940  12.622  1.00  0.00    -0.000 C 
BRANCH   8   9
ATOM      9  C   UNL     1       5.063  13.735  12.374  1.00  0.00    -0.003 C 
ATOM     10  C   UNL     1       5.903  13.884  11.106  1.00  0.00     0.004 C 
ENDBRANCH   8   9
ENDBRANCH   7   8
ENDBRANCH   1   7
TORSDOF 6
ENDMDL
MODEL 7
REMARK VINA RESULT:    -3.248      2.209      3.758
REMARK INTER + INTRA:          -4.809
REMARK INTER:                  -4.208
REMARK INTRA:                  -0.601
REMARK UNBOUND:                -0.422
REMARK SMILES CCCCCCCC(=O)[O-]
REMARK SMILES IDX 5 1 6 2 7 3 8 4 9 5 10 6 4 7 3 8 2 9 1 10
REMARK H PARENT
REMARK Flexibility Score: inf
ROOT
ATOM      1  C   UNL     1       1.426  13.918   8.811  1.00  0.00     0.000 C 
ENDROOT
BRANCH   1   2
ATOM      2  C   UNL     1       2.354  13.692   7.608  1.00  0.00     0.006 C 
BRANCH   2   3
ATOM      3  C   UNL     1       3.736  13.174   8.030  1.00  0.00     0.053 C 
BRANCH   3   4
ATOM      4  C   UNL     1       3.645  11.847   8.717  1.00  0.00     0.041 C 
ATOM      5  O   UNL     1       4.213  11.667   9.827  1.00  0.00    -0.550 OA
ATOM      6  O   UNL     1       2.960  10.799   8.115  1.00  0.00    -0.550 OA
ENDBRANCH   3   4
ENDBRANCH   2   3
ENDBRANCH   1   2
BRANCH   1   7
ATOM      7  C   UNL     1       1.299  15.411   9.135  1.00  0.00     0.000 C 
BRANCH   7   8
ATOM      8  C   UNL     1       1.881  15.724  10.522  1.00  0.00    -0.000 C 
BRANCH   8   9
ATOM      9  C   UNL     1       2.297  14.458  11.287  1.00  0.00    -0.003 C 
ATOM     10  C   UNL     1       3.711  14.551  11.860  1.00  0.00     0.004 C 
ENDBRANCH   8   9
ENDBRANCH   7   8
ENDBRANCH   1   7
TORSDOF 6
ENDMDL
MODEL 8
REMARK VINA RESULT:    -3.230      1.766      2.118
REMARK INTER + INTRA:          -4.785
REMARK INTER:                  -4.508
REMARK INTRA:                  -0.277
REMARK UNBOUND:                -0.422
REMARK SMILES CCCCCCCC(=O)[O-]
REMARK SMILES IDX 5 1 6 2 7 3 8 4 9 5 10 6 4 7 3 8 2 9 1 10
REMARK H PARENT
REMARK Flexibility Score: inf
ROOT
ATOM      1  C   UNL     1       4.986  13.858  11.116  1.00  0.00     0.000 C 
ENDROOT
BRANCH   1   2
ATOM      2  C   UNL     1       6.178  13.108  11.729  1.00  0.00     0.006 C 
BRANCH   2   3
ATOM      3  C   UNL     1       5.797  12.367  13.018  1.00  0.00     0.053 C 
BRANCH   3   4
ATOM      4  C   UNL     1       7.004  12.010  13.829  1.00  0.00     0.041 C 
ATOM      5  O   UNL     1       6.879  11.652  15.030  1.00  0.00    -0.550 OA
ATOM      6  O   UNL     1       8.272  12.105  13.268  1.00  0.00    -0.550 OA
ENDBRANCH   3   4
ENDBRANCH   2   3
ENDBRANCH   1   2
BRANCH   1   7
ATOM      7  C   UNL     1       4.238  14.666  12.182  1.00  0.00     0.000 C 
BRANCH   7   8
ATOM      8  C   UNL     1       2.773  14.890  11.776  1.00  0.00    -0.000 C 
BRANCH   8   9
ATOM      9  C   UNL     1       2.480  14.421  10.343  1.00  0.00    -0.003 C 
ATOM     10  C   UNL     1       1.490  15.329   9.614  1.00  0.00     0.004 C 
ENDBRANCH   8   9
ENDBRANCH   7   8
ENDBRANCH   1   7
TORSDOF 6
ENDMDL
MODEL 9
REMARK VINA RESULT:    -3.226      2.988      4.834
REMARK INTER + INTRA:          -4.780
REMARK INTER:                  -4.336
REMARK INTRA:                  -0.443
REMARK UNBOUND:                -0.422
REMARK SMILES CCCCCCCC(=O)[O-]
REMARK SMILES IDX 5 1 6 2 7 3 8 4 9 5 10 6 4 7 3 8 2 9 1 10
REMARK H PARENT
REMARK Flexibility Score: inf
ROOT
ATOM      1  C   UNL     1       4.110  13.224   8.983  1.00  0.00     0.000 C 
ENDROOT
BRANCH   1   2
ATOM      2  C   UNL     1       2.739  12.966   8.340  1.00  0.00     0.006 C 
BRANCH   2   3
ATOM      3  C   UNL     1       2.058  14.264   7.885  1.00  0.00     0.053 C 
BRANCH   3   4
ATOM      4  C   UNL     1       1.162  14.822   8.946  1.00  0.00     0.041 C 
ATOM      5  O   UNL     1       1.190  16.051   9.219  1.00  0.00    -0.550 OA
ATOM      6  O   UNL     1       0.317  13.978   9.657  1.00  0.00    -0.550 OA
ENDBRANCH   3   4
ENDBRANCH   2   3
ENDBRANCH   1   2
BRANCH   1   7
ATOM      7  C   UNL     1       4.066  12.968  10.494  1.00  0.00     0.000 C 
BRANCH   7   8
ATOM      8  C   UNL     1       5.077  13.858  11.233  1.00  0.00    -0.000 C 
BRANCH   8   9
ATOM      9  C   UNL     1       4.426  14.688  12.350  1.00  0.00    -0.003 C 
ATOM     10  C   UNL     1       2.900  14.707  12.261  1.00  0.00     0.004 C 
ENDBRANCH   8   9
ENDBRANCH   7   8
ENDBRANCH   1   7
TORSDOF 6
ENDMDL
