MODEL 1
REMARK VINA RESULT:    -3.642      0.000      0.000
REMARK INTER + INTRA:          -6.172
REMARK INTER:                  -5.558
REMARK INTRA:                  -0.614
REMARK UNBOUND:                -0.614
REMARK SMILES O=C([O-])CCCCCCCCC(=O)[O-]
REMARK SMILES IDX 7 1 6 2 5 3 4 4 2 5 1 6 3 7 8 8 9 9 10 10 11 11 12 12 13 13
REMARK SMILES IDX 14 14
REMARK H PARENT
REMARK Flexibility Score: inf
ROOT
ATOM      1  C   UNL     1       7.714 -32.313  13.312  1.00  0.00     0.000 C 
ENDROOT
BRANCH   1   2
ATOM      2  C   UNL     1       7.082 -33.000  14.535  1.00  0.00     0.000 C 
BRANCH   2   3
ATOM      3  C   UNL     1       7.311 -32.279  15.875  1.00  0.00     0.006 C 
BRANCH   3   4
ATOM      4  C   UNL     1       8.444 -32.902  16.701  1.00  0.00     0.053 C 
BRANCH   4   5
ATOM      5  C   UNL     1       8.959 -31.919  17.706  1.00  0.00     0.041 C 
ATOM      6  O   UNL     1       8.581 -31.984  18.906  1.00  0.00    -0.550 OA
ATOM      7  O   UNL     1       9.892 -30.964  17.329  1.00  0.00    -0.550 OA
ENDBRANCH   4   5
ENDBRANCH   3   4
ENDBRANCH   2   3
ENDBRANCH   1   2
BRANCH   1   8
ATOM      8  C   UNL     1       9.108 -32.867  12.967  1.00  0.00     0.000 C 
BRANCH   8   9
ATOM      9  C   UNL     1      10.208 -31.792  13.089  1.00  0.00     0.000 C 
BRANCH   9  10
ATOM     10  C   UNL     1      11.402 -32.230  13.955  1.00  0.00     0.006 C 
BRANCH  10  11
ATOM     11  C   UNL     1      12.250 -31.051  14.443  1.00  0.00     0.053 C 
BRANCH  11  12
ATOM     12  C   UNL     1      13.634 -31.135  13.883  1.00  0.00     0.041 C 
ATOM     13  O   UNL     1      14.108 -32.247  13.529  1.00  0.00    -0.550 OA
ATOM     14  O   UNL     1      14.385 -29.979  13.706  1.00  0.00    -0.550 OA
ENDBRANCH  11  12
ENDBRANCH  10  11
ENDBRANCH   9  10
ENDBRANCH   8   9
ENDBRANCH   1   8
TORSDOF 9
ENDMDL
MODEL 2
REMARK VINA RESULT:    -3.638      1.010      4.777
REMARK INTER + INTRA:          -6.166
REMARK INTER:                  -5.448
REMARK INTRA:                  -0.717
REMARK UNBOUND:                -0.614
REMARK SMILES O=C([O-])CCCCCCCCC(=O)[O-]
REMARK SMILES IDX 7 1 6 2 5 3 4 4 2 5 1 6 3 7 8 8 9 9 10 10 11 11 12 12 13 13
REMARK SMILES IDX 14 14
REMARK H PARENT
REMARK Flexibility Score: inf
ROOT
ATOM      1  C   UNL     1       8.135 -32.586  13.157  1.00  0.00     0.000 C 
ENDROOT
BRANCH   1   2
ATOM      2  C   UNL     1       9.206 -33.691  13.142  1.00  0.00     0.000 C 
BRANCH   2   3
ATOM      3  C   UNL     1      10.639 -33.211  13.438  1.00  0.00     0.006 C 
BRANCH   3   4
ATOM      4  C   UNL     1      10.720 -31.700  13.692  1.00  0.00     0.053 C 
BRANCH   4   5
ATOM      5  C   UNL     1      11.976 -31.362  14.433  1.00  0.00     0.041 C 
ATOM      6  O   UNL     1      11.915 -30.846  15.581  1.00  0.00    -0.550 OA
ATOM      7  O   UNL     1      13.212 -31.662  13.878  1.00  0.00    -0.550 OA
ENDBRANCH   4   5
ENDBRANCH   3   4
ENDBRANCH   2   3
ENDBRANCH   1   2
BRANCH   1   8
ATOM      8  C   UNL     1       6.753 -33.097  13.603  1.00  0.00     0.000 C 
BRANCH   8   9
ATOM      9  C   UNL     1       6.653 -33.241  15.136  1.00  0.00     0.000 C 
BRANCH   9  10
ATOM     10  C   UNL     1       7.517 -32.226  15.907  1.00  0.00     0.006 C 
BRANCH  10  11
ATOM     11  C   UNL     1       8.543 -32.894  16.829  1.00  0.00     0.053 C 
BRANCH  11  12
ATOM     12  C   UNL     1       8.847 -32.011  17.997  1.00  0.00     0.041 C 
ATOM     13  O   UNL     1       8.320 -32.240  19.118  1.00  0.00    -0.550 OA
ATOM     14  O   UNL     1       9.750 -30.964  17.862  1.00  0.00    -0.550 OA
ENDBRANCH  11  12
ENDBRANCH  10  11
ENDBRANCH   9  10
ENDBRANCH   8   9
ENDBRANCH   1   8
TORSDOF 9
ENDMDL
MODEL 3
REMARK VINA RESULT:    -3.375      1.826      4.826
REMARK INTER + INTRA:          -5.765
REMARK INTER:                  -4.892
REMARK INTRA:                  -0.873
REMARK UNBOUND:                -0.614
REMARK SMILES O=C([O-])CCCCCCCCC(=O)[O-]
REMARK SMILES IDX 7 1 6 2 5 3 4 4 2 5 1 6 3 7 8 8 9 9 10 10 11 11 12 12 13 13
REMARK SMILES IDX 14 14
REMARK H PARENT
REMARK Flexibility Score: inf
ROOT
ATOM      1  C   UNL     1       7.186 -34.724  14.909  1.00  0.00     0.000 C 
ENDROOT
BRANCH   1   2
ATOM      2  C   UNL     1       8.079 -35.379  13.841  1.00  0.00     0.000 C 
BRANCH   2   3
ATOM      3  C   UNL     1       8.810 -34.393  12.912  1.00  0.00     0.006 C 
BRANCH   3   4
ATOM      4  C   UNL     1      10.260 -34.133  13.341  1.00  0.00     0.053 C 
BRANCH   4   5
ATOM      5  C   UNL     1      10.563 -32.668  13.298  1.00  0.00     0.041 C 
ATOM      6  O   UNL     1       9.685 -31.851  12.916  1.00  0.00    -0.550 OA
ATOM      7  O   UNL     1      11.798 -32.201  13.728  1.00  0.00    -0.550 OA
ENDBRANCH   4   5
ENDBRANCH   3   4
ENDBRANCH   2   3
ENDBRANCH   1   2
BRANCH   1   8
ATOM      8  C   UNL     1       6.777 -33.285  14.548  1.00  0.00     0.000 C 
BRANCH   8   9
ATOM      9  C   UNL     1       7.224 -32.267  15.618  1.00  0.00     0.000 C 
BRANCH   9  10
ATOM     10  C   UNL     1       8.548 -32.641  16.307  1.00  0.00     0.006 C 
BRANCH  10  11
ATOM     11  C   UNL     1       8.453 -32.617  17.836  1.00  0.00     0.053 C 
BRANCH  11  12
ATOM     12  C   UNL     1       9.271 -31.494  18.392  1.00  0.00     0.041 C 
ATOM     13  O   UNL     1       9.267 -31.259  19.630  1.00  0.00    -0.550 OA
ATOM     14  O   UNL     1      10.075 -30.736  17.550  1.00  0.00    -0.550 OA
ENDBRANCH  11  12
ENDBRANCH  10  11
ENDBRANCH   9  10
ENDBRANCH   8   9
ENDBRANCH   1   8
TORSDOF 9
ENDMDL
MODEL 4
REMARK VINA RESULT:    -3.366      1.721      2.474
REMARK INTER + INTRA:          -5.751
REMARK INTER:                  -4.941
REMARK INTRA:                  -0.810
REMARK UNBOUND:                -0.614
REMARK SMILES O=C([O-])CCCCCCCCC(=O)[O-]
REMARK SMILES IDX 7 1 6 2 5 3 4 4 2 5 1 6 3 7 8 8 9 9 10 10 11 11 12 12 13 13
REMARK SMILES IDX 14 14
REMARK H PARENT
REMARK Flexibility Score: inf
ROOT
ATOM      1  C   UNL     1       6.857 -33.187  14.003  1.00  0.00     0.000 C 
ENDROOT
BRANCH   1   2
ATOM      2  C   UNL     1       6.896 -32.780  15.486  1.00  0.00     0.000 C 
BRANCH   2   3
ATOM      3  C   UNL     1       8.235 -32.187  15.961  1.00  0.00     0.006 C 
BRANCH   3   4
ATOM      4  C   UNL     1       8.633 -32.662  17.364  1.00  0.00     0.053 C 
BRANCH   4   5
ATOM      5  C   UNL     1       9.256 -31.542  18.138  1.00  0.00     0.041 C 
ATOM      6  O   UNL     1       9.027 -31.419  19.370  1.00  0.00    -0.550 OA
ATOM      7  O   UNL     1      10.128 -30.664  17.509  1.00  0.00    -0.550 OA
ENDBRANCH   4   5
ENDBRANCH   3   4
ENDBRANCH   2   3
ENDBRANCH   1   2
BRANCH   1   8
ATOM      8  C   UNL     1       6.971 -34.708  13.795  1.00  0.00     0.000 C 
BRANCH   8   9
ATOM      9  C   UNL     1       8.436 -35.167  13.647  1.00  0.00     0.000 C 
BRANCH   9  10
ATOM     10  C   UNL     1       9.318 -34.168  12.875  1.00  0.00     0.006 C 
BRANCH  10  11
ATOM     11  C   UNL     1      10.624 -33.838  13.604  1.00  0.00     0.053 C 
BRANCH  11  12
ATOM     12  C   UNL     1      10.907 -32.371  13.531  1.00  0.00     0.041 C 
ATOM     13  O   UNL     1      11.967 -31.904  14.024  1.00  0.00    -0.550 OA
ATOM     14  O   UNL     1      10.022 -31.524  12.875  1.00  0.00    -0.550 OA
ENDBRANCH  11  12
ENDBRANCH  10  11
ENDBRANCH   9  10
ENDBRANCH   8   9
ENDBRANCH   1   8
TORSDOF 9
ENDMDL
MODEL 5
REMARK VINA RESULT:    -2.922      2.699      5.705
REMARK INTER + INTRA:          -5.073
REMARK INTER:                  -4.444
REMARK INTRA:                  -0.629
REMARK UNBOUND:                -0.614
REMARK SMILES O=C([O-])CCCCCCCCC(=O)[O-]
REMARK SMILES IDX 7 1 6 2 5 3 4 4 2 5 1 6 3 7 8 8 9 9 10 10 11 11 12 12 13 13
REMARK SMILES IDX 14 14
REMARK H PARENT
REMARK Flexibility Score: inf
ROOT
ATOM      1  C   UNL     1       9.655 -31.819  15.729  1.00  0.00     0.000 C 
ENDROOT
BRANCH   1   2
ATOM      2  C   UNL     1       9.789 -32.089  14.220  1.00  0.00     0.000 C 
BRANCH   2   3
ATOM      3  C   UNL     1      11.233 -32.087  13.686  1.00  0.00     0.006 C 
BRANCH   3   4
ATOM      4  C   UNL     1      12.162 -31.162  14.482  1.00  0.00     0.053 C 
BRANCH   4   5
ATOM      5  C   UNL     1      13.552 -31.215  13.930  1.00  0.00     0.041 C 
ATOM      6  O   UNL     1      14.043 -32.313  13.557  1.00  0.00    -0.550 OA
ATOM      7  O   UNL     1      14.285 -30.046  13.781  1.00  0.00    -0.550 OA
ENDBRANCH   4   5
ENDBRANCH   3   4
ENDBRANCH   2   3
ENDBRANCH   1   2
BRANCH   1   8
ATOM      8  C   UNL     1       8.325 -32.328  16.313  1.00  0.00     0.000 C 
BRANCH   8   9
ATOM      9  C   UNL     1       8.101 -33.828  16.029  1.00  0.00     0.000 C 
BRANCH   9  10
ATOM     10  C   UNL     1       6.792 -34.123  15.276  1.00  0.00     0.006 C 
BRANCH  10  11
ATOM     11  C   UNL     1       7.018 -34.495  13.807  1.00  0.00     0.053 C 
BRANCH  11  12
ATOM     12  C   UNL     1       7.966 -35.648  13.701  1.00  0.00     0.041 C 
ATOM     13  O   UNL     1       7.623 -36.789  14.108  1.00  0.00    -0.550 OA
ATOM     14  O   UNL     1       9.209 -35.473  13.106  1.00  0.00    -0.550 OA
ENDBRANCH  11  12
ENDBRANCH  10  11
ENDBRANCH   9  10
ENDBRANCH   8   9
ENDBRANCH   1   8
TORSDOF 9
ENDMDL
MODEL 6
REMARK VINA RESULT:    -2.794     15.963     17.988
REMARK INTER + INTRA:          -4.878
REMARK INTER:                  -4.244
REMARK INTRA:                  -0.634
REMARK UNBOUND:                -0.614
REMARK SMILES O=C([O-])CCCCCCCCC(=O)[O-]
REMARK SMILES IDX 7 1 6 2 5 3 4 4 2 5 1 6 3 7 8 8 9 9 10 10 11 11 12 12 13 13
REMARK SMILES IDX 14 14
REMARK H PARENT
REMARK Flexibility Score: inf
ROOT
ATOM      1  C   UNL     1      14.823 -37.124  32.528  1.00  0.00     0.000 C 
ENDROOT
BRANCH   1   2
ATOM      2  C   UNL     1      16.240 -37.024  31.935  1.00  0.00     0.000 C 
BRANCH   2   3
ATOM      3  C   UNL     1      16.328 -36.297  30.581  1.00  0.00     0.006 C 
BRANCH   3   4
ATOM      4  C   UNL     1      17.108 -37.093  29.527  1.00  0.00     0.053 C 
BRANCH   4   5
ATOM      5  C   UNL     1      17.544 -36.195  28.411  1.00  0.00     0.041 C 
ATOM      6  O   UNL     1      17.452 -36.581  27.216  1.00  0.00    -0.550 OA
ATOM      7  O   UNL     1      18.004 -34.916  28.689  1.00  0.00    -0.550 OA
ENDBRANCH   4   5
ENDBRANCH   3   4
ENDBRANCH   2   3
ENDBRANCH   1   2
BRANCH   1   8
ATOM      8  C   UNL     1      13.836 -36.128  31.893  1.00  0.00     0.000 C 
BRANCH   8   9
ATOM      9  C   UNL     1      13.022 -35.360  32.955  1.00  0.00     0.000 C 
BRANCH   9  10
ATOM     10  C   UNL     1      13.406 -33.874  33.068  1.00  0.00     0.006 C 
BRANCH  10  11
ATOM     11  C   UNL     1      14.922 -33.651  33.104  1.00  0.00     0.053 C 
BRANCH  11  12
ATOM     12  C   UNL     1      15.341 -32.731  32.001  1.00  0.00     0.041 C 
ATOM     13  O   UNL     1      15.934 -31.653  32.267  1.00  0.00    -0.550 OA
ATOM     14  O   UNL     1      15.119 -33.087  30.677  1.00  0.00    -0.550 OA
ENDBRANCH  11  12
ENDBRANCH  10  11
ENDBRANCH   9  10
ENDBRANCH   8   9
ENDBRANCH   1   8
TORSDOF 9
ENDMDL
MODEL 7
REMARK VINA RESULT:    -2.773      3.019      4.714
REMARK INTER + INTRA:          -4.845
REMARK INTER:                  -4.120
REMARK INTRA:                  -0.725
REMARK UNBOUND:                -0.614
REMARK SMILES O=C([O-])CCCCCCCCC(=O)[O-]
REMARK SMILES IDX 7 1 6 2 5 3 4 4 2 5 1 6 3 7 8 8 9 9 10 10 11 11 12 12 13 13
REMARK SMILES IDX 14 14
REMARK H PARENT
REMARK Flexibility Score: inf
ROOT
ATOM      1  C   UNL     1      11.699 -32.789  13.568  1.00  0.00     0.000 C 
ENDROOT
BRANCH   1   2
ATOM      2  C   UNL     1      10.687 -33.944  13.459  1.00  0.00     0.000 C 
BRANCH   2   3
ATOM      3  C   UNL     1       9.302 -33.545  12.918  1.00  0.00     0.006 C 
BRANCH   3   4
ATOM      4  C   UNL     1       8.153 -34.017  13.817  1.00  0.00     0.053 C 
BRANCH   4   5
ATOM      5  C   UNL     1       7.139 -32.929  13.985  1.00  0.00     0.041 C 
ATOM      6  O   UNL     1       6.741 -32.606  15.135  1.00  0.00    -0.550 OA
ATOM      7  O   UNL     1       6.672 -32.238  12.875  1.00  0.00    -0.550 OA
ENDBRANCH   4   5
ENDBRANCH   3   4
ENDBRANCH   2   3
ENDBRANCH   1   2
BRANCH   1   8
ATOM      8  C   UNL     1      11.067 -31.486  14.088  1.00  0.00     0.000 C 
BRANCH   8   9
ATOM      9  C   UNL     1      11.847 -30.898  15.283  1.00  0.00     0.000 C 
BRANCH   9  10
ATOM     10  C   UNL     1      11.008 -30.786  16.569  1.00  0.00     0.006 C 
BRANCH  10  11
ATOM     11  C   UNL     1       9.622 -31.426  16.436  1.00  0.00     0.053 C 
BRANCH  11  12
ATOM     12  C   UNL     1       9.073 -31.767  17.785  1.00  0.00     0.041 C 
ATOM     13  O   UNL     1       9.167 -30.944  18.734  1.00  0.00    -0.550 OA
ATOM     14  O   UNL     1       8.413 -32.974  17.982  1.00  0.00    -0.550 OA
ENDBRANCH  11  12
ENDBRANCH  10  11
ENDBRANCH   9  10
ENDBRANCH   8   9
ENDBRANCH   1   8
TORSDOF 9
ENDMDL
MODEL 8
REMARK VINA RESULT:    -2.640      2.848      4.976
REMARK INTER + INTRA:          -4.643
REMARK INTER:                  -3.962
REMARK INTRA:                  -0.680
REMARK UNBOUND:                -0.614
REMARK SMILES O=C([O-])CCCCCCCCC(=O)[O-]
REMARK SMILES IDX 7 1 6 2 5 3 4 4 2 5 1 6 3 7 8 8 9 9 10 10 11 11 12 12 13 13
REMARK SMILES IDX 14 14
REMARK H PARENT
REMARK Flexibility Score: inf
ROOT
ATOM      1  C   UNL     1      10.341 -34.345  13.536  1.00  0.00     0.000 C 
ENDROOT
BRANCH   1   2
ATOM      2  C   UNL     1       9.680 -35.579  12.896  1.00  0.00     0.000 C 
BRANCH   2   3
ATOM      3  C   UNL     1       8.141 -35.588  12.944  1.00  0.00     0.006 C 
BRANCH   3   4
ATOM      4  C   UNL     1       7.585 -36.478  14.063  1.00  0.00     0.053 C 
BRANCH   4   5
ATOM      5  C   UNL     1       6.567 -35.731  14.867  1.00  0.00     0.041 C 
ATOM      6  O   UNL     1       6.281 -34.539  14.576  1.00  0.00    -0.550 OA
ATOM      7  O   UNL     1       5.899 -36.366  15.905  1.00  0.00    -0.550 OA
ENDBRANCH   4   5
ENDBRANCH   3   4
ENDBRANCH   2   3
ENDBRANCH   1   2
BRANCH   1   8
ATOM      8  C   UNL     1       9.570 -33.041  13.261  1.00  0.00     0.000 C 
BRANCH   8   9
ATOM      9  C   UNL     1       9.606 -32.079  14.466  1.00  0.00     0.000 C 
BRANCH   9  10
ATOM     10  C   UNL     1       8.402 -32.233  15.413  1.00  0.00     0.006 C 
BRANCH  10  11
ATOM     11  C   UNL     1       8.773 -32.882  16.750  1.00  0.00     0.053 C 
BRANCH  11  12
ATOM     12  C   UNL     1       8.930 -31.840  17.811  1.00  0.00     0.041 C 
ATOM     13  O   UNL     1       8.155 -31.825  18.804  1.00  0.00    -0.550 OA
ATOM     14  O   UNL     1       9.961 -30.913  17.729  1.00  0.00    -0.550 OA
ENDBRANCH  11  12
ENDBRANCH  10  11
ENDBRANCH   9  10
ENDBRANCH   8   9
ENDBRANCH   1   8
TORSDOF 9
ENDMDL
