MODEL 1
REMARK VINA RESULT:    -4.492      0.000      0.000
REMARK INTER + INTRA:         -16.951
REMARK INTER:                 -11.844
REMARK INTRA:                  -5.107
REMARK UNBOUND:                -5.107
REMARK SMILES CCCCCCCCCCCCCCCCCCCCCCCCCCCCCC(=O)[O-]
REMARK SMILES IDX 16 1 17 2 18 3 19 4 20 5 21 6 22 7 23 8 24 9 25 10 26 11
REMARK SMILES IDX 27 12 28 13 29 14 30 15 31 16 32 17 15 18 14 19 13 20 12 21
REMARK SMILES IDX 11 22 10 23 9 24 8 25 7 26 6 27 5 28 4 29 3 30 2 31 1 32
REMARK H PARENT
REMARK Flexibility Score: inf
ROOT
ATOM      1  C   UNL     1     -14.087  -2.844  34.751  1.00  0.00     0.000 C 
ENDROOT
BRANCH   1   2
ATOM      2  C   UNL     1     -13.013  -2.571  35.826  1.00  0.00     0.000 C 
BRANCH   2   3
ATOM      3  C   UNL     1     -12.099  -3.771  36.128  1.00  0.00     0.000 C 
BRANCH   3   4
ATOM      4  C   UNL     1     -12.555  -4.585  37.351  1.00  0.00     0.000 C 
BRANCH   4   5
ATOM      5  C   UNL     1     -12.498  -6.102  37.104  1.00  0.00     0.000 C 
BRANCH   5   6
ATOM      6  C   UNL     1     -13.770  -6.823  37.578  1.00  0.00     0.000 C 
BRANCH   6   7
ATOM      7  C   UNL     1     -14.649  -7.230  36.387  1.00  0.00     0.000 C 
BRANCH   7   8
ATOM      8  C   UNL     1     -16.065  -6.636  36.469  1.00  0.00     0.000 C 
BRANCH   8   9
ATOM      9  C   UNL     1     -16.074  -5.106  36.337  1.00  0.00     0.000 C 
BRANCH   9  10
ATOM     10  C   UNL     1     -16.469  -4.444  37.666  1.00  0.00     0.000 C 
BRANCH  10  11
ATOM     11  C   UNL     1     -16.274  -2.917  37.661  1.00  0.00     0.000 C 
BRANCH  11  12
ATOM     12  C   UNL     1     -17.576  -2.094  37.638  1.00  0.00     0.000 C 
BRANCH  12  13
ATOM     13  C   UNL     1     -17.337  -0.586  37.823  1.00  0.00     0.006 C 
BRANCH  13  14
ATOM     14  C   UNL     1     -18.554   0.250  37.405  1.00  0.00     0.053 C 
BRANCH  14  15
ATOM     15  C   UNL     1     -18.226   1.710  37.315  1.00  0.00     0.041 C 
ATOM     16  O   UNL     1     -18.215   2.423  38.352  1.00  0.00    -0.550 OA
ATOM     17  O   UNL     1     -17.905   2.274  36.087  1.00  0.00    -0.550 OA
ENDBRANCH  14  15
ENDBRANCH  13  14
ENDBRANCH  12  13
ENDBRANCH  11  12
ENDBRANCH  10  11
ENDBRANCH   9  10
ENDBRANCH   8   9
ENDBRANCH   7   8
ENDBRANCH   6   7
ENDBRANCH   5   6
ENDBRANCH   4   5
ENDBRANCH   3   4
ENDBRANCH   2   3
ENDBRANCH   1   2
BRANCH   1  18
ATOM     18  C   UNL     1     -13.683  -2.478  33.306  1.00  0.00     0.000 C 
BRANCH  18  19
ATOM     19  C   UNL     1     -13.650  -3.646  32.298  1.00  0.00     0.000 C 
BRANCH  19  20
ATOM     20  C   UNL     1     -12.606  -4.738  32.590  1.00  0.00     0.000 C 
BRANCH  20  21
ATOM     21  C   UNL     1     -13.180  -5.917  33.384  1.00  0.00     0.000 C 
BRANCH  21  22
ATOM     22  C   UNL     1     -12.687  -7.252  32.808  1.00  0.00     0.000 C 
BRANCH  22  23
ATOM     23  C   UNL     1     -13.769  -8.343  32.825  1.00  0.00     0.000 C 
BRANCH  23  24
ATOM     24  C   UNL     1     -15.192  -7.766  32.780  1.00  0.00    -0.000 C 
BRANCH  24  25
ATOM     25  C   UNL     1     -15.584  -7.378  31.344  1.00  0.00    -0.000 C 
BRANCH  25  26
ATOM     26  C   UNL     1     -16.169  -5.955  31.255  1.00  0.00    -0.000 C 
BRANCH  26  27
ATOM     27  C   UNL     1     -17.345  -5.694  32.218  1.00  0.00    -0.000 C 
BRANCH  27  28
ATOM     28  C   UNL     1     -17.296  -4.314  32.906  1.00  0.00    -0.000 C 
BRANCH  28  29
ATOM     29  C   UNL     1     -17.218  -3.158  31.895  1.00  0.00    -0.000 C 
BRANCH  29  30
ATOM     30  C   UNL     1     -18.449  -2.252  32.001  1.00  0.00    -0.000 C 
BRANCH  30  31
ATOM     31  C   UNL     1     -18.621  -1.719  33.428  1.00  0.00    -0.003 C 
ATOM     32  C   UNL     1     -17.280  -1.316  34.031  1.00  0.00     0.004 C 
ENDBRANCH  30  31
ENDBRANCH  29  30
ENDBRANCH  28  29
ENDBRANCH  27  28
ENDBRANCH  26  27
ENDBRANCH  25  26
ENDBRANCH  24  25
ENDBRANCH  23  24
ENDBRANCH  22  23
ENDBRANCH  21  22
ENDBRANCH  20  21
ENDBRANCH  19  20
ENDBRANCH  18  19
ENDBRANCH   1  18
TORSDOF 28
ENDMDL
MODEL 2
REMARK VINA RESULT:    -4.470     12.566     16.413
REMARK INTER + INTRA:         -16.893
REMARK INTER:                 -10.895
REMARK INTRA:                  -5.998
REMARK UNBOUND:                -5.107
REMARK SMILES CCCCCCCCCCCCCCCCCCCCCCCCCCCCCC(=O)[O-]
REMARK SMILES IDX 16 1 17 2 18 3 19 4 20 5 21 6 22 7 23 8 24 9 25 10 26 11
REMARK SMILES IDX 27 12 28 13 29 14 30 15 31 16 32 17 15 18 14 19 13 20 12 21
REMARK SMILES IDX 11 22 10 23 9 24 8 25 7 26 6 27 5 28 4 29 3 30 2 31 1 32
REMARK H PARENT
REMARK Flexibility Score: inf
ROOT
ATOM      1  C   UNL     1     -26.178  -1.985  27.841  1.00  0.00     0.000 C 
ENDROOT
BRANCH   1   2
ATOM      2  C   UNL     1     -27.043  -1.472  26.669  1.00  0.00     0.000 C 
BRANCH   2   3
ATOM      3  C   UNL     1     -28.039  -2.506  26.116  1.00  0.00     0.000 C 
BRANCH   3   4
ATOM      4  C   UNL     1     -29.380  -2.517  26.870  1.00  0.00     0.000 C 
BRANCH   4   5
ATOM      5  C   UNL     1     -30.529  -1.922  26.038  1.00  0.00     0.000 C 
BRANCH   5   6
ATOM      6  C   UNL     1     -30.059  -0.787  25.113  1.00  0.00     0.000 C 
BRANCH   6   7
ATOM      7  C   UNL     1     -30.862  -0.774  23.805  1.00  0.00     0.000 C 
BRANCH   7   8
ATOM      8  C   UNL     1     -29.961  -0.839  22.560  1.00  0.00     0.000 C 
BRANCH   8   9
ATOM      9  C   UNL     1     -28.568  -0.241  22.805  1.00  0.00     0.000 C 
BRANCH   9  10
ATOM     10  C   UNL     1     -27.496  -1.008  22.015  1.00  0.00     0.000 C 
BRANCH  10  11
ATOM     11  C   UNL     1     -26.587  -1.869  22.911  1.00  0.00     0.000 C 
BRANCH  11  12
ATOM     12  C   UNL     1     -25.122  -1.402  22.993  1.00  0.00     0.000 C 
BRANCH  12  13
ATOM     13  C   UNL     1     -24.939  -0.152  23.871  1.00  0.00     0.006 C 
BRANCH  13  14
ATOM     14  C   UNL     1     -23.767   0.721  23.401  1.00  0.00     0.053 C 
BRANCH  14  15
ATOM     15  C   UNL     1     -22.715   0.862  24.459  1.00  0.00     0.041 C 
ATOM     16  O   UNL     1     -21.848  -0.038  24.617  1.00  0.00    -0.550 OA
ATOM     17  O   UNL     1     -22.676   2.002  25.252  1.00  0.00    -0.550 OA
ENDBRANCH  14  15
ENDBRANCH  13  14
ENDBRANCH  12  13
ENDBRANCH  11  12
ENDBRANCH  10  11
ENDBRANCH   9  10
ENDBRANCH   8   9
ENDBRANCH   7   8
ENDBRANCH   6   7
ENDBRANCH   5   6
ENDBRANCH   4   5
ENDBRANCH   3   4
ENDBRANCH   2   3
ENDBRANCH   1   2
BRANCH   1  18
ATOM     18  C   UNL     1     -24.659  -2.030  27.569  1.00  0.00     0.000 C 
BRANCH  18  19
ATOM     19  C   UNL     1     -24.235  -2.593  26.196  1.00  0.00     0.000 C 
BRANCH  19  20
ATOM     20  C   UNL     1     -24.549  -4.083  25.971  1.00  0.00     0.000 C 
BRANCH  20  21
ATOM     21  C   UNL     1     -24.050  -4.600  24.616  1.00  0.00     0.000 C 
BRANCH  21  22
ATOM     22  C   UNL     1     -25.223  -5.096  23.758  1.00  0.00     0.000 C 
BRANCH  22  23
ATOM     23  C   UNL     1     -26.397  -5.617  24.601  1.00  0.00     0.000 C 
BRANCH  23  24
ATOM     24  C   UNL     1     -26.940  -6.961  24.092  1.00  0.00    -0.000 C 
BRANCH  24  25
ATOM     25  C   UNL     1     -27.680  -7.715  25.210  1.00  0.00    -0.000 C 
BRANCH  25  26
ATOM     26  C   UNL     1     -29.204  -7.483  25.172  1.00  0.00    -0.000 C 
BRANCH  26  27
ATOM     27  C   UNL     1     -29.722  -6.508  26.248  1.00  0.00    -0.000 C 
BRANCH  27  28
ATOM     28  C   UNL     1     -31.045  -5.810  25.875  1.00  0.00    -0.000 C 
BRANCH  28  29
ATOM     29  C   UNL     1     -31.380  -5.948  24.380  1.00  0.00    -0.000 C 
BRANCH  29  30
ATOM     30  C   UNL     1     -31.200  -4.612  23.651  1.00  0.00    -0.000 C 
BRANCH  30  31
ATOM     31  C   UNL     1     -29.717  -4.323  23.387  1.00  0.00    -0.003 C 
ATOM     32  C   UNL     1     -29.266  -4.928  22.062  1.00  0.00     0.004 C 
ENDBRANCH  30  31
ENDBRANCH  29  30
ENDBRANCH  28  29
ENDBRANCH  27  28
ENDBRANCH  26  27
ENDBRANCH  25  26
ENDBRANCH  24  25
ENDBRANCH  23  24
ENDBRANCH  22  23
ENDBRANCH  21  22
ENDBRANCH  20  21
ENDBRANCH  19  20
ENDBRANCH  18  19
ENDBRANCH   1  18
TORSDOF 28
ENDMDL
MODEL 3
REMARK VINA RESULT:    -4.458     12.270     16.164
REMARK INTER + INTRA:         -16.863
REMARK INTER:                 -11.291
REMARK INTRA:                  -5.572
REMARK UNBOUND:                -5.107
REMARK SMILES CCCCCCCCCCCCCCCCCCCCCCCCCCCCCC(=O)[O-]
REMARK SMILES IDX 16 1 17 2 18 3 19 4 20 5 21 6 22 7 23 8 24 9 25 10 26 11
REMARK SMILES IDX 27 12 28 13 29 14 30 15 31 16 32 17 15 18 14 19 13 20 12 21
REMARK SMILES IDX 11 22 10 23 9 24 8 25 7 26 6 27 5 28 4 29 3 30 2 31 1 32
REMARK H PARENT
REMARK Flexibility Score: inf
ROOT
ATOM      1  C   UNL     1     -24.859  -1.977  26.858  1.00  0.00     0.000 C 
ENDROOT
BRANCH   1   2
ATOM      2  C   UNL     1     -24.266  -3.399  26.758  1.00  0.00     0.000 C 
BRANCH   2   3
ATOM      3  C   UNL     1     -24.357  -4.027  25.357  1.00  0.00     0.000 C 
BRANCH   3   4
ATOM      4  C   UNL     1     -25.774  -4.512  25.003  1.00  0.00     0.000 C 
BRANCH   4   5
ATOM      5  C   UNL     1     -25.888  -4.983  23.544  1.00  0.00     0.000 C 
BRANCH   5   6
ATOM      6  C   UNL     1     -27.318  -4.853  22.993  1.00  0.00     0.000 C 
BRANCH   6   7
ATOM      7  C   UNL     1     -28.102  -3.772  23.749  1.00  0.00     0.000 C 
BRANCH   7   8
ATOM      8  C   UNL     1     -29.093  -3.021  22.843  1.00  0.00     0.000 C 
BRANCH   8   9
ATOM      9  C   UNL     1     -29.164  -1.520  23.160  1.00  0.00     0.000 C 
BRANCH   9  10
ATOM     10  C   UNL     1     -27.761  -0.945  23.409  1.00  0.00     0.000 C 
BRANCH  10  11
ATOM     11  C   UNL     1     -26.762  -1.283  22.289  1.00  0.00     0.000 C 
BRANCH  11  12
ATOM     12  C   UNL     1     -25.289  -1.363  22.732  1.00  0.00     0.000 C 
BRANCH  12  13
ATOM     13  C   UNL     1     -24.956  -0.398  23.883  1.00  0.00     0.006 C 
BRANCH  13  14
ATOM     14  C   UNL     1     -23.923   0.660  23.473  1.00  0.00     0.053 C 
BRANCH  14  15
ATOM     15  C   UNL     1     -22.537   0.285  23.901  1.00  0.00     0.041 C 
ATOM     16  O   UNL     1     -22.355  -0.375  24.959  1.00  0.00    -0.550 OA
ATOM     17  O   UNL     1     -21.447   0.641  23.116  1.00  0.00    -0.550 OA
ENDBRANCH  14  15
ENDBRANCH  13  14
ENDBRANCH  12  13
ENDBRANCH  11  12
ENDBRANCH  10  11
ENDBRANCH   9  10
ENDBRANCH   8   9
ENDBRANCH   7   8
ENDBRANCH   6   7
ENDBRANCH   5   6
ENDBRANCH   4   5
ENDBRANCH   3   4
ENDBRANCH   2   3
ENDBRANCH   1   2
BRANCH   1  18
ATOM     18  C   UNL     1     -26.175  -1.866  27.658  1.00  0.00     0.000 C 
BRANCH  18  19
ATOM     19  C   UNL     1     -27.436  -1.518  26.839  1.00  0.00     0.000 C 
BRANCH  19  20
ATOM     20  C   UNL     1     -28.618  -2.489  27.010  1.00  0.00     0.000 C 
BRANCH  20  21
ATOM     21  C   UNL     1     -29.980  -1.818  26.788  1.00  0.00     0.000 C 
BRANCH  21  22
ATOM     22  C   UNL     1     -31.047  -2.860  26.422  1.00  0.00     0.000 C 
BRANCH  22  23
ATOM     23  C   UNL     1     -30.484  -4.288  26.356  1.00  0.00     0.000 C 
BRANCH  23  24
ATOM     24  C   UNL     1     -31.442  -5.270  25.665  1.00  0.00    -0.000 C 
BRANCH  24  25
ATOM     25  C   UNL     1     -30.678  -6.213  24.721  1.00  0.00    -0.000 C 
BRANCH  25  26
ATOM     26  C   UNL     1     -29.958  -7.349  25.474  1.00  0.00    -0.000 C 
BRANCH  26  27
ATOM     27  C   UNL     1     -28.455  -7.097  25.710  1.00  0.00    -0.000 C 
BRANCH  27  28
ATOM     28  C   UNL     1     -27.530  -8.050  24.927  1.00  0.00    -0.000 C 
BRANCH  28  29
ATOM     29  C   UNL     1     -26.284  -8.451  25.733  1.00  0.00    -0.000 C 
BRANCH  29  30
ATOM     30  C   UNL     1     -25.010  -8.275  24.900  1.00  0.00    -0.000 C 
BRANCH  30  31
ATOM     31  C   UNL     1     -23.883  -7.661  25.738  1.00  0.00    -0.003 C 
ATOM     32  C   UNL     1     -23.207  -8.715  26.608  1.00  0.00     0.004 C 
ENDBRANCH  30  31
ENDBRANCH  29  30
ENDBRANCH  28  29
ENDBRANCH  27  28
ENDBRANCH  26  27
ENDBRANCH  25  26
ENDBRANCH  24  25
ENDBRANCH  23  24
ENDBRANCH  22  23
ENDBRANCH  21  22
ENDBRANCH  20  21
ENDBRANCH  19  20
ENDBRANCH  18  19
ENDBRANCH   1  18
TORSDOF 28
ENDMDL
MODEL 4
REMARK VINA RESULT:    -4.416     12.990     16.487
REMARK INTER + INTRA:         -16.751
REMARK INTER:                 -11.305
REMARK INTRA:                  -5.445
REMARK UNBOUND:                -5.107
REMARK SMILES CCCCCCCCCCCCCCCCCCCCCCCCCCCCCC(=O)[O-]
REMARK SMILES IDX 16 1 17 2 18 3 19 4 20 5 21 6 22 7 23 8 24 9 25 10 26 11
REMARK SMILES IDX 27 12 28 13 29 14 30 15 31 16 32 17 15 18 14 19 13 20 12 21
REMARK SMILES IDX 11 22 10 23 9 24 8 25 7 26 6 27 5 28 4 29 3 30 2 31 1 32
REMARK H PARENT
REMARK Flexibility Score: inf
ROOT
ATOM      1  C   UNL     1     -25.246  -1.842  27.551  1.00  0.00     0.000 C 
ENDROOT
BRANCH   1   2
ATOM      2  C   UNL     1     -26.736  -2.108  27.245  1.00  0.00     0.000 C 
BRANCH   2   3
ATOM      3  C   UNL     1     -27.394  -1.055  26.338  1.00  0.00     0.000 C 
BRANCH   3   4
ATOM      4  C   UNL     1     -28.905  -1.279  26.150  1.00  0.00     0.000 C 
BRANCH   4   5
ATOM      5  C   UNL     1     -29.363  -2.662  26.643  1.00  0.00     0.000 C 
BRANCH   5   6
ATOM      6  C   UNL     1     -30.855  -2.917  26.377  1.00  0.00     0.000 C 
BRANCH   6   7
ATOM      7  C   UNL     1     -31.061  -4.227  25.603  1.00  0.00     0.000 C 
BRANCH   7   8
ATOM      8  C   UNL     1     -31.067  -5.460  26.522  1.00  0.00     0.000 C 
BRANCH   8   9
ATOM      9  C   UNL     1     -29.898  -6.415  26.240  1.00  0.00     0.000 C 
BRANCH   9  10
ATOM     10  C   UNL     1     -29.752  -6.672  24.732  1.00  0.00     0.000 C 
BRANCH  10  11
ATOM     11  C   UNL     1     -29.839  -8.163  24.363  1.00  0.00     0.000 C 
BRANCH  11  12
ATOM     12  C   UNL     1     -28.500  -8.817  23.974  1.00  0.00     0.000 C 
BRANCH  12  13
ATOM     13  C   UNL     1     -27.291  -7.895  24.208  1.00  0.00     0.006 C 
BRANCH  13  14
ATOM     14  C   UNL     1     -26.564  -8.212  25.522  1.00  0.00     0.053 C 
BRANCH  14  15
ATOM     15  C   UNL     1     -25.085  -8.351  25.323  1.00  0.00     0.041 C 
ATOM     16  O   UNL     1     -24.627  -9.252  24.573  1.00  0.00    -0.550 OA
ATOM     17  O   UNL     1     -24.215  -7.466  25.947  1.00  0.00    -0.550 OA
ENDBRANCH  14  15
ENDBRANCH  13  14
ENDBRANCH  12  13
ENDBRANCH  11  12
ENDBRANCH  10  11
ENDBRANCH   9  10
ENDBRANCH   8   9
ENDBRANCH   7   8
ENDBRANCH   6   7
ENDBRANCH   5   6
ENDBRANCH   4   5
ENDBRANCH   3   4
ENDBRANCH   2   3
ENDBRANCH   1   2
BRANCH   1  18
ATOM     18  C   UNL     1     -24.245  -2.481  26.564  1.00  0.00     0.000 C 
BRANCH  18  19
ATOM     19  C   UNL     1     -24.597  -3.899  26.068  1.00  0.00     0.000 C 
BRANCH  19  20
ATOM     20  C   UNL     1     -24.137  -4.227  24.636  1.00  0.00     0.000 C 
BRANCH  20  21
ATOM     21  C   UNL     1     -25.263  -4.799  23.764  1.00  0.00     0.000 C 
BRANCH  21  22
ATOM     22  C   UNL     1     -26.629  -4.270  24.224  1.00  0.00     0.000 C 
BRANCH  22  23
ATOM     23  C   UNL     1     -27.723  -4.445  23.160  1.00  0.00     0.000 C 
BRANCH  23  24
ATOM     24  C   UNL     1     -28.685  -3.248  23.098  1.00  0.00    -0.000 C 
BRANCH  24  25
ATOM     25  C   UNL     1     -28.255  -2.252  22.008  1.00  0.00    -0.000 C 
BRANCH  25  26
ATOM     26  C   UNL     1     -27.756  -0.916  22.592  1.00  0.00    -0.000 C 
BRANCH  26  27
ATOM     27  C   UNL     1     -26.315  -0.547  22.183  1.00  0.00    -0.000 C 
BRANCH  27  28
ATOM     28  C   UNL     1     -25.236  -1.071  23.151  1.00  0.00    -0.000 C 
BRANCH  28  29
ATOM     29  C   UNL     1     -24.615   0.051  23.999  1.00  0.00    -0.000 C 
BRANCH  29  30
ATOM     30  C   UNL     1     -23.165   0.318  23.582  1.00  0.00    -0.000 C 
BRANCH  30  31
ATOM     31  C   UNL     1     -22.907   1.820  23.412  1.00  0.00    -0.003 C 
ATOM     32  C   UNL     1     -23.118   2.254  21.966  1.00  0.00     0.004 C 
ENDBRANCH  30  31
ENDBRANCH  29  30
ENDBRANCH  28  29
ENDBRANCH  27  28
ENDBRANCH  26  27
ENDBRANCH  25  26
ENDBRANCH  24  25
ENDBRANCH  23  24
ENDBRANCH  22  23
ENDBRANCH  21  22
ENDBRANCH  20  21
ENDBRANCH  19  20
ENDBRANCH  18  19
ENDBRANCH   1  18
TORSDOF 28
ENDMDL
MODEL 5
REMARK VINA RESULT:    -4.379     10.781     14.589
REMARK INTER + INTRA:         -16.653
REMARK INTER:                 -11.972
REMARK INTRA:                  -4.681
REMARK UNBOUND:                -5.107
REMARK SMILES CCCCCCCCCCCCCCCCCCCCCCCCCCCCCC(=O)[O-]
REMARK SMILES IDX 16 1 17 2 18 3 19 4 20 5 21 6 22 7 23 8 24 9 25 10 26 11
REMARK SMILES IDX 27 12 28 13 29 14 30 15 31 16 32 17 15 18 14 19 13 20 12 21
REMARK SMILES IDX 11 22 10 23 9 24 8 25 7 26 6 27 5 28 4 29 3 30 2 31 1 32
REMARK H PARENT
REMARK Flexibility Score: inf
ROOT
ATOM      1  C   UNL     1     -24.225  -2.432  27.689  1.00  0.00     0.000 C 
ENDROOT
BRANCH   1   2
ATOM      2  C   UNL     1     -25.424  -1.513  28.008  1.00  0.00     0.000 C 
BRANCH   2   3
ATOM      3  C   UNL     1     -26.782  -2.055  27.533  1.00  0.00     0.000 C 
BRANCH   3   4
ATOM      4  C   UNL     1     -27.384  -1.245  26.371  1.00  0.00     0.000 C 
BRANCH   4   5
ATOM      5  C   UNL     1     -28.696  -1.852  25.846  1.00  0.00     0.000 C 
BRANCH   5   6
ATOM      6  C   UNL     1     -28.569  -2.372  24.405  1.00  0.00     0.000 C 
BRANCH   6   7
ATOM      7  C   UNL     1     -28.011  -3.801  24.381  1.00  0.00     0.000 C 
BRANCH   7   8
ATOM      8  C   UNL     1     -26.649  -3.890  23.673  1.00  0.00     0.000 C 
BRANCH   8   9
ATOM      9  C   UNL     1     -25.477  -4.028  24.657  1.00  0.00     0.000 C 
BRANCH   9  10
ATOM     10  C   UNL     1     -24.276  -3.187  24.199  1.00  0.00     0.000 C 
BRANCH  10  11
ATOM     11  C   UNL     1     -24.684  -1.844  23.566  1.00  0.00     0.000 C 
BRANCH  11  12
ATOM     12  C   UNL     1     -24.490  -0.613  24.470  1.00  0.00     0.000 C 
BRANCH  12  13
ATOM     13  C   UNL     1     -23.009  -0.286  24.731  1.00  0.00     0.006 C 
BRANCH  13  14
ATOM     14  C   UNL     1     -22.350   0.414  23.535  1.00  0.00     0.053 C 
BRANCH  14  15
ATOM     15  C   UNL     1     -22.867   1.808  23.348  1.00  0.00     0.041 C 
ATOM     16  O   UNL     1     -23.139   2.235  22.195  1.00  0.00    -0.550 OA
ATOM     17  O   UNL     1     -23.076   2.625  24.452  1.00  0.00    -0.550 OA
ENDBRANCH  14  15
ENDBRANCH  13  14
ENDBRANCH  12  13
ENDBRANCH  11  12
ENDBRANCH  10  11
ENDBRANCH   9  10
ENDBRANCH   8   9
ENDBRANCH   7   8
ENDBRANCH   6   7
ENDBRANCH   5   6
ENDBRANCH   4   5
ENDBRANCH   3   4
ENDBRANCH   2   3
ENDBRANCH   1   2
BRANCH   1  18
ATOM     18  C   UNL     1     -23.830  -3.414  28.812  1.00  0.00     0.000 C 
BRANCH  18  19
ATOM     19  C   UNL     1     -23.499  -4.854  28.366  1.00  0.00     0.000 C 
BRANCH  19  20
ATOM     20  C   UNL     1     -22.415  -5.566  29.195  1.00  0.00     0.000 C 
BRANCH  20  21
ATOM     21  C   UNL     1     -22.136  -6.995  28.711  1.00  0.00     0.000 C 
BRANCH  21  22
ATOM     22  C   UNL     1     -22.477  -7.141  27.221  1.00  0.00     0.000 C 
BRANCH  22  23
ATOM     23  C   UNL     1     -22.644  -8.607  26.791  1.00  0.00     0.000 C 
BRANCH  23  24
ATOM     24  C   UNL     1     -23.997  -8.875  26.115  1.00  0.00    -0.000 C 
BRANCH  24  25
ATOM     25  C   UNL     1     -24.701  -7.558  25.750  1.00  0.00    -0.000 C 
BRANCH  25  26
ATOM     26  C   UNL     1     -25.721  -7.729  24.607  1.00  0.00    -0.000 C 
BRANCH  26  27
ATOM     27  C   UNL     1     -27.164  -7.337  24.983  1.00  0.00    -0.000 C 
BRANCH  27  28
ATOM     28  C   UNL     1     -28.244  -8.235  24.346  1.00  0.00    -0.000 C 
BRANCH  28  29
ATOM     29  C   UNL     1     -29.659  -7.660  24.516  1.00  0.00    -0.000 C 
BRANCH  29  30
ATOM     30  C   UNL     1     -29.792  -6.905  25.843  1.00  0.00    -0.000 C 
BRANCH  30  31
ATOM     31  C   UNL     1     -30.994  -5.954  25.819  1.00  0.00    -0.003 C 
ATOM     32  C   UNL     1     -30.762  -4.752  26.728  1.00  0.00     0.004 C 
ENDBRANCH  30  31
ENDBRANCH  29  30
ENDBRANCH  28  29
ENDBRANCH  27  28
ENDBRANCH  26  27
ENDBRANCH  25  26
ENDBRANCH  24  25
ENDBRANCH  23  24
ENDBRANCH  22  23
ENDBRANCH  21  22
ENDBRANCH  20  21
ENDBRANCH  19  20
ENDBRANCH  18  19
ENDBRANCH   1  18
TORSDOF 28
ENDMDL
MODEL 6
REMARK VINA RESULT:    -4.374      3.468      7.398
REMARK INTER + INTRA:         -16.641
REMARK INTER:                 -10.917
REMARK INTRA:                  -5.724
REMARK UNBOUND:                -5.107
REMARK SMILES CCCCCCCCCCCCCCCCCCCCCCCCCCCCCC(=O)[O-]
REMARK SMILES IDX 16 1 17 2 18 3 19 4 20 5 21 6 22 7 23 8 24 9 25 10 26 11
REMARK SMILES IDX 27 12 28 13 29 14 30 15 31 16 32 17 15 18 14 19 13 20 12 21
REMARK SMILES IDX 11 22 10 23 9 24 8 25 7 26 6 27 5 28 4 29 3 30 2 31 1 32
REMARK H PARENT
REMARK Flexibility Score: inf
ROOT
ATOM      1  C   UNL     1     -17.660  -1.017  34.603  1.00  0.00     0.000 C 
ENDROOT
BRANCH   1   2
ATOM      2  C   UNL     1     -18.135  -2.204  33.736  1.00  0.00     0.000 C 
BRANCH   2   3
ATOM      3  C   UNL     1     -18.345  -1.861  32.252  1.00  0.00     0.000 C 
BRANCH   3   4
ATOM      4  C   UNL     1     -17.109  -2.153  31.383  1.00  0.00     0.000 C 
BRANCH   4   5
ATOM      5  C   UNL     1     -16.226  -3.267  31.970  1.00  0.00     0.000 C 
BRANCH   5   6
ATOM      6  C   UNL     1     -14.777  -3.200  31.459  1.00  0.00     0.000 C 
BRANCH   6   7
ATOM      7  C   UNL     1     -13.800  -2.923  32.610  1.00  0.00     0.000 C 
BRANCH   7   8
ATOM      8  C   UNL     1     -13.249  -4.214  33.239  1.00  0.00     0.000 C 
BRANCH   8   9
ATOM      9  C   UNL     1     -12.978  -5.311  32.199  1.00  0.00     0.000 C 
BRANCH   9  10
ATOM     10  C   UNL     1     -13.082  -6.706  32.835  1.00  0.00     0.000 C 
BRANCH  10  11
ATOM     11  C   UNL     1     -13.865  -7.708  31.968  1.00  0.00     0.000 C 
BRANCH  11  12
ATOM     12  C   UNL     1     -15.195  -7.177  31.401  1.00  0.00     0.000 C 
BRANCH  12  13
ATOM     13  C   UNL     1     -16.277  -6.992  32.479  1.00  0.00     0.006 C 
BRANCH  13  14
ATOM     14  C   UNL     1     -17.633  -6.595  31.880  1.00  0.00     0.053 C 
BRANCH  14  15
ATOM     15  C   UNL     1     -18.438  -7.793  31.475  1.00  0.00     0.041 C 
ATOM     16  O   UNL     1     -18.473  -8.813  32.212  1.00  0.00    -0.550 OA
ATOM     17  O   UNL     1     -19.173  -7.768  30.297  1.00  0.00    -0.550 OA
ENDBRANCH  14  15
ENDBRANCH  13  14
ENDBRANCH  12  13
ENDBRANCH  11  12
ENDBRANCH  10  11
ENDBRANCH   9  10
ENDBRANCH   8   9
ENDBRANCH   7   8
ENDBRANCH   6   7
ENDBRANCH   5   6
ENDBRANCH   4   5
ENDBRANCH   3   4
ENDBRANCH   2   3
ENDBRANCH   1   2
BRANCH   1  18
ATOM     18  C   UNL     1     -16.863  -1.401  35.868  1.00  0.00     0.000 C 
BRANCH  18  19
ATOM     19  C   UNL     1     -15.740  -2.440  35.670  1.00  0.00     0.000 C 
BRANCH  19  20
ATOM     20  C   UNL     1     -15.911  -3.751  36.458  1.00  0.00     0.000 C 
BRANCH  20  21
ATOM     21  C   UNL     1     -16.013  -4.985  35.552  1.00  0.00     0.000 C 
BRANCH  21  22
ATOM     22  C   UNL     1     -14.825  -5.930  35.785  1.00  0.00     0.000 C 
BRANCH  22  23
ATOM     23  C   UNL     1     -15.259  -7.389  35.993  1.00  0.00     0.000 C 
BRANCH  23  24
ATOM     24  C   UNL     1     -14.347  -8.144  36.972  1.00  0.00    -0.000 C 
BRANCH  24  25
ATOM     25  C   UNL     1     -13.510  -7.165  37.812  1.00  0.00    -0.000 C 
BRANCH  25  26
ATOM     26  C   UNL     1     -14.028  -7.033  39.257  1.00  0.00    -0.000 C 
BRANCH  26  27
ATOM     27  C   UNL     1     -15.031  -5.880  39.466  1.00  0.00    -0.000 C 
BRANCH  27  28
ATOM     28  C   UNL     1     -16.444  -6.345  39.869  1.00  0.00    -0.000 C 
BRANCH  28  29
ATOM     29  C   UNL     1     -17.446  -6.252  38.707  1.00  0.00    -0.000 C 
BRANCH  29  30
ATOM     30  C   UNL     1     -18.272  -7.537  38.589  1.00  0.00    -0.000 C 
BRANCH  30  31
ATOM     31  C   UNL     1     -17.729  -8.630  39.517  1.00  0.00    -0.003 C 
ATOM     32  C   UNL     1     -17.016  -9.721  38.726  1.00  0.00     0.004 C 
ENDBRANCH  30  31
ENDBRANCH  29  30
ENDBRANCH  28  29
ENDBRANCH  27  28
ENDBRANCH  26  27
ENDBRANCH  25  26
ENDBRANCH  24  25
ENDBRANCH  23  24
ENDBRANCH  22  23
ENDBRANCH  21  22
ENDBRANCH  20  21
ENDBRANCH  19  20
ENDBRANCH  18  19
ENDBRANCH   1  18
TORSDOF 28
ENDMDL
MODEL 7
REMARK VINA RESULT:    -4.340     12.526     16.641
REMARK INTER + INTRA:         -16.550
REMARK INTER:                 -11.052
REMARK INTRA:                  -5.498
REMARK UNBOUND:                -5.107
REMARK SMILES CCCCCCCCCCCCCCCCCCCCCCCCCCCCCC(=O)[O-]
REMARK SMILES IDX 16 1 17 2 18 3 19 4 20 5 21 6 22 7 23 8 24 9 25 10 26 11
REMARK SMILES IDX 27 12 28 13 29 14 30 15 31 16 32 17 15 18 14 19 13 20 12 21
REMARK SMILES IDX 11 22 10 23 9 24 8 25 7 26 6 27 5 28 4 29 3 30 2 31 1 32
REMARK H PARENT
REMARK Flexibility Score: inf
ROOT
ATOM      1  C   UNL     1     -24.666  -2.326  27.776  1.00  0.00     0.000 C 
ENDROOT
BRANCH   1   2
ATOM      2  C   UNL     1     -24.445  -3.067  26.440  1.00  0.00     0.000 C 
BRANCH   2   3
ATOM      3  C   UNL     1     -24.274  -4.589  26.579  1.00  0.00     0.000 C 
BRANCH   3   4
ATOM      4  C   UNL     1     -24.276  -5.324  25.227  1.00  0.00     0.000 C 
BRANCH   4   5
ATOM      5  C   UNL     1     -24.834  -4.457  24.085  1.00  0.00     0.000 C 
BRANCH   5   6
ATOM      6  C   UNL     1     -26.196  -4.959  23.579  1.00  0.00     0.000 C 
BRANCH   6   7
ATOM      7  C   UNL     1     -27.335  -4.058  24.078  1.00  0.00     0.000 C 
BRANCH   7   8
ATOM      8  C   UNL     1     -28.003  -3.268  22.940  1.00  0.00     0.000 C 
BRANCH   8   9
ATOM      9  C   UNL     1     -27.896  -1.748  23.131  1.00  0.00     0.000 C 
BRANCH   9  10
ATOM     10  C   UNL     1     -27.116  -1.103  21.976  1.00  0.00     0.000 C 
BRANCH  10  11
ATOM     11  C   UNL     1     -25.680  -0.706  22.364  1.00  0.00     0.000 C 
BRANCH  11  12
ATOM     12  C   UNL     1     -25.372  -0.769  23.871  1.00  0.00     0.000 C 
BRANCH  12  13
ATOM     13  C   UNL     1     -24.080  -0.027  24.252  1.00  0.00     0.006 C 
BRANCH  13  14
ATOM     14  C   UNL     1     -23.695   1.038  23.216  1.00  0.00     0.053 C 
BRANCH  14  15
ATOM     15  C   UNL     1     -22.214   1.095  22.994  1.00  0.00     0.041 C 
ATOM     16  O   UNL     1     -21.438   0.410  23.711  1.00  0.00    -0.550 OA
ATOM     17  O   UNL     1     -21.695   1.883  21.974  1.00  0.00    -0.550 OA
ENDBRANCH  14  15
ENDBRANCH  13  14
ENDBRANCH  12  13
ENDBRANCH  11  12
ENDBRANCH  10  11
ENDBRANCH   9  10
ENDBRANCH   8   9
ENDBRANCH   7   8
ENDBRANCH   6   7
ENDBRANCH   5   6
ENDBRANCH   4   5
ENDBRANCH   3   4
ENDBRANCH   2   3
ENDBRANCH   1   2
BRANCH   1  18
ATOM     18  C   UNL     1     -26.116  -1.868  28.045  1.00  0.00     0.000 C 
BRANCH  18  19
ATOM     19  C   UNL     1     -26.976  -1.579  26.797  1.00  0.00     0.000 C 
BRANCH  19  20
ATOM     20  C   UNL     1     -28.421  -2.104  26.859  1.00  0.00     0.000 C 
BRANCH  20  21
ATOM     21  C   UNL     1     -29.455  -1.062  26.414  1.00  0.00     0.000 C 
BRANCH  21  22
ATOM     22  C   UNL     1     -30.843  -1.701  26.268  1.00  0.00     0.000 C 
BRANCH  22  23
ATOM     23  C   UNL     1     -30.817  -2.998  25.444  1.00  0.00     0.000 C 
BRANCH  23  24
ATOM     24  C   UNL     1     -31.955  -3.960  25.818  1.00  0.00    -0.000 C 
BRANCH  24  25
ATOM     25  C   UNL     1     -31.424  -5.149  26.636  1.00  0.00    -0.000 C 
BRANCH  25  26
ATOM     26  C   UNL     1     -29.932  -5.430  26.371  1.00  0.00    -0.000 C 
BRANCH  26  27
ATOM     27  C   UNL     1     -29.599  -6.920  26.149  1.00  0.00    -0.000 C 
BRANCH  27  28
ATOM     28  C   UNL     1     -29.391  -7.301  24.670  1.00  0.00    -0.000 C 
BRANCH  28  29
ATOM     29  C   UNL     1     -30.716  -7.608  23.952  1.00  0.00    -0.000 C 
BRANCH  29  30
ATOM     30  C   UNL     1     -30.743  -6.979  22.555  1.00  0.00    -0.000 C 
BRANCH  30  31
ATOM     31  C   UNL     1     -30.705  -5.449  22.638  1.00  0.00    -0.003 C 
ATOM     32  C   UNL     1     -32.006  -4.838  22.129  1.00  0.00     0.004 C 
ENDBRANCH  30  31
ENDBRANCH  29  30
ENDBRANCH  28  29
ENDBRANCH  27  28
ENDBRANCH  26  27
ENDBRANCH  25  26
ENDBRANCH  24  25
ENDBRANCH  23  24
ENDBRANCH  22  23
ENDBRANCH  21  22
ENDBRANCH  20  21
ENDBRANCH  19  20
ENDBRANCH  18  19
ENDBRANCH   1  18
TORSDOF 28
ENDMDL
MODEL 8
REMARK VINA RESULT:    -4.329     11.578     15.946
REMARK INTER + INTRA:         -16.522
REMARK INTER:                 -11.080
REMARK INTRA:                  -5.442
REMARK UNBOUND:                -5.107
REMARK SMILES CCCCCCCCCCCCCCCCCCCCCCCCCCCCCC(=O)[O-]
REMARK SMILES IDX 16 1 17 2 18 3 19 4 20 5 21 6 22 7 23 8 24 9 25 10 26 11
REMARK SMILES IDX 27 12 28 13 29 14 30 15 31 16 32 17 15 18 14 19 13 20 12 21
REMARK SMILES IDX 11 22 10 23 9 24 8 25 7 26 6 27 5 28 4 29 3 30 2 31 1 32
REMARK H PARENT
REMARK Flexibility Score: inf
ROOT
ATOM      1  C   UNL     1     -25.983  -1.888  27.553  1.00  0.00     0.000 C 
ENDROOT
BRANCH   1   2
ATOM      2  C   UNL     1     -27.065  -1.347  26.593  1.00  0.00     0.000 C 
BRANCH   2   3
ATOM      3  C   UNL     1     -28.392  -2.125  26.631  1.00  0.00     0.000 C 
BRANCH   3   4
ATOM      4  C   UNL     1     -29.567  -1.347  26.013  1.00  0.00     0.000 C 
BRANCH   4   5
ATOM      5  C   UNL     1     -29.114  -0.057  25.308  1.00  0.00     0.000 C 
BRANCH   5   6
ATOM      6  C   UNL     1     -29.511  -0.027  23.823  1.00  0.00     0.000 C 
BRANCH   6   7
ATOM      7  C   UNL     1     -29.774  -1.445  23.295  1.00  0.00     0.000 C 
BRANCH   7   8
ATOM      8  C   UNL     1     -28.750  -1.876  22.231  1.00  0.00     0.000 C 
BRANCH   8   9
ATOM      9  C   UNL     1     -28.148  -0.685  21.470  1.00  0.00     0.000 C 
BRANCH   9  10
ATOM     10  C   UNL     1     -26.620  -0.652  21.624  1.00  0.00     0.000 C 
BRANCH  10  11
ATOM     11  C   UNL     1     -26.137  -1.214  22.973  1.00  0.00     0.000 C 
BRANCH  11  12
ATOM     12  C   UNL     1     -25.161  -0.306  23.744  1.00  0.00     0.000 C 
BRANCH  12  13
ATOM     13  C   UNL     1     -23.688  -0.702  23.545  1.00  0.00     0.006 C 
BRANCH  13  14
ATOM     14  C   UNL     1     -22.729   0.229  24.300  1.00  0.00     0.053 C 
BRANCH  14  15
ATOM     15  C   UNL     1     -22.762   1.626  23.757  1.00  0.00     0.041 C 
ATOM     16  O   UNL     1     -22.548   1.838  22.535  1.00  0.00    -0.550 OA
ATOM     17  O   UNL     1     -23.058   2.691  24.599  1.00  0.00    -0.550 OA
ENDBRANCH  14  15
ENDBRANCH  13  14
ENDBRANCH  12  13
ENDBRANCH  11  12
ENDBRANCH  10  11
ENDBRANCH   9  10
ENDBRANCH   8   9
ENDBRANCH   7   8
ENDBRANCH   6   7
ENDBRANCH   5   6
ENDBRANCH   4   5
ENDBRANCH   3   4
ENDBRANCH   2   3
ENDBRANCH   1   2
BRANCH   1  18
ATOM     18  C   UNL     1     -24.633  -2.242  26.893  1.00  0.00     0.000 C 
BRANCH  18  19
ATOM     19  C   UNL     1     -24.501  -3.683  26.356  1.00  0.00     0.000 C 
BRANCH  19  20
ATOM     20  C   UNL     1     -24.004  -3.800  24.904  1.00  0.00     0.000 C 
BRANCH  20  21
ATOM     21  C   UNL     1     -25.009  -4.505  23.984  1.00  0.00     0.000 C 
BRANCH  21  22
ATOM     22  C   UNL     1     -26.426  -4.433  24.570  1.00  0.00     0.000 C 
BRANCH  22  23
ATOM     23  C   UNL     1     -27.500  -4.930  23.591  1.00  0.00     0.000 C 
BRANCH  23  24
ATOM     24  C   UNL     1     -28.885  -5.055  24.245  1.00  0.00    -0.000 C 
BRANCH  24  25
ATOM     25  C   UNL     1     -29.282  -6.531  24.416  1.00  0.00    -0.000 C 
BRANCH  25  26
ATOM     26  C   UNL     1     -28.468  -7.239  25.517  1.00  0.00    -0.000 C 
BRANCH  26  27
ATOM     27  C   UNL     1     -27.513  -8.331  24.993  1.00  0.00    -0.000 C 
BRANCH  27  28
ATOM     28  C   UNL     1     -26.199  -8.449  25.790  1.00  0.00    -0.000 C 
BRANCH  28  29
ATOM     29  C   UNL     1     -25.009  -7.810  25.055  1.00  0.00    -0.000 C 
BRANCH  29  30
ATOM     30  C   UNL     1     -23.678  -8.271  25.659  1.00  0.00    -0.000 C 
BRANCH  30  31
ATOM     31  C   UNL     1     -22.945  -7.105  26.333  1.00  0.00    -0.003 C 
ATOM     32  C   UNL     1     -22.367  -7.524  27.681  1.00  0.00     0.004 C 
ENDBRANCH  30  31
ENDBRANCH  29  30
ENDBRANCH  28  29
ENDBRANCH  27  28
ENDBRANCH  26  27
ENDBRANCH  25  26
ENDBRANCH  24  25
ENDBRANCH  23  24
ENDBRANCH  22  23
ENDBRANCH  21  22
ENDBRANCH  20  21
ENDBRANCH  19  20
ENDBRANCH  18  19
ENDBRANCH   1  18
TORSDOF 28
ENDMDL
MODEL 9
REMARK VINA RESULT:    -4.299      1.551      4.698
REMARK INTER + INTRA:         -16.444
REMARK INTER:                 -10.587
REMARK INTRA:                  -5.857
REMARK UNBOUND:                -5.107
REMARK SMILES CCCCCCCCCCCCCCCCCCCCCCCCCCCCCC(=O)[O-]
REMARK SMILES IDX 16 1 17 2 18 3 19 4 20 5 21 6 22 7 23 8 24 9 25 10 26 11
REMARK SMILES IDX 27 12 28 13 29 14 30 15 31 16 32 17 15 18 14 19 13 20 12 21
REMARK SMILES IDX 11 22 10 23 9 24 8 25 7 26 6 27 5 28 4 29 3 30 2 31 1 32
REMARK H PARENT
REMARK Flexibility Score: inf
ROOT
ATOM      1  C   UNL     1     -17.222  -4.092  33.166  1.00  0.00     0.000 C 
ENDROOT
BRANCH   1   2
ATOM      2  C   UNL     1     -17.060  -3.521  31.741  1.00  0.00     0.000 C 
BRANCH   2   3
ATOM      3  C   UNL     1     -15.655  -2.977  31.432  1.00  0.00     0.000 C 
BRANCH   3   4
ATOM      4  C   UNL     1     -15.126  -2.021  32.515  1.00  0.00     0.000 C 
BRANCH   4   5
ATOM      5  C   UNL     1     -13.731  -2.422  33.025  1.00  0.00     0.000 C 
BRANCH   5   6
ATOM      6  C   UNL     1     -13.347  -3.855  32.620  1.00  0.00     0.000 C 
BRANCH   6   7
ATOM      7  C   UNL     1     -12.981  -4.695  33.851  1.00  0.00     0.000 C 
BRANCH   7   8
ATOM      8  C   UNL     1     -13.047  -3.886  35.158  1.00  0.00     0.000 C 
BRANCH   8   9
ATOM      9  C   UNL     1     -13.344  -4.763  36.383  1.00  0.00     0.000 C 
BRANCH   9  10
ATOM     10  C   UNL     1     -14.431  -4.126  37.262  1.00  0.00     0.000 C 
BRANCH  10  11
ATOM     11  C   UNL     1     -15.698  -3.746  36.474  1.00  0.00     0.000 C 
BRANCH  11  12
ATOM     12  C   UNL     1     -15.800  -2.259  36.084  1.00  0.00     0.000 C 
BRANCH  12  13
ATOM     13  C   UNL     1     -17.130  -1.616  36.509  1.00  0.00     0.006 C 
BRANCH  13  14
ATOM     14  C   UNL     1     -17.587  -0.525  35.532  1.00  0.00     0.053 C 
BRANCH  14  15
ATOM     15  C   UNL     1     -18.018   0.721  36.245  1.00  0.00     0.041 C 
ATOM     16  O   UNL     1     -17.559   1.842  35.900  1.00  0.00    -0.550 OA
ATOM     17  O   UNL     1     -18.951   0.645  37.271  1.00  0.00    -0.550 OA
ENDBRANCH  14  15
ENDBRANCH  13  14
ENDBRANCH  12  13
ENDBRANCH  11  12
ENDBRANCH  10  11
ENDBRANCH   9  10
ENDBRANCH   8   9
ENDBRANCH   7   8
ENDBRANCH   6   7
ENDBRANCH   5   6
ENDBRANCH   4   5
ENDBRANCH   3   4
ENDBRANCH   2   3
ENDBRANCH   1   2
BRANCH   1  18
ATOM     18  C   UNL     1     -16.646  -5.508  33.379  1.00  0.00     0.000 C 
BRANCH  18  19
ATOM     19  C   UNL     1     -17.257  -6.625  32.508  1.00  0.00     0.000 C 
BRANCH  19  20
ATOM     20  C   UNL     1     -16.242  -7.576  31.850  1.00  0.00     0.000 C 
BRANCH  20  21
ATOM     21  C   UNL     1     -15.049  -6.838  31.227  1.00  0.00     0.000 C 
BRANCH  21  22
ATOM     22  C   UNL     1     -13.724  -7.378  31.787  1.00  0.00     0.000 C 
BRANCH  22  23
ATOM     23  C   UNL     1     -13.796  -8.869  32.150  1.00  0.00     0.000 C 
BRANCH  23  24
ATOM     24  C   UNL     1     -12.640  -9.313  33.059  1.00  0.00    -0.000 C 
BRANCH  24  25
ATOM     25  C   UNL     1     -12.242  -8.191  34.032  1.00  0.00    -0.000 C 
BRANCH  25  26
ATOM     26  C   UNL     1     -12.370  -8.615  35.508  1.00  0.00    -0.000 C 
BRANCH  26  27
ATOM     27  C   UNL     1     -13.822  -8.830  35.980  1.00  0.00    -0.000 C 
BRANCH  27  28
ATOM     28  C   UNL     1     -14.816  -7.779  35.446  1.00  0.00    -0.000 C 
BRANCH  28  29
ATOM     29  C   UNL     1     -16.090  -7.690  36.302  1.00  0.00    -0.000 C 
BRANCH  29  30
ATOM     30  C   UNL     1     -15.852  -8.260  37.704  1.00  0.00    -0.000 C 
BRANCH  30  31
ATOM     31  C   UNL     1     -15.788  -7.142  38.751  1.00  0.00    -0.003 C 
ATOM     32  C   UNL     1     -17.141  -6.939  39.424  1.00  0.00     0.004 C 
ENDBRANCH  30  31
ENDBRANCH  29  30
ENDBRANCH  28  29
ENDBRANCH  27  28
ENDBRANCH  26  27
ENDBRANCH  25  26
ENDBRANCH  24  25
ENDBRANCH  23  24
ENDBRANCH  22  23
ENDBRANCH  21  22
ENDBRANCH  20  21
ENDBRANCH  19  20
ENDBRANCH  18  19
ENDBRANCH   1  18
TORSDOF 28
ENDMDL
