MODEL 1
REMARK VINA RESULT:    -4.306      0.000      0.000
REMARK INTER + INTRA:          -7.093
REMARK INTER:                  -6.572
REMARK INTRA:                  -0.521
REMARK UNBOUND:                -0.521
REMARK SMILES CC1=CCC[C@@H](C)C(=O)C[C@@H](C(C)C)C(=O)C1
REMARK SMILES IDX 8 1 9 2 6 3 7 4 5 5 4 6 3 7 2 8 1 9 10 11 11 12 15 13 16 14
REMARK SMILES IDX 17 15 12 17 13 18 14 19
REMARK H PARENT
REMARK Flexibility Score: 70.00
ROOT
ATOM      1  C   UNL     1      17.572 -31.246  23.127  1.00  0.00     0.136 C 
ATOM      2  O   UNL     1      18.657 -31.145  23.681  1.00  0.00    -0.299 OA
ENDROOT
BRANCH   1   3
ATOM      3  C   UNL     1      17.415 -30.658  21.735  1.00  0.00     0.053 C 
ATOM      4  C   UNL     1      18.656 -30.861  20.853  1.00  0.00     0.016 C 
BRANCH   3   5
ATOM      5  C   UNL     1      16.835 -29.216  21.766  1.00  0.00     0.015 C 
BRANCH   5   6
ATOM      6  C   UNL     1      15.322 -29.020  21.547  1.00  0.00     0.028 C 
BRANCH   6   7
ATOM      7  C   UNL     1      14.488 -28.690  22.760  1.00  0.00    -0.028 C 
ATOM      8  C   UNL     1      13.478 -29.432  23.270  1.00  0.00    -0.070 CG0
ATOM      9  C   UNL     1      12.584 -28.769  24.292  1.00  0.00     0.039 C 
ATOM     10  G   UNL     1      13.148 -30.834  22.799  1.00  0.00     0.000 G0
ENDBRANCH   6   7
ENDBRANCH   5   6
ENDBRANCH   3   5
ENDBRANCH   1   3
BRANCH   1  11
ATOM     11  C   UNL     1      16.462 -31.963  23.864  1.00  0.00     0.087 C 
BRANCH  11  12
ATOM     12  C   UNL     1      15.337 -32.430  22.902  1.00  0.00     0.066 C 
BRANCH  12  13
ATOM     13  C   UNL     1      13.956 -31.992  23.395  1.00  0.00     0.140 C 
ATOM     14  O   UNL     1      13.514 -32.540  24.395  1.00  0.00    -0.299 OA
BRANCH  13  15
ATOM     15  C   UNL     1      13.131 -30.862  22.800  1.00  0.00     0.106 CG0
ATOM     16  G   UNL     1      13.483 -29.471  23.292  1.00  0.00     0.000 G0
ENDBRANCH  13  15
ENDBRANCH  12  13
BRANCH  12  17
ATOM     17  C   UNL     1      15.388 -33.951  22.554  1.00  0.00    -0.006 C 
ATOM     18  C   UNL     1      16.665 -34.631  23.082  1.00  0.00     0.008 C 
ATOM     19  C   UNL     1      15.301 -34.178  21.033  1.00  0.00     0.008 C 
ENDBRANCH  12  17
ENDBRANCH  11  12
ENDBRANCH   1  11
TORSDOF 1
ENDMDL
MODEL 2
REMARK VINA RESULT:    -4.060      1.668      3.722
REMARK INTER + INTRA:          -6.718
REMARK INTER:                  -6.245
REMARK INTRA:                  -0.473
REMARK UNBOUND:                -0.521
REMARK SMILES CC1=CCC[C@@H](C)C(=O)C[C@@H](C(C)C)C(=O)C1
REMARK SMILES IDX 8 1 9 2 6 3 7 4 5 5 4 6 3 7 2 8 1 9 10 11 11 12 15 13 16 14
REMARK SMILES IDX 17 15 12 17 13 18 14 19
REMARK H PARENT
REMARK Flexibility Score: 70.00
ROOT
ATOM      1  C   UNL     1      15.675 -33.585  22.208  1.00  0.00     0.136 C 
ATOM      2  O   UNL     1      15.223 -34.643  21.793  1.00  0.00    -0.299 OA
ENDROOT
BRANCH   1   3
ATOM      3  C   UNL     1      15.670 -33.337  23.706  1.00  0.00     0.053 C 
ATOM      4  C   UNL     1      16.294 -34.488  24.510  1.00  0.00     0.016 C 
BRANCH   3   5
ATOM      5  C   UNL     1      14.293 -32.825  24.215  1.00  0.00     0.015 C 
BRANCH   5   6
ATOM      6  C   UNL     1      13.420 -31.979  23.268  1.00  0.00     0.028 C 
BRANCH   6   7
ATOM      7  C   UNL     1      13.411 -30.486  23.488  1.00  0.00    -0.028 C 
ATOM      8  C   UNL     1      14.112 -29.564  22.789  1.00  0.00    -0.070 CG0
ATOM      9  C   UNL     1      14.194 -28.174  23.373  1.00  0.00     0.039 C 
ATOM     10  G   UNL     1      14.888 -29.883  21.526  1.00  0.00     0.000 G0
ENDBRANCH   6   7
ENDBRANCH   5   6
ENDBRANCH   3   5
ENDBRANCH   1   3
BRANCH   1  11
ATOM     11  C   UNL     1      16.221 -32.602  21.197  1.00  0.00     0.087 C 
BRANCH  11  12
ATOM     12  C   UNL     1      17.051 -31.478  21.873  1.00  0.00     0.066 C 
BRANCH  12  13
ATOM     13  C   UNL     1      16.385 -30.110  21.710  1.00  0.00     0.140 C 
ATOM     14  O   UNL     1      17.115 -29.131  21.647  1.00  0.00    -0.299 OA
BRANCH  13  15
ATOM     15  C   UNL     1      14.894 -29.878  21.522  1.00  0.00     0.106 CG0
ATOM     16  G   UNL     1      14.126 -29.532  22.782  1.00  0.00     0.000 G0
ENDBRANCH  13  15
ENDBRANCH  12  13
BRANCH  12  17
ATOM     17  C   UNL     1      18.556 -31.460  21.456  1.00  0.00    -0.006 C 
ATOM     18  C   UNL     1      18.968 -32.730  20.692  1.00  0.00     0.008 C 
ATOM     19  C   UNL     1      19.471 -31.303  22.685  1.00  0.00     0.008 C 
ENDBRANCH  12  17
ENDBRANCH  11  12
ENDBRANCH   1  11
TORSDOF 1
ENDMDL
MODEL 3
REMARK VINA RESULT:    -4.037      2.479      3.660
REMARK INTER + INTRA:          -6.682
REMARK INTER:                  -6.054
REMARK INTRA:                  -0.628
REMARK UNBOUND:                -0.521
REMARK SMILES CC1=CCC[C@@H](C)C(=O)C[C@@H](C(C)C)C(=O)C1
REMARK SMILES IDX 8 1 9 2 6 3 7 4 5 5 4 6 3 7 2 8 1 9 10 11 11 12 15 13 16 14
REMARK SMILES IDX 17 15 12 17 13 18 14 19
REMARK H PARENT
REMARK Flexibility Score: 70.00
ROOT
ATOM      1  C   UNL     1      17.878 -35.031  22.900  1.00  0.00     0.136 C 
ATOM      2  O   UNL     1      18.109 -35.970  23.648  1.00  0.00    -0.299 OA
ENDROOT
BRANCH   1   3
ATOM      3  C   UNL     1      18.863 -33.875  22.868  1.00  0.00     0.053 C 
ATOM      4  C   UNL     1      20.326 -34.332  22.784  1.00  0.00     0.016 C 
BRANCH   3   5
ATOM      5  C   UNL     1      18.550 -32.803  23.949  1.00  0.00     0.015 C 
BRANCH   5   6
ATOM      6  C   UNL     1      17.649 -31.611  23.574  1.00  0.00     0.028 C 
BRANCH   6   7
ATOM      7  C   UNL     1      16.175 -31.740  23.870  1.00  0.00    -0.028 C 
ATOM      8  C   UNL     1      15.168 -31.739  22.967  1.00  0.00    -0.070 CG0
ATOM      9  C   UNL     1      13.765 -31.569  23.501  1.00  0.00     0.039 C 
ATOM     10  G   UNL     1      15.387 -31.797  21.468  1.00  0.00     0.000 G0
ENDBRANCH   6   7
ENDBRANCH   5   6
ENDBRANCH   3   5
ENDBRANCH   1   3
BRANCH   1  11
ATOM     11  C   UNL     1      16.631 -35.093  22.047  1.00  0.00     0.087 C 
BRANCH  11  12
ATOM     12  C   UNL     1      16.686 -34.087  20.866  1.00  0.00     0.066 C 
BRANCH  12  13
ATOM     13  C   UNL     1      15.455 -33.179  20.842  1.00  0.00     0.140 C 
ATOM     14  O   UNL     1      14.427 -33.635  20.363  1.00  0.00    -0.299 OA
BRANCH  13  15
ATOM     15  C   UNL     1      15.380 -31.788  21.453  1.00  0.00     0.106 CG0
ATOM     16  G   UNL     1      15.172 -31.748  22.955  1.00  0.00     0.000 G0
ENDBRANCH  13  15
ENDBRANCH  12  13
BRANCH  12  17
ATOM     17  C   UNL     1      16.965 -34.748  19.479  1.00  0.00    -0.006 C 
ATOM     18  C   UNL     1      16.718 -36.267  19.493  1.00  0.00     0.008 C 
ATOM     19  C   UNL     1      18.411 -34.486  19.019  1.00  0.00     0.008 C 
ENDBRANCH  12  17
ENDBRANCH  11  12
ENDBRANCH   1  11
TORSDOF 1
ENDMDL
MODEL 4
REMARK VINA RESULT:    -4.010      2.405      4.618
REMARK INTER + INTRA:          -6.641
REMARK INTER:                  -6.554
REMARK INTRA:                  -0.087
REMARK UNBOUND:                -0.521
REMARK SMILES CC1=CCC[C@@H](C)C(=O)C[C@@H](C(C)C)C(=O)C1
REMARK SMILES IDX 8 1 9 2 6 3 7 4 5 5 4 6 3 7 2 8 1 9 10 11 11 12 15 13 16 14
REMARK SMILES IDX 17 15 12 17 13 18 14 19
REMARK H PARENT
REMARK Flexibility Score: 70.00
ROOT
ATOM      1  C   UNL     1      17.197 -30.395  22.380  1.00  0.00     0.136 C 
ATOM      2  O   UNL     1      17.130 -30.260  23.594  1.00  0.00    -0.299 OA
ENDROOT
BRANCH   1   3
ATOM      3  C   UNL     1      18.505 -30.051  21.688  1.00  0.00     0.053 C 
ATOM      4  C   UNL     1      18.431 -28.752  20.872  1.00  0.00     0.016 C 
BRANCH   3   5
ATOM      5  C   UNL     1      19.125 -31.275  20.957  1.00  0.00     0.015 C 
BRANCH   5   6
ATOM      6  C   UNL     1      19.202 -32.623  21.699  1.00  0.00     0.028 C 
BRANCH   6   7
ATOM      7  C   UNL     1      18.613 -33.826  21.005  1.00  0.00    -0.028 C 
ATOM      8  C   UNL     1      17.540 -34.545  21.408  1.00  0.00    -0.070 CG0
ATOM      9  C   UNL     1      17.316 -35.881  20.740  1.00  0.00     0.039 C 
ATOM     10  G   UNL     1      16.631 -34.125  22.546  1.00  0.00     0.000 G0
ENDBRANCH   6   7
ENDBRANCH   5   6
ENDBRANCH   3   5
ENDBRANCH   1   3
BRANCH   1  11
ATOM     11  C   UNL     1      15.974 -30.908  21.655  1.00  0.00     0.087 C 
BRANCH  11  12
ATOM     12  C   UNL     1      15.141 -31.875  22.539  1.00  0.00     0.066 C 
BRANCH  12  13
ATOM     13  C   UNL     1      15.396 -33.338  22.168  1.00  0.00     0.140 C 
ATOM     14  O   UNL     1      14.581 -33.886  21.441  1.00  0.00    -0.299 OA
BRANCH  13  15
ATOM     15  C   UNL     1      16.632 -34.137  22.553  1.00  0.00     0.106 CG0
ATOM     16  G   UNL     1      17.529 -34.541  21.400  1.00  0.00     0.000 G0
ENDBRANCH  13  15
ENDBRANCH  12  13
BRANCH  12  17
ATOM     17  C   UNL     1      13.618 -31.534  22.596  1.00  0.00    -0.006 C 
ATOM     18  C   UNL     1      13.083 -31.016  21.249  1.00  0.00     0.008 C 
ATOM     19  C   UNL     1      13.325 -30.482  23.681  1.00  0.00     0.008 C 
ENDBRANCH  12  17
ENDBRANCH  11  12
ENDBRANCH   1  11
TORSDOF 1
ENDMDL
MODEL 5
REMARK VINA RESULT:    -3.956      2.116      4.250
REMARK INTER + INTRA:          -6.559
REMARK INTER:                  -6.248
REMARK INTRA:                  -0.311
REMARK UNBOUND:                -0.521
REMARK SMILES CC1=CCC[C@@H](C)C(=O)C[C@@H](C(C)C)C(=O)C1
REMARK SMILES IDX 8 1 9 2 6 3 7 4 5 5 4 6 3 7 2 8 1 9 10 11 11 12 15 13 16 14
REMARK SMILES IDX 17 15 12 17 13 18 14 19
REMARK H PARENT
REMARK Flexibility Score: 70.00
ROOT
ATOM      1  C   UNL     1      15.730 -29.729  22.450  1.00  0.00     0.136 C 
ATOM      2  O   UNL     1      16.190 -28.746  21.885  1.00  0.00    -0.299 OA
ENDROOT
BRANCH   1   3
ATOM      3  C   UNL     1      14.255 -30.043  22.265  1.00  0.00     0.053 C 
ATOM      4  C   UNL     1      13.625 -30.719  23.491  1.00  0.00     0.016 C 
BRANCH   3   5
ATOM      5  C   UNL     1      13.963 -30.717  20.895  1.00  0.00     0.015 C 
BRANCH   5   6
ATOM      6  C   UNL     1      13.414 -32.157  20.878  1.00  0.00     0.028 C 
BRANCH   6   7
ATOM      7  C   UNL     1      14.336 -33.239  20.373  1.00  0.00    -0.028 C 
ATOM      8  C   UNL     1      15.222 -33.951  21.106  1.00  0.00    -0.070 CG0
ATOM      9  C   UNL     1      16.251 -34.757  20.349  1.00  0.00     0.039 C 
ATOM     10  G   UNL     1      15.290 -33.898  22.619  1.00  0.00     0.000 G0
ENDBRANCH   6   7
ENDBRANCH   5   6
ENDBRANCH   3   5
ENDBRANCH   1   3
BRANCH   1  11
ATOM     11  C   UNL     1      16.668 -30.571  23.284  1.00  0.00     0.087 C 
BRANCH  11  12
ATOM     12  C   UNL     1      17.081 -31.876  22.551  1.00  0.00     0.066 C 
BRANCH  12  13
ATOM     13  C   UNL     1      16.452 -33.111  23.201  1.00  0.00     0.140 C 
ATOM     14  O   UNL     1      16.855 -33.432  24.309  1.00  0.00    -0.299 OA
BRANCH  13  15
ATOM     15  C   UNL     1      15.297 -33.913  22.622  1.00  0.00     0.106 CG0
ATOM     16  G   UNL     1      15.215 -33.935  21.108  1.00  0.00     0.000 G0
ENDBRANCH  13  15
ENDBRANCH  12  13
BRANCH  12  17
ATOM     17  C   UNL     1      18.621 -32.032  22.347  1.00  0.00    -0.006 C 
ATOM     18  C   UNL     1      19.398 -30.770  22.764  1.00  0.00     0.008 C 
ATOM     19  C   UNL     1      18.958 -32.358  20.881  1.00  0.00     0.008 C 
ENDBRANCH  12  17
ENDBRANCH  11  12
ENDBRANCH   1  11
TORSDOF 1
ENDMDL
MODEL 6
REMARK VINA RESULT:    -3.942      2.457      4.902
REMARK INTER + INTRA:          -6.537
REMARK INTER:                  -6.417
REMARK INTRA:                  -0.120
REMARK UNBOUND:                -0.521
REMARK SMILES CC1=CCC[C@@H](C)C(=O)C[C@@H](C(C)C)C(=O)C1
REMARK SMILES IDX 8 1 9 2 6 3 7 4 5 5 4 6 3 7 2 8 1 9 10 11 11 12 15 13 16 14
REMARK SMILES IDX 17 15 12 17 13 18 14 19
REMARK H PARENT
REMARK Flexibility Score: 70.00
ROOT
ATOM      1  C   UNL     1      15.504 -34.085  21.464  1.00  0.00     0.136 C 
ATOM      2  O   UNL     1      14.771 -34.226  20.495  1.00  0.00    -0.299 OA
ENDROOT
BRANCH   1   3
ATOM      3  C   UNL     1      16.747 -34.953  21.559  1.00  0.00     0.053 C 
ATOM      4  C   UNL     1      17.367 -34.966  22.964  1.00  0.00     0.016 C 
BRANCH   3   5
ATOM      5  C   UNL     1      17.735 -34.699  20.386  1.00  0.00     0.015 C 
BRANCH   5   6
ATOM      6  C   UNL     1      18.190 -33.255  20.098  1.00  0.00     0.028 C 
BRANCH   6   7
ATOM      7  C   UNL     1      19.108 -32.608  21.106  1.00  0.00    -0.028 C 
ATOM      8  C   UNL     1      18.950 -31.391  21.675  1.00  0.00    -0.070 CG0
ATOM      9  C   UNL     1      20.137 -30.817  22.411  1.00  0.00     0.039 C 
ATOM     10  G   UNL     1      17.697 -30.552  21.523  1.00  0.00     0.000 G0
ENDBRANCH   6   7
ENDBRANCH   5   6
ENDBRANCH   3   5
ENDBRANCH   1   3
BRANCH   1  11
ATOM     11  C   UNL     1      15.127 -33.045  22.495  1.00  0.00     0.087 C 
BRANCH  11  12
ATOM     12  C   UNL     1      15.248 -31.603  21.933  1.00  0.00     0.066 C 
BRANCH  12  13
ATOM     13  C   UNL     1      16.532 -30.919  22.410  1.00  0.00     0.140 C 
ATOM     14  O   UNL     1      16.660 -30.736  23.611  1.00  0.00    -0.299 OA
BRANCH  13  15
ATOM     15  C   UNL     1      17.703 -30.537  21.518  1.00  0.00     0.106 CG0
ATOM     16  G   UNL     1      18.946 -31.392  21.676  1.00  0.00     0.000 G0
ENDBRANCH  13  15
ENDBRANCH  12  13
BRANCH  12  17
ATOM     17  C   UNL     1      13.982 -30.720  22.168  1.00  0.00    -0.006 C 
ATOM     18  C   UNL     1      13.443 -30.837  23.605  1.00  0.00     0.008 C 
ATOM     19  C   UNL     1      12.855 -31.091  21.186  1.00  0.00     0.008 C 
ENDBRANCH  12  17
ENDBRANCH  11  12
ENDBRANCH   1  11
TORSDOF 1
ENDMDL
MODEL 7
REMARK VINA RESULT:    -3.858      2.421      4.193
REMARK INTER + INTRA:          -6.409
REMARK INTER:                  -5.834
REMARK INTRA:                  -0.575
REMARK UNBOUND:                -0.521
REMARK SMILES CC1=CCC[C@@H](C)C(=O)C[C@@H](C(C)C)C(=O)C1
REMARK SMILES IDX 8 1 9 2 6 3 7 4 5 5 4 6 3 7 2 8 1 9 10 11 11 12 15 13 16 14
REMARK SMILES IDX 17 15 12 17 13 18 14 19
REMARK H PARENT
REMARK Flexibility Score: 70.00
ROOT
ATOM      1  C   UNL     1      17.577 -34.102  20.078  1.00  0.00     0.136 C 
ATOM      2  O   UNL     1      17.612 -34.029  18.858  1.00  0.00    -0.299 OA
ENDROOT
BRANCH   1   3
ATOM      3  C   UNL     1      16.687 -35.156  20.712  1.00  0.00     0.053 C 
ATOM      4  C   UNL     1      17.026 -36.584  20.258  1.00  0.00     0.016 C 
BRANCH   3   5
ATOM      5  C   UNL     1      15.182 -34.769  20.658  1.00  0.00     0.015 C 
BRANCH   5   6
ATOM      6  C   UNL     1      14.804 -33.287  20.474  1.00  0.00     0.028 C 
BRANCH   6   7
ATOM      7  C   UNL     1      14.254 -32.561  21.678  1.00  0.00    -0.028 C 
ATOM      8  C   UNL     1      14.913 -31.670  22.453  1.00  0.00    -0.070 CG0
ATOM      9  C   UNL     1      14.280 -31.306  23.775  1.00  0.00     0.039 C 
ATOM     10  G   UNL     1      16.279 -31.110  22.108  1.00  0.00     0.000 G0
ENDBRANCH   6   7
ENDBRANCH   5   6
ENDBRANCH   3   5
ENDBRANCH   1   3
BRANCH   1  11
ATOM     11  C   UNL     1      18.436 -33.142  20.871  1.00  0.00     0.087 C 
BRANCH  11  12
ATOM     12  C   UNL     1      18.044 -33.122  22.373  1.00  0.00     0.066 C 
BRANCH  12  13
ATOM     13  C   UNL     1      17.463 -31.768  22.786  1.00  0.00     0.140 C 
ATOM     14  O   UNL     1      18.043 -31.151  23.667  1.00  0.00    -0.299 OA
BRANCH  13  15
ATOM     15  C   UNL     1      16.278 -31.084  22.122  1.00  0.00     0.106 CG0
ATOM     16  G   UNL     1      14.919 -31.661  22.464  1.00  0.00     0.000 G0
ENDBRANCH  13  15
ENDBRANCH  12  13
BRANCH  12  17
ATOM     17  C   UNL     1      19.180 -33.599  23.333  1.00  0.00    -0.006 C 
ATOM     18  C   UNL     1      20.439 -34.052  22.572  1.00  0.00     0.008 C 
ATOM     19  C   UNL     1      18.701 -34.756  24.230  1.00  0.00     0.008 C 
ENDBRANCH  12  17
ENDBRANCH  11  12
ENDBRANCH   1  11
TORSDOF 1
ENDMDL
MODEL 8
REMARK VINA RESULT:    -3.737      3.977      6.394
REMARK INTER + INTRA:          -6.224
REMARK INTER:                  -5.941
REMARK INTRA:                  -0.283
REMARK UNBOUND:                -0.521
REMARK SMILES CC1=CCC[C@@H](C)C(=O)C[C@@H](C(C)C)C(=O)C1
REMARK SMILES IDX 8 1 9 2 6 3 7 4 5 5 4 6 3 7 2 8 1 9 10 11 11 12 15 13 16 14
REMARK SMILES IDX 17 15 12 17 13 18 14 19
REMARK H PARENT
REMARK Flexibility Score: 70.00
ROOT
ATOM      1  C   UNL     1      15.795 -33.529  22.360  1.00  0.00     0.136 C 
ATOM      2  O   UNL     1      14.966 -33.407  21.469  1.00  0.00    -0.299 OA
ENDROOT
BRANCH   1   3
ATOM      3  C   UNL     1      15.314 -33.511  23.800  1.00  0.00     0.053 C 
ATOM      4  C   UNL     1      14.195 -32.488  24.049  1.00  0.00     0.016 C 
BRANCH   3   5
ATOM      5  C   UNL     1      16.491 -33.487  24.816  1.00  0.00     0.015 C 
BRANCH   5   6
ATOM      6  C   UNL     1      16.918 -34.805  25.489  1.00  0.00     0.028 C 
BRANCH   6   7
ATOM      7  C   UNL     1      18.399 -35.060  25.629  1.00  0.00    -0.028 C 
ATOM      8  C   UNL     1      19.151 -35.884  24.865  1.00  0.00    -0.070 CG0
ATOM      9  C   UNL     1      20.533 -36.223  25.371  1.00  0.00     0.039 C 
ATOM     10  G   UNL     1      18.642 -36.551  23.601  1.00  0.00     0.000 G0
ENDBRANCH   6   7
ENDBRANCH   5   6
ENDBRANCH   3   5
ENDBRANCH   1   3
BRANCH   1  11
ATOM     11  C   UNL     1      17.244 -33.704  21.962  1.00  0.00     0.087 C 
BRANCH  11  12
ATOM     12  C   UNL     1      17.557 -35.167  21.546  1.00  0.00     0.066 C 
BRANCH  12  13
ATOM     13  C   UNL     1      18.746 -35.731  22.326  1.00  0.00     0.140 C 
ATOM     14  O   UNL     1      19.867 -35.426  21.944  1.00  0.00    -0.299 OA
BRANCH  13  15
ATOM     15  C   UNL     1      18.647 -36.562  23.596  1.00  0.00     0.106 CG0
ATOM     16  G   UNL     1      19.148 -35.886  24.857  1.00  0.00     0.000 G0
ENDBRANCH  13  15
ENDBRANCH  12  13
BRANCH  12  17
ATOM     17  C   UNL     1      17.705 -35.373  20.006  1.00  0.00    -0.006 C 
ATOM     18  C   UNL     1      17.892 -34.044  19.251  1.00  0.00     0.008 C 
ATOM     19  C   UNL     1      16.481 -36.103  19.422  1.00  0.00     0.008 C 
ENDBRANCH  12  17
ENDBRANCH  11  12
ENDBRANCH   1  11
TORSDOF 1
ENDMDL
MODEL 9
REMARK VINA RESULT:    -3.713      2.773      5.470
REMARK INTER + INTRA:          -6.188
REMARK INTER:                  -5.664
REMARK INTRA:                  -0.523
REMARK UNBOUND:                -0.521
REMARK SMILES CC1=CCC[C@@H](C)C(=O)C[C@@H](C(C)C)C(=O)C1
REMARK SMILES IDX 8 1 9 2 6 3 7 4 5 5 4 6 3 7 2 8 1 9 10 11 11 12 15 13 16 14
REMARK SMILES IDX 17 15 12 17 13 18 14 19
REMARK H PARENT
REMARK Flexibility Score: 70.00
ROOT
ATOM      1  C   UNL     1      17.767 -33.010  24.141  1.00  0.00     0.136 C 
ATOM      2  O   UNL     1      18.681 -32.511  24.781  1.00  0.00    -0.299 OA
ENDROOT
BRANCH   1   3
ATOM      3  C   UNL     1      17.474 -34.488  24.334  1.00  0.00     0.053 C 
ATOM      4  C   UNL     1      16.943 -34.818  25.736  1.00  0.00     0.016 C 
BRANCH   3   5
ATOM      5  C   UNL     1      18.630 -35.391  23.818  1.00  0.00     0.015 C 
BRANCH   5   6
ATOM      6  C   UNL     1      19.176 -35.158  22.397  1.00  0.00     0.028 C 
BRANCH   6   7
ATOM      7  C   UNL     1      18.401 -35.762  21.252  1.00  0.00    -0.028 C 
ATOM      8  C   UNL     1      17.452 -35.148  20.508  1.00  0.00    -0.070 CG0
ATOM      9  C   UNL     1      16.593 -36.025  19.628  1.00  0.00     0.039 C 
ATOM     10  G   UNL     1      17.151 -33.664  20.593  1.00  0.00     0.000 G0
ENDBRANCH   6   7
ENDBRANCH   5   6
ENDBRANCH   3   5
ENDBRANCH   1   3
BRANCH   1  11
ATOM     11  C   UNL     1      16.983 -32.115  23.208  1.00  0.00     0.087 C 
BRANCH  11  12
ATOM     12  C   UNL     1      15.691 -32.806  22.693  1.00  0.00     0.066 C 
BRANCH  12  13
ATOM     13  C   UNL     1      15.843 -33.274  21.244  1.00  0.00     0.140 C 
ATOM     14  O   UNL     1      14.842 -33.269  20.542  1.00  0.00    -0.299 OA
BRANCH  13  15
ATOM     15  C   UNL     1      17.157 -33.653  20.578  1.00  0.00     0.106 CG0
ATOM     16  G   UNL     1      17.442 -35.140  20.501  1.00  0.00     0.000 G0
ENDBRANCH  13  15
ENDBRANCH  12  13
BRANCH  12  17
ATOM     17  C   UNL     1      14.391 -31.971  22.914  1.00  0.00    -0.006 C 
ATOM     18  C   UNL     1      14.652 -30.455  22.868  1.00  0.00     0.008 C 
ATOM     19  C   UNL     1      13.730 -32.318  24.261  1.00  0.00     0.008 C 
ENDBRANCH  12  17
ENDBRANCH  11  12
ENDBRANCH   1  11
TORSDOF 1
ENDMDL
