MODEL 1
REMARK VINA RESULT:    -5.936      0.000      0.000
REMARK INTER + INTRA:          -8.505
REMARK INTER:                  -8.018
REMARK INTRA:                  -0.487
REMARK UNBOUND:                -0.487
REMARK SMILES COc1ccc(-c2cc(=O)c3c(OC)c(OC)c(OC)c(OC)c3o2)cc1
REMARK SMILES IDX 7 1 8 2 9 3 10 4 11 5 24 6 25 7 21 8 18 9 15 10 12 11 6 12
REMARK SMILES IDX 3 13 4 14 27 15 5 16 26 17 2 18 1 19 22 20 23 21 13 22 14 23
REMARK SMILES IDX 19 24 20 25 16 26 17 27
REMARK H PARENT
REMARK Flexibility Score: inf
ROOT
ATOM      1  C   UNL     1     -10.301   6.318  24.187  1.00  0.00     0.138 A 
ATOM      2  C   UNL     1      -9.181   5.491  24.008  1.00  0.00     0.100 A 
ATOM      3  C   UNL     1      -9.359   4.114  23.872  1.00  0.00     0.197 A 
ATOM      4  O   UNL     1      -8.345   3.382  23.712  1.00  0.00    -0.289 OA
ATOM      5  C   UNL     1     -10.662   3.573  23.906  1.00  0.00     0.115 A 
ATOM      6  C   UNL     1     -11.741   4.471  24.080  1.00  0.00     0.188 A 
ATOM      7  O   UNL     1     -11.515   5.776  24.210  1.00  0.00    -0.452 OA
ATOM      8  C   UNL     1     -13.058   4.001  24.138  1.00  0.00     0.209 A 
ATOM      9  C   UNL     1     -13.317   2.632  23.926  1.00  0.00     0.211 A 
ATOM     10  C   UNL     1     -12.258   1.731  23.753  1.00  0.00     0.208 A 
ATOM     11  C   UNL     1     -10.923   2.187  23.801  1.00  0.00     0.179 A 
ENDROOT
BRANCH   1  12
ATOM     12  C   UNL     1     -10.174   7.790  24.336  1.00  0.00     0.018 A 
ATOM     13  C   UNL     1      -9.869  10.586  24.617  1.00  0.00     0.118 A 
ATOM     14  C   UNL     1      -8.894   9.708  25.125  1.00  0.00     0.047 A 
ATOM     15  C   UNL     1     -10.989  10.056  23.968  1.00  0.00     0.047 A 
ATOM     16  C   UNL     1      -9.045   8.325  24.980  1.00  0.00     0.016 A 
ATOM     17  C   UNL     1     -11.142   8.674  23.822  1.00  0.00     0.016 A 
BRANCH  13  18
ATOM     18  O   UNL     1      -9.761  11.979  24.732  1.00  0.00    -0.497 OA
ATOM     19  C   UNL     1     -10.864  12.878  24.684  1.00  0.00     0.278 C 
ENDBRANCH  13  18
ENDBRANCH   1  12
BRANCH   8  20
ATOM     20  O   UNL     1     -14.079   4.926  24.401  1.00  0.00    -0.490 OA
ATOM     21  C   UNL     1     -14.716   5.705  23.392  1.00  0.00     0.278 C 
ENDBRANCH   8  20
BRANCH  11  22
ATOM     22  O   UNL     1      -9.859   1.277  23.750  1.00  0.00    -0.492 OA
ATOM     23  C   UNL     1      -9.433   0.539  24.891  1.00  0.00     0.278 C 
ENDBRANCH  11  22
BRANCH   9  24
ATOM     24  O   UNL     1     -14.623   2.152  23.828  1.00  0.00    -0.490 OA
ATOM     25  C   UNL     1     -15.467   2.068  24.972  1.00  0.00     0.279 C 
ENDBRANCH   9  24
BRANCH  10  26
ATOM     26  O   UNL     1     -12.568   0.390  23.500  1.00  0.00    -0.490 OA
ATOM     27  C   UNL     1     -12.808  -0.103  22.185  1.00  0.00     0.278 C 
ENDBRANCH  10  26
TORSDOF 6
ENDMDL
MODEL 2
REMARK VINA RESULT:    -5.524      2.603      8.082
REMARK INTER + INTRA:          -7.949
REMARK INTER:                  -7.476
REMARK INTRA:                  -0.473
REMARK UNBOUND:                -0.487
REMARK SMILES COc1ccc(-c2cc(=O)c3c(OC)c(OC)c(OC)c(OC)c3o2)cc1
REMARK SMILES IDX 7 1 8 2 9 3 10 4 11 5 24 6 25 7 21 8 18 9 15 10 12 11 6 12
REMARK SMILES IDX 3 13 4 14 27 15 5 16 26 17 2 18 1 19 22 20 23 21 13 22 14 23
REMARK SMILES IDX 19 24 20 25 16 26 17 27
REMARK H PARENT
REMARK Flexibility Score: inf
ROOT
ATOM      1  C   UNL     1     -14.882   1.220  23.271  1.00  0.00     0.138 A 
ATOM      2  C   UNL     1     -14.016   0.531  22.407  1.00  0.00     0.100 A 
ATOM      3  C   UNL     1     -12.734   1.030  22.178  1.00  0.00     0.197 A 
ATOM      4  O   UNL     1     -11.966   0.401  21.400  1.00  0.00    -0.289 OA
ATOM      5  C   UNL     1     -12.320   2.214  22.825  1.00  0.00     0.115 A 
ATOM      6  C   UNL     1     -13.246   2.845  23.689  1.00  0.00     0.188 A 
ATOM      7  O   UNL     1     -14.459   2.331  23.868  1.00  0.00    -0.452 OA
ATOM      8  C   UNL     1     -12.907   4.032  24.351  1.00  0.00     0.209 A 
ATOM      9  C   UNL     1     -11.602   4.547  24.230  1.00  0.00     0.211 A 
ATOM     10  C   UNL     1     -10.675   3.931  23.379  1.00  0.00     0.208 A 
ATOM     11  C   UNL     1     -11.047   2.795  22.626  1.00  0.00     0.179 A 
ENDROOT
BRANCH   1  12
ATOM     12  C   UNL     1     -16.257   0.737  23.554  1.00  0.00     0.018 A 
ATOM     13  C   UNL     1     -18.875  -0.214  24.038  1.00  0.00     0.118 A 
ATOM     14  C   UNL     1     -18.433   0.022  22.723  1.00  0.00     0.047 A 
ATOM     15  C   UNL     1     -17.999   0.026  25.102  1.00  0.00     0.047 A 
ATOM     16  C   UNL     1     -17.136   0.487  22.486  1.00  0.00     0.016 A 
ATOM     17  C   UNL     1     -16.702   0.491  24.867  1.00  0.00     0.016 A 
BRANCH  13  18
ATOM     18  O   UNL     1     -20.163  -0.685  24.327  1.00  0.00    -0.497 OA
ATOM     19  C   UNL     1     -21.117   0.015  25.120  1.00  0.00     0.278 C 
ENDBRANCH  13  18
ENDBRANCH   1  12
BRANCH   8  20
ATOM     20  O   UNL     1     -13.893   4.662  25.125  1.00  0.00    -0.490 OA
ATOM     21  C   UNL     1     -14.833   5.594  24.598  1.00  0.00     0.278 C 
ENDBRANCH   8  20
BRANCH  11  22
ATOM     22  O   UNL     1     -10.168   2.248  21.684  1.00  0.00    -0.492 OA
ATOM     23  C   UNL     1     -10.145   2.675  20.325  1.00  0.00     0.278 C 
ENDBRANCH  11  22
BRANCH   9  24
ATOM     24  O   UNL     1     -11.183   5.639  24.991  1.00  0.00    -0.490 OA
ATOM     25  C   UNL     1     -11.294   6.969  24.495  1.00  0.00     0.279 C 
ENDBRANCH   9  24
BRANCH  10  26
ATOM     26  O   UNL     1      -9.378   4.453  23.327  1.00  0.00    -0.490 OA
ATOM     27  C   UNL     1      -8.336   3.995  24.186  1.00  0.00     0.278 C 
ENDBRANCH  10  26
TORSDOF 6
ENDMDL
MODEL 3
REMARK VINA RESULT:    -5.007      2.277      8.121
REMARK INTER + INTRA:          -7.250
REMARK INTER:                  -6.801
REMARK INTRA:                  -0.449
REMARK UNBOUND:                -0.487
REMARK SMILES COc1ccc(-c2cc(=O)c3c(OC)c(OC)c(OC)c(OC)c3o2)cc1
REMARK SMILES IDX 7 1 8 2 9 3 10 4 11 5 24 6 25 7 21 8 18 9 15 10 12 11 6 12
REMARK SMILES IDX 3 13 4 14 27 15 5 16 26 17 2 18 1 19 22 20 23 21 13 22 14 23
REMARK SMILES IDX 19 24 20 25 16 26 17 27
REMARK H PARENT
REMARK Flexibility Score: inf
ROOT
ATOM      1  C   UNL     1     -14.808   2.802  24.059  1.00  0.00     0.138 A 
ATOM      2  C   UNL     1     -14.937   4.113  24.541  1.00  0.00     0.100 A 
ATOM      3  C   UNL     1     -13.800   4.906  24.690  1.00  0.00     0.197 A 
ATOM      4  O   UNL     1     -13.930   6.083  25.124  1.00  0.00    -0.289 OA
ATOM      5  C   UNL     1     -12.536   4.384  24.344  1.00  0.00     0.115 A 
ATOM      6  C   UNL     1     -12.486   3.057  23.855  1.00  0.00     0.188 A 
ATOM      7  O   UNL     1     -13.601   2.342  23.738  1.00  0.00    -0.452 OA
ATOM      8  C   UNL     1     -11.263   2.471  23.508  1.00  0.00     0.209 A 
ATOM      9  C   UNL     1     -10.085   3.241  23.555  1.00  0.00     0.211 A 
ATOM     10  C   UNL     1     -10.119   4.556  24.036  1.00  0.00     0.208 A 
ATOM     11  C   UNL     1     -11.334   5.116  24.489  1.00  0.00     0.179 A 
ENDROOT
BRANCH   1  12
ATOM     12  C   UNL     1     -15.982   1.912  23.878  1.00  0.00     0.018 A 
ATOM     13  C   UNL     1     -18.248   0.248  23.581  1.00  0.00     0.118 A 
ATOM     14  C   UNL     1     -17.924   0.794  24.836  1.00  0.00     0.047 A 
ATOM     15  C   UNL     1     -17.435   0.542  22.482  1.00  0.00     0.047 A 
ATOM     16  C   UNL     1     -16.806   1.621  24.979  1.00  0.00     0.016 A 
ATOM     17  C   UNL     1     -16.316   1.368  22.622  1.00  0.00     0.016 A 
BRANCH  13  18
ATOM     18  O   UNL     1     -19.361  -0.582  23.385  1.00  0.00    -0.497 OA
ATOM     19  C   UNL     1     -20.497  -0.621  24.243  1.00  0.00     0.278 C 
ENDBRANCH  13  18
ENDBRANCH   1  12
BRANCH   8  20
ATOM     20  O   UNL     1     -11.264   1.124  23.113  1.00  0.00    -0.490 OA
ATOM     21  C   UNL     1     -11.422   0.699  21.763  1.00  0.00     0.278 C 
ENDBRANCH   8  20
BRANCH  11  22
ATOM     22  O   UNL     1     -11.356   6.383  25.084  1.00  0.00    -0.492 OA
ATOM     23  C   UNL     1     -10.998   7.565  24.373  1.00  0.00     0.278 C 
ENDBRANCH  11  22
BRANCH   9  24
ATOM     24  O   UNL     1      -8.875   2.739  23.075  1.00  0.00    -0.490 OA
ATOM     25  C   UNL     1      -8.049   1.907  23.883  1.00  0.00     0.279 C 
ENDBRANCH   9  24
BRANCH  10  26
ATOM     26  O   UNL     1      -8.931   5.296  24.021  1.00  0.00    -0.490 OA
ATOM     27  C   UNL     1      -8.029   5.313  25.124  1.00  0.00     0.278 C 
ENDBRANCH  10  26
TORSDOF 6
ENDMDL
MODEL 4
REMARK VINA RESULT:    -4.917      2.248      7.689
REMARK INTER + INTRA:          -7.128
REMARK INTER:                  -7.664
REMARK INTRA:                   0.537
REMARK UNBOUND:                -0.487
REMARK SMILES COc1ccc(-c2cc(=O)c3c(OC)c(OC)c(OC)c(OC)c3o2)cc1
REMARK SMILES IDX 7 1 8 2 9 3 10 4 11 5 24 6 25 7 21 8 18 9 15 10 12 11 6 12
REMARK SMILES IDX 3 13 4 14 27 15 5 16 26 17 2 18 1 19 22 20 23 21 13 22 14 23
REMARK SMILES IDX 19 24 20 25 16 26 17 27
REMARK H PARENT
REMARK Flexibility Score: inf
ROOT
ATOM      1  C   UNL     1     -14.114   1.829  23.421  1.00  0.00     0.138 A 
ATOM      2  C   UNL     1     -13.004   1.123  22.933  1.00  0.00     0.100 A 
ATOM      3  C   UNL     1     -11.750   1.733  22.928  1.00  0.00     0.197 A 
ATOM      4  O   UNL     1     -10.760   1.088  22.487  1.00  0.00    -0.289 OA
ATOM      5  C   UNL     1     -11.612   3.048  23.422  1.00  0.00     0.115 A 
ATOM      6  C   UNL     1     -12.775   3.691  23.906  1.00  0.00     0.188 A 
ATOM      7  O   UNL     1     -13.949   3.065  23.883  1.00  0.00    -0.452 OA
ATOM      8  C   UNL     1     -12.714   5.001  24.396  1.00  0.00     0.209 A 
ATOM      9  C   UNL     1     -11.466   5.647  24.496  1.00  0.00     0.211 A 
ATOM     10  C   UNL     1     -10.306   5.022  24.021  1.00  0.00     0.208 A 
ATOM     11  C   UNL     1     -10.381   3.743  23.427  1.00  0.00     0.179 A 
ENDROOT
BRANCH   1  12
ATOM     12  C   UNL     1     -15.473   1.231  23.453  1.00  0.00     0.018 A 
ATOM     13  C   UNL     1     -18.069   0.119  23.571  1.00  0.00     0.118 A 
ATOM     14  C   UNL     1     -17.337   0.349  24.750  1.00  0.00     0.047 A 
ATOM     15  C   UNL     1     -17.495   0.452  22.340  1.00  0.00     0.047 A 
ATOM     16  C   UNL     1     -16.056   0.903  24.689  1.00  0.00     0.016 A 
ATOM     17  C   UNL     1     -16.214   1.006  22.276  1.00  0.00     0.016 A 
BRANCH  13  18
ATOM     18  O   UNL     1     -19.359  -0.430  23.579  1.00  0.00    -0.497 OA
ATOM     19  C   UNL     1     -20.230  -0.421  24.706  1.00  0.00     0.278 C 
ENDBRANCH  13  18
ENDBRANCH   1  12
BRANCH   8  20
ATOM     20  O   UNL     1     -13.913   5.620  24.780  1.00  0.00    -0.490 OA
ATOM     21  C   UNL     1     -14.921   6.026  23.859  1.00  0.00     0.278 C 
ENDBRANCH   8  20
BRANCH  11  22
ATOM     22  O   UNL     1      -9.249   3.164  22.841  1.00  0.00    -0.492 OA
ATOM     23  C   UNL     1      -8.352   2.334  23.572  1.00  0.00     0.278 C 
ENDBRANCH  11  22
BRANCH   9  24
ATOM     24  O   UNL     1     -11.346   6.891  25.116  1.00  0.00    -0.490 OA
ATOM     25  C   UNL     1     -10.847   8.023  24.410  1.00  0.00     0.279 C 
ENDBRANCH   9  24
BRANCH  10  26
ATOM     26  O   UNL     1      -9.085   5.686  24.183  1.00  0.00    -0.490 OA
ATOM     27  C   UNL     1      -8.102   5.256  25.121  1.00  0.00     0.278 C 
ENDBRANCH  10  26
TORSDOF 6
ENDMDL
MODEL 5
REMARK VINA RESULT:    -4.857      3.208      6.042
REMARK INTER + INTRA:          -7.048
REMARK INTER:                  -7.073
REMARK INTRA:                   0.025
REMARK UNBOUND:                -0.487
REMARK SMILES COc1ccc(-c2cc(=O)c3c(OC)c(OC)c(OC)c(OC)c3o2)cc1
REMARK SMILES IDX 7 1 8 2 9 3 10 4 11 5 24 6 25 7 21 8 18 9 15 10 12 11 6 12
REMARK SMILES IDX 3 13 4 14 27 15 5 16 26 17 2 18 1 19 22 20 23 21 13 22 14 23
REMARK SMILES IDX 19 24 20 25 16 26 17 27
REMARK H PARENT
REMARK Flexibility Score: inf
ROOT
ATOM      1  C   UNL     1     -10.165   3.698  23.658  1.00  0.00     0.138 A 
ATOM      2  C   UNL     1     -10.658   4.921  24.139  1.00  0.00     0.100 A 
ATOM      3  C   UNL     1     -11.989   5.266  23.903  1.00  0.00     0.197 A 
ATOM      4  O   UNL     1     -12.419   6.367  24.342  1.00  0.00    -0.289 OA
ATOM      5  C   UNL     1     -12.824   4.377  23.193  1.00  0.00     0.115 A 
ATOM      6  C   UNL     1     -12.258   3.159  22.749  1.00  0.00     0.188 A 
ATOM      7  O   UNL     1     -10.980   2.882  22.996  1.00  0.00    -0.452 OA
ATOM      8  C   UNL     1     -13.025   2.239  22.025  1.00  0.00     0.209 A 
ATOM      9  C   UNL     1     -14.396   2.486  21.821  1.00  0.00     0.211 A 
ATOM     10  C   UNL     1     -14.971   3.687  22.257  1.00  0.00     0.208 A 
ATOM     11  C   UNL     1     -14.175   4.665  22.892  1.00  0.00     0.179 A 
ENDROOT
BRANCH   1  12
ATOM     12  C   UNL     1      -8.759   3.276  23.880  1.00  0.00     0.018 A 
ATOM     13  C   UNL     1      -6.068   2.532  24.321  1.00  0.00     0.118 A 
ATOM     14  C   UNL     1      -6.391   3.848  23.941  1.00  0.00     0.047 A 
ATOM     15  C   UNL     1      -7.097   1.599  24.480  1.00  0.00     0.047 A 
ATOM     16  C   UNL     1      -7.723   4.215  23.729  1.00  0.00     0.016 A 
ATOM     17  C   UNL     1      -8.430   1.963  24.268  1.00  0.00     0.016 A 
BRANCH  13  18
ATOM     18  O   UNL     1      -4.749   2.117  24.551  1.00  0.00    -0.497 OA
ATOM     19  C   UNL     1      -4.350   0.761  24.723  1.00  0.00     0.278 C 
ENDBRANCH  13  18
ENDBRANCH   1  12
BRANCH   8  20
ATOM     20  O   UNL     1     -12.388   1.090  21.533  1.00  0.00    -0.490 OA
ATOM     21  C   UNL     1     -12.522  -0.200  22.124  1.00  0.00     0.278 C 
ENDBRANCH   8  20
BRANCH  11  22
ATOM     22  O   UNL     1     -14.713   5.916  23.220  1.00  0.00    -0.492 OA
ATOM     23  C   UNL     1     -15.358   6.165  24.466  1.00  0.00     0.278 C 
ENDBRANCH  11  22
BRANCH   9  24
ATOM     24  O   UNL     1     -15.223   1.525  21.238  1.00  0.00    -0.490 OA
ATOM     25  C   UNL     1     -16.004   0.640  22.035  1.00  0.00     0.279 C 
ENDBRANCH   9  24
BRANCH  10  26
ATOM     26  O   UNL     1     -16.346   3.866  22.072  1.00  0.00    -0.490 OA
ATOM     27  C   UNL     1     -16.923   4.074  20.785  1.00  0.00     0.278 C 
ENDBRANCH  10  26
TORSDOF 6
ENDMDL
MODEL 6
REMARK VINA RESULT:    -4.685      2.161      3.415
REMARK INTER + INTRA:          -6.815
REMARK INTER:                  -7.306
REMARK INTRA:                   0.491
REMARK UNBOUND:                -0.487
REMARK SMILES COc1ccc(-c2cc(=O)c3c(OC)c(OC)c(OC)c(OC)c3o2)cc1
REMARK SMILES IDX 7 1 8 2 9 3 10 4 11 5 24 6 25 7 21 8 18 9 15 10 12 11 6 12
REMARK SMILES IDX 3 13 4 14 27 15 5 16 26 17 2 18 1 19 22 20 23 21 13 22 14 23
REMARK SMILES IDX 19 24 20 25 16 26 17 27
REMARK H PARENT
REMARK Flexibility Score: inf
ROOT
ATOM      1  C   UNL     1     -11.816   4.313  24.059  1.00  0.00     0.138 A 
ATOM      2  C   UNL     1     -11.325   3.041  24.394  1.00  0.00     0.100 A 
ATOM      3  C   UNL     1     -12.097   1.912  24.121  1.00  0.00     0.197 A 
ATOM      4  O   UNL     1     -11.643   0.776  24.426  1.00  0.00    -0.289 OA
ATOM      5  C   UNL     1     -13.357   2.062  23.503  1.00  0.00     0.115 A 
ATOM      6  C   UNL     1     -13.779   3.374  23.187  1.00  0.00     0.188 A 
ATOM      7  O   UNL     1     -13.006   4.418  23.474  1.00  0.00    -0.452 OA
ATOM      8  C   UNL     1     -15.025   3.597  22.587  1.00  0.00     0.209 A 
ATOM      9  C   UNL     1     -15.820   2.498  22.209  1.00  0.00     0.211 A 
ATOM     10  C   UNL     1     -15.413   1.192  22.515  1.00  0.00     0.208 A 
ATOM     11  C   UNL     1     -14.208   0.970  23.217  1.00  0.00     0.179 A 
ENDROOT
BRANCH   1  12
ATOM     12  C   UNL     1     -11.039   5.550  24.324  1.00  0.00     0.018 A 
ATOM     13  C   UNL     1      -9.611   7.930  24.856  1.00  0.00     0.118 A 
ATOM     14  C   UNL     1     -10.999   7.967  24.629  1.00  0.00     0.047 A 
ATOM     15  C   UNL     1      -8.949   6.699  24.818  1.00  0.00     0.047 A 
ATOM     16  C   UNL     1     -11.704   6.787  24.372  1.00  0.00     0.016 A 
ATOM     17  C   UNL     1      -9.651   5.519  24.560  1.00  0.00     0.016 A 
BRANCH  13  18
ATOM     18  O   UNL     1      -8.861   9.084  25.123  1.00  0.00    -0.497 OA
ATOM     19  C   UNL     1      -9.156  10.375  24.600  1.00  0.00     0.278 C 
ENDBRANCH  13  18
ENDBRANCH   1  12
BRANCH   8  20
ATOM     20  O   UNL     1     -15.430   4.924  22.377  1.00  0.00    -0.490 OA
ATOM     21  C   UNL     1     -15.094   5.998  23.250  1.00  0.00     0.278 C 
ENDBRANCH   8  20
BRANCH  11  22
ATOM     22  O   UNL     1     -13.855  -0.319  23.633  1.00  0.00    -0.492 OA
ATOM     23  C   UNL     1     -14.460  -0.948  24.759  1.00  0.00     0.278 C 
ENDBRANCH  11  22
BRANCH   9  24
ATOM     24  O   UNL     1     -16.994   2.674  21.476  1.00  0.00    -0.490 OA
ATOM     25  C   UNL     1     -16.958   3.012  20.093  1.00  0.00     0.279 C 
ENDBRANCH   9  24
BRANCH  10  26
ATOM     26  O   UNL     1     -16.215   0.132  22.079  1.00  0.00    -0.490 OA
ATOM     27  C   UNL     1     -17.584   0.005  22.454  1.00  0.00     0.278 C 
ENDBRANCH  10  26
TORSDOF 6
ENDMDL
MODEL 7
REMARK VINA RESULT:    -4.605      2.877      8.259
REMARK INTER + INTRA:          -6.707
REMARK INTER:                  -6.753
REMARK INTRA:                   0.047
REMARK UNBOUND:                -0.487
REMARK SMILES COc1ccc(-c2cc(=O)c3c(OC)c(OC)c(OC)c(OC)c3o2)cc1
REMARK SMILES IDX 7 1 8 2 9 3 10 4 11 5 24 6 25 7 21 8 18 9 15 10 12 11 6 12
REMARK SMILES IDX 3 13 4 14 27 15 5 16 26 17 2 18 1 19 22 20 23 21 13 22 14 23
REMARK SMILES IDX 19 24 20 25 16 26 17 27
REMARK H PARENT
REMARK Flexibility Score: inf
ROOT
ATOM      1  C   UNL     1     -15.212   2.021  23.898  1.00  0.00     0.138 A 
ATOM      2  C   UNL     1     -14.953   3.219  24.580  1.00  0.00     0.100 A 
ATOM      3  C   UNL     1     -13.683   3.791  24.506  1.00  0.00     0.197 A 
ATOM      4  O   UNL     1     -13.463   4.868  25.124  1.00  0.00    -0.289 OA
ATOM      5  C   UNL     1     -12.679   3.162  23.740  1.00  0.00     0.115 A 
ATOM      6  C   UNL     1     -13.019   1.962  23.072  1.00  0.00     0.188 A 
ATOM      7  O   UNL     1     -14.244   1.456  23.181  1.00  0.00    -0.452 OA
ATOM      8  C   UNL     1     -12.067   1.278  22.307  1.00  0.00     0.209 A 
ATOM      9  C   UNL     1     -10.789   1.840  22.123  1.00  0.00     0.211 A 
ATOM     10  C   UNL     1     -10.439   3.029  22.777  1.00  0.00     0.208 A 
ATOM     11  C   UNL     1     -11.361   3.665  23.636  1.00  0.00     0.179 A 
ENDROOT
BRANCH   1  12
ATOM     12  C   UNL     1     -16.545   1.367  23.938  1.00  0.00     0.018 A 
ATOM     13  C   UNL     1     -19.102   0.169  24.050  1.00  0.00     0.118 A 
ATOM     14  C   UNL     1     -18.630   0.944  25.125  1.00  0.00     0.047 A 
ATOM     15  C   UNL     1     -18.289   0.002  22.924  1.00  0.00     0.047 A 
ATOM     16  C   UNL     1     -17.367   1.540  25.064  1.00  0.00     0.016 A 
ATOM     17  C   UNL     1     -17.026   0.596  22.862  1.00  0.00     0.016 A 
BRANCH  13  18
ATOM     18  O   UNL     1     -20.363  -0.444  24.060  1.00  0.00    -0.497 OA
ATOM     19  C   UNL     1     -21.457  -0.021  24.868  1.00  0.00     0.278 C 
ENDBRANCH  13  18
ENDBRANCH   1  12
BRANCH   8  20
ATOM     20  O   UNL     1     -12.434   0.048  21.741  1.00  0.00    -0.490 OA
ATOM     21  C   UNL     1     -13.061  -1.001  22.474  1.00  0.00     0.278 C 
ENDBRANCH   8  20
BRANCH  11  22
ATOM     22  O   UNL     1     -10.979   4.784  24.387  1.00  0.00    -0.492 OA
ATOM     23  C   UNL     1     -10.627   6.024  23.781  1.00  0.00     0.278 C 
ENDBRANCH  11  22
BRANCH   9  24
ATOM     24  O   UNL     1      -9.867   1.265  21.248  1.00  0.00    -0.490 OA
ATOM     25  C   UNL     1      -9.975   1.444  19.839  1.00  0.00     0.279 C 
ENDBRANCH   9  24
BRANCH  10  26
ATOM     26  O   UNL     1      -9.174   3.572  22.526  1.00  0.00    -0.490 OA
ATOM     27  C   UNL     1      -8.093   3.447  23.447  1.00  0.00     0.278 C 
ENDBRANCH  10  26
TORSDOF 6
ENDMDL
MODEL 8
REMARK VINA RESULT:    -3.793      2.858      6.199
REMARK INTER + INTRA:          -5.610
REMARK INTER:                  -5.345
REMARK INTRA:                  -0.265
REMARK UNBOUND:                -0.487
REMARK SMILES COc1ccc(-c2cc(=O)c3c(OC)c(OC)c(OC)c(OC)c3o2)cc1
REMARK SMILES IDX 7 1 8 2 9 3 10 4 11 5 24 6 25 7 21 8 18 9 15 10 12 11 6 12
REMARK SMILES IDX 3 13 4 14 27 15 5 16 26 17 2 18 1 19 22 20 23 21 13 22 14 23
REMARK SMILES IDX 19 24 20 25 16 26 17 27
REMARK H PARENT
REMARK Flexibility Score: inf
ROOT
ATOM      1  C   UNL     1     -10.311   2.015  23.485  1.00  0.00     0.138 A 
ATOM      2  C   UNL     1     -10.921   0.974  22.769  1.00  0.00     0.100 A 
ATOM      3  C   UNL     1     -12.262   1.087  22.401  1.00  0.00     0.197 A 
ATOM      4  O   UNL     1     -12.798   0.145  21.757  1.00  0.00    -0.289 OA
ATOM      5  C   UNL     1     -12.983   2.250  22.744  1.00  0.00     0.115 A 
ATOM      6  C   UNL     1     -12.296   3.261  23.458  1.00  0.00     0.188 A 
ATOM      7  O   UNL     1     -11.018   3.099  23.789  1.00  0.00    -0.452 OA
ATOM      8  C   UNL     1     -12.955   4.434  23.844  1.00  0.00     0.209 A 
ATOM      9  C   UNL     1     -14.285   4.650  23.435  1.00  0.00     0.211 A 
ATOM     10  C   UNL     1     -14.978   3.659  22.728  1.00  0.00     0.208 A 
ATOM     11  C   UNL     1     -14.350   2.430  22.430  1.00  0.00     0.179 A 
ENDROOT
BRANCH   1  12
ATOM     12  C   UNL     1      -8.887   1.951  23.902  1.00  0.00     0.018 A 
ATOM     13  C   UNL     1      -6.179   1.892  24.709  1.00  0.00     0.118 A 
ATOM     14  C   UNL     1      -6.724   3.051  24.125  1.00  0.00     0.047 A 
ATOM     15  C   UNL     1      -6.997   0.772  24.887  1.00  0.00     0.047 A 
ATOM     16  C   UNL     1      -8.065   3.079  23.732  1.00  0.00     0.016 A 
ATOM     17  C   UNL     1      -8.338   0.798  24.494  1.00  0.00     0.016 A 
BRANCH  13  18
ATOM     18  O   UNL     1      -4.842   1.816  25.124  1.00  0.00    -0.497 OA
ATOM     19  C   UNL     1      -4.027   0.654  25.006  1.00  0.00     0.278 C 
ENDBRANCH  13  18
ENDBRANCH   1  12
BRANCH   8  20
ATOM     20  O   UNL     1     -12.250   5.361  24.626  1.00  0.00    -0.490 OA
ATOM     21  C   UNL     1     -11.268   6.250  24.101  1.00  0.00     0.278 C 
ENDBRANCH   8  20
BRANCH  11  22
ATOM     22  O   UNL     1     -15.072   1.389  21.832  1.00  0.00    -0.492 OA
ATOM     23  C   UNL     1     -16.050   0.635  22.541  1.00  0.00     0.278 C 
ENDBRANCH  11  22
BRANCH   9  24
ATOM     24  O   UNL     1     -14.924   5.868  23.672  1.00  0.00    -0.490 OA
ATOM     25  C   UNL     1     -15.407   6.209  24.967  1.00  0.00     0.279 C 
ENDBRANCH   9  24
BRANCH  10  26
ATOM     26  O   UNL     1     -16.282   3.939  22.304  1.00  0.00    -0.490 OA
ATOM     27  C   UNL     1     -16.670   3.876  20.935  1.00  0.00     0.278 C 
ENDBRANCH  10  26
TORSDOF 6
ENDMDL
