MODEL 1
REMARK VINA RESULT:    -3.339      0.000      0.000
REMARK INTER + INTRA:          -4.245
REMARK INTER:                  -4.023
REMARK INTRA:                  -0.222
REMARK UNBOUND:                -0.222
REMARK SMILES OCC(O)CO
REMARK SMILES IDX 3 1 5 2 6 3 2 5 1 6 4 8
REMARK H PARENT 6 4 1 7 4 9
REMARK Flexibility Score: inf
ROOT
ATOM      1  C   UNL     1     -22.643  -1.501 -11.595  1.00  0.00     0.165 C 
ENDROOT
BRANCH   1   2
ATOM      2  C   UNL     1     -24.128  -1.116 -11.524  1.00  0.00     0.190 C 
BRANCH   2   3
ATOM      3  O   UNL     1     -24.816  -1.621 -12.637  1.00  0.00    -0.394 OA
ATOM      4  H   UNL     1     -25.730  -1.237 -12.609  1.00  0.00     0.210 HD
ENDBRANCH   2   3
ENDBRANCH   1   2
BRANCH   1   5
ATOM      5  C   UNL     1     -21.907  -0.673 -12.662  1.00  0.00     0.190 C 
BRANCH   5   6
ATOM      6  O   UNL     1     -22.746   0.314 -13.200  1.00  0.00    -0.394 OA
ATOM      7  H   UNL     1     -22.643   0.267 -14.187  1.00  0.00     0.210 HD
ENDBRANCH   5   6
ENDBRANCH   1   5
BRANCH   1   8
ATOM      8  O   UNL     1     -22.050  -1.282 -10.342  1.00  0.00    -0.388 OA
ATOM      9  H   UNL     1     -21.072  -1.203 -10.496  1.00  0.00     0.211 HD
ENDBRANCH   1   8
TORSDOF 5
ENDMDL
MODEL 2
REMARK VINA RESULT:    -3.257      4.357      5.123
REMARK INTER + INTRA:          -4.146
REMARK INTER:                  -3.929
REMARK INTRA:                  -0.217
REMARK UNBOUND:                -0.222
REMARK SMILES OCC(O)CO
REMARK SMILES IDX 3 1 5 2 6 3 2 5 1 6 4 8
REMARK H PARENT 6 4 1 7 4 9
REMARK Flexibility Score: inf
ROOT
ATOM      1  C   UNL     1     -18.234  -3.332 -11.410  1.00  0.00     0.165 C 
ENDROOT
BRANCH   1   2
ATOM      2  C   UNL     1     -19.051  -2.758 -12.577  1.00  0.00     0.190 C 
BRANCH   2   3
ATOM      3  O   UNL     1     -19.966  -1.804 -12.109  1.00  0.00    -0.394 OA
ATOM      4  H   UNL     1     -20.186  -2.051 -11.173  1.00  0.00     0.210 HD
ENDBRANCH   2   3
ENDBRANCH   1   2
BRANCH   1   5
ATOM      5  C   UNL     1     -16.924  -2.549 -11.215  1.00  0.00     0.190 C 
BRANCH   5   6
ATOM      6  O   UNL     1     -16.992  -1.293 -11.833  1.00  0.00    -0.394 OA
ATOM      7  H   UNL     1     -16.407  -0.686 -11.308  1.00  0.00     0.210 HD
ENDBRANCH   5   6
ENDBRANCH   1   5
BRANCH   1   8
ATOM      8  O   UNL     1     -18.999  -3.264 -10.235  1.00  0.00    -0.388 OA
ATOM      9  H   UNL     1     -19.676  -3.990 -10.290  1.00  0.00     0.211 HD
ENDBRANCH   1   8
TORSDOF 5
ENDMDL
MODEL 3
REMARK VINA RESULT:    -3.207      4.904      5.611
REMARK INTER + INTRA:          -4.086
REMARK INTER:                  -4.083
REMARK INTRA:                  -0.003
REMARK UNBOUND:                -0.222
REMARK SMILES OCC(O)CO
REMARK SMILES IDX 3 1 5 2 6 3 2 5 1 6 4 8
REMARK H PARENT 6 4 1 7 4 9
REMARK Flexibility Score: inf
ROOT
ATOM      1  C   UNL     1     -19.114  -3.666 -13.559  1.00  0.00     0.165 C 
ENDROOT
BRANCH   1   2
ATOM      2  C   UNL     1     -18.659  -2.583 -12.570  1.00  0.00     0.190 C 
BRANCH   2   3
ATOM      3  O   UNL     1     -19.761  -1.847 -12.112  1.00  0.00    -0.394 OA
ATOM      4  H   UNL     1     -20.572  -2.375 -12.332  1.00  0.00     0.210 HD
ENDBRANCH   2   3
ENDBRANCH   1   2
BRANCH   1   5
ATOM      5  C   UNL     1     -18.123  -4.841 -13.588  1.00  0.00     0.190 C 
BRANCH   5   6
ATOM      6  O   UNL     1     -18.285  -5.607 -14.752  1.00  0.00    -0.394 OA
ATOM      7  H   UNL     1     -19.185  -6.023 -14.694  1.00  0.00     0.210 HD
ENDBRANCH   5   6
ENDBRANCH   1   5
BRANCH   1   8
ATOM      8  O   UNL     1     -20.382  -4.133 -13.179  1.00  0.00    -0.388 OA
ATOM      9  H   UNL     1     -20.574  -3.749 -12.283  1.00  0.00     0.211 HD
ENDBRANCH   1   8
TORSDOF 5
ENDMDL
MODEL 4
REMARK VINA RESULT:    -3.200      1.374      2.765
REMARK INTER + INTRA:          -4.077
REMARK INTER:                  -3.860
REMARK INTRA:                  -0.217
REMARK UNBOUND:                -0.222
REMARK SMILES OCC(O)CO
REMARK SMILES IDX 3 1 5 2 6 3 2 5 1 6 4 8
REMARK H PARENT 6 4 1 7 4 9
REMARK Flexibility Score: inf
ROOT
ATOM      1  C   UNL     1     -21.812  -0.735 -12.377  1.00  0.00     0.165 C 
ENDROOT
BRANCH   1   2
ATOM      2  C   UNL     1     -22.687  -1.279 -11.238  1.00  0.00     0.190 C 
BRANCH   2   3
ATOM      3  O   UNL     1     -21.925  -1.438 -10.072  1.00  0.00    -0.394 OA
ATOM      4  H   UNL     1     -22.452  -1.046  -9.328  1.00  0.00     0.210 HD
ENDBRANCH   2   3
ENDBRANCH   1   2
BRANCH   1   5
ATOM      5  C   UNL     1     -21.227  -1.881 -13.220  1.00  0.00     0.190 C 
BRANCH   5   6
ATOM      6  O   UNL     1     -21.285  -3.098 -12.524  1.00  0.00    -0.394 OA
ATOM      7  H   UNL     1     -20.392  -3.228 -12.107  1.00  0.00     0.210 HD
ENDBRANCH   5   6
ENDBRANCH   1   5
BRANCH   1   8
ATOM      8  O   UNL     1     -22.589   0.099 -13.196  1.00  0.00    -0.388 OA
ATOM      9  H   UNL     1     -23.232  -0.487 -13.677  1.00  0.00     0.211 HD
ENDBRANCH   1   8
TORSDOF 5
ENDMDL
MODEL 5
REMARK VINA RESULT:    -3.193      5.062      5.778
REMARK INTER + INTRA:          -4.068
REMARK INTER:                  -3.855
REMARK INTRA:                  -0.213
REMARK UNBOUND:                -0.222
REMARK SMILES OCC(O)CO
REMARK SMILES IDX 3 1 5 2 6 3 2 5 1 6 4 8
REMARK H PARENT 6 4 1 7 4 9
REMARK Flexibility Score: inf
ROOT
ATOM      1  C   UNL     1     -19.125  -4.027 -12.643  1.00  0.00     0.165 C 
ENDROOT
BRANCH   1   2
ATOM      2  C   UNL     1     -18.127  -4.771 -13.542  1.00  0.00     0.190 C 
BRANCH   2   3
ATOM      3  O   UNL     1     -17.919  -4.059 -14.732  1.00  0.00    -0.394 OA
ATOM      4  H   UNL     1     -18.603  -3.341 -14.762  1.00  0.00     0.210 HD
ENDBRANCH   2   3
ENDBRANCH   1   2
BRANCH   1   5
ATOM      5  C   UNL     1     -18.761  -2.537 -12.527  1.00  0.00     0.190 C 
BRANCH   5   6
ATOM      6  O   UNL     1     -17.396  -2.372 -12.247  1.00  0.00    -0.394 OA
ATOM      7  H   UNL     1     -17.281  -1.434 -11.940  1.00  0.00     0.210 HD
ENDBRANCH   5   6
ENDBRANCH   1   5
BRANCH   1   8
ATOM      8  O   UNL     1     -20.414  -4.153 -13.183  1.00  0.00    -0.388 OA
ATOM      9  H   UNL     1     -20.755  -3.232 -13.332  1.00  0.00     0.211 HD
ENDBRANCH   1   8
TORSDOF 5
ENDMDL
MODEL 6
REMARK VINA RESULT:    -3.175      1.459      2.984
REMARK INTER + INTRA:          -4.047
REMARK INTER:                  -3.830
REMARK INTRA:                  -0.217
REMARK UNBOUND:                -0.222
REMARK SMILES OCC(O)CO
REMARK SMILES IDX 3 1 5 2 6 3 2 5 1 6 4 8
REMARK H PARENT 6 4 1 7 4 9
REMARK Flexibility Score: inf
ROOT
ATOM      1  C   UNL     1     -22.549  -1.140 -12.755  1.00  0.00     0.165 C 
ENDROOT
BRANCH   1   2
ATOM      2  C   UNL     1     -21.135  -1.701 -12.962  1.00  0.00     0.190 C 
BRANCH   2   3
ATOM      3  O   UNL     1     -21.130  -3.091 -12.773  1.00  0.00    -0.394 OA
ATOM      4  H   UNL     1     -20.423  -3.288 -12.105  1.00  0.00     0.210 HD
ENDBRANCH   2   3
ENDBRANCH   1   2
BRANCH   1   5
ATOM      5  C   UNL     1     -22.973  -1.242 -11.280  1.00  0.00     0.190 C 
BRANCH   5   6
ATOM      6  O   UNL     1     -21.854  -1.302 -10.437  1.00  0.00    -0.394 OA
ATOM      7  H   UNL     1     -22.201  -1.387  -9.510  1.00  0.00     0.210 HD
ENDBRANCH   5   6
ENDBRANCH   1   5
BRANCH   1   8
ATOM      8  O   UNL     1     -22.575   0.204 -13.158  1.00  0.00    -0.388 OA
ATOM      9  H   UNL     1     -23.151   0.688 -12.509  1.00  0.00     0.211 HD
ENDBRANCH   1   8
TORSDOF 5
ENDMDL
MODEL 7
REMARK VINA RESULT:    -3.166      1.615      2.217
REMARK INTER + INTRA:          -4.036
REMARK INTER:                  -3.813
REMARK INTRA:                  -0.223
REMARK UNBOUND:                -0.222
REMARK SMILES OCC(O)CO
REMARK SMILES IDX 3 1 5 2 6 3 2 5 1 6 4 8
REMARK H PARENT 6 4 1 7 4 9
REMARK Flexibility Score: inf
ROOT
ATOM      1  C   UNL     1     -21.377  -2.052 -12.563  1.00  0.00     0.165 C 
ENDROOT
BRANCH   1   2
ATOM      2  C   UNL     1     -22.318  -2.157 -11.354  1.00  0.00     0.190 C 
BRANCH   2   3
ATOM      3  O   UNL     1     -21.904  -1.284 -10.337  1.00  0.00    -0.394 OA
ATOM      4  H   UNL     1     -20.912  -1.294 -10.335  1.00  0.00     0.210 HD
ENDBRANCH   2   3
ENDBRANCH   1   2
BRANCH   1   5
ATOM      5  C   UNL     1     -21.878  -0.997 -13.564  1.00  0.00     0.190 C 
BRANCH   5   6
ATOM      6  O   UNL     1     -22.324   0.155 -12.899  1.00  0.00    -0.394 OA
ATOM      7  H   UNL     1     -23.311   0.179 -13.006  1.00  0.00     0.210 HD
ENDBRANCH   5   6
ENDBRANCH   1   5
BRANCH   1   8
ATOM      8  O   UNL     1     -20.092  -1.702 -12.118  1.00  0.00    -0.388 OA
ATOM      9  H   UNL     1     -20.047  -1.940 -11.154  1.00  0.00     0.211 HD
ENDBRANCH   1   8
TORSDOF 5
ENDMDL
MODEL 8
REMARK VINA RESULT:    -3.151      0.719      2.317
REMARK INTER + INTRA:          -4.018
REMARK INTER:                  -3.809
REMARK INTRA:                  -0.209
REMARK UNBOUND:                -0.222
REMARK SMILES OCC(O)CO
REMARK SMILES IDX 3 1 5 2 6 3 2 5 1 6 4 8
REMARK H PARENT 6 4 1 7 4 9
REMARK Flexibility Score: inf
ROOT
ATOM      1  C   UNL     1     -22.582  -1.013 -11.753  1.00  0.00     0.165 C 
ENDROOT
BRANCH   1   2
ATOM      2  C   UNL     1     -21.772  -1.209 -13.043  1.00  0.00     0.190 C 
BRANCH   2   3
ATOM      3  O   UNL     1     -22.241  -0.350 -14.048  1.00  0.00    -0.394 OA
ATOM      4  H   UNL     1     -21.639   0.439 -14.057  1.00  0.00     0.210 HD
ENDBRANCH   2   3
ENDBRANCH   1   2
BRANCH   1   5
ATOM      5  C   UNL     1     -23.826  -1.917 -11.740  1.00  0.00     0.190 C 
BRANCH   5   6
ATOM      6  O   UNL     1     -24.750  -1.516 -12.716  1.00  0.00    -0.394 OA
ATOM      7  H   UNL     1     -24.228  -1.063 -13.431  1.00  0.00     0.210 HD
ENDBRANCH   5   6
ENDBRANCH   1   5
BRANCH   1   8
ATOM      8  O   UNL     1     -21.770  -1.318 -10.649  1.00  0.00    -0.388 OA
ATOM      9  H   UNL     1     -21.075  -0.610 -10.599  1.00  0.00     0.211 HD
ENDBRANCH   1   8
TORSDOF 5
ENDMDL
MODEL 9
REMARK VINA RESULT:    -3.113      1.609      2.274
REMARK INTER + INTRA:          -3.972
REMARK INTER:                  -3.765
REMARK INTRA:                  -0.207
REMARK UNBOUND:                -0.222
REMARK SMILES OCC(O)CO
REMARK SMILES IDX 3 1 5 2 6 3 2 5 1 6 4 8
REMARK H PARENT 6 4 1 7 4 9
REMARK Flexibility Score: inf
ROOT
ATOM      1  C   UNL     1     -22.231  -1.786 -11.755  1.00  0.00     0.165 C 
ENDROOT
BRANCH   1   2
ATOM      2  C   UNL     1     -22.949  -0.615 -12.441  1.00  0.00     0.190 C 
BRANCH   2   3
ATOM      3  O   UNL     1     -22.053   0.101 -13.247  1.00  0.00    -0.394 OA
ATOM      4  H   UNL     1     -21.303  -0.512 -13.460  1.00  0.00     0.210 HD
ENDBRANCH   2   3
ENDBRANCH   1   2
BRANCH   1   5
ATOM      5  C   UNL     1     -21.076  -2.311 -12.623  1.00  0.00     0.190 C 
BRANCH   5   6
ATOM      6  O   UNL     1     -19.848  -1.780 -12.202  1.00  0.00    -0.394 OA
ATOM      7  H   UNL     1     -19.290  -1.674 -13.017  1.00  0.00     0.210 HD
ENDBRANCH   5   6
ENDBRANCH   1   5
BRANCH   1   8
ATOM      8  O   UNL     1     -21.729  -1.356 -10.517  1.00  0.00    -0.388 OA
ATOM      9  H   UNL     1     -22.314  -1.748  -9.816  1.00  0.00     0.211 HD
ENDBRANCH   1   8
TORSDOF 5
ENDMDL
