MODEL 1
REMARK VINA RESULT:     0.115      0.000      0.000
REMARK INTER + INTRA:           7.552
REMARK INTER:                   0.193
REMARK INTRA:                   7.359
REMARK UNBOUND:                 7.359
REMARK SMILES COc1cc(-c2oc3cc(O)cc(O)c3c(=O)c2O[C@H]2O[C@@H](CO[C@@H]3O[C@@H](C)[C@H](O)[C@@H](O)[C@@H]3O)[C@H](O)[C@H](O)[C@H]2O)ccc1O
REMARK SMILES IDX 22 1 35 2 37 3 39 4 20 5 21 6 23 7 24 8 25 9 28 10 27 11
REMARK SMILES IDX 29 12 26 13 31 14 33 15 30 16 32 18 34 20 36 22 38 24 19 26
REMARK SMILES IDX 18 27 6 28 16 29 7 30 15 31 17 32 8 33 13 34 9 35 12 36
REMARK SMILES IDX 10 37 5 38 4 39 41 40 3 41 42 42 43 43 2 44 1 45 44 46 14 48
REMARK SMILES IDX 11 50 40 52
REMARK H PARENT 30 17 32 19 34 21 36 23 38 25 44 47 14 49 11 51 40 53
REMARK Flexibility Score: inf
ROOT
ATOM      1  C   UNL     1      26.422  24.061   5.203  1.00  0.00     0.180 C 
ATOM      2  C   UNL     1      26.200  24.115   3.610  1.00  0.00     0.177 C 
ATOM      3  C   UNL     1      24.643  24.397   3.223  1.00  0.00     0.180 C 
ATOM      4  C   UNL     1      23.802  24.829   4.441  1.00  0.00     0.214 C 
ATOM      5  C   UNL     1      24.063  24.117   5.764  1.00  0.00     0.339 C 
ATOM      6  O   UNL     1      25.316  23.344   5.712  1.00  0.00    -0.332 OA
ENDROOT
BRANCH   1   7
ATOM      7  C   UNL     1      27.929  23.389   5.521  1.00  0.00     0.198 C 
BRANCH   7   8
ATOM      8  O   UNL     1      29.381  23.769   5.681  1.00  0.00    -0.347 OA
BRANCH   8   9
ATOM      9  C   UNL     1      30.199  23.043   6.654  1.00  0.00     0.281 C 
ATOM     10  C   UNL     1      32.956  20.489   6.459  1.00  0.00     0.041 C 
ATOM     11  C   UNL     1      31.721  21.238   7.210  1.00  0.00     0.150 C 
ATOM     12  C   UNL     1      32.417  22.431   8.084  1.00  0.00     0.174 C 
ATOM     13  O   UNL     1      30.659  21.710   6.342  1.00  0.00    -0.344 OA
ATOM     14  C   UNL     1      31.314  23.298   8.833  1.00  0.00     0.179 C 
ATOM     15  C   UNL     1      29.929  23.130   8.178  1.00  0.00     0.202 C 
BRANCH  12  16
ATOM     16  O   UNL     1      33.323  21.889   8.953  1.00  0.00    -0.388 OA
ATOM     17  H   UNL     1      33.373  22.468   9.773  1.00  0.00     0.211 HD
ENDBRANCH  12  16
BRANCH  14  18
ATOM     18  O   UNL     1      31.694  24.686   8.732  1.00  0.00    -0.387 OA
ATOM     19  H   UNL     1      31.066  25.187   8.134  1.00  0.00     0.211 HD
ENDBRANCH  14  18
BRANCH  15  20
ATOM     20  O   UNL     1      29.098  22.107   8.734  1.00  0.00    -0.385 OA
ATOM     21  H   UNL     1      29.527  21.210   8.572  1.00  0.00     0.211 HD
ENDBRANCH  15  20
ENDBRANCH   8   9
ENDBRANCH   7   8
ENDBRANCH   1   7
BRANCH   2  22
ATOM     22  O   UNL     1      27.153  24.833   2.785  1.00  0.00    -0.387 OA
ATOM     23  H   UNL     1      27.978  24.930   3.365  1.00  0.00     0.211 HD
ENDBRANCH   2  22
BRANCH   3  24
ATOM     24  O   UNL     1      24.506  25.260   2.084  1.00  0.00    -0.387 OA
ATOM     25  H   UNL     1      24.782  24.737   1.261  1.00  0.00     0.211 HD
ENDBRANCH   3  24
BRANCH   5  26
ATOM     26  O   UNL     1      23.007  23.193   6.146  1.00  0.00    -0.454 OA
BRANCH  26  27
ATOM     27  C   UNL     1      23.081  21.752   6.076  1.00  0.00     0.214 A 
ATOM     28  C   UNL     1      24.200  21.184   6.464  1.00  0.00     0.180 A 
ATOM     29  C   UNL     1      21.929  20.962   6.197  1.00  0.00     0.239 A 
ATOM     30  O   UNL     1      24.234  20.634   7.718  1.00  0.00    -0.452 OA
ATOM     31  C   UNL     1      21.892  20.195   7.395  1.00  0.00     0.111 A 
ATOM     32  O   UNL     1      20.940  21.127   5.345  1.00  0.00    -0.285 OA
ATOM     33  C   UNL     1      23.024  20.319   8.287  1.00  0.00     0.146 A 
ATOM     34  C   UNL     1      20.582  20.069   7.939  1.00  0.00     0.134 A 
ATOM     35  C   UNL     1      22.882  20.223   9.645  1.00  0.00     0.094 A 
ATOM     36  C   UNL     1      20.402  20.102   9.282  1.00  0.00     0.093 A 
ATOM     37  C   UNL     1      21.530  20.060  10.143  1.00  0.00     0.123 A 
BRANCH  28  38
ATOM     38  C   UNL     1      25.349  21.287   5.472  1.00  0.00     0.025 A 
ATOM     39  C   UNL     1      26.642  21.074   5.829  1.00  0.00     0.062 A 
ATOM     40  C   UNL     1      24.965  21.238   4.103  1.00  0.00     0.016 A 
ATOM     41  C   UNL     1      27.477  20.487   4.910  1.00  0.00     0.161 A 
ATOM     42  C   UNL     1      25.833  20.838   3.122  1.00  0.00     0.051 A 
ATOM     43  C   UNL     1      27.129  20.403   3.538  1.00  0.00     0.157 A 
BRANCH  41  44
ATOM     44  O   UNL     1      28.622  19.880   5.374  1.00  0.00    -0.493 OA
ATOM     45  C   UNL     1      29.838  19.922   4.605  1.00  0.00     0.278 C 
ENDBRANCH  41  44
BRANCH  43  46
ATOM     46  O   UNL     1      27.942  19.876   2.554  1.00  0.00    -0.504 OA
ATOM     47  H   UNL     1      28.376  20.520   1.887  1.00  0.00     0.293 HD
ENDBRANCH  43  46
ENDBRANCH  28  38
BRANCH  34  48
ATOM     48  O   UNL     1      19.506  19.878   7.087  1.00  0.00    -0.507 OA
ATOM     49  H   UNL     1      19.458  20.254   6.147  1.00  0.00     0.293 HD
ENDBRANCH  34  48
BRANCH  37  50
ATOM     50  O   UNL     1      21.364  19.875  11.515  1.00  0.00    -0.508 OA
ATOM     51  H   UNL     1      20.616  19.231  11.751  1.00  0.00     0.293 HD
ENDBRANCH  37  50
ENDBRANCH  26  27
ENDBRANCH   5  26
BRANCH   4  52
ATOM     52  O   UNL     1      22.375  24.915   4.170  1.00  0.00    -0.384 OA
ATOM     53  H   UNL     1      21.964  24.120   4.631  1.00  0.00     0.211 HD
ENDBRANCH   4  52
TORSDOF 16
ENDMDL
MODEL 2
REMARK VINA RESULT:     0.397      1.814      6.131
REMARK INTER + INTRA:           8.023
REMARK INTER:                   7.576
REMARK INTRA:                   0.447
REMARK UNBOUND:                 7.359
REMARK SMILES COc1cc(-c2oc3cc(O)cc(O)c3c(=O)c2O[C@H]2O[C@@H](CO[C@@H]3O[C@@H](C)[C@H](O)[C@@H](O)[C@@H]3O)[C@H](O)[C@H](O)[C@H]2O)ccc1O
REMARK SMILES IDX 22 1 35 2 37 3 39 4 20 5 21 6 23 7 24 8 25 9 28 10 27 11
REMARK SMILES IDX 29 12 26 13 31 14 33 15 30 16 32 18 34 20 36 22 38 24 19 26
REMARK SMILES IDX 18 27 6 28 16 29 7 30 15 31 17 32 8 33 13 34 9 35 12 36
REMARK SMILES IDX 10 37 5 38 4 39 41 40 3 41 42 42 43 43 2 44 1 45 44 46 14 48
REMARK SMILES IDX 11 50 40 52
REMARK H PARENT 30 17 32 19 34 21 36 23 38 25 44 47 14 49 11 51 40 53
REMARK Flexibility Score: inf
ROOT
ATOM      1  C   UNL     1      25.327  20.281   7.389  1.00  0.00     0.180 C 
ATOM      2  C   UNL     1      24.150  20.671   8.416  1.00  0.00     0.177 C 
ATOM      3  C   UNL     1      22.766  21.040   7.641  1.00  0.00     0.180 C 
ATOM      4  C   UNL     1      22.807  20.660   6.147  1.00  0.00     0.214 C 
ATOM      5  C   UNL     1      24.107  20.918   5.392  1.00  0.00     0.339 C 
ATOM      6  O   UNL     1      25.213  21.200   6.322  1.00  0.00    -0.332 OA
ENDROOT
BRANCH   1   7
ATOM      7  C   UNL     1      26.794  20.300   8.208  1.00  0.00     0.198 C 
BRANCH   7   8
ATOM      8  O   UNL     1      28.284  20.306   7.962  1.00  0.00    -0.347 OA
BRANCH   8   9
ATOM      9  C   UNL     1      29.062  21.478   8.366  1.00  0.00     0.281 C 
ATOM     10  C   UNL     1      32.590  22.667   7.820  1.00  0.00     0.041 C 
ATOM     11  C   UNL     1      31.189  22.611   8.645  1.00  0.00     0.150 C 
ATOM     12  C   UNL     1      30.310  23.865   8.075  1.00  0.00     0.174 C 
ATOM     13  O   UNL     1      30.483  21.344   8.588  1.00  0.00    -0.344 OA
ATOM     14  C   UNL     1      28.871  23.900   8.754  1.00  0.00     0.179 C 
ATOM     15  C   UNL     1      28.503  22.531   9.357  1.00  0.00     0.202 C 
BRANCH  12  16
ATOM     16  O   UNL     1      30.999  25.029   8.268  1.00  0.00    -0.388 OA
ATOM     17  H   UNL     1      31.264  25.093   9.236  1.00  0.00     0.211 HD
ENDBRANCH  12  16
BRANCH  14  18
ATOM     18  O   UNL     1      27.904  24.217   7.733  1.00  0.00    -0.387 OA
ATOM     19  H   UNL     1      27.840  25.208   7.596  1.00  0.00     0.211 HD
ENDBRANCH  14  18
BRANCH  15  20
ATOM     20  O   UNL     1      28.838  22.347  10.735  1.00  0.00    -0.385 OA
ATOM     21  H   UNL     1      28.006  22.455  11.294  1.00  0.00     0.211 HD
ENDBRANCH  15  20
ENDBRANCH   8   9
ENDBRANCH   7   8
ENDBRANCH   1   7
BRANCH   2  22
ATOM     22  O   UNL     1      23.962  19.875   9.614  1.00  0.00    -0.387 OA
ATOM     23  H   UNL     1      23.220  20.343  10.123  1.00  0.00     0.211 HD
ENDBRANCH   2  22
BRANCH   3  24
ATOM     24  O   UNL     1      21.603  20.560   8.333  1.00  0.00    -0.387 OA
ATOM     25  H   UNL     1      21.141  19.884   7.734  1.00  0.00     0.211 HD
ENDBRANCH   3  24
BRANCH   5  26
ATOM     26  O   UNL     1      24.030  22.037   4.467  1.00  0.00    -0.454 OA
BRANCH  26  27
ATOM     27  C   UNL     1      25.154  22.683   3.829  1.00  0.00     0.214 A 
ATOM     28  C   UNL     1      25.696  23.706   4.451  1.00  0.00     0.180 A 
ATOM     29  C   UNL     1      26.011  21.970   2.979  1.00  0.00     0.239 A 
ATOM     30  O   UNL     1      26.850  23.485   5.154  1.00  0.00    -0.452 OA
ATOM     31  C   UNL     1      27.319  21.794   3.510  1.00  0.00     0.111 A 
ATOM     32  O   UNL     1      25.517  21.384   1.908  1.00  0.00    -0.285 OA
ATOM     33  C   UNL     1      27.582  22.375   4.807  1.00  0.00     0.146 A 
ATOM     34  C   UNL     1      27.894  20.535   3.175  1.00  0.00     0.134 A 
ATOM     35  C   UNL     1      28.448  21.791   5.693  1.00  0.00     0.094 A 
ATOM     36  C   UNL     1      28.652  19.875   4.085  1.00  0.00     0.093 A 
ATOM     37  C   UNL     1      29.032  20.528   5.287  1.00  0.00     0.123 A 
BRANCH  28  38
ATOM     38  C   UNL     1      24.905  25.002   4.361  1.00  0.00     0.025 A 
ATOM     39  C   UNL     1      23.743  25.099   3.663  1.00  0.00     0.062 A 
ATOM     40  C   UNL     1      25.238  25.977   5.341  1.00  0.00     0.016 A 
ATOM     41  C   UNL     1      22.767  25.934   4.149  1.00  0.00     0.161 A 
ATOM     42  C   UNL     1      24.354  26.953   5.720  1.00  0.00     0.051 A 
ATOM     43  C   UNL     1      23.049  26.911   5.137  1.00  0.00     0.157 A 
BRANCH  41  44
ATOM     44  O   UNL     1      21.473  25.726   3.730  1.00  0.00    -0.493 OA
ATOM     45  C   UNL     1      20.837  26.647   2.824  1.00  0.00     0.278 C 
ENDBRANCH  41  44
BRANCH  43  46
ATOM     46  O   UNL     1      22.131  27.817   5.630  1.00  0.00    -0.504 OA
ATOM     47  H   UNL     1      21.907  28.638   5.063  1.00  0.00     0.293 HD
ENDBRANCH  43  46
ENDBRANCH  28  38
BRANCH  34  48
ATOM     48  O   UNL     1      27.701  20.013   1.906  1.00  0.00    -0.507 OA
ATOM     49  H   UNL     1      27.255  19.121   1.725  1.00  0.00     0.293 HD
ENDBRANCH  34  48
BRANCH  37  50
ATOM     50  O   UNL     1      29.982  19.954   6.132  1.00  0.00    -0.508 OA
ATOM     51  H   UNL     1      30.810  19.623   5.646  1.00  0.00     0.293 HD
ENDBRANCH  37  50
ENDBRANCH  26  27
ENDBRANCH   5  26
BRANCH   4  52
ATOM     52  O   UNL     1      21.661  21.136   5.387  1.00  0.00    -0.384 OA
ATOM     53  H   UNL     1      21.862  20.912   4.427  1.00  0.00     0.211 HD
ENDBRANCH   4  52
TORSDOF 16
ENDMDL
MODEL 3
REMARK VINA RESULT:     2.494      1.804      7.958
REMARK INTER + INTRA:          11.530
REMARK INTER:                  10.120
REMARK INTRA:                   1.410
REMARK UNBOUND:                 7.359
REMARK SMILES COc1cc(-c2oc3cc(O)cc(O)c3c(=O)c2O[C@H]2O[C@@H](CO[C@@H]3O[C@@H](C)[C@H](O)[C@@H](O)[C@@H]3O)[C@H](O)[C@H](O)[C@H]2O)ccc1O
REMARK SMILES IDX 22 1 35 2 37 3 39 4 20 5 21 6 23 7 24 8 25 9 28 10 27 11
REMARK SMILES IDX 29 12 26 13 31 14 33 15 30 16 32 18 34 20 36 22 38 24 19 26
REMARK SMILES IDX 18 27 6 28 16 29 7 30 15 31 17 32 8 33 13 34 9 35 12 36
REMARK SMILES IDX 10 37 5 38 4 39 41 40 3 41 42 42 43 43 2 44 1 45 44 46 14 48
REMARK SMILES IDX 11 50 40 52
REMARK H PARENT 30 17 32 19 34 21 36 23 38 25 44 47 14 49 11 51 40 53
REMARK Flexibility Score: inf
ROOT
ATOM      1  C   UNL     1      25.323  19.875   6.747  1.00  0.00     0.180 C 
ATOM      2  C   UNL     1      25.158  20.511   5.278  1.00  0.00     0.177 C 
ATOM      3  C   UNL     1      26.587  20.642   4.509  1.00  0.00     0.180 C 
ATOM      4  C   UNL     1      27.716  19.876   5.227  1.00  0.00     0.214 C 
ATOM      5  C   UNL     1      27.747  19.938   6.751  1.00  0.00     0.339 C 
ATOM      6  O   UNL     1      26.484  20.473   7.287  1.00  0.00    -0.332 OA
ENDROOT
BRANCH   1   7
ATOM      7  C   UNL     1      23.907  20.131   7.614  1.00  0.00     0.198 C 
BRANCH   7   8
ATOM      8  O   UNL     1      23.289  19.875   8.969  1.00  0.00    -0.347 OA
BRANCH   8   9
ATOM      9  C   UNL     1      22.076  20.605   9.341  1.00  0.00     0.281 C 
ATOM     10  C   UNL     1      19.940  20.847  12.430  1.00  0.00     0.041 C 
ATOM     11  C   UNL     1      20.189  20.952  10.825  1.00  0.00     0.150 C 
ATOM     12  C   UNL     1      20.590  22.514  10.560  1.00  0.00     0.174 C 
ATOM     13  O   UNL     1      21.152  20.014  10.281  1.00  0.00    -0.344 OA
ATOM     14  C   UNL     1      20.927  22.757   9.024  1.00  0.00     0.179 C 
ATOM     15  C   UNL     1      21.270  21.436   8.310  1.00  0.00     0.202 C 
BRANCH  12  16
ATOM     16  O   UNL     1      19.581  23.325  11.001  1.00  0.00    -0.388 OA
ATOM     17  H   UNL     1      19.977  24.065  11.554  1.00  0.00     0.211 HD
ENDBRANCH  12  16
BRANCH  14  18
ATOM     18  O   UNL     1      22.079  23.621   8.952  1.00  0.00    -0.387 OA
ATOM     19  H   UNL     1      22.044  24.199   8.134  1.00  0.00     0.211 HD
ENDBRANCH  14  18
BRANCH  15  20
ATOM     20  O   UNL     1      20.176  20.769   7.674  1.00  0.00    -0.385 OA
ATOM     21  H   UNL     1      20.413  20.597   6.709  1.00  0.00     0.211 HD
ENDBRANCH  15  20
ENDBRANCH   8   9
ENDBRANCH   7   8
ENDBRANCH   1   7
BRANCH   2  22
ATOM     22  O   UNL     1      24.069  20.064   4.429  1.00  0.00    -0.387 OA
ATOM     23  H   UNL     1      23.818  20.877   3.879  1.00  0.00     0.211 HD
ENDBRANCH   2  22
BRANCH   3  24
ATOM     24  O   UNL     1      26.487  20.351   3.106  1.00  0.00    -0.387 OA
ATOM     25  H   UNL     1      25.825  19.590   2.992  1.00  0.00     0.211 HD
ENDBRANCH   3  24
BRANCH   5  26
ATOM     26  O   UNL     1      28.820  20.767   7.277  1.00  0.00    -0.454 OA
BRANCH  26  27
ATOM     27  C   UNL     1      29.009  22.173   7.006  1.00  0.00     0.214 A 
ATOM     28  C   UNL     1      29.743  22.494   5.964  1.00  0.00     0.180 A 
ATOM     29  C   UNL     1      28.044  23.119   7.378  1.00  0.00     0.239 A 
ATOM     30  O   UNL     1      29.094  22.863   4.817  1.00  0.00    -0.452 OA
ATOM     31  C   UNL     1      27.381  23.718   6.272  1.00  0.00     0.111 A 
ATOM     32  O   UNL     1      27.705  23.230   8.646  1.00  0.00    -0.285 OA
ATOM     33  C   UNL     1      27.796  23.296   4.953  1.00  0.00     0.146 A 
ATOM     34  C   UNL     1      26.005  23.985   6.521  1.00  0.00     0.134 A 
ATOM     35  C   UNL     1      26.915  23.236   3.907  1.00  0.00     0.094 A 
ATOM     36  C   UNL     1      25.092  23.808   5.534  1.00  0.00     0.093 A 
ATOM     37  C   UNL     1      25.532  23.551   4.209  1.00  0.00     0.123 A 
BRANCH  28  38
ATOM     38  C   UNL     1      31.243  22.335   6.164  1.00  0.00     0.025 A 
ATOM     39  C   UNL     1      32.016  23.319   6.691  1.00  0.00     0.062 A 
ATOM     40  C   UNL     1      31.713  20.993   6.130  1.00  0.00     0.016 A 
ATOM     41  C   UNL     1      33.079  22.952   7.479  1.00  0.00     0.161 A 
ATOM     42  C   UNL     1      32.878  20.619   6.746  1.00  0.00     0.051 A 
ATOM     43  C   UNL     1      33.573  21.624   7.489  1.00  0.00     0.157 A 
BRANCH  41  44
ATOM     44  O   UNL     1      33.591  23.888   8.349  1.00  0.00    -0.493 OA
ATOM     45  C   UNL     1      32.781  24.986   8.807  1.00  0.00     0.278 C 
ENDBRANCH  41  44
BRANCH  43  46
ATOM     46  O   UNL     1      34.669  21.198   8.213  1.00  0.00    -0.504 OA
ATOM     47  H   UNL     1      35.517  21.770   8.191  1.00  0.00     0.293 HD
ENDBRANCH  43  46
ENDBRANCH  28  38
BRANCH  34  48
ATOM     48  O   UNL     1      25.616  24.460   7.764  1.00  0.00    -0.507 OA
ATOM     49  H   UNL     1      25.356  25.423   7.944  1.00  0.00     0.293 HD
ENDBRANCH  34  48
BRANCH  37  50
ATOM     50  O   UNL     1      24.629  23.581   3.147  1.00  0.00    -0.508 OA
ATOM     51  H   UNL     1      23.668  23.732   3.436  1.00  0.00     0.293 HD
ENDBRANCH  37  50
ENDBRANCH  26  27
ENDBRANCH   5  26
BRANCH   4  52
ATOM     52  O   UNL     1      29.038  20.117   4.671  1.00  0.00    -0.384 OA
ATOM     53  H   UNL     1      29.606  20.422   5.444  1.00  0.00     0.211 HD
ENDBRANCH   4  52
TORSDOF 16
ENDMDL
MODEL 4
REMARK VINA RESULT:     2.853      1.996      7.911
REMARK INTER + INTRA:          12.130
REMARK INTER:                   9.110
REMARK INTRA:                   3.020
REMARK UNBOUND:                 7.359
REMARK SMILES COc1cc(-c2oc3cc(O)cc(O)c3c(=O)c2O[C@H]2O[C@@H](CO[C@@H]3O[C@@H](C)[C@H](O)[C@@H](O)[C@@H]3O)[C@H](O)[C@H](O)[C@H]2O)ccc1O
REMARK SMILES IDX 22 1 35 2 37 3 39 4 20 5 21 6 23 7 24 8 25 9 28 10 27 11
REMARK SMILES IDX 29 12 26 13 31 14 33 15 30 16 32 18 34 20 36 22 38 24 19 26
REMARK SMILES IDX 18 27 6 28 16 29 7 30 15 31 17 32 8 33 13 34 9 35 12 36
REMARK SMILES IDX 10 37 5 38 4 39 41 40 3 41 42 42 43 43 2 44 1 45 44 46 14 48
REMARK SMILES IDX 11 50 40 52
REMARK H PARENT 30 17 32 19 34 21 36 23 38 25 44 47 14 49 11 51 40 53
REMARK Flexibility Score: inf
ROOT
ATOM      1  C   UNL     1      23.400  23.854   5.491  1.00  0.00     0.180 C 
ATOM      2  C   UNL     1      23.611  25.446   5.603  1.00  0.00     0.177 C 
ATOM      3  C   UNL     1      24.965  25.934   4.840  1.00  0.00     0.180 C 
ATOM      4  C   UNL     1      25.573  24.829   3.953  1.00  0.00     0.214 C 
ATOM      5  C   UNL     1      25.569  23.406   4.502  1.00  0.00     0.339 C 
ATOM      6  O   UNL     1      24.683  23.292   5.673  1.00  0.00    -0.332 OA
ENDROOT
BRANCH   1   7
ATOM      7  C   UNL     1      22.236  23.379   6.605  1.00  0.00     0.198 C 
BRANCH   7   8
ATOM      8  O   UNL     1      21.668  22.145   7.266  1.00  0.00    -0.347 OA
BRANCH   8   9
ATOM      9  C   UNL     1      21.260  22.220   8.669  1.00  0.00     0.281 C 
ATOM     10  C   UNL     1      19.397  24.710  10.788  1.00  0.00     0.041 C 
ATOM     11  C   UNL     1      20.448  23.487  10.572  1.00  0.00     0.150 C 
ATOM     12  C   UNL     1      19.567  22.127  10.782  1.00  0.00     0.174 C 
ATOM     13  O   UNL     1      21.178  23.507   9.318  1.00  0.00    -0.344 OA
ATOM     14  C   UNL     1      20.459  20.833  10.537  1.00  0.00     0.179 C 
ATOM     15  C   UNL     1      21.717  21.167   9.712  1.00  0.00     0.202 C 
BRANCH  12  16
ATOM     16  O   UNL     1      19.005  22.137  12.028  1.00  0.00    -0.388 OA
ATOM     17  H   UNL     1      19.730  22.274  12.710  1.00  0.00     0.211 HD
ENDBRANCH  12  16
BRANCH  14  18
ATOM     18  O   UNL     1      19.671  19.882   9.793  1.00  0.00    -0.387 OA
ATOM     19  H   UNL     1      18.708  20.156   9.768  1.00  0.00     0.211 HD
ENDBRANCH  14  18
BRANCH  15  20
ATOM     20  O   UNL     1      22.889  21.488  10.465  1.00  0.00    -0.385 OA
ATOM     21  H   UNL     1      23.432  20.650  10.602  1.00  0.00     0.211 HD
ENDBRANCH  15  20
ENDBRANCH   8   9
ENDBRANCH   7   8
ENDBRANCH   1   7
BRANCH   2  22
ATOM     22  O   UNL     1      22.475  26.328   5.412  1.00  0.00    -0.387 OA
ATOM     23  H   UNL     1      22.192  26.182   4.450  1.00  0.00     0.211 HD
ENDBRANCH   2  22
BRANCH   3  24
ATOM     24  O   UNL     1      24.796  27.192   4.169  1.00  0.00    -0.387 OA
ATOM     25  H   UNL     1      25.717  27.572   3.980  1.00  0.00     0.211 HD
ENDBRANCH   3  24
BRANCH   5  26
ATOM     26  O   UNL     1      26.882  22.937   4.912  1.00  0.00    -0.454 OA
BRANCH  26  27
ATOM     27  C   UNL     1      27.194  22.295   6.168  1.00  0.00     0.214 A 
ATOM     28  C   UNL     1      27.306  20.986   6.168  1.00  0.00     0.180 A 
ATOM     29  C   UNL     1      27.928  22.963   7.159  1.00  0.00     0.239 A 
ATOM     30  O   UNL     1      28.567  20.454   6.145  1.00  0.00    -0.452 OA
ATOM     31  C   UNL     1      29.225  22.417   7.369  1.00  0.00     0.111 A 
ATOM     32  O   UNL     1      27.468  24.094   7.651  1.00  0.00    -0.285 OA
ATOM     33  C   UNL     1      29.589  21.270   6.567  1.00  0.00     0.146 A 
ATOM     34  C   UNL     1      30.206  23.404   7.667  1.00  0.00     0.134 A 
ATOM     35  C   UNL     1      30.880  21.056   6.164  1.00  0.00     0.094 A 
ATOM     36  C   UNL     1      31.461  23.281   7.169  1.00  0.00     0.093 A 
ATOM     37  C   UNL     1      31.846  22.076   6.524  1.00  0.00     0.123 A 
BRANCH  28  38
ATOM     38  C   UNL     1      25.986  20.231   6.115  1.00  0.00     0.025 A 
ATOM     39  C   UNL     1      25.305  19.875   7.235  1.00  0.00     0.062 A 
ATOM     40  C   UNL     1      25.328  20.260   4.854  1.00  0.00     0.016 A 
ATOM     41  C   UNL     1      23.933  19.880   7.184  1.00  0.00     0.161 A 
ATOM     42  C   UNL     1      23.976  20.077   4.739  1.00  0.00     0.051 A 
ATOM     43  C   UNL     1      23.235  19.923   5.951  1.00  0.00     0.157 A 
BRANCH  41  44
ATOM     44  O   UNL     1      23.243  19.952   8.374  1.00  0.00    -0.493 OA
ATOM     45  C   UNL     1      23.939  19.878   9.632  1.00  0.00     0.278 C 
ENDBRANCH  41  44
BRANCH  43  46
ATOM     46  O   UNL     1      21.860  19.875   5.825  1.00  0.00    -0.504 OA
ATOM     47  H   UNL     1      21.289  20.248   6.588  1.00  0.00     0.293 HD
ENDBRANCH  43  46
ENDBRANCH  28  38
BRANCH  34  48
ATOM     48  O   UNL     1      29.876  24.466   8.494  1.00  0.00    -0.507 OA
ATOM     49  H   UNL     1      29.377  25.290   8.181  1.00  0.00     0.293 HD
ENDBRANCH  34  48
BRANCH  37  50
ATOM     50  O   UNL     1      33.182  21.844   6.200  1.00  0.00    -0.508 OA
ATOM     51  H   UNL     1      33.473  22.290   5.335  1.00  0.00     0.293 HD
ENDBRANCH  37  50
ENDBRANCH  26  27
ENDBRANCH   5  26
BRANCH   4  52
ATOM     52  O   UNL     1      26.875  25.168   3.400  1.00  0.00    -0.384 OA
ATOM     53  H   UNL     1      27.413  25.525   4.173  1.00  0.00     0.211 HD
ENDBRANCH   4  52
TORSDOF 16
ENDMDL
