MODEL 1
REMARK VINA RESULT:    -5.603      0.000      0.000
REMARK INTER + INTRA:         -10.401
REMARK INTER:                  -9.697
REMARK INTRA:                  -0.704
REMARK UNBOUND:                -0.704
REMARK SMILES CCCCCCCCCCCCCCO
REMARK SMILES IDX 8 1 7 2 6 3 5 4 4 5 3 6 2 7 1 8 9 9 10 10 11 11 12 12 13 13
REMARK SMILES IDX 14 14 15 15
REMARK H PARENT 15 16
REMARK Flexibility Score: inf
ROOT
ATOM      1  C   UNL     1      -1.554  -8.316   1.580  1.00  0.00     0.000 C 
ENDROOT
BRANCH   1   2
ATOM      2  C   UNL     1      -1.233  -8.868   0.181  1.00  0.00    -0.000 C 
BRANCH   2   3
ATOM      3  C   UNL     1      -0.103  -8.094  -0.523  1.00  0.00    -0.000 C 
BRANCH   3   4
ATOM      4  C   UNL     1       1.323  -8.399  -0.017  1.00  0.00    -0.000 C 
BRANCH   4   5
ATOM      5  C   UNL     1       2.404  -7.394  -0.454  1.00  0.00    -0.000 C 
BRANCH   5   6
ATOM      6  C   UNL     1       1.828  -6.011  -0.799  1.00  0.00    -0.000 C 
BRANCH   6   7
ATOM      7  C   UNL     1       2.210  -5.551  -2.215  1.00  0.00    -0.003 C 
ATOM      8  C   UNL     1       3.349  -6.373  -2.818  1.00  0.00     0.004 C 
ENDBRANCH   6   7
ENDBRANCH   5   6
ENDBRANCH   4   5
ENDBRANCH   3   4
ENDBRANCH   2   3
ENDBRANCH   1   2
BRANCH   1   9
ATOM      9  C   UNL     1      -2.959  -8.711   2.072  1.00  0.00     0.000 C 
BRANCH   9  10
ATOM     10  C   UNL     1      -4.119  -7.895   1.472  1.00  0.00     0.000 C 
BRANCH  10  11
ATOM     11  C   UNL     1      -4.812  -6.991   2.501  1.00  0.00     0.000 C 
BRANCH  11  12
ATOM     12  C   UNL     1      -4.102  -5.632   2.602  1.00  0.00     0.002 C 
BRANCH  12  13
ATOM     13  C   UNL     1      -3.862  -5.196   4.056  1.00  0.00     0.028 C 
BRANCH  13  14
ATOM     14  C   UNL     1      -5.151  -5.138   4.878  1.00  0.00     0.156 C 
BRANCH  14  15
ATOM     15  O   UNL     1      -4.925  -5.711   6.136  1.00  0.00    -0.396 OA
ATOM     16  H   UNL     1      -4.836  -4.954   6.772  1.00  0.00     0.210 HD
ENDBRANCH  14  15
ENDBRANCH  13  14
ENDBRANCH  12  13
ENDBRANCH  11  12
ENDBRANCH  10  11
ENDBRANCH   9  10
ENDBRANCH   1   9
TORSDOF 13
ENDMDL
MODEL 2
REMARK VINA RESULT:    -5.425      3.366      7.789
REMARK INTER + INTRA:         -10.093
REMARK INTER:                  -9.504
REMARK INTRA:                  -0.589
REMARK UNBOUND:                -0.704
REMARK SMILES CCCCCCCCCCCCCCO
REMARK SMILES IDX 8 1 7 2 6 3 5 4 4 5 3 6 2 7 1 8 9 9 10 10 11 11 12 12 13 13
REMARK SMILES IDX 14 14 15 15
REMARK H PARENT 15 16
REMARK Flexibility Score: inf
ROOT
ATOM      1  C   UNL     1      -0.679  -8.555   0.983  1.00  0.00     0.000 C 
ENDROOT
BRANCH   1   2
ATOM      2  C   UNL     1      -2.203  -8.401   0.837  1.00  0.00    -0.000 C 
BRANCH   2   3
ATOM      3  C   UNL     1      -2.959  -8.667   2.152  1.00  0.00    -0.000 C 
BRANCH   3   4
ATOM      4  C   UNL     1      -4.008  -7.603   2.538  1.00  0.00    -0.000 C 
BRANCH   4   5
ATOM      5  C   UNL     1      -3.441  -6.210   2.867  1.00  0.00    -0.000 C 
BRANCH   5   6
ATOM      6  C   UNL     1      -4.442  -5.077   2.583  1.00  0.00    -0.000 C 
BRANCH   6   7
ATOM      7  C   UNL     1      -5.680  -5.146   3.492  1.00  0.00    -0.003 C 
ATOM      8  C   UNL     1      -5.326  -5.118   4.979  1.00  0.00     0.004 C 
ENDBRANCH   6   7
ENDBRANCH   5   6
ENDBRANCH   4   5
ENDBRANCH   3   4
ENDBRANCH   2   3
ENDBRANCH   1   2
BRANCH   1   9
ATOM      9  C   UNL     1       0.077  -8.307  -0.335  1.00  0.00     0.000 C 
BRANCH   9  10
ATOM     10  C   UNL     1       1.578  -8.652  -0.305  1.00  0.00     0.000 C 
BRANCH  10  11
ATOM     11  C   UNL     1       2.472  -7.480  -0.735  1.00  0.00     0.000 C 
BRANCH  11  12
ATOM     12  C   UNL     1       1.659  -6.180  -0.839  1.00  0.00     0.002 C 
BRANCH  12  13
ATOM     13  C   UNL     1       2.129  -5.278  -1.990  1.00  0.00     0.028 C 
BRANCH  13  14
ATOM     14  C   UNL     1       3.214  -5.931  -2.850  1.00  0.00     0.156 C 
BRANCH  14  15
ATOM     15  O   UNL     1       2.654  -6.352  -4.063  1.00  0.00    -0.396 OA
ATOM     16  H   UNL     1       1.943  -5.695  -4.280  1.00  0.00     0.210 HD
ENDBRANCH  14  15
ENDBRANCH  13  14
ENDBRANCH  12  13
ENDBRANCH  11  12
ENDBRANCH  10  11
ENDBRANCH   9  10
ENDBRANCH   1   9
TORSDOF 13
ENDMDL
MODEL 3
REMARK VINA RESULT:    -5.260      1.248      2.152
REMARK INTER + INTRA:          -9.808
REMARK INTER:                  -9.181
REMARK INTRA:                  -0.627
REMARK UNBOUND:                -0.704
REMARK SMILES CCCCCCCCCCCCCCO
REMARK SMILES IDX 8 1 7 2 6 3 5 4 4 5 3 6 2 7 1 8 9 9 10 10 11 11 12 12 13 13
REMARK SMILES IDX 14 14 15 15
REMARK H PARENT 15 16
REMARK Flexibility Score: inf
ROOT
ATOM      1  C   UNL     1      -1.782  -8.190   1.186  1.00  0.00     0.000 C 
ENDROOT
BRANCH   1   2
ATOM      2  C   UNL     1      -1.201  -8.872  -0.064  1.00  0.00    -0.000 C 
BRANCH   2   3
ATOM      3  C   UNL     1       0.336  -8.796  -0.127  1.00  0.00    -0.000 C 
BRANCH   3   4
ATOM      4  C   UNL     1       0.919  -7.394  -0.401  1.00  0.00    -0.000 C 
BRANCH   4   5
ATOM      5  C   UNL     1       2.408  -7.365  -0.791  1.00  0.00    -0.000 C 
BRANCH   5   6
ATOM      6  C   UNL     1       3.108  -8.716  -0.569  1.00  0.00    -0.000 C 
BRANCH   6   7
ATOM      7  C   UNL     1       4.011  -8.713   0.675  1.00  0.00    -0.003 C 
ATOM      8  C   UNL     1       3.487  -9.617   1.790  1.00  0.00     0.004 C 
ENDBRANCH   6   7
ENDBRANCH   5   6
ENDBRANCH   4   5
ENDBRANCH   3   4
ENDBRANCH   2   3
ENDBRANCH   1   2
BRANCH   1   9
ATOM      9  C   UNL     1      -3.229  -8.622   1.488  1.00  0.00     0.000 C 
BRANCH   9  10
ATOM     10  C   UNL     1      -4.164  -7.496   1.966  1.00  0.00     0.000 C 
BRANCH  10  11
ATOM     11  C   UNL     1      -3.460  -6.476   2.873  1.00  0.00     0.000 C 
BRANCH  11  12
ATOM     12  C   UNL     1      -4.128  -5.096   2.767  1.00  0.00     0.002 C 
BRANCH  12  13
ATOM     13  C   UNL     1      -4.570  -4.546   4.132  1.00  0.00     0.028 C 
BRANCH  13  14
ATOM     14  C   UNL     1      -5.479  -5.513   4.895  1.00  0.00     0.156 C 
BRANCH  14  15
ATOM     15  O   UNL     1      -4.963  -5.717   6.182  1.00  0.00    -0.396 OA
ATOM     16  H   UNL     1      -4.118  -6.223   6.062  1.00  0.00     0.210 HD
ENDBRANCH  14  15
ENDBRANCH  13  14
ENDBRANCH  12  13
ENDBRANCH  11  12
ENDBRANCH  10  11
ENDBRANCH   9  10
ENDBRANCH   1   9
TORSDOF 13
ENDMDL
MODEL 4
REMARK VINA RESULT:    -5.044      3.304      7.638
REMARK INTER + INTRA:          -9.433
REMARK INTER:                  -8.967
REMARK INTRA:                  -0.466
REMARK UNBOUND:                -0.704
REMARK SMILES CCCCCCCCCCCCCCO
REMARK SMILES IDX 8 1 7 2 6 3 5 4 4 5 3 6 2 7 1 8 9 9 10 10 11 11 12 12 13 13
REMARK SMILES IDX 14 14 15 15
REMARK H PARENT 15 16
REMARK Flexibility Score: inf
ROOT
ATOM      1  C   UNL     1       0.677  -8.859  -0.209  1.00  0.00     0.000 C 
ENDROOT
BRANCH   1   2
ATOM      2  C   UNL     1      -0.853  -8.998  -0.131  1.00  0.00    -0.000 C 
BRANCH   2   3
ATOM      3  C   UNL     1      -1.437  -8.454   1.186  1.00  0.00    -0.000 C 
BRANCH   3   4
ATOM      4  C   UNL     1      -2.968  -8.261   1.202  1.00  0.00    -0.000 C 
BRANCH   4   5
ATOM      5  C   UNL     1      -3.545  -7.689   2.509  1.00  0.00    -0.000 C 
BRANCH   5   6
ATOM      6  C   UNL     1      -4.063  -6.250   2.353  1.00  0.00    -0.000 C 
BRANCH   6   7
ATOM      7  C   UNL     1      -3.469  -5.294   3.400  1.00  0.00    -0.003 C 
ATOM      8  C   UNL     1      -4.511  -4.351   4.000  1.00  0.00     0.004 C 
ENDBRANCH   6   7
ENDBRANCH   5   6
ENDBRANCH   4   5
ENDBRANCH   3   4
ENDBRANCH   2   3
ENDBRANCH   1   2
BRANCH   1   9
ATOM      9  C   UNL     1       1.157  -7.406  -0.043  1.00  0.00     0.000 C 
BRANCH   9  10
ATOM     10  C   UNL     1       1.001  -6.517  -1.291  1.00  0.00     0.000 C 
BRANCH  10  11
ATOM     11  C   UNL     1       2.012  -5.362  -1.336  1.00  0.00     0.000 C 
BRANCH  11  12
ATOM     12  C   UNL     1       2.978  -5.524  -2.520  1.00  0.00     0.002 C 
BRANCH  12  13
ATOM     13  C   UNL     1       4.405  -5.879  -2.076  1.00  0.00     0.028 C 
BRANCH  13  14
ATOM     14  C   UNL     1       4.496  -6.217  -0.586  1.00  0.00     0.156 C 
BRANCH  14  15
ATOM     15  O   UNL     1       5.515  -5.457   0.002  1.00  0.00    -0.396 OA
ATOM     16  H   UNL     1       5.460  -4.557  -0.412  1.00  0.00     0.210 HD
ENDBRANCH  14  15
ENDBRANCH  13  14
ENDBRANCH  12  13
ENDBRANCH  11  12
ENDBRANCH  10  11
ENDBRANCH   9  10
ENDBRANCH   1   9
TORSDOF 13
ENDMDL
MODEL 5
REMARK VINA RESULT:    -5.028      4.682      7.999
REMARK INTER + INTRA:          -9.407
REMARK INTER:                  -8.929
REMARK INTRA:                  -0.478
REMARK UNBOUND:                -0.704
REMARK SMILES CCCCCCCCCCCCCCO
REMARK SMILES IDX 8 1 7 2 6 3 5 4 4 5 3 6 2 7 1 8 9 9 10 10 11 11 12 12 13 13
REMARK SMILES IDX 14 14 15 15
REMARK H PARENT 15 16
REMARK Flexibility Score: inf
ROOT
ATOM      1  C   UNL     1      -5.494  -8.449   0.560  1.00  0.00     0.000 C 
ENDROOT
BRANCH   1   2
ATOM      2  C   UNL     1      -6.573  -9.411   0.034  1.00  0.00    -0.000 C 
BRANCH   2   3
ATOM      3  C   UNL     1      -7.987  -9.050   0.527  1.00  0.00    -0.000 C 
BRANCH   3   4
ATOM      4  C   UNL     1      -9.133  -9.885  -0.082  1.00  0.00    -0.000 C 
BRANCH   4   5
ATOM      5  C   UNL     1      -8.697 -10.962  -1.092  1.00  0.00    -0.000 C 
BRANCH   5   6
ATOM      6  C   UNL     1      -9.830 -11.379  -2.045  1.00  0.00    -0.000 C 
BRANCH   6   7
ATOM      7  C   UNL     1      -9.529 -12.698  -2.775  1.00  0.00    -0.003 C 
ATOM      8  C   UNL     1      -9.872 -13.930  -1.937  1.00  0.00     0.004 C 
ENDBRANCH   6   7
ENDBRANCH   5   6
ENDBRANCH   4   5
ENDBRANCH   3   4
ENDBRANCH   2   3
ENDBRANCH   1   2
BRANCH   1   9
ATOM      9  C   UNL     1      -5.710  -8.052   2.032  1.00  0.00     0.000 C 
BRANCH   9  10
ATOM     10  C   UNL     1      -4.445  -7.594   2.781  1.00  0.00     0.000 C 
BRANCH  10  11
ATOM     11  C   UNL     1      -3.919  -6.235   2.295  1.00  0.00     0.000 C 
BRANCH  11  12
ATOM     12  C   UNL     1      -3.580  -5.322   3.484  1.00  0.00     0.002 C 
BRANCH  12  13
ATOM     13  C   UNL     1      -4.766  -4.445   3.915  1.00  0.00     0.028 C 
BRANCH  13  14
ATOM     14  C   UNL     1      -5.651  -5.120   4.966  1.00  0.00     0.156 C 
BRANCH  14  15
ATOM     15  O   UNL     1      -4.844  -5.654   5.979  1.00  0.00    -0.396 OA
ATOM     16  H   UNL     1      -4.444  -4.877   6.450  1.00  0.00     0.210 HD
ENDBRANCH  14  15
ENDBRANCH  13  14
ENDBRANCH  12  13
ENDBRANCH  11  12
ENDBRANCH  10  11
ENDBRANCH   9  10
ENDBRANCH   1   9
TORSDOF 13
ENDMDL
MODEL 6
REMARK VINA RESULT:    -4.892      3.151      7.665
REMARK INTER + INTRA:          -9.171
REMARK INTER:                  -8.509
REMARK INTRA:                  -0.662
REMARK UNBOUND:                -0.704
REMARK SMILES CCCCCCCCCCCCCCO
REMARK SMILES IDX 8 1 7 2 6 3 5 4 4 5 3 6 2 7 1 8 9 9 10 10 11 11 12 12 13 13
REMARK SMILES IDX 14 14 15 15
REMARK H PARENT 15 16
REMARK Flexibility Score: inf
ROOT
ATOM      1  C   UNL     1      -4.028  -7.977   2.423  1.00  0.00     0.000 C 
ENDROOT
BRANCH   1   2
ATOM      2  C   UNL     1      -3.544  -6.549   2.122  1.00  0.00    -0.000 C 
BRANCH   2   3
ATOM      3  C   UNL     1      -3.195  -5.755   3.394  1.00  0.00    -0.000 C 
BRANCH   3   4
ATOM      4  C   UNL     1      -4.124  -4.562   3.706  1.00  0.00    -0.000 C 
BRANCH   4   5
ATOM      5  C   UNL     1      -5.239  -4.846   4.728  1.00  0.00    -0.000 C 
BRANCH   5   6
ATOM      6  C   UNL     1      -6.580  -5.199   4.063  1.00  0.00    -0.000 C 
BRANCH   6   7
ATOM      7  C   UNL     1      -6.603  -4.853   2.565  1.00  0.00    -0.003 C 
ATOM      8  C   UNL     1      -7.923  -4.221   2.124  1.00  0.00     0.004 C 
ENDBRANCH   6   7
ENDBRANCH   5   6
ENDBRANCH   4   5
ENDBRANCH   3   4
ENDBRANCH   2   3
ENDBRANCH   1   2
BRANCH   1   9
ATOM      9  C   UNL     1      -2.958  -9.046   2.133  1.00  0.00     0.000 C 
BRANCH   9  10
ATOM     10  C   UNL     1      -1.567  -8.498   1.765  1.00  0.00     0.000 C 
BRANCH  10  11
ATOM     11  C   UNL     1      -1.262  -8.595   0.263  1.00  0.00     0.000 C 
BRANCH  11  12
ATOM     12  C   UNL     1       0.237  -8.834   0.023  1.00  0.00     0.002 C 
BRANCH  12  13
ATOM     13  C   UNL     1       0.948  -7.599  -0.553  1.00  0.00     0.028 C 
BRANCH  13  14
ATOM     14  C   UNL     1       2.421  -7.861  -0.877  1.00  0.00     0.156 C 
BRANCH  14  15
ATOM     15  O   UNL     1       2.721  -9.205  -0.620  1.00  0.00    -0.396 OA
ATOM     16  H   UNL     1       2.240  -9.439   0.216  1.00  0.00     0.210 HD
ENDBRANCH  14  15
ENDBRANCH  13  14
ENDBRANCH  12  13
ENDBRANCH  11  12
ENDBRANCH  10  11
ENDBRANCH   9  10
ENDBRANCH   1   9
TORSDOF 13
ENDMDL
MODEL 7
REMARK VINA RESULT:    -4.847      1.082      2.046
REMARK INTER + INTRA:          -9.092
REMARK INTER:                  -8.519
REMARK INTRA:                  -0.573
REMARK UNBOUND:                -0.704
REMARK SMILES CCCCCCCCCCCCCCO
REMARK SMILES IDX 8 1 7 2 6 3 5 4 4 5 3 6 2 7 1 8 9 9 10 10 11 11 12 12 13 13
REMARK SMILES IDX 14 14 15 15
REMARK H PARENT 15 16
REMARK Flexibility Score: inf
ROOT
ATOM      1  C   UNL     1      -3.734  -8.119   2.047  1.00  0.00     0.000 C 
ENDROOT
BRANCH   1   2
ATOM      2  C   UNL     1      -2.632  -9.150   1.750  1.00  0.00    -0.000 C 
BRANCH   2   3
ATOM      3  C   UNL     1      -1.290  -8.499   1.369  1.00  0.00    -0.000 C 
BRANCH   3   4
ATOM      4  C   UNL     1      -0.886  -8.634  -0.114  1.00  0.00    -0.000 C 
BRANCH   4   5
ATOM      5  C   UNL     1       0.630  -8.659  -0.383  1.00  0.00    -0.000 C 
BRANCH   5   6
ATOM      6  C   UNL     1       1.303  -7.300  -0.127  1.00  0.00    -0.000 C 
BRANCH   6   7
ATOM      7  C   UNL     1       1.805  -6.640  -1.421  1.00  0.00    -0.003 C 
ATOM      8  C   UNL     1       1.610  -5.124  -1.427  1.00  0.00     0.004 C 
ENDBRANCH   6   7
ENDBRANCH   5   6
ENDBRANCH   4   5
ENDBRANCH   3   4
ENDBRANCH   2   3
ENDBRANCH   1   2
BRANCH   1   9
ATOM      9  C   UNL     1      -3.176  -6.719   2.360  1.00  0.00     0.000 C 
BRANCH   9  10
ATOM     10  C   UNL     1      -4.234  -5.610   2.513  1.00  0.00     0.000 C 
BRANCH  10  11
ATOM     11  C   UNL     1      -5.668  -6.154   2.587  1.00  0.00     0.000 C 
BRANCH  11  12
ATOM     12  C   UNL     1      -6.625  -5.099   3.162  1.00  0.00     0.002 C 
BRANCH  12  13
ATOM     13  C   UNL     1      -6.323  -4.763   4.631  1.00  0.00     0.028 C 
BRANCH  13  14
ATOM     14  C   UNL     1      -6.118  -6.009   5.494  1.00  0.00     0.156 C 
BRANCH  14  15
ATOM     15  O   UNL     1      -5.002  -5.823   6.321  1.00  0.00    -0.396 OA
ATOM     16  H   UNL     1      -4.274  -6.371   5.928  1.00  0.00     0.210 HD
ENDBRANCH  14  15
ENDBRANCH  13  14
ENDBRANCH  12  13
ENDBRANCH  11  12
ENDBRANCH  10  11
ENDBRANCH   9  10
ENDBRANCH   1   9
TORSDOF 13
ENDMDL
MODEL 8
REMARK VINA RESULT:    -4.773      5.497      8.206
REMARK INTER + INTRA:          -8.965
REMARK INTER:                  -8.326
REMARK INTRA:                  -0.639
REMARK UNBOUND:                -0.704
REMARK SMILES CCCCCCCCCCCCCCO
REMARK SMILES IDX 8 1 7 2 6 3 5 4 4 5 3 6 2 7 1 8 9 9 10 10 11 11 12 12 13 13
REMARK SMILES IDX 14 14 15 15
REMARK H PARENT 15 16
REMARK Flexibility Score: inf
ROOT
ATOM      1  C   UNL     1      -4.609  -8.895   2.140  1.00  0.00     0.000 C 
ENDROOT
BRANCH   1   2
ATOM      2  C   UNL     1      -3.748  -7.699   2.582  1.00  0.00    -0.000 C 
BRANCH   2   3
ATOM      3  C   UNL     1      -4.294  -6.351   2.077  1.00  0.00    -0.000 C 
BRANCH   3   4
ATOM      4  C   UNL     1      -3.782  -5.106   2.831  1.00  0.00    -0.000 C 
BRANCH   4   5
ATOM      5  C   UNL     1      -3.992  -5.128   4.356  1.00  0.00    -0.000 C 
BRANCH   5   6
ATOM      6  C   UNL     1      -5.434  -4.781   4.764  1.00  0.00    -0.000 C 
BRANCH   6   7
ATOM      7  C   UNL     1      -6.105  -5.907   5.566  1.00  0.00    -0.003 C 
ATOM      8  C   UNL     1      -7.499  -5.529   6.066  1.00  0.00     0.004 C 
ENDBRANCH   6   7
ENDBRANCH   5   6
ENDBRANCH   4   5
ENDBRANCH   3   4
ENDBRANCH   2   3
ENDBRANCH   1   2
BRANCH   1   9
ATOM      9  C   UNL     1      -6.011  -8.479   1.660  1.00  0.00     0.000 C 
BRANCH   9  10
ATOM     10  C   UNL     1      -6.391  -8.962   0.247  1.00  0.00     0.000 C 
BRANCH  10  11
ATOM     11  C   UNL     1      -7.826  -9.503   0.163  1.00  0.00     0.000 C 
BRANCH  11  12
ATOM     12  C   UNL     1      -7.908 -10.690  -0.810  1.00  0.00     0.002 C 
BRANCH  12  13
ATOM     13  C   UNL     1      -9.356 -11.071  -1.157  1.00  0.00     0.028 C 
BRANCH  13  14
ATOM     14  C   UNL     1      -9.585 -11.217  -2.663  1.00  0.00     0.156 C 
BRANCH  14  15
ATOM     15  O   UNL     1     -10.550 -10.290  -3.078  1.00  0.00    -0.396 OA
ATOM     16  H   UNL     1     -10.267  -9.414  -2.706  1.00  0.00     0.210 HD
ENDBRANCH  14  15
ENDBRANCH  13  14
ENDBRANCH  12  13
ENDBRANCH  11  12
ENDBRANCH  10  11
ENDBRANCH   9  10
ENDBRANCH   1   9
TORSDOF 13
ENDMDL
MODEL 9
REMARK VINA RESULT:    -4.695      5.282      8.001
REMARK INTER + INTRA:          -8.831
REMARK INTER:                  -8.083
REMARK INTRA:                  -0.748
REMARK UNBOUND:                -0.704
REMARK SMILES CCCCCCCCCCCCCCO
REMARK SMILES IDX 8 1 7 2 6 3 5 4 4 5 3 6 2 7 1 8 9 9 10 10 11 11 12 12 13 13
REMARK SMILES IDX 14 14 15 15
REMARK H PARENT 15 16
REMARK Flexibility Score: inf
ROOT
ATOM      1  C   UNL     1      -6.695  -8.707   1.145  1.00  0.00     0.000 C 
ENDROOT
BRANCH   1   2
ATOM      2  C   UNL     1      -5.244  -8.209   1.028  1.00  0.00    -0.000 C 
BRANCH   2   3
ATOM      3  C   UNL     1      -4.401  -8.527   2.277  1.00  0.00    -0.000 C 
BRANCH   3   4
ATOM      4  C   UNL     1      -3.272  -7.521   2.587  1.00  0.00    -0.000 C 
BRANCH   4   5
ATOM      5  C   UNL     1      -3.659  -6.037   2.453  1.00  0.00    -0.000 C 
BRANCH   5   6
ATOM      6  C   UNL     1      -3.551  -5.271   3.782  1.00  0.00    -0.000 C 
BRANCH   6   7
ATOM      7  C   UNL     1      -4.880  -4.616   4.193  1.00  0.00    -0.003 C 
ATOM      8  C   UNL     1      -6.068  -5.123   3.377  1.00  0.00     0.004 C 
ENDBRANCH   6   7
ENDBRANCH   5   6
ENDBRANCH   4   5
ENDBRANCH   3   4
ENDBRANCH   2   3
ENDBRANCH   1   2
BRANCH   1   9
ATOM      9  C   UNL     1      -7.140  -9.546  -0.067  1.00  0.00     0.000 C 
BRANCH   9  10
ATOM     10  C   UNL     1      -6.514 -10.950  -0.158  1.00  0.00     0.000 C 
BRANCH  10  11
ATOM     11  C   UNL     1      -7.238 -11.867  -1.155  1.00  0.00     0.000 C 
BRANCH  11  12
ATOM     12  C   UNL     1      -8.625 -11.307  -1.506  1.00  0.00     0.002 C 
BRANCH  12  13
ATOM     13  C   UNL     1      -9.289 -12.058  -2.671  1.00  0.00     0.028 C 
BRANCH  13  14
ATOM     14  C   UNL     1     -10.606 -11.418  -3.115  1.00  0.00     0.156 C 
BRANCH  14  15
ATOM     15  O   UNL     1     -10.470 -10.024  -3.109  1.00  0.00    -0.396 OA
ATOM     16  H   UNL     1     -10.991  -9.700  -2.328  1.00  0.00     0.210 HD
ENDBRANCH  14  15
ENDBRANCH  13  14
ENDBRANCH  12  13
ENDBRANCH  11  12
ENDBRANCH  10  11
ENDBRANCH   9  10
ENDBRANCH   1   9
TORSDOF 13
ENDMDL
