MODEL 1
REMARK VINA RESULT:    -3.421      0.000      0.000
REMARK INTER + INTRA:          -8.332
REMARK INTER:                  -6.020
REMARK INTRA:                  -2.312
REMARK UNBOUND:                -2.312
REMARK SMILES CCCCCCCCCCCCCCC(=O)[O-]
REMARK SMILES IDX 9 1 10 2 11 3 12 4 13 5 14 6 15 7 16 8 17 9 8 10 7 11 6 12
REMARK SMILES IDX 5 13 4 14 3 15 2 16 1 17
REMARK H PARENT
REMARK Flexibility Score: inf
ROOT
ATOM      1  C   UNL     1     -23.643   7.025  22.447  1.00  0.00     0.000 C 
ENDROOT
BRANCH   1   2
ATOM      2  C   UNL     1     -23.696   5.596  23.008  1.00  0.00     0.000 C 
BRANCH   2   3
ATOM      3  C   UNL     1     -22.439   5.284  23.833  1.00  0.00     0.000 C 
BRANCH   3   4
ATOM      4  C   UNL     1     -22.089   3.787  23.839  1.00  0.00     0.000 C 
BRANCH   4   5
ATOM      5  C   UNL     1     -23.221   2.912  23.278  1.00  0.00     0.006 C 
BRANCH   5   6
ATOM      6  C   UNL     1     -22.749   2.127  22.052  1.00  0.00     0.053 C 
BRANCH   6   7
ATOM      7  C   UNL     1     -22.770   0.657  22.331  1.00  0.00     0.041 C 
ATOM      8  O   UNL     1     -22.367  -0.158  21.461  1.00  0.00    -0.550 OA
ATOM      9  O   UNL     1     -23.282   0.184  23.533  1.00  0.00    -0.550 OA
ENDBRANCH   6   7
ENDBRANCH   5   6
ENDBRANCH   4   5
ENDBRANCH   3   4
ENDBRANCH   2   3
ENDBRANCH   1   2
BRANCH   1  10
ATOM     10  C   UNL     1     -22.226   7.451  22.023  1.00  0.00     0.000 C 
BRANCH  10  11
ATOM     11  C   UNL     1     -22.050   7.728  20.516  1.00  0.00    -0.000 C 
BRANCH  11  12
ATOM     12  C   UNL     1     -21.126   6.747  19.773  1.00  0.00    -0.000 C 
BRANCH  12  13
ATOM     13  C   UNL     1     -21.477   5.274  20.044  1.00  0.00    -0.000 C 
BRANCH  13  14
ATOM     14  C   UNL     1     -20.293   4.481  20.621  1.00  0.00    -0.000 C 
BRANCH  14  15
ATOM     15  C   UNL     1     -19.134   5.392  21.065  1.00  0.00    -0.000 C 
BRANCH  15  16
ATOM     16  C   UNL     1     -18.922   5.374  22.587  1.00  0.00    -0.003 C 
ATOM     17  C   UNL     1     -18.809   6.775  23.187  1.00  0.00     0.004 C 
ENDBRANCH  15  16
ENDBRANCH  14  15
ENDBRANCH  13  14
ENDBRANCH  12  13
ENDBRANCH  11  12
ENDBRANCH  10  11
ENDBRANCH   1  10
TORSDOF 13
ENDMDL
MODEL 2
REMARK VINA RESULT:    -3.408      1.187      2.051
REMARK INTER + INTRA:          -8.311
REMARK INTER:                  -6.354
REMARK INTRA:                  -1.957
REMARK UNBOUND:                -2.312
REMARK SMILES CCCCCCCCCCCCCCC(=O)[O-]
REMARK SMILES IDX 9 1 10 2 11 3 12 4 13 5 14 6 15 7 16 8 17 9 8 10 7 11 6 12
REMARK SMILES IDX 5 13 4 14 3 15 2 16 1 17
REMARK H PARENT
REMARK Flexibility Score: inf
ROOT
ATOM      1  C   UNL     1     -24.041   5.470  23.520  1.00  0.00     0.000 C 
ENDROOT
BRANCH   1   2
ATOM      2  C   UNL     1     -22.637   4.987  23.913  1.00  0.00     0.000 C 
BRANCH   2   3
ATOM      3  C   UNL     1     -22.635   3.478  24.197  1.00  0.00     0.000 C 
BRANCH   3   4
ATOM      4  C   UNL     1     -24.021   2.838  24.012  1.00  0.00     0.000 C 
BRANCH   4   5
ATOM      5  C   UNL     1     -23.958   1.495  23.271  1.00  0.00     0.006 C 
BRANCH   5   6
ATOM      6  C   UNL     1     -22.933   1.543  22.135  1.00  0.00     0.053 C 
BRANCH   6   7
ATOM      7  C   UNL     1     -22.339   0.189  21.907  1.00  0.00     0.041 C 
ATOM      8  O   UNL     1     -22.852  -0.826  22.447  1.00  0.00    -0.550 OA
ATOM      9  O   UNL     1     -21.190   0.053  21.137  1.00  0.00    -0.550 OA
ENDBRANCH   6   7
ENDBRANCH   5   6
ENDBRANCH   4   5
ENDBRANCH   3   4
ENDBRANCH   2   3
ENDBRANCH   1   2
BRANCH   1  10
ATOM     10  C   UNL     1     -24.015   6.613  22.489  1.00  0.00     0.000 C 
BRANCH  10  11
ATOM     11  C   UNL     1     -22.685   7.391  22.408  1.00  0.00    -0.000 C 
BRANCH  11  12
ATOM     12  C   UNL     1     -22.215   7.735  20.983  1.00  0.00    -0.000 C 
BRANCH  12  13
ATOM     13  C   UNL     1     -20.999   6.904  20.538  1.00  0.00    -0.000 C 
BRANCH  13  14
ATOM     14  C   UNL     1     -21.402   5.619  19.796  1.00  0.00    -0.000 C 
BRANCH  14  15
ATOM     15  C   UNL     1     -21.177   4.354  20.644  1.00  0.00    -0.000 C 
BRANCH  15  16
ATOM     16  C   UNL     1     -19.889   4.429  21.480  1.00  0.00    -0.003 C 
ATOM     17  C   UNL     1     -19.470   3.072  22.046  1.00  0.00     0.004 C 
ENDBRANCH  15  16
ENDBRANCH  14  15
ENDBRANCH  13  14
ENDBRANCH  12  13
ENDBRANCH  11  12
ENDBRANCH  10  11
ENDBRANCH   1  10
TORSDOF 13
ENDMDL
MODEL 3
REMARK VINA RESULT:    -3.396      2.974      5.027
REMARK INTER + INTRA:          -8.289
REMARK INTER:                  -6.398
REMARK INTRA:                  -1.891
REMARK UNBOUND:                -2.312
REMARK SMILES CCCCCCCCCCCCCCC(=O)[O-]
REMARK SMILES IDX 9 1 10 2 11 3 12 4 13 5 14 6 15 7 16 8 17 9 8 10 7 11 6 12
REMARK SMILES IDX 5 13 4 14 3 15 2 16 1 17
REMARK H PARENT
REMARK Flexibility Score: inf
ROOT
ATOM      1  C   UNL     1     -23.053   1.989  25.019  1.00  0.00     0.000 C 
ENDROOT
BRANCH   1   2
ATOM      2  C   UNL     1     -23.147   3.512  25.194  1.00  0.00     0.000 C 
BRANCH   2   3
ATOM      3  C   UNL     1     -24.612   3.968  25.248  1.00  0.00     0.000 C 
BRANCH   3   4
ATOM      4  C   UNL     1     -24.908   5.129  24.285  1.00  0.00     0.000 C 
BRANCH   4   5
ATOM      5  C   UNL     1     -23.721   5.454  23.366  1.00  0.00     0.006 C 
BRANCH   5   6
ATOM      6  C   UNL     1     -24.019   6.679  22.498  1.00  0.00     0.053 C 
BRANCH   6   7
ATOM      7  C   UNL     1     -22.749   7.354  22.090  1.00  0.00     0.041 C 
ATOM      8  O   UNL     1     -22.649   7.881  20.951  1.00  0.00    -0.550 OA
ATOM      9  O   UNL     1     -21.656   7.360  22.948  1.00  0.00    -0.550 OA
ENDBRANCH   6   7
ENDBRANCH   5   6
ENDBRANCH   4   5
ENDBRANCH   3   4
ENDBRANCH   2   3
ENDBRANCH   1   2
BRANCH   1  10
ATOM     10  C   UNL     1     -24.056   1.442  23.987  1.00  0.00     0.000 C 
BRANCH  10  11
ATOM     11  C   UNL     1     -23.678   1.690  22.512  1.00  0.00    -0.000 C 
BRANCH  11  12
ATOM     12  C   UNL     1     -22.509   0.839  21.983  1.00  0.00    -0.000 C 
BRANCH  12  13
ATOM     13  C   UNL     1     -21.256   1.674  21.670  1.00  0.00    -0.000 C 
BRANCH  13  14
ATOM     14  C   UNL     1     -21.549   3.183  21.625  1.00  0.00    -0.000 C 
BRANCH  14  15
ATOM     15  C   UNL     1     -20.313   4.034  21.967  1.00  0.00    -0.000 C 
BRANCH  15  16
ATOM     16  C   UNL     1     -20.019   5.099  20.900  1.00  0.00    -0.003 C 
ATOM     17  C   UNL     1     -21.031   5.085  19.754  1.00  0.00     0.004 C 
ENDBRANCH  15  16
ENDBRANCH  14  15
ENDBRANCH  13  14
ENDBRANCH  12  13
ENDBRANCH  11  12
ENDBRANCH  10  11
ENDBRANCH   1  10
TORSDOF 13
ENDMDL
MODEL 4
REMARK VINA RESULT:    -3.358      1.425      3.506
REMARK INTER + INTRA:          -8.222
REMARK INTER:                  -6.310
REMARK INTRA:                  -1.913
REMARK UNBOUND:                -2.312
REMARK SMILES CCCCCCCCCCCCCCC(=O)[O-]
REMARK SMILES IDX 9 1 10 2 11 3 12 4 13 5 14 6 15 7 16 8 17 9 8 10 7 11 6 12
REMARK SMILES IDX 5 13 4 14 3 15 2 16 1 17
REMARK H PARENT
REMARK Flexibility Score: inf
ROOT
ATOM      1  C   UNL     1     -20.364   6.429  22.192  1.00  0.00     0.000 C 
ENDROOT
BRANCH   1   2
ATOM      2  C   UNL     1     -20.341   6.254  20.666  1.00  0.00     0.000 C 
BRANCH   2   3
ATOM      3  C   UNL     1     -20.378   4.768  20.283  1.00  0.00     0.000 C 
BRANCH   3   4
ATOM      4  C   UNL     1     -21.030   3.892  21.365  1.00  0.00     0.000 C 
BRANCH   4   5
ATOM      5  C   UNL     1     -20.512   2.446  21.349  1.00  0.00     0.006 C 
BRANCH   5   6
ATOM      6  C   UNL     1     -21.124   1.632  22.493  1.00  0.00     0.053 C 
BRANCH   6   7
ATOM      7  C   UNL     1     -22.431   1.040  22.073  1.00  0.00     0.041 C 
ATOM      8  O   UNL     1     -22.463  -0.076  21.491  1.00  0.00    -0.550 OA
ATOM      9  O   UNL     1     -23.613   1.741  22.281  1.00  0.00    -0.550 OA
ENDBRANCH   6   7
ENDBRANCH   5   6
ENDBRANCH   4   5
ENDBRANCH   3   4
ENDBRANCH   2   3
ENDBRANCH   1   2
BRANCH   1  10
ATOM     10  C   UNL     1     -21.476   7.379  22.669  1.00  0.00     0.000 C 
BRANCH  10  11
ATOM     11  C   UNL     1     -22.760   7.367  21.814  1.00  0.00    -0.000 C 
BRANCH  11  12
ATOM     12  C   UNL     1     -24.004   6.783  22.509  1.00  0.00    -0.000 C 
BRANCH  12  13
ATOM     13  C   UNL     1     -23.771   5.366  23.060  1.00  0.00    -0.000 C 
BRANCH  13  14
ATOM     14  C   UNL     1     -24.509   5.120  24.386  1.00  0.00    -0.000 C 
BRANCH  14  15
ATOM     15  C   UNL     1     -23.603   4.486  25.457  1.00  0.00    -0.000 C 
BRANCH  15  16
ATOM     16  C   UNL     1     -22.160   4.292  24.966  1.00  0.00    -0.003 C 
ATOM     17  C   UNL     1     -21.160   5.193  25.690  1.00  0.00     0.004 C 
ENDBRANCH  15  16
ENDBRANCH  14  15
ENDBRANCH  13  14
ENDBRANCH  12  13
ENDBRANCH  11  12
ENDBRANCH  10  11
ENDBRANCH   1  10
TORSDOF 13
ENDMDL
MODEL 5
REMARK VINA RESULT:    -3.304      2.230      5.463
REMARK INTER + INTRA:          -8.127
REMARK INTER:                  -6.389
REMARK INTRA:                  -1.738
REMARK UNBOUND:                -2.312
REMARK SMILES CCCCCCCCCCCCCCC(=O)[O-]
REMARK SMILES IDX 9 1 10 2 11 3 12 4 13 5 14 6 15 7 16 8 17 9 8 10 7 11 6 12
REMARK SMILES IDX 5 13 4 14 3 15 2 16 1 17
REMARK H PARENT
REMARK Flexibility Score: inf
ROOT
ATOM      1  C   UNL     1     -23.337   5.569  22.876  1.00  0.00     0.000 C 
ENDROOT
BRANCH   1   2
ATOM      2  C   UNL     1     -23.578   6.969  22.291  1.00  0.00     0.000 C 
BRANCH   2   3
ATOM      3  C   UNL     1     -22.248   7.663  21.962  1.00  0.00     0.000 C 
BRANCH   3   4
ATOM      4  C   UNL     1     -22.067   7.916  20.457  1.00  0.00     0.000 C 
BRANCH   4   5
ATOM      5  C   UNL     1     -21.363   6.754  19.741  1.00  0.00     0.006 C 
BRANCH   5   6
ATOM      6  C   UNL     1     -20.163   6.257  20.552  1.00  0.00     0.053 C 
BRANCH   6   7
ATOM      7  C   UNL     1     -20.124   4.762  20.566  1.00  0.00     0.041 C 
ATOM      8  O   UNL     1     -21.194   4.101  20.618  1.00  0.00    -0.550 OA
ATOM      9  O   UNL     1     -18.903   4.098  20.573  1.00  0.00    -0.550 OA
ENDBRANCH   6   7
ENDBRANCH   5   6
ENDBRANCH   4   5
ENDBRANCH   3   4
ENDBRANCH   2   3
ENDBRANCH   1   2
BRANCH   1  10
ATOM     10  C   UNL     1     -22.106   5.509  23.797  1.00  0.00     0.000 C 
BRANCH  10  11
ATOM     11  C   UNL     1     -22.230   4.545  24.995  1.00  0.00    -0.000 C 
BRANCH  11  12
ATOM     12  C   UNL     1     -23.384   4.854  25.966  1.00  0.00    -0.000 C 
BRANCH  12  13
ATOM     13  C   UNL     1     -24.440   3.736  26.014  1.00  0.00    -0.000 C 
BRANCH  13  14
ATOM     14  C   UNL     1     -23.945   2.430  25.372  1.00  0.00    -0.000 C 
BRANCH  14  15
ATOM     15  C   UNL     1     -24.936   1.871  24.334  1.00  0.00    -0.000 C 
BRANCH  15  16
ATOM     16  C   UNL     1     -24.233   1.091  23.212  1.00  0.00    -0.003 C 
ATOM     17  C   UNL     1     -23.156   1.912  22.503  1.00  0.00     0.004 C 
ENDBRANCH  15  16
ENDBRANCH  14  15
ENDBRANCH  13  14
ENDBRANCH  12  13
ENDBRANCH  11  12
ENDBRANCH  10  11
ENDBRANCH   1  10
TORSDOF 13
ENDMDL
MODEL 6
REMARK VINA RESULT:    -3.286      1.295      2.586
REMARK INTER + INTRA:          -8.095
REMARK INTER:                  -6.107
REMARK INTRA:                  -1.987
REMARK UNBOUND:                -2.312
REMARK SMILES CCCCCCCCCCCCCCC(=O)[O-]
REMARK SMILES IDX 9 1 10 2 11 3 12 4 13 5 14 6 15 7 16 8 17 9 8 10 7 11 6 12
REMARK SMILES IDX 5 13 4 14 3 15 2 16 1 17
REMARK H PARENT
REMARK Flexibility Score: inf
ROOT
ATOM      1  C   UNL     1     -24.793   4.945  24.042  1.00  0.00     0.000 C 
ENDROOT
BRANCH   1   2
ATOM      2  C   UNL     1     -23.590   4.747  24.977  1.00  0.00     0.000 C 
BRANCH   2   3
ATOM      3  C   UNL     1     -22.771   3.516  24.563  1.00  0.00     0.000 C 
BRANCH   3   4
ATOM      4  C   UNL     1     -23.438   2.710  23.437  1.00  0.00     0.000 C 
BRANCH   4   5
ATOM      5  C   UNL     1     -22.604   2.693  22.147  1.00  0.00     0.006 C 
BRANCH   5   6
ATOM      6  C   UNL     1     -21.279   1.956  22.361  1.00  0.00     0.053 C 
BRANCH   6   7
ATOM      7  C   UNL     1     -21.284   0.648  21.636  1.00  0.00     0.041 C 
ATOM      8  O   UNL     1     -20.227   0.212  21.108  1.00  0.00    -0.550 OA
ATOM      9  O   UNL     1     -22.467  -0.068  21.499  1.00  0.00    -0.550 OA
ENDBRANCH   6   7
ENDBRANCH   5   6
ENDBRANCH   4   5
ENDBRANCH   3   4
ENDBRANCH   2   3
ENDBRANCH   1   2
BRANCH   1  10
ATOM     10  C   UNL     1     -24.714   6.252  23.233  1.00  0.00     0.000 C 
BRANCH  10  11
ATOM     11  C   UNL     1     -23.570   6.315  22.200  1.00  0.00    -0.000 C 
BRANCH  11  12
ATOM     12  C   UNL     1     -22.423   7.279  22.552  1.00  0.00    -0.000 C 
BRANCH  12  13
ATOM     13  C   UNL     1     -21.106   6.550  22.868  1.00  0.00    -0.000 C 
BRANCH  13  14
ATOM     14  C   UNL     1     -20.124   6.564  21.685  1.00  0.00    -0.000 C 
BRANCH  14  15
ATOM     15  C   UNL     1     -20.069   5.214  20.948  1.00  0.00    -0.000 C 
BRANCH  15  16
ATOM     16  C   UNL     1     -21.076   5.135  19.790  1.00  0.00    -0.003 C 
ATOM     17  C   UNL     1     -21.271   6.475  19.082  1.00  0.00     0.004 C 
ENDBRANCH  15  16
ENDBRANCH  14  15
ENDBRANCH  13  14
ENDBRANCH  12  13
ENDBRANCH  11  12
ENDBRANCH  10  11
ENDBRANCH   1  10
TORSDOF 13
ENDMDL
MODEL 7
REMARK VINA RESULT:    -3.266     21.183     23.178
REMARK INTER + INTRA:          -8.061
REMARK INTER:                  -6.102
REMARK INTRA:                  -1.959
REMARK UNBOUND:                -2.312
REMARK SMILES CCCCCCCCCCCCCCC(=O)[O-]
REMARK SMILES IDX 9 1 10 2 11 3 12 4 13 5 14 6 15 7 16 8 17 9 8 10 7 11 6 12
REMARK SMILES IDX 5 13 4 14 3 15 2 16 1 17
REMARK H PARENT
REMARK Flexibility Score: inf
ROOT
ATOM      1  C   UNL     1      -5.500  -8.584  32.704  1.00  0.00     0.000 C 
ENDROOT
BRANCH   1   2
ATOM      2  C   UNL     1      -6.666  -9.146  33.531  1.00  0.00     0.000 C 
BRANCH   2   3
ATOM      3  C   UNL     1      -6.361  -9.066  35.034  1.00  0.00     0.000 C 
BRANCH   3   4
ATOM      4  C   UNL     1      -5.155  -8.167  35.348  1.00  0.00     0.000 C 
BRANCH   4   5
ATOM      5  C   UNL     1      -5.566  -6.798  35.910  1.00  0.00     0.006 C 
BRANCH   5   6
ATOM      6  C   UNL     1      -5.380  -5.697  34.862  1.00  0.00     0.053 C 
BRANCH   6   7
ATOM      7  C   UNL     1      -6.703  -5.127  34.460  1.00  0.00     0.041 C 
ATOM      8  O   UNL     1      -7.485  -5.794  33.732  1.00  0.00    -0.550 OA
ATOM      9  O   UNL     1      -7.053  -3.840  34.848  1.00  0.00    -0.550 OA
ENDBRANCH   6   7
ENDBRANCH   5   6
ENDBRANCH   4   5
ENDBRANCH   3   4
ENDBRANCH   2   3
ENDBRANCH   1   2
BRANCH   1  10
ATOM     10  C   UNL     1      -5.088  -9.508  31.545  1.00  0.00     0.000 C 
BRANCH  10  11
ATOM     11  C   UNL     1      -5.059 -11.012  31.886  1.00  0.00    -0.000 C 
BRANCH  11  12
ATOM     12  C   UNL     1      -6.068 -11.879  31.111  1.00  0.00    -0.000 C 
BRANCH  12  13
ATOM     13  C   UNL     1      -6.992 -11.051  30.201  1.00  0.00    -0.000 C 
BRANCH  13  14
ATOM     14  C   UNL     1      -8.419 -10.935  30.760  1.00  0.00    -0.000 C 
BRANCH  14  15
ATOM     15  C   UNL     1      -9.120  -9.636  30.321  1.00  0.00    -0.000 C 
BRANCH  15  16
ATOM     16  C   UNL     1      -8.140  -8.610  29.732  1.00  0.00    -0.003 C 
ATOM     17  C   UNL     1      -8.175  -7.268  30.463  1.00  0.00     0.004 C 
ENDBRANCH  15  16
ENDBRANCH  14  15
ENDBRANCH  13  14
ENDBRANCH  12  13
ENDBRANCH  11  12
ENDBRANCH  10  11
ENDBRANCH   1  10
TORSDOF 13
ENDMDL
MODEL 8
REMARK VINA RESULT:    -3.266      3.152      5.180
REMARK INTER + INTRA:          -8.060
REMARK INTER:                  -6.079
REMARK INTRA:                  -1.981
REMARK UNBOUND:                -2.312
REMARK SMILES CCCCCCCCCCCCCCC(=O)[O-]
REMARK SMILES IDX 9 1 10 2 11 3 12 4 13 5 14 6 15 7 16 8 17 9 8 10 7 11 6 12
REMARK SMILES IDX 5 13 4 14 3 15 2 16 1 17
REMARK H PARENT
REMARK Flexibility Score: inf
ROOT
ATOM      1  C   UNL     1     -23.773   3.341  25.536  1.00  0.00     0.000 C 
ENDROOT
BRANCH   1   2
ATOM      2  C   UNL     1     -23.681   4.739  24.907  1.00  0.00     0.000 C 
BRANCH   2   3
ATOM      3  C   UNL     1     -24.994   5.112  24.204  1.00  0.00     0.000 C 
BRANCH   3   4
ATOM      4  C   UNL     1     -24.809   6.212  23.146  1.00  0.00     0.000 C 
BRANCH   4   5
ATOM      5  C   UNL     1     -23.433   6.155  22.466  1.00  0.00     0.006 C 
BRANCH   5   6
ATOM      6  C   UNL     1     -22.935   7.561  22.120  1.00  0.00     0.053 C 
BRANCH   6   7
ATOM      7  C   UNL     1     -21.749   7.488  21.211  1.00  0.00     0.041 C 
ATOM      8  O   UNL     1     -20.626   7.142  21.663  1.00  0.00    -0.550 OA
ATOM      9  O   UNL     1     -21.872   7.849  19.875  1.00  0.00    -0.550 OA
ENDBRANCH   6   7
ENDBRANCH   5   6
ENDBRANCH   4   5
ENDBRANCH   3   4
ENDBRANCH   2   3
ENDBRANCH   1   2
BRANCH   1  10
ATOM     10  C   UNL     1     -24.674   2.383  24.737  1.00  0.00     0.000 C 
BRANCH  10  11
ATOM     11  C   UNL     1     -23.926   1.314  23.914  1.00  0.00    -0.000 C 
BRANCH  11  12
ATOM     12  C   UNL     1     -23.659   1.688  22.444  1.00  0.00    -0.000 C 
BRANCH  12  13
ATOM     13  C   UNL     1     -22.160   1.731  22.102  1.00  0.00    -0.000 C 
BRANCH  13  14
ATOM     14  C   UNL     1     -21.694   3.129  21.665  1.00  0.00    -0.000 C 
BRANCH  14  15
ATOM     15  C   UNL     1     -20.630   3.719  22.608  1.00  0.00    -0.000 C 
BRANCH  15  16
ATOM     16  C   UNL     1     -20.483   2.909  23.906  1.00  0.00    -0.003 C 
ATOM     17  C   UNL     1     -19.517   3.553  24.900  1.00  0.00     0.004 C 
ENDBRANCH  15  16
ENDBRANCH  14  15
ENDBRANCH  13  14
ENDBRANCH  12  13
ENDBRANCH  11  12
ENDBRANCH  10  11
ENDBRANCH   1  10
TORSDOF 13
ENDMDL
MODEL 9
REMARK VINA RESULT:    -3.236      1.519      3.825
REMARK INTER + INTRA:          -8.007
REMARK INTER:                  -6.294
REMARK INTRA:                  -1.713
REMARK UNBOUND:                -2.312
REMARK SMILES CCCCCCCCCCCCCCC(=O)[O-]
REMARK SMILES IDX 9 1 10 2 11 3 12 4 13 5 14 6 15 7 16 8 17 9 8 10 7 11 6 12
REMARK SMILES IDX 5 13 4 14 3 15 2 16 1 17
REMARK H PARENT
REMARK Flexibility Score: inf
ROOT
ATOM      1  C   UNL     1     -20.824   4.781  20.193  1.00  0.00     0.000 C 
ENDROOT
BRANCH   1   2
ATOM      2  C   UNL     1     -19.981   3.897  21.124  1.00  0.00     0.000 C 
BRANCH   2   3
ATOM      3  C   UNL     1     -20.670   2.547  21.371  1.00  0.00     0.000 C 
BRANCH   3   4
ATOM      4  C   UNL     1     -21.808   2.640  22.399  1.00  0.00     0.000 C 
BRANCH   4   5
ATOM      5  C   UNL     1     -22.982   1.705  22.071  1.00  0.00     0.006 C 
BRANCH   5   6
ATOM      6  C   UNL     1     -23.969   1.634  23.239  1.00  0.00     0.053 C 
BRANCH   6   7
ATOM      7  C   UNL     1     -23.483   0.675  24.279  1.00  0.00     0.041 C 
ATOM      8  O   UNL     1     -23.295  -0.535  23.986  1.00  0.00    -0.550 OA
ATOM      9  O   UNL     1     -23.284   1.106  25.585  1.00  0.00    -0.550 OA
ENDBRANCH   6   7
ENDBRANCH   5   6
ENDBRANCH   4   5
ENDBRANCH   3   4
ENDBRANCH   2   3
ENDBRANCH   1   2
BRANCH   1  10
ATOM     10  C   UNL     1     -20.715   6.279  20.528  1.00  0.00     0.000 C 
BRANCH  10  11
ATOM     11  C   UNL     1     -20.327   6.596  21.987  1.00  0.00    -0.000 C 
BRANCH  11  12
ATOM     12  C   UNL     1     -21.507   6.917  22.923  1.00  0.00    -0.000 C 
BRANCH  12  13
ATOM     13  C   UNL     1     -22.750   7.418  22.167  1.00  0.00    -0.000 C 
BRANCH  13  14
ATOM     14  C   UNL     1     -24.007   6.594  22.488  1.00  0.00    -0.000 C 
BRANCH  14  15
ATOM     15  C   UNL     1     -23.734   5.474  23.509  1.00  0.00    -0.000 C 
BRANCH  15  16
ATOM     16  C   UNL     1     -24.985   5.098  24.318  1.00  0.00    -0.003 C 
ATOM     17  C   UNL     1     -24.650   4.459  25.665  1.00  0.00     0.004 C 
ENDBRANCH  15  16
ENDBRANCH  14  15
ENDBRANCH  13  14
ENDBRANCH  12  13
ENDBRANCH  11  12
ENDBRANCH  10  11
ENDBRANCH   1  10
TORSDOF 13
ENDMDL
