MODEL 1
REMARK VINA RESULT:    -3.844      0.000      0.000
REMARK INTER + INTRA:          -4.556
REMARK INTER:                  -4.518
REMARK INTRA:                  -0.037
REMARK UNBOUND:                -0.037
REMARK SMILES O=c1c(O)c(-c2ccc(O)cc2)oc2cc(O)cc(O)c12
REMARK SMILES IDX 5 1 3 2 2 3 1 4 21 5 19 6 18 7 16 8 15 9 14 10 13 11 6 12
REMARK SMILES IDX 7 13 8 14 9 15 12 16 11 17 10 18 4 20 20 22 17 24
REMARK H PARENT 10 19 4 21 20 23 17 25
REMARK Flexibility Score: inf
ROOT
ATOM      1  C   UNL     1      17.205  12.876  11.859  1.00  0.00     0.180 A 
ATOM      2  C   UNL     1      17.572  11.546  11.588  1.00  0.00     0.208 A 
ATOM      3  C   UNL     1      17.744  11.145  10.253  1.00  0.00     0.238 A 
ATOM      4  O   UNL     1      18.125   9.969  10.020  1.00  0.00    -0.285 OA
ATOM      5  C   UNL     1      17.534  12.075   9.206  1.00  0.00     0.111 A 
ATOM      6  C   UNL     1      17.641  11.767   7.816  1.00  0.00     0.134 A 
ATOM      7  C   UNL     1      17.539  12.796   6.871  1.00  0.00     0.093 A 
ATOM      8  C   UNL     1      17.268  14.109   7.263  1.00  0.00     0.123 A 
ATOM      9  C   UNL     1      17.103  14.408   8.613  1.00  0.00     0.094 A 
ATOM     10  C   UNL     1      17.235  13.410   9.581  1.00  0.00     0.146 A 
ATOM     11  O   UNL     1      17.080  13.741  10.858  1.00  0.00    -0.452 OA
ENDROOT
BRANCH   1  12
ATOM     12  C   UNL     1      16.981  13.367  13.237  1.00  0.00     0.021 A 
ATOM     13  C   UNL     1      17.628  14.537  13.669  1.00  0.00     0.016 A 
ATOM     14  C   UNL     1      17.412  15.030  14.960  1.00  0.00     0.047 A 
ATOM     15  C   UNL     1      16.537  14.370  15.829  1.00  0.00     0.115 A 
ATOM     16  C   UNL     1      16.086  12.719  14.109  1.00  0.00     0.016 A 
ATOM     17  C   UNL     1      15.872  13.215  15.398  1.00  0.00     0.047 A 
BRANCH  15  18
ATOM     18  O   UNL     1      16.333  14.873  17.111  1.00  0.00    -0.508 OA
ATOM     19  H   UNL     1      15.515  14.620  17.655  1.00  0.00     0.293 HD
ENDBRANCH  15  18
ENDBRANCH   1  12
BRANCH   2  20
ATOM     20  O   UNL     1      17.796  10.651  12.637  1.00  0.00    -0.502 OA
ATOM     21  H   UNL     1      17.073  10.398  13.300  1.00  0.00     0.293 HD
ENDBRANCH   2  20
BRANCH   6  22
ATOM     22  O   UNL     1      17.819  10.474   7.315  1.00  0.00    -0.507 OA
ATOM     23  H   UNL     1      17.217  10.033   6.636  1.00  0.00     0.293 HD
ENDBRANCH   6  22
BRANCH   8  24
ATOM     24  O   UNL     1      17.153  15.123   6.315  1.00  0.00    -0.508 OA
ATOM     25  H   UNL     1      17.460  16.070   6.511  1.00  0.00     0.293 HD
ENDBRANCH   8  24
TORSDOF 5
ENDMDL
MODEL 2
REMARK VINA RESULT:    -3.351      2.284      6.534
REMARK INTER + INTRA:          -3.976
REMARK INTER:                  -3.687
REMARK INTRA:                  -0.289
REMARK UNBOUND:                -0.037
REMARK SMILES O=c1c(O)c(-c2ccc(O)cc2)oc2cc(O)cc(O)c12
REMARK SMILES IDX 5 1 3 2 2 3 1 4 21 5 19 6 18 7 16 8 15 9 14 10 13 11 6 12
REMARK SMILES IDX 7 13 8 14 9 15 12 16 11 17 10 18 4 20 20 22 17 24
REMARK H PARENT 10 19 4 21 20 23 17 25
REMARK Flexibility Score: inf
ROOT
ATOM      1  C   UNL     1      17.336  12.528   9.825  1.00  0.00     0.180 A 
ATOM      2  C   UNL     1      17.540  13.233  11.025  1.00  0.00     0.208 A 
ATOM      3  C   UNL     1      17.781  12.512  12.206  1.00  0.00     0.238 A 
ATOM      4  O   UNL     1      18.016  13.150  13.264  1.00  0.00    -0.285 OA
ATOM      5  C   UNL     1      17.800  11.096  12.175  1.00  0.00     0.111 A 
ATOM      6  C   UNL     1      17.994  10.264  13.318  1.00  0.00     0.134 A 
ATOM      7  C   UNL     1      18.124   8.880  13.150  1.00  0.00     0.093 A 
ATOM      8  C   UNL     1      18.000   8.293  11.889  1.00  0.00     0.123 A 
ATOM      9  C   UNL     1      17.751   9.091  10.775  1.00  0.00     0.094 A 
ATOM     10  C   UNL     1      17.654  10.478  10.906  1.00  0.00     0.146 A 
ATOM     11  O   UNL     1      17.426  11.203   9.817  1.00  0.00    -0.452 OA
ENDROOT
BRANCH   1  12
ATOM     12  C   UNL     1      17.053  13.217   8.545  1.00  0.00     0.021 A 
ATOM     13  C   UNL     1      18.091  13.406   7.616  1.00  0.00     0.016 A 
ATOM     14  C   UNL     1      17.839  14.033   6.392  1.00  0.00     0.047 A 
ATOM     15  C   UNL     1      16.548  14.465   6.074  1.00  0.00     0.115 A 
ATOM     16  C   UNL     1      15.751  13.635   8.210  1.00  0.00     0.016 A 
ATOM     17  C   UNL     1      15.504  14.261   6.985  1.00  0.00     0.047 A 
BRANCH  15  18
ATOM     18  O   UNL     1      16.313  15.088   4.851  1.00  0.00    -0.508 OA
ATOM     19  H   UNL     1      16.809  15.931   4.583  1.00  0.00     0.293 HD
ENDBRANCH  15  18
ENDBRANCH   1  12
BRANCH   2  20
ATOM     20  O   UNL     1      17.540  14.630  11.028  1.00  0.00    -0.502 OA
ATOM     21  H   UNL     1      18.196  15.173  11.576  1.00  0.00     0.293 HD
ENDBRANCH   2  20
BRANCH   6  22
ATOM     22  O   UNL     1      18.039  10.741  14.631  1.00  0.00    -0.507 OA
ATOM     23  H   UNL     1      17.236  11.048  15.159  1.00  0.00     0.293 HD
ENDBRANCH   6  22
BRANCH   8  24
ATOM     24  O   UNL     1      18.115   6.913  11.733  1.00  0.00    -0.508 OA
ATOM     25  H   UNL     1      18.986   6.429  11.919  1.00  0.00     0.293 HD
ENDBRANCH   8  24
TORSDOF 5
ENDMDL
MODEL 3
REMARK VINA RESULT:    -1.644      1.267      3.291
REMARK INTER + INTRA:          -1.970
REMARK INTER:                  -1.790
REMARK INTRA:                  -0.180
REMARK UNBOUND:                -0.037
REMARK SMILES O=c1c(O)c(-c2ccc(O)cc2)oc2cc(O)cc(O)c12
REMARK SMILES IDX 5 1 3 2 2 3 1 4 21 5 19 6 18 7 16 8 15 9 14 10 13 11 6 12
REMARK SMILES IDX 7 13 8 14 9 15 12 16 11 17 10 18 4 20 20 22 17 24
REMARK H PARENT 10 19 4 21 20 23 17 25
REMARK Flexibility Score: inf
ROOT
ATOM      1  C   UNL     1      16.916  12.965  11.830  1.00  0.00     0.180 A 
ATOM      2  C   UNL     1      16.866  13.776  10.681  1.00  0.00     0.208 A 
ATOM      3  C   UNL     1      17.138  13.201   9.429  1.00  0.00     0.238 A 
ATOM      4  O   UNL     1      17.038  13.919   8.401  1.00  0.00    -0.285 OA
ATOM      5  C   UNL     1      17.472  11.827   9.343  1.00  0.00     0.111 A 
ATOM      6  C   UNL     1      17.805  11.150   8.132  1.00  0.00     0.134 A 
ATOM      7  C   UNL     1      17.991   9.762   8.145  1.00  0.00     0.093 A 
ATOM      8  C   UNL     1      17.920   9.038   9.338  1.00  0.00     0.123 A 
ATOM      9  C   UNL     1      17.654   9.699  10.534  1.00  0.00     0.094 A 
ATOM     10  C   UNL     1      17.427  11.077  10.547  1.00  0.00     0.146 A 
ATOM     11  O   UNL     1      17.167  11.667  11.707  1.00  0.00    -0.452 OA
ENDROOT
BRANCH   1  12
ATOM     12  C   UNL     1      16.665  13.504  13.186  1.00  0.00     0.021 A 
ATOM     13  C   UNL     1      15.562  13.039  13.922  1.00  0.00     0.016 A 
ATOM     14  C   UNL     1      15.320  13.518  15.213  1.00  0.00     0.047 A 
ATOM     15  C   UNL     1      16.184  14.454  15.791  1.00  0.00     0.115 A 
ATOM     16  C   UNL     1      17.543  14.430  13.780  1.00  0.00     0.016 A 
ATOM     17  C   UNL     1      17.298  14.906  15.072  1.00  0.00     0.047 A 
BRANCH  15  18
ATOM     18  O   UNL     1      15.930  14.921  17.078  1.00  0.00    -0.508 OA
ATOM     19  H   UNL     1      16.502  14.639  17.866  1.00  0.00     0.293 HD
ENDBRANCH  15  18
ENDBRANCH   1  12
BRANCH   2  20
ATOM     20  O   UNL     1      16.513  15.123  10.787  1.00  0.00    -0.502 OA
ATOM     21  H   UNL     1      15.560  15.425  10.952  1.00  0.00     0.293 HD
ENDBRANCH   2  20
BRANCH   6  22
ATOM     22  O   UNL     1      17.991  11.793   6.904  1.00  0.00    -0.507 OA
ATOM     23  H   UNL     1      17.424  11.642   6.085  1.00  0.00     0.293 HD
ENDBRANCH   6  22
BRANCH   8  24
ATOM     24  O   UNL     1      18.122   7.660   9.345  1.00  0.00    -0.508 OA
ATOM     25  H   UNL     1      17.579   7.046   9.943  1.00  0.00     0.293 HD
ENDBRANCH   8  24
TORSDOF 5
ENDMDL
