MODEL 1
REMARK VINA RESULT:    -3.902      0.000      0.000
REMARK INTER + INTRA:         -12.867
REMARK INTER:                  -8.920
REMARK INTRA:                  -3.947
REMARK UNBOUND:                -3.947
REMARK SMILES CCCCCCCCCCCCCCCCCCCCCCCC(=O)[O-]
REMARK SMILES IDX 13 1 14 2 15 3 16 4 17 5 18 6 19 7 20 8 21 9 22 10 23 11
REMARK SMILES IDX 24 12 25 13 26 14 12 15 11 16 10 17 9 18 8 19 7 20 6 21 5 22
REMARK SMILES IDX 4 23 3 24 2 25 1 26
REMARK H PARENT
REMARK Flexibility Score: inf
ROOT
ATOM      1  C   UNL     1      27.135  -1.298  10.152  1.00  0.00     0.000 C 
ENDROOT
BRANCH   1   2
ATOM      2  C   UNL     1      27.788  -0.025   9.571  1.00  0.00     0.000 C 
BRANCH   2   3
ATOM      3  C   UNL     1      28.406  -0.214   8.172  1.00  0.00     0.000 C 
BRANCH   3   4
ATOM      4  C   UNL     1      27.976   0.826   7.123  1.00  0.00     0.000 C 
BRANCH   4   5
ATOM      5  C   UNL     1      26.903   0.342   6.131  1.00  0.00     0.000 C 
BRANCH   5   6
ATOM      6  C   UNL     1      25.457   0.581   6.616  1.00  0.00     0.000 C 
BRANCH   6   7
ATOM      7  C   UNL     1      25.353   1.793   7.558  1.00  0.00     0.000 C 
BRANCH   7   8
ATOM      8  C   UNL     1      24.084   1.765   8.424  1.00  0.00     0.000 C 
BRANCH   8   9
ATOM      9  C   UNL     1      23.068   0.707   7.956  1.00  0.00     0.000 C 
BRANCH   9  10
ATOM     10  C   UNL     1      21.775   1.329   7.404  1.00  0.00     0.006 C 
BRANCH  10  11
ATOM     11  C   UNL     1      20.983   0.361   6.517  1.00  0.00     0.053 C 
BRANCH  11  12
ATOM     12  C   UNL     1      21.842  -0.157   5.406  1.00  0.00     0.041 C 
ATOM     13  O   UNL     1      22.092  -1.389   5.318  1.00  0.00    -0.550 OA
ATOM     14  O   UNL     1      22.391   0.724   4.480  1.00  0.00    -0.550 OA
ENDBRANCH  11  12
ENDBRANCH  10  11
ENDBRANCH   9  10
ENDBRANCH   8   9
ENDBRANCH   7   8
ENDBRANCH   6   7
ENDBRANCH   5   6
ENDBRANCH   4   5
ENDBRANCH   3   4
ENDBRANCH   2   3
ENDBRANCH   1   2
BRANCH   1  15
ATOM     15  C   UNL     1      25.615  -1.350   9.907  1.00  0.00     0.000 C 
BRANCH  15  16
ATOM     16  C   UNL     1      25.216  -2.242   8.719  1.00  0.00     0.000 C 
BRANCH  16  17
ATOM     17  C   UNL     1      26.270  -3.299   8.325  1.00  0.00     0.000 C 
BRANCH  17  18
ATOM     18  C   UNL     1      26.804  -3.227   6.875  1.00  0.00    -0.000 C 
BRANCH  18  19
ATOM     19  C   UNL     1      28.295  -3.569   6.667  1.00  0.00    -0.000 C 
BRANCH  19  20
ATOM     20  C   UNL     1      28.989  -4.236   7.877  1.00  0.00    -0.000 C 
BRANCH  20  21
ATOM     21  C   UNL     1      28.640  -5.726   8.050  1.00  0.00    -0.000 C 
BRANCH  21  22
ATOM     22  C   UNL     1      28.922  -6.609   6.821  1.00  0.00    -0.000 C 
BRANCH  22  23
ATOM     23  C   UNL     1      27.682  -7.290   6.210  1.00  0.00    -0.000 C 
BRANCH  23  24
ATOM     24  C   UNL     1      27.567  -7.082   4.694  1.00  0.00    -0.000 C 
BRANCH  24  25
ATOM     25  C   UNL     1      26.613  -5.925   4.371  1.00  0.00    -0.003 C 
ATOM     26  C   UNL     1      27.232  -4.963   3.360  1.00  0.00     0.004 C 
ENDBRANCH  24  25
ENDBRANCH  23  24
ENDBRANCH  22  23
ENDBRANCH  21  22
ENDBRANCH  20  21
ENDBRANCH  19  20
ENDBRANCH  18  19
ENDBRANCH  17  18
ENDBRANCH  16  17
ENDBRANCH  15  16
ENDBRANCH   1  15
TORSDOF 22
ENDMDL
MODEL 2
REMARK VINA RESULT:    -3.843     10.136     12.289
REMARK INTER + INTRA:         -12.732
REMARK INTER:                  -8.220
REMARK INTRA:                  -4.512
REMARK UNBOUND:                -3.947
REMARK SMILES CCCCCCCCCCCCCCCCCCCCCCCC(=O)[O-]
REMARK SMILES IDX 13 1 14 2 15 3 16 4 17 5 18 6 19 7 20 8 21 9 22 10 23 11
REMARK SMILES IDX 24 12 25 13 26 14 12 15 11 16 10 17 9 18 8 19 7 20 6 21 5 22
REMARK SMILES IDX 4 23 3 24 2 25 1 26
REMARK H PARENT
REMARK Flexibility Score: inf
ROOT
ATOM      1  C   UNL     1      21.966  -5.445  16.870  1.00  0.00     0.000 C 
ENDROOT
BRANCH   1   2
ATOM      2  C   UNL     1      22.238  -5.714  18.366  1.00  0.00     0.000 C 
BRANCH   2   3
ATOM      3  C   UNL     1      21.066  -5.346  19.297  1.00  0.00     0.000 C 
BRANCH   3   4
ATOM      4  C   UNL     1      21.263  -4.058  20.115  1.00  0.00     0.000 C 
BRANCH   4   5
ATOM      5  C   UNL     1      20.349  -2.886  19.710  1.00  0.00     0.000 C 
BRANCH   5   6
ATOM      6  C   UNL     1      20.982  -1.937  18.669  1.00  0.00     0.000 C 
BRANCH   6   7
ATOM      7  C   UNL     1      22.480  -1.704  18.931  1.00  0.00     0.000 C 
BRANCH   7   8
ATOM      8  C   UNL     1      23.357  -2.057  17.720  1.00  0.00     0.000 C 
BRANCH   8   9
ATOM      9  C   UNL     1      24.808  -2.389  18.113  1.00  0.00     0.000 C 
BRANCH   9  10
ATOM     10  C   UNL     1      25.393  -3.552  17.296  1.00  0.00     0.006 C 
BRANCH  10  11
ATOM     11  C   UNL     1      25.767  -4.758  18.166  1.00  0.00     0.053 C 
BRANCH  11  12
ATOM     12  C   UNL     1      25.633  -6.030  17.388  1.00  0.00     0.041 C 
ATOM     13  O   UNL     1      25.806  -7.142  17.955  1.00  0.00    -0.550 OA
ATOM     14  O   UNL     1      25.344  -5.989  16.028  1.00  0.00    -0.550 OA
ENDBRANCH  11  12
ENDBRANCH  10  11
ENDBRANCH   9  10
ENDBRANCH   8   9
ENDBRANCH   7   8
ENDBRANCH   6   7
ENDBRANCH   5   6
ENDBRANCH   4   5
ENDBRANCH   3   4
ENDBRANCH   2   3
ENDBRANCH   1   2
BRANCH   1  15
ATOM     15  C   UNL     1      20.466  -5.277  16.560  1.00  0.00     0.000 C 
BRANCH  15  16
ATOM     16  C   UNL     1      19.839  -6.508  15.884  1.00  0.00     0.000 C 
BRANCH  16  17
ATOM     17  C   UNL     1      18.988  -7.394  16.820  1.00  0.00     0.000 C 
BRANCH  17  18
ATOM     18  C   UNL     1      19.764  -8.391  17.711  1.00  0.00    -0.000 C 
BRANCH  18  19
ATOM     19  C   UNL     1      20.013  -9.797  17.125  1.00  0.00    -0.000 C 
BRANCH  19  20
ATOM     20  C   UNL     1      21.289  -9.930  16.262  1.00  0.00    -0.000 C 
BRANCH  20  21
ATOM     21  C   UNL     1      22.485  -9.114  16.790  1.00  0.00    -0.000 C 
BRANCH  21  22
ATOM     22  C   UNL     1      23.623  -8.895  15.776  1.00  0.00    -0.000 C 
BRANCH  22  23
ATOM     23  C   UNL     1      23.174  -8.789  14.306  1.00  0.00    -0.000 C 
BRANCH  23  24
ATOM     24  C   UNL     1      22.904  -7.345  13.863  1.00  0.00    -0.000 C 
BRANCH  24  25
ATOM     25  C   UNL     1      21.759  -7.290  12.844  1.00  0.00    -0.003 C 
ATOM     26  C   UNL     1      20.916  -8.562  12.890  1.00  0.00     0.004 C 
ENDBRANCH  24  25
ENDBRANCH  23  24
ENDBRANCH  22  23
ENDBRANCH  21  22
ENDBRANCH  20  21
ENDBRANCH  19  20
ENDBRANCH  18  19
ENDBRANCH  17  18
ENDBRANCH  16  17
ENDBRANCH  15  16
ENDBRANCH   1  15
TORSDOF 22
ENDMDL
MODEL 3
REMARK VINA RESULT:    -3.824     10.835     12.501
REMARK INTER + INTRA:         -12.689
REMARK INTER:                  -8.913
REMARK INTRA:                  -3.776
REMARK UNBOUND:                -3.947
REMARK SMILES CCCCCCCCCCCCCCCCCCCCCCCC(=O)[O-]
REMARK SMILES IDX 13 1 14 2 15 3 16 4 17 5 18 6 19 7 20 8 21 9 22 10 23 11
REMARK SMILES IDX 24 12 25 13 26 14 12 15 11 16 10 17 9 18 8 19 7 20 6 21 5 22
REMARK SMILES IDX 4 23 3 24 2 25 1 26
REMARK H PARENT
REMARK Flexibility Score: inf
ROOT
ATOM      1  C   UNL     1      24.636  -2.878  17.314  1.00  0.00     0.000 C 
ENDROOT
BRANCH   1   2
ATOM      2  C   UNL     1      24.873  -2.058  18.601  1.00  0.00     0.000 C 
BRANCH   2   3
ATOM      3  C   UNL     1      23.708  -1.122  18.976  1.00  0.00     0.000 C 
BRANCH   3   4
ATOM      4  C   UNL     1      22.400  -1.366  18.203  1.00  0.00     0.000 C 
BRANCH   4   5
ATOM      5  C   UNL     1      21.179  -1.695  19.081  1.00  0.00     0.000 C 
BRANCH   5   6
ATOM      6  C   UNL     1      20.711  -3.162  18.968  1.00  0.00     0.000 C 
BRANCH   6   7
ATOM      7  C   UNL     1      21.608  -4.121  19.771  1.00  0.00     0.000 C 
BRANCH   7   8
ATOM      8  C   UNL     1      22.173  -5.264  18.913  1.00  0.00     0.000 C 
BRANCH   8   9
ATOM      9  C   UNL     1      21.933  -5.052  17.407  1.00  0.00     0.000 C 
BRANCH   9  10
ATOM     10  C   UNL     1      21.147  -6.205  16.764  1.00  0.00     0.006 C 
BRANCH  10  11
ATOM     11  C   UNL     1      20.862  -7.349  17.745  1.00  0.00     0.053 C 
BRANCH  11  12
ATOM     12  C   UNL     1      19.416  -7.363  18.132  1.00  0.00     0.041 C 
ATOM     13  O   UNL     1      18.557  -6.803  17.399  1.00  0.00    -0.550 OA
ATOM     14  O   UNL     1      19.018  -7.971  19.318  1.00  0.00    -0.550 OA
ENDBRANCH  11  12
ENDBRANCH  10  11
ENDBRANCH   9  10
ENDBRANCH   8   9
ENDBRANCH   7   8
ENDBRANCH   6   7
ENDBRANCH   5   6
ENDBRANCH   4   5
ENDBRANCH   3   4
ENDBRANCH   2   3
ENDBRANCH   1   2
BRANCH   1  15
ATOM     15  C   UNL     1      25.695  -3.978  17.108  1.00  0.00     0.000 C 
BRANCH  15  16
ATOM     16  C   UNL     1      25.681  -5.055  18.206  1.00  0.00     0.000 C 
BRANCH  16  17
ATOM     17  C   UNL     1      25.479  -6.497  17.692  1.00  0.00     0.000 C 
BRANCH  17  18
ATOM     18  C   UNL     1      25.007  -6.642  16.226  1.00  0.00    -0.000 C 
BRANCH  18  19
ATOM     19  C   UNL     1      24.302  -7.963  15.851  1.00  0.00    -0.000 C 
BRANCH  19  20
ATOM     20  C   UNL     1      24.377  -9.073  16.925  1.00  0.00    -0.000 C 
BRANCH  20  21
ATOM     21  C   UNL     1      23.661 -10.376  16.523  1.00  0.00    -0.000 C 
BRANCH  21  22
ATOM     22  C   UNL     1      22.758 -10.268  15.280  1.00  0.00    -0.000 C 
BRANCH  22  23
ATOM     23  C   UNL     1      21.245 -10.276  15.571  1.00  0.00    -0.000 C 
BRANCH  23  24
ATOM     24  C   UNL     1      20.901 -10.884  16.938  1.00  0.00    -0.000 C 
BRANCH  24  25
ATOM     25  C   UNL     1      20.477 -12.351  16.794  1.00  0.00    -0.003 C 
ATOM     26  C   UNL     1      19.725 -12.584  15.486  1.00  0.00     0.004 C 
ENDBRANCH  24  25
ENDBRANCH  23  24
ENDBRANCH  22  23
ENDBRANCH  21  22
ENDBRANCH  20  21
ENDBRANCH  19  20
ENDBRANCH  18  19
ENDBRANCH  17  18
ENDBRANCH  16  17
ENDBRANCH  15  16
ENDBRANCH   1  15
TORSDOF 22
ENDMDL
MODEL 4
REMARK VINA RESULT:    -3.812     10.504     13.388
REMARK INTER + INTRA:         -12.661
REMARK INTER:                  -8.296
REMARK INTRA:                  -4.365
REMARK UNBOUND:                -3.947
REMARK SMILES CCCCCCCCCCCCCCCCCCCCCCCC(=O)[O-]
REMARK SMILES IDX 13 1 14 2 15 3 16 4 17 5 18 6 19 7 20 8 21 9 22 10 23 11
REMARK SMILES IDX 24 12 25 13 26 14 12 15 11 16 10 17 9 18 8 19 7 20 6 21 5 22
REMARK SMILES IDX 4 23 3 24 2 25 1 26
REMARK H PARENT
REMARK Flexibility Score: inf
ROOT
ATOM      1  C   UNL     1      25.012  -6.620  15.975  1.00  0.00     0.000 C 
ENDROOT
BRANCH   1   2
ATOM      2  C   UNL     1      23.614  -7.051  15.480  1.00  0.00     0.000 C 
BRANCH   2   3
ATOM      3  C   UNL     1      23.580  -7.522  14.013  1.00  0.00     0.000 C 
BRANCH   3   4
ATOM      4  C   UNL     1      22.585  -8.657  13.716  1.00  0.00     0.000 C 
BRANCH   4   5
ATOM      5  C   UNL     1      21.159  -8.426  14.248  1.00  0.00     0.000 C 
BRANCH   5   6
ATOM      6  C   UNL     1      20.748  -9.408  15.366  1.00  0.00     0.000 C 
BRANCH   6   7
ATOM      7  C   UNL     1      21.335 -10.814  15.149  1.00  0.00     0.000 C 
BRANCH   7   8
ATOM      8  C   UNL     1      22.169 -11.300  16.344  1.00  0.00     0.000 C 
BRANCH   8   9
ATOM      9  C   UNL     1      22.940 -10.160  17.034  1.00  0.00     0.000 C 
BRANCH   9  10
ATOM     10  C   UNL     1      24.452 -10.427  17.110  1.00  0.00     0.006 C 
BRANCH  10  11
ATOM     11  C   UNL     1      25.077 -10.689  15.735  1.00  0.00     0.053 C 
BRANCH  11  12
ATOM     12  C   UNL     1      25.854 -11.969  15.744  1.00  0.00     0.041 C 
ATOM     13  O   UNL     1      25.281 -13.060  15.479  1.00  0.00    -0.550 OA
ATOM     14  O   UNL     1      27.206 -11.962  16.071  1.00  0.00    -0.550 OA
ENDBRANCH  11  12
ENDBRANCH  10  11
ENDBRANCH   9  10
ENDBRANCH   8   9
ENDBRANCH   7   8
ENDBRANCH   6   7
ENDBRANCH   5   6
ENDBRANCH   4   5
ENDBRANCH   3   4
ENDBRANCH   2   3
ENDBRANCH   1   2
BRANCH   1  15
ATOM     15  C   UNL     1      25.169  -6.757  17.501  1.00  0.00     0.000 C 
BRANCH  15  16
ATOM     16  C   UNL     1      25.651  -5.467  18.186  1.00  0.00     0.000 C 
BRANCH  16  17
ATOM     17  C   UNL     1      25.732  -4.236  17.257  1.00  0.00     0.000 C 
BRANCH  17  18
ATOM     18  C   UNL     1      24.918  -2.995  17.691  1.00  0.00    -0.000 C 
BRANCH  18  19
ATOM     19  C   UNL     1      23.519  -2.826  17.060  1.00  0.00    -0.000 C 
BRANCH  19  20
ATOM     20  C   UNL     1      22.343  -2.824  18.064  1.00  0.00    -0.000 C 
BRANCH  20  21
ATOM     21  C   UNL     1      22.574  -3.723  19.294  1.00  0.00    -0.000 C 
BRANCH  21  22
ATOM     22  C   UNL     1      21.608  -4.916  19.420  1.00  0.00    -0.000 C 
BRANCH  22  23
ATOM     23  C   UNL     1      21.692  -5.945  18.276  1.00  0.00    -0.000 C 
BRANCH  23  24
ATOM     24  C   UNL     1      20.397  -6.748  18.095  1.00  0.00    -0.000 C 
BRANCH  24  25
ATOM     25  C   UNL     1      19.602  -6.241  16.885  1.00  0.00    -0.003 C 
ATOM     26  C   UNL     1      20.426  -5.263  16.052  1.00  0.00     0.004 C 
ENDBRANCH  24  25
ENDBRANCH  23  24
ENDBRANCH  22  23
ENDBRANCH  21  22
ENDBRANCH  20  21
ENDBRANCH  19  20
ENDBRANCH  18  19
ENDBRANCH  17  18
ENDBRANCH  16  17
ENDBRANCH  15  16
ENDBRANCH   1  15
TORSDOF 22
ENDMDL
MODEL 5
REMARK VINA RESULT:    -3.802      2.619      6.262
REMARK INTER + INTRA:         -12.638
REMARK INTER:                  -8.783
REMARK INTRA:                  -3.856
REMARK UNBOUND:                -3.947
REMARK SMILES CCCCCCCCCCCCCCCCCCCCCCCC(=O)[O-]
REMARK SMILES IDX 13 1 14 2 15 3 16 4 17 5 18 6 19 7 20 8 21 9 22 10 23 11
REMARK SMILES IDX 24 12 25 13 26 14 12 15 11 16 10 17 9 18 8 19 7 20 6 21 5 22
REMARK SMILES IDX 4 23 3 24 2 25 1 26
REMARK H PARENT
REMARK Flexibility Score: inf
ROOT
ATOM      1  C   UNL     1      22.647   1.411   7.590  1.00  0.00     0.000 C 
ENDROOT
BRANCH   1   2
ATOM      2  C   UNL     1      21.788   0.671   6.541  1.00  0.00     0.000 C 
BRANCH   2   3
ATOM      3  C   UNL     1      22.514  -0.493   5.838  1.00  0.00     0.000 C 
BRANCH   3   4
ATOM      4  C   UNL     1      22.073  -1.899   6.282  1.00  0.00     0.000 C 
BRANCH   4   5
ATOM      5  C   UNL     1      23.200  -2.947   6.330  1.00  0.00     0.000 C 
BRANCH   5   6
ATOM      6  C   UNL     1      23.940  -3.000   7.684  1.00  0.00     0.000 C 
BRANCH   6   7
ATOM      7  C   UNL     1      25.457  -2.799   7.526  1.00  0.00     0.000 C 
BRANCH   7   8
ATOM      8  C   UNL     1      25.829  -2.097   6.211  1.00  0.00     0.000 C 
BRANCH   8   9
ATOM      9  C   UNL     1      26.971  -2.807   5.460  1.00  0.00     0.000 C 
BRANCH   9  10
ATOM     10  C   UNL     1      26.524  -4.128   4.814  1.00  0.00     0.006 C 
BRANCH  10  11
ATOM     11  C   UNL     1      27.550  -4.675   3.814  1.00  0.00     0.053 C 
BRANCH  11  12
ATOM     12  C   UNL     1      26.864  -5.423   2.713  1.00  0.00     0.041 C 
ATOM     13  O   UNL     1      25.614  -5.348   2.578  1.00  0.00    -0.550 OA
ATOM     14  O   UNL     1      27.604  -6.226   1.850  1.00  0.00    -0.550 OA
ENDBRANCH  11  12
ENDBRANCH  10  11
ENDBRANCH   9  10
ENDBRANCH   8   9
ENDBRANCH   7   8
ENDBRANCH   6   7
ENDBRANCH   5   6
ENDBRANCH   4   5
ENDBRANCH   3   4
ENDBRANCH   2   3
ENDBRANCH   1   2
BRANCH   1  15
ATOM     15  C   UNL     1      24.098   0.896   7.639  1.00  0.00     0.000 C 
BRANCH  15  16
ATOM     16  C   UNL     1      24.716   0.940   9.046  1.00  0.00     0.000 C 
BRANCH  16  17
ATOM     17  C   UNL     1      24.446  -0.313   9.908  1.00  0.00     0.000 C 
BRANCH  17  18
ATOM     18  C   UNL     1      25.558  -0.712  10.906  1.00  0.00    -0.000 C 
BRANCH  18  19
ATOM     19  C   UNL     1      26.956  -0.102  10.668  1.00  0.00    -0.000 C 
BRANCH  19  20
ATOM     20  C   UNL     1      28.057  -1.117  10.285  1.00  0.00    -0.000 C 
BRANCH  20  21
ATOM     21  C   UNL     1      29.032  -0.602   9.209  1.00  0.00    -0.000 C 
BRANCH  21  22
ATOM     22  C   UNL     1      28.441  -0.495   7.791  1.00  0.00    -0.000 C 
BRANCH  22  23
ATOM     23  C   UNL     1      28.034   0.927   7.361  1.00  0.00    -0.000 C 
BRANCH  23  24
ATOM     24  C   UNL     1      27.978   1.100   5.837  1.00  0.00    -0.000 C 
BRANCH  24  25
ATOM     25  C   UNL     1      26.960   2.179   5.446  1.00  0.00    -0.003 C 
ATOM     26  C   UNL     1      25.885   1.615   4.520  1.00  0.00     0.004 C 
ENDBRANCH  24  25
ENDBRANCH  23  24
ENDBRANCH  22  23
ENDBRANCH  21  22
ENDBRANCH  20  21
ENDBRANCH  19  20
ENDBRANCH  18  19
ENDBRANCH  17  18
ENDBRANCH  16  17
ENDBRANCH  15  16
ENDBRANCH   1  15
TORSDOF 22
ENDMDL
MODEL 6
REMARK VINA RESULT:    -3.783      3.215      7.007
REMARK INTER + INTRA:         -12.594
REMARK INTER:                  -8.530
REMARK INTRA:                  -4.064
REMARK UNBOUND:                -3.947
REMARK SMILES CCCCCCCCCCCCCCCCCCCCCCCC(=O)[O-]
REMARK SMILES IDX 13 1 14 2 15 3 16 4 17 5 18 6 19 7 20 8 21 9 22 10 23 11
REMARK SMILES IDX 24 12 25 13 26 14 12 15 11 16 10 17 9 18 8 19 7 20 6 21 5 22
REMARK SMILES IDX 4 23 3 24 2 25 1 26
REMARK H PARENT
REMARK Flexibility Score: inf
ROOT
ATOM      1  C   UNL     1      27.331  -1.313  10.541  1.00  0.00     0.000 C 
ENDROOT
BRANCH   1   2
ATOM      2  C   UNL     1      25.805  -1.217  10.323  1.00  0.00     0.000 C 
BRANCH   2   3
ATOM      3  C   UNL     1      25.267  -2.138   9.210  1.00  0.00     0.000 C 
BRANCH   3   4
ATOM      4  C   UNL     1      23.819  -1.856   8.773  1.00  0.00     0.000 C 
BRANCH   4   5
ATOM      5  C   UNL     1      23.649  -1.496   7.286  1.00  0.00     0.000 C 
BRANCH   5   6
ATOM      6  C   UNL     1      24.223  -2.557   6.322  1.00  0.00     0.000 C 
BRANCH   6   7
ATOM      7  C   UNL     1      23.527  -3.920   6.476  1.00  0.00     0.000 C 
BRANCH   7   8
ATOM      8  C   UNL     1      24.447  -4.992   7.079  1.00  0.00     0.000 C 
BRANCH   8   9
ATOM      9  C   UNL     1      25.406  -5.604   6.042  1.00  0.00     0.000 C 
BRANCH   9  10
ATOM     10  C   UNL     1      26.854  -5.118   6.214  1.00  0.00     0.006 C 
BRANCH  10  11
ATOM     11  C   UNL     1      27.450  -5.500   7.575  1.00  0.00     0.053 C 
BRANCH  11  12
ATOM     12  C   UNL     1      28.344  -6.693   7.443  1.00  0.00     0.041 C 
ATOM     13  O   UNL     1      28.583  -7.421   8.444  1.00  0.00    -0.550 OA
ATOM     14  O   UNL     1      28.937  -6.988   6.220  1.00  0.00    -0.550 OA
ENDBRANCH  11  12
ENDBRANCH  10  11
ENDBRANCH   9  10
ENDBRANCH   8   9
ENDBRANCH   7   8
ENDBRANCH   6   7
ENDBRANCH   5   6
ENDBRANCH   4   5
ENDBRANCH   3   4
ENDBRANCH   2   3
ENDBRANCH   1   2
BRANCH   1  15
ATOM     15  C   UNL     1      28.082  -0.066  10.036  1.00  0.00     0.000 C 
BRANCH  15  16
ATOM     16  C   UNL     1      28.919  -0.325   8.772  1.00  0.00     0.000 C 
BRANCH  16  17
ATOM     17  C   UNL     1      28.716  -1.718   8.138  1.00  0.00     0.000 C 
BRANCH  17  18
ATOM     18  C   UNL     1      28.037  -1.747   6.749  1.00  0.00    -0.000 C 
BRANCH  18  19
ATOM     19  C   UNL     1      27.153  -0.536   6.383  1.00  0.00    -0.000 C 
BRANCH  19  20
ATOM     20  C   UNL     1      27.791   0.464   5.391  1.00  0.00    -0.000 C 
BRANCH  20  21
ATOM     21  C   UNL     1      27.995   1.875   5.976  1.00  0.00    -0.000 C 
BRANCH  21  22
ATOM     22  C   UNL     1      26.703   2.601   6.395  1.00  0.00    -0.000 C 
BRANCH  22  23
ATOM     23  C   UNL     1      26.447   2.649   7.914  1.00  0.00    -0.000 C 
BRANCH  23  24
ATOM     24  C   UNL     1      25.187   1.880   8.335  1.00  0.00    -0.000 C 
BRANCH  24  25
ATOM     25  C   UNL     1      24.535   2.529   9.563  1.00  0.00    -0.003 C 
ATOM     26  C   UNL     1      23.418   1.653  10.123  1.00  0.00     0.004 C 
ENDBRANCH  24  25
ENDBRANCH  23  24
ENDBRANCH  22  23
ENDBRANCH  21  22
ENDBRANCH  20  21
ENDBRANCH  19  20
ENDBRANCH  18  19
ENDBRANCH  17  18
ENDBRANCH  16  17
ENDBRANCH  15  16
ENDBRANCH   1  15
TORSDOF 22
ENDMDL
MODEL 7
REMARK VINA RESULT:    -3.768     10.323     13.358
REMARK INTER + INTRA:         -12.561
REMARK INTER:                  -8.910
REMARK INTRA:                  -3.651
REMARK UNBOUND:                -3.947
REMARK SMILES CCCCCCCCCCCCCCCCCCCCCCCC(=O)[O-]
REMARK SMILES IDX 13 1 14 2 15 3 16 4 17 5 18 6 19 7 20 8 21 9 22 10 23 11
REMARK SMILES IDX 24 12 25 13 26 14 12 15 11 16 10 17 9 18 8 19 7 20 6 21 5 22
REMARK SMILES IDX 4 23 3 24 2 25 1 26
REMARK H PARENT
REMARK Flexibility Score: inf
ROOT
ATOM      1  C   UNL     1      21.523  -6.059  15.317  1.00  0.00     0.000 C 
ENDROOT
BRANCH   1   2
ATOM      2  C   UNL     1      22.922  -6.713  15.297  1.00  0.00     0.000 C 
BRANCH   2   3
ATOM      3  C   UNL     1      23.250  -7.463  13.991  1.00  0.00     0.000 C 
BRANCH   3   4
ATOM      4  C   UNL     1      22.028  -7.964  13.203  1.00  0.00     0.000 C 
BRANCH   4   5
ATOM      5  C   UNL     1      21.693  -9.454  13.403  1.00  0.00     0.000 C 
BRANCH   5   6
ATOM      6  C   UNL     1      20.497  -9.700  14.347  1.00  0.00     0.000 C 
BRANCH   6   7
ATOM      7  C   UNL     1      20.933  -9.818  15.818  1.00  0.00     0.000 C 
BRANCH   7   8
ATOM      8  C   UNL     1      22.242 -10.604  15.988  1.00  0.00     0.000 C 
BRANCH   8   9
ATOM      9  C   UNL     1      23.125 -10.050  17.121  1.00  0.00     0.000 C 
BRANCH   9  10
ATOM     10  C   UNL     1      24.581  -9.828  16.683  1.00  0.00     0.006 C 
BRANCH  10  11
ATOM     11  C   UNL     1      24.892 -10.455  15.318  1.00  0.00     0.053 C 
BRANCH  11  12
ATOM     12  C   UNL     1      25.887 -11.564  15.463  1.00  0.00     0.041 C 
ATOM     13  O   UNL     1      26.067 -12.383  14.522  1.00  0.00    -0.550 OA
ATOM     14  O   UNL     1      26.599 -11.712  16.649  1.00  0.00    -0.550 OA
ENDBRANCH  11  12
ENDBRANCH  10  11
ENDBRANCH   9  10
ENDBRANCH   8   9
ENDBRANCH   7   8
ENDBRANCH   6   7
ENDBRANCH   5   6
ENDBRANCH   4   5
ENDBRANCH   3   4
ENDBRANCH   2   3
ENDBRANCH   1   2
BRANCH   1  15
ATOM     15  C   UNL     1      21.104  -5.599  16.726  1.00  0.00     0.000 C 
BRANCH  15  16
ATOM     16  C   UNL     1      21.938  -6.233  17.851  1.00  0.00     0.000 C 
BRANCH  16  17
ATOM     17  C   UNL     1      22.367  -5.254  18.965  1.00  0.00     0.000 C 
BRANCH  17  18
ATOM     18  C   UNL     1      23.874  -5.232  19.315  1.00  0.00    -0.000 C 
BRANCH  18  19
ATOM     19  C   UNL     1      24.834  -5.870  18.289  1.00  0.00    -0.000 C 
BRANCH  19  20
ATOM     20  C   UNL     1      25.774  -4.877  17.567  1.00  0.00    -0.000 C 
BRANCH  20  21
ATOM     21  C   UNL     1      25.045  -3.671  16.945  1.00  0.00    -0.000 C 
BRANCH  21  22
ATOM     22  C   UNL     1      25.141  -2.364  17.754  1.00  0.00    -0.000 C 
BRANCH  22  23
ATOM     23  C   UNL     1      23.883  -1.476  17.707  1.00  0.00    -0.000 C 
BRANCH  23  24
ATOM     24  C   UNL     1      23.328  -1.147  19.100  1.00  0.00    -0.000 C 
BRANCH  24  25
ATOM     25  C   UNL     1      22.787   0.287  19.150  1.00  0.00    -0.003 C 
ATOM     26  C   UNL     1      22.994   1.003  17.817  1.00  0.00     0.004 C 
ENDBRANCH  24  25
ENDBRANCH  23  24
ENDBRANCH  22  23
ENDBRANCH  21  22
ENDBRANCH  20  21
ENDBRANCH  19  20
ENDBRANCH  18  19
ENDBRANCH  17  18
ENDBRANCH  16  17
ENDBRANCH  15  16
ENDBRANCH   1  15
TORSDOF 22
ENDMDL
MODEL 8
REMARK VINA RESULT:    -3.703      2.297      3.896
REMARK INTER + INTRA:         -12.411
REMARK INTER:                  -8.539
REMARK INTRA:                  -3.872
REMARK UNBOUND:                -3.947
REMARK SMILES CCCCCCCCCCCCCCCCCCCCCCCC(=O)[O-]
REMARK SMILES IDX 13 1 14 2 15 3 16 4 17 5 18 6 19 7 20 8 21 9 22 10 23 11
REMARK SMILES IDX 24 12 25 13 26 14 12 15 11 16 10 17 9 18 8 19 7 20 6 21 5 22
REMARK SMILES IDX 4 23 3 24 2 25 1 26
REMARK H PARENT
REMARK Flexibility Score: inf
ROOT
ATOM      1  C   UNL     1      24.710  -1.792   6.701  1.00  0.00     0.000 C 
ENDROOT
BRANCH   1   2
ATOM      2  C   UNL     1      25.267  -0.352   6.681  1.00  0.00     0.000 C 
BRANCH   2   3
ATOM      3  C   UNL     1      26.527  -0.173   5.811  1.00  0.00     0.000 C 
BRANCH   3   4
ATOM      4  C   UNL     1      27.642   0.675   6.446  1.00  0.00     0.000 C 
BRANCH   4   5
ATOM      5  C   UNL     1      27.491   0.920   7.958  1.00  0.00     0.000 C 
BRANCH   5   6
ATOM      6  C   UNL     1      28.211  -0.130   8.832  1.00  0.00     0.000 C 
BRANCH   6   7
ATOM      7  C   UNL     1      27.774  -0.059  10.305  1.00  0.00     0.000 C 
BRANCH   7   8
ATOM      8  C   UNL     1      26.831  -1.205  10.701  1.00  0.00     0.000 C 
BRANCH   8   9
ATOM      9  C   UNL     1      25.439  -0.708  11.131  1.00  0.00     0.000 C 
BRANCH   9  10
ATOM     10  C   UNL     1      25.104   0.681  10.565  1.00  0.00     0.006 C 
BRANCH  10  11
ATOM     11  C   UNL     1      23.756   0.714   9.834  1.00  0.00     0.053 C 
BRANCH  11  12
ATOM     12  C   UNL     1      22.632   0.877  10.809  1.00  0.00     0.041 C 
ATOM     13  O   UNL     1      21.445   0.651  10.452  1.00  0.00    -0.550 OA
ATOM     14  O   UNL     1      22.892   1.304  12.107  1.00  0.00    -0.550 OA
ENDBRANCH  11  12
ENDBRANCH  10  11
ENDBRANCH   9  10
ENDBRANCH   8   9
ENDBRANCH   7   8
ENDBRANCH   6   7
ENDBRANCH   5   6
ENDBRANCH   4   5
ENDBRANCH   3   4
ENDBRANCH   2   3
ENDBRANCH   1   2
BRANCH   1  15
ATOM     15  C   UNL     1      25.094  -2.559   7.980  1.00  0.00     0.000 C 
BRANCH  15  16
ATOM     16  C   UNL     1      26.060  -3.728   7.726  1.00  0.00     0.000 C 
BRANCH  16  17
ATOM     17  C   UNL     1      27.555  -3.341   7.728  1.00  0.00     0.000 C 
BRANCH  17  18
ATOM     18  C   UNL     1      28.374  -3.763   6.487  1.00  0.00    -0.000 C 
BRANCH  18  19
ATOM     19  C   UNL     1      28.010  -3.082   5.150  1.00  0.00    -0.000 C 
BRANCH  19  20
ATOM     20  C   UNL     1      27.610  -4.048   4.011  1.00  0.00    -0.000 C 
BRANCH  20  21
ATOM     21  C   UNL     1      26.723  -5.220   4.473  1.00  0.00    -0.000 C 
BRANCH  21  22
ATOM     22  C   UNL     1      27.358  -6.616   4.327  1.00  0.00    -0.000 C 
BRANCH  22  23
ATOM     23  C   UNL     1      27.406  -7.447   5.624  1.00  0.00    -0.000 C 
BRANCH  23  24
ATOM     24  C   UNL     1      28.770  -7.387   6.325  1.00  0.00    -0.000 C 
BRANCH  24  25
ATOM     25  C   UNL     1      28.668  -7.904   7.765  1.00  0.00    -0.003 C 
ATOM     26  C   UNL     1      28.673  -6.752   8.768  1.00  0.00     0.004 C 
ENDBRANCH  24  25
ENDBRANCH  23  24
ENDBRANCH  22  23
ENDBRANCH  21  22
ENDBRANCH  20  21
ENDBRANCH  19  20
ENDBRANCH  18  19
ENDBRANCH  17  18
ENDBRANCH  16  17
ENDBRANCH  15  16
ENDBRANCH   1  15
TORSDOF 22
ENDMDL
MODEL 9
REMARK VINA RESULT:    -3.698      1.999      6.640
REMARK INTER + INTRA:         -12.402
REMARK INTER:                  -7.950
REMARK INTRA:                  -4.451
REMARK UNBOUND:                -3.947
REMARK SMILES CCCCCCCCCCCCCCCCCCCCCCCC(=O)[O-]
REMARK SMILES IDX 13 1 14 2 15 3 16 4 17 5 18 6 19 7 20 8 21 9 22 10 23 11
REMARK SMILES IDX 24 12 25 13 26 14 12 15 11 16 10 17 9 18 8 19 7 20 6 21 5 22
REMARK SMILES IDX 4 23 3 24 2 25 1 26
REMARK H PARENT
REMARK Flexibility Score: inf
ROOT
ATOM      1  C   UNL     1      28.433  -4.120   7.107  1.00  0.00     0.000 C 
ENDROOT
BRANCH   1   2
ATOM      2  C   UNL     1      27.706  -5.155   7.994  1.00  0.00     0.000 C 
BRANCH   2   3
ATOM      3  C   UNL     1      27.445  -6.507   7.301  1.00  0.00     0.000 C 
BRANCH   3   4
ATOM      4  C   UNL     1      28.543  -6.962   6.325  1.00  0.00     0.000 C 
BRANCH   4   5
ATOM      5  C   UNL     1      28.036  -7.721   5.085  1.00  0.00     0.000 C 
BRANCH   5   6
ATOM      6  C   UNL     1      26.902  -6.991   4.333  1.00  0.00     0.000 C 
BRANCH   6   7
ATOM      7  C   UNL     1      27.408  -5.743   3.589  1.00  0.00     0.000 C 
BRANCH   7   8
ATOM      8  C   UNL     1      26.645  -4.468   3.980  1.00  0.00     0.000 C 
BRANCH   8   9
ATOM      9  C   UNL     1      25.218  -4.759   4.481  1.00  0.00     0.000 C 
BRANCH   9  10
ATOM     10  C   UNL     1      24.910  -4.077   5.823  1.00  0.00     0.006 C 
BRANCH  10  11
ATOM     11  C   UNL     1      24.076  -4.961   6.759  1.00  0.00     0.053 C 
BRANCH  11  12
ATOM     12  C   UNL     1      22.819  -4.257   7.167  1.00  0.00     0.041 C 
ATOM     13  O   UNL     1      22.157  -3.599   6.320  1.00  0.00    -0.550 OA
ATOM     14  O   UNL     1      22.392  -4.304   8.490  1.00  0.00    -0.550 OA
ENDBRANCH  11  12
ENDBRANCH  10  11
ENDBRANCH   9  10
ENDBRANCH   8   9
ENDBRANCH   7   8
ENDBRANCH   6   7
ENDBRANCH   5   6
ENDBRANCH   4   5
ENDBRANCH   3   4
ENDBRANCH   2   3
ENDBRANCH   1   2
BRANCH   1  15
ATOM     15  C   UNL     1      28.969  -2.922   7.913  1.00  0.00     0.000 C 
BRANCH  15  16
ATOM     16  C   UNL     1      28.288  -1.590   7.558  1.00  0.00     0.000 C 
BRANCH  16  17
ATOM     17  C   UNL     1      27.620  -1.559   6.166  1.00  0.00     0.000 C 
BRANCH  17  18
ATOM     18  C   UNL     1      27.291  -0.160   5.594  1.00  0.00    -0.000 C 
BRANCH  18  19
ATOM     19  C   UNL     1      27.851   1.055   6.366  1.00  0.00    -0.000 C 
BRANCH  19  20
ATOM     20  C   UNL     1      26.916   2.285   6.417  1.00  0.00    -0.000 C 
BRANCH  20  21
ATOM     21  C   UNL     1      26.375   2.596   7.826  1.00  0.00    -0.000 C 
BRANCH  21  22
ATOM     22  C   UNL     1      26.534   1.459   8.852  1.00  0.00    -0.000 C 
BRANCH  22  23
ATOM     23  C   UNL     1      25.218   0.957   9.475  1.00  0.00    -0.000 C 
BRANCH  23  24
ATOM     24  C   UNL     1      24.191   0.505   8.428  1.00  0.00    -0.000 C 
BRANCH  24  25
ATOM     25  C   UNL     1      24.507  -0.909   7.925  1.00  0.00    -0.003 C 
ATOM     26  C   UNL     1      24.923  -1.825   9.073  1.00  0.00     0.004 C 
ENDBRANCH  24  25
ENDBRANCH  23  24
ENDBRANCH  22  23
ENDBRANCH  21  22
ENDBRANCH  20  21
ENDBRANCH  19  20
ENDBRANCH  18  19
ENDBRANCH  17  18
ENDBRANCH  16  17
ENDBRANCH  15  16
ENDBRANCH   1  15
TORSDOF 22
ENDMDL
