MODEL 1
REMARK VINA RESULT:    -5.092      0.000      0.000
REMARK INTER + INTRA:          -5.714
REMARK INTER:                  -5.539
REMARK INTRA:                  -0.175
REMARK UNBOUND:                -0.175
REMARK SMILES CC1=CC[C@@H](C(C)(C)O)CC1
REMARK SMILES IDX 6 1 7 2 8 3 5 4 1 5 2 6 3 7 11 8 4 9 10 10 9 11
REMARK H PARENT 9 12
REMARK Flexibility Score: inf
ROOT
ATOM      1  C   UNL     1     114.455 121.237 131.972  1.00  0.00     0.062 C 
ATOM      2  C   UNL     1     113.734 120.089 132.718  1.00  0.00     0.042 C 
ATOM      3  C   UNL     1     115.948 120.856 131.835  1.00  0.00     0.042 C 
ENDROOT
BRANCH   1   4
ATOM      4  C   UNL     1     113.798 121.456 130.564  1.00  0.00     0.024 C 
ATOM      5  C   UNL     1     112.785 122.538 126.528  1.00  0.00     0.039 C 
ATOM      6  C   UNL     1     113.532 122.250 127.800  1.00  0.00    -0.077 C 
ATOM      7  C   UNL     1     113.875 120.991 128.111  1.00  0.00    -0.028 C 
ATOM      8  C   UNL     1     113.908 123.357 128.753  1.00  0.00     0.031 C 
ATOM      9  C   UNL     1     114.543 120.708 129.428  1.00  0.00     0.034 C 
ATOM     10  C   UNL     1     113.618 122.977 130.222  1.00  0.00     0.011 C 
ENDBRANCH   1   4
BRANCH   1  11
ATOM     11  O   UNL     1     114.345 122.429 132.716  1.00  0.00    -0.390 OA
ATOM     12  H   UNL     1     113.381 122.603 132.877  1.00  0.00     0.211 HD
ENDBRANCH   1  11
TORSDOF 2
ENDMDL
MODEL 2
REMARK VINA RESULT:    -4.946     14.577     15.561
REMARK INTER + INTRA:          -5.555
REMARK INTER:                  -5.385
REMARK INTRA:                  -0.170
REMARK UNBOUND:                -0.175
REMARK SMILES CC1=CC[C@@H](C(C)(C)O)CC1
REMARK SMILES IDX 6 1 7 2 8 3 5 4 1 5 2 6 3 7 11 8 4 9 10 10 9 11
REMARK H PARENT 9 12
REMARK Flexibility Score: inf
ROOT
ATOM      1  C   UNL     1     127.457 122.434 120.102  1.00  0.00     0.062 C 
ATOM      2  C   UNL     1     128.615 121.878 119.237  1.00  0.00     0.042 C 
ATOM      3  C   UNL     1     127.104 123.846 119.579  1.00  0.00     0.042 C 
ENDROOT
BRANCH   1   4
ATOM      4  C   UNL     1     126.219 121.474 120.017  1.00  0.00     0.024 C 
ATOM      5  C   UNL     1     122.412 119.498 120.321  1.00  0.00     0.039 C 
ATOM      6  C   UNL     1     123.508 120.527 120.328  1.00  0.00    -0.077 C 
ATOM      7  C   UNL     1     123.892 121.112 119.183  1.00  0.00    -0.028 C 
ATOM      8  C   UNL     1     124.202 120.922 121.608  1.00  0.00     0.031 C 
ATOM      9  C   UNL     1     125.049 122.072 119.192  1.00  0.00     0.034 C 
ATOM     10  C   UNL     1     125.734 121.002 121.432  1.00  0.00     0.011 C 
ENDBRANCH   1   4
BRANCH   1  11
ATOM     11  O   UNL     1     127.871 122.525 121.446  1.00  0.00    -0.390 OA
ATOM     12  H   UNL     1     128.616 123.180 121.495  1.00  0.00     0.211 HD
ENDBRANCH   1  11
TORSDOF 2
ENDMDL
MODEL 3
REMARK VINA RESULT:    -4.884     13.393     14.317
REMARK INTER + INTRA:          -5.487
REMARK INTER:                  -5.316
REMARK INTRA:                  -0.171
REMARK UNBOUND:                -0.175
REMARK SMILES CC1=CC[C@@H](C(C)(C)O)CC1
REMARK SMILES IDX 6 1 7 2 8 3 5 4 1 5 2 6 3 7 11 8 4 9 10 10 9 11
REMARK H PARENT 9 12
REMARK Flexibility Score: inf
ROOT
ATOM      1  C   UNL     1     122.761 119.837 121.219  1.00  0.00     0.062 C 
ATOM      2  C   UNL     1     123.600 118.664 121.783  1.00  0.00     0.042 C 
ATOM      3  C   UNL     1     121.767 120.286 122.315  1.00  0.00     0.042 C 
ENDROOT
BRANCH   1   4
ATOM      4  C   UNL     1     123.707 121.017 120.798  1.00  0.00     0.024 C 
ATOM      5  C   UNL     1     126.884 123.554 119.400  1.00  0.00     0.039 C 
ATOM      6  C   UNL     1     125.979 122.380 119.649  1.00  0.00    -0.077 C 
ATOM      7  C   UNL     1     124.847 122.238 118.941  1.00  0.00    -0.028 C 
ATOM      8  C   UNL     1     126.311 121.344 120.693  1.00  0.00     0.031 C 
ATOM      9  C   UNL     1     123.908 121.109 119.262  1.00  0.00     0.034 C 
ATOM     10  C   UNL     1     125.082 120.974 121.551  1.00  0.00     0.011 C 
ENDBRANCH   1   4
BRANCH   1  11
ATOM     11  O   UNL     1     122.042 119.404 120.087  1.00  0.00    -0.390 OA
ATOM     12  H   UNL     1     121.837 120.200 119.529  1.00  0.00     0.211 HD
ENDBRANCH   1  11
TORSDOF 2
ENDMDL
MODEL 4
REMARK VINA RESULT:    -4.880     11.051     12.247
REMARK INTER + INTRA:          -5.482
REMARK INTER:                  -5.326
REMARK INTRA:                  -0.157
REMARK UNBOUND:                -0.175
REMARK SMILES CC1=CC[C@@H](C(C)(C)O)CC1
REMARK SMILES IDX 6 1 7 2 8 3 5 4 1 5 2 6 3 7 11 8 4 9 10 10 9 11
REMARK H PARENT 9 12
REMARK Flexibility Score: inf
ROOT
ATOM      1  C   UNL     1     119.944 129.825 130.509  1.00  0.00     0.062 C 
ATOM      2  C   UNL     1     118.626 130.058 131.286  1.00  0.00     0.042 C 
ATOM      3  C   UNL     1     119.680 128.750 129.428  1.00  0.00     0.042 C 
ENDROOT
BRANCH   1   4
ATOM      4  C   UNL     1     120.427 131.170 129.860  1.00  0.00     0.024 C 
ATOM      5  C   UNL     1     121.808 135.145 128.976  1.00  0.00     0.039 C 
ATOM      6  C   UNL     1     121.490 133.848 129.668  1.00  0.00    -0.077 C 
ATOM      7  C   UNL     1     122.299 132.788 129.520  1.00  0.00    -0.028 C 
ATOM      8  C   UNL     1     120.263 133.704 130.533  1.00  0.00     0.031 C 
ATOM      9  C   UNL     1     121.922 131.474 130.144  1.00  0.00     0.034 C 
ATOM     10  C   UNL     1     119.514 132.382 130.257  1.00  0.00     0.011 C 
ENDBRANCH   1   4
BRANCH   1  11
ATOM     11  O   UNL     1     120.940 129.362 131.392  1.00  0.00    -0.390 OA
ATOM     12  H   UNL     1     121.803 129.345 130.901  1.00  0.00     0.211 HD
ENDBRANCH   1  11
TORSDOF 2
ENDMDL
MODEL 5
REMARK VINA RESULT:    -4.796      2.707      5.682
REMARK INTER + INTRA:          -5.391
REMARK INTER:                  -5.221
REMARK INTRA:                  -0.170
REMARK UNBOUND:                -0.175
REMARK SMILES CC1=CC[C@@H](C(C)(C)O)CC1
REMARK SMILES IDX 6 1 7 2 8 3 5 4 1 5 2 6 3 7 11 8 4 9 10 10 9 11
REMARK H PARENT 9 12
REMARK Flexibility Score: inf
ROOT
ATOM      1  C   UNL     1     114.031 120.689 132.113  1.00  0.00     0.062 C 
ATOM      2  C   UNL     1     113.273 121.986 131.736  1.00  0.00     0.042 C 
ATOM      3  C   UNL     1     114.566 120.051 130.809  1.00  0.00     0.042 C 
ENDROOT
BRANCH   1   4
ATOM      4  C   UNL     1     115.205 121.024 133.099  1.00  0.00     0.024 C 
ATOM      5  C   UNL     1     118.624 121.026 135.707  1.00  0.00     0.039 C 
ATOM      6  C   UNL     1     117.611 120.666 134.655  1.00  0.00    -0.077 C 
ATOM      7  C   UNL     1     117.671 121.233 133.440  1.00  0.00    -0.028 C 
ATOM      8  C   UNL     1     116.511 119.674 134.936  1.00  0.00     0.031 C 
ATOM      9  C   UNL     1     116.601 120.931 132.428  1.00  0.00     0.034 C 
ATOM     10  C   UNL     1     115.144 120.163 134.409  1.00  0.00     0.011 C 
ENDBRANCH   1   4
BRANCH   1  11
ATOM     11  O   UNL     1     113.149 119.790 132.744  1.00  0.00    -0.390 OA
ATOM     12  H   UNL     1     112.341 120.296 133.022  1.00  0.00     0.211 HD
ENDBRANCH   1  11
TORSDOF 2
ENDMDL
MODEL 6
REMARK VINA RESULT:    -4.790      2.081      4.686
REMARK INTER + INTRA:          -5.384
REMARK INTER:                  -5.174
REMARK INTRA:                  -0.211
REMARK UNBOUND:                -0.175
REMARK SMILES CC1=CC[C@@H](C(C)(C)O)CC1
REMARK SMILES IDX 6 1 7 2 8 3 5 4 1 5 2 6 3 7 11 8 4 9 10 10 9 11
REMARK H PARENT 9 12
REMARK Flexibility Score: inf
ROOT
ATOM      1  C   UNL     1     114.558 123.723 129.518  1.00  0.00     0.062 C 
ATOM      2  C   UNL     1     115.646 122.994 128.691  1.00  0.00     0.042 C 
ATOM      3  C   UNL     1     113.197 123.502 128.818  1.00  0.00     0.042 C 
ENDROOT
BRANCH   1   4
ATOM      4  C   UNL     1     114.536 123.163 130.984  1.00  0.00     0.024 C 
ATOM      5  C   UNL     1     114.541 120.792 134.571  1.00  0.00     0.039 C 
ATOM      6  C   UNL     1     114.709 121.265 133.153  1.00  0.00    -0.077 C 
ATOM      7  C   UNL     1     115.780 121.996 132.808  1.00  0.00    -0.028 C 
ATOM      8  C   UNL     1     113.687 120.938 132.094  1.00  0.00     0.031 C 
ATOM      9  C   UNL     1     115.890 122.536 131.410  1.00  0.00     0.034 C 
ATOM     10  C   UNL     1     113.348 122.166 131.221  1.00  0.00     0.011 C 
ENDBRANCH   1   4
BRANCH   1  11
ATOM     11  O   UNL     1     114.841 125.103 129.562  1.00  0.00    -0.390 OA
ATOM     12  H   UNL     1     115.765 125.216 129.910  1.00  0.00     0.211 HD
ENDBRANCH   1  11
TORSDOF 2
ENDMDL
MODEL 7
REMARK VINA RESULT:    -4.705     12.167     13.708
REMARK INTER + INTRA:          -5.292
REMARK INTER:                  -5.122
REMARK INTRA:                  -0.170
REMARK UNBOUND:                -0.175
REMARK SMILES CC1=CC[C@@H](C(C)(C)O)CC1
REMARK SMILES IDX 6 1 7 2 8 3 5 4 1 5 2 6 3 7 11 8 4 9 10 10 9 11
REMARK H PARENT 9 12
REMARK Flexibility Score: inf
ROOT
ATOM      1  C   UNL     1     117.356 134.613 129.572  1.00  0.00     0.062 C 
ATOM      2  C   UNL     1     117.443 135.763 130.605  1.00  0.00     0.042 C 
ATOM      3  C   UNL     1     116.813 135.199 128.247  1.00  0.00     0.042 C 
ENDROOT
BRANCH   1   4
ATOM      4  C   UNL     1     118.774 133.973 129.365  1.00  0.00     0.024 C 
ATOM      5  C   UNL     1     122.752 132.380 129.720  1.00  0.00     0.039 C 
ATOM      6  C   UNL     1     121.362 132.871 130.018  1.00  0.00    -0.077 C 
ATOM      7  C   UNL     1     120.308 132.060 129.843  1.00  0.00    -0.028 C 
ATOM      8  C   UNL     1     121.119 134.276 130.510  1.00  0.00     0.031 C 
ATOM      9  C   UNL     1     118.919 132.593 130.059  1.00  0.00     0.034 C 
ATOM     10  C   UNL     1     119.932 134.945 129.783  1.00  0.00     0.011 C 
ENDBRANCH   1   4
BRANCH   1  11
ATOM     11  O   UNL     1     116.472 133.621 130.040  1.00  0.00    -0.390 OA
ATOM     12  H   UNL     1     116.353 133.751 131.017  1.00  0.00     0.211 HD
ENDBRANCH   1  11
TORSDOF 2
ENDMDL
MODEL 8
REMARK VINA RESULT:    -4.693      1.936      4.884
REMARK INTER + INTRA:          -5.280
REMARK INTER:                  -5.119
REMARK INTRA:                  -0.161
REMARK UNBOUND:                -0.175
REMARK SMILES CC1=CC[C@@H](C(C)(C)O)CC1
REMARK SMILES IDX 6 1 7 2 8 3 5 4 1 5 2 6 3 7 11 8 4 9 10 10 9 11
REMARK H PARENT 9 12
REMARK Flexibility Score: inf
ROOT
ATOM      1  C   UNL     1     114.438 121.158 129.493  1.00  0.00     0.062 C 
ATOM      2  C   UNL     1     115.687 121.890 128.944  1.00  0.00     0.042 C 
ATOM      3  C   UNL     1     114.039 120.063 128.476  1.00  0.00     0.042 C 
ENDROOT
BRANCH   1   4
ATOM      4  C   UNL     1     114.759 120.533 130.897  1.00  0.00     0.024 C 
ATOM      5  C   UNL     1     115.883 119.704 134.963  1.00  0.00     0.039 C 
ATOM      6  C   UNL     1     115.465 120.392 133.693  1.00  0.00    -0.077 C 
ATOM      7  C   UNL     1     114.175 120.397 133.321  1.00  0.00    -0.028 C 
ATOM      8  C   UNL     1     116.473 121.083 132.810  1.00  0.00     0.031 C 
ATOM      9  C   UNL     1     113.786 121.011 132.006  1.00  0.00     0.034 C 
ATOM     10  C   UNL     1     116.254 120.754 131.317  1.00  0.00     0.011 C 
ENDBRANCH   1   4
BRANCH   1  11
ATOM     11  O   UNL     1     113.375 122.072 129.634  1.00  0.00    -0.390 OA
ATOM     12  H   UNL     1     113.441 122.736 128.898  1.00  0.00     0.211 HD
ENDBRANCH   1  11
TORSDOF 2
ENDMDL
MODEL 9
REMARK VINA RESULT:    -4.654      1.512      1.984
REMARK INTER + INTRA:          -5.237
REMARK INTER:                  -5.090
REMARK INTRA:                  -0.148
REMARK UNBOUND:                -0.175
REMARK SMILES CC1=CC[C@@H](C(C)(C)O)CC1
REMARK SMILES IDX 6 1 7 2 8 3 5 4 1 5 2 6 3 7 11 8 4 9 10 10 9 11
REMARK H PARENT 9 12
REMARK Flexibility Score: inf
ROOT
ATOM      1  C   UNL     1     115.364 121.101 133.157  1.00  0.00     0.062 C 
ATOM      2  C   UNL     1     114.316 120.734 134.236  1.00  0.00     0.042 C 
ATOM      3  C   UNL     1     116.710 120.450 133.556  1.00  0.00     0.042 C 
ENDROOT
BRANCH   1   4
ATOM      4  C   UNL     1     114.886 120.591 131.752  1.00  0.00     0.024 C 
ATOM      5  C   UNL     1     113.834 120.054 127.618  1.00  0.00     0.039 C 
ATOM      6  C   UNL     1     114.439 120.557 128.899  1.00  0.00    -0.077 C 
ATOM      7  C   UNL     1     115.515 119.948 129.422  1.00  0.00    -0.028 C 
ATOM      8  C   UNL     1     113.856 121.742 129.627  1.00  0.00     0.031 C 
ATOM      9  C   UNL     1     116.054 120.405 130.749  1.00  0.00     0.034 C 
ATOM     10  C   UNL     1     113.753 121.493 131.147  1.00  0.00     0.011 C 
ENDBRANCH   1   4
BRANCH   1  11
ATOM     11  O   UNL     1     115.521 122.500 133.105  1.00  0.00    -0.390 OA
ATOM     12  H   UNL     1     114.697 122.916 133.473  1.00  0.00     0.211 HD
ENDBRANCH   1  11
TORSDOF 2
ENDMDL
