MODEL 1
REMARK VINA RESULT:    -3.544      0.000      0.000
REMARK INTER + INTRA:          -4.127
REMARK INTER:                  -4.269
REMARK INTRA:                   0.142
REMARK UNBOUND:                 0.142
REMARK SMILES CC[C@H](C)[C@H]([NH3+])C(=O)[O-]
REMARK SMILES IDX 3 1 4 2 5 3 6 4 7 8 8 9 9 10 2 11 1 12
REMARK H PARENT 6 5 6 6 6 7
REMARK Flexibility Score: inf
ROOT
ATOM      1  C   UNL     1      -1.971  26.819  16.643  1.00  0.00     0.050 C 
ATOM      2  C   UNL     1      -0.967  27.915  17.045  1.00  0.00     0.014 C 
ENDROOT
BRANCH   1   3
ATOM      3  C   UNL     1      -2.540  26.091  17.899  1.00  0.00     0.230 C 
BRANCH   3   4
ATOM      4  N   UNL     1      -3.865  26.592  18.301  1.00  0.00    -0.350 N 
ATOM      5  H   UNL     1      -3.785  27.360  19.005  1.00  0.00     0.345 HD
ATOM      6  H   UNL     1      -4.420  25.812  18.721  1.00  0.00     0.345 HD
ATOM      7  H   UNL     1      -4.390  26.941  17.467  1.00  0.00     0.345 HD
ENDBRANCH   3   4
BRANCH   3   8
ATOM      8  C   UNL     1      -1.564  26.151  19.050  1.00  0.00     0.099 C 
ATOM      9  O   UNL     1      -0.432  25.602  18.970  1.00  0.00    -0.544 OA
ATOM     10  O   UNL     1      -1.933  26.782  20.231  1.00  0.00    -0.544 OA
ENDBRANCH   3   8
ENDBRANCH   1   3
BRANCH   1  11
ATOM     11  C   UNL     1      -1.353  25.843  15.609  1.00  0.00     0.006 C 
ATOM     12  C   UNL     1      -1.622  24.375  15.945  1.00  0.00     0.004 C 
ENDBRANCH   1  11
TORSDOF 4
ENDMDL
MODEL 2
REMARK VINA RESULT:    -3.540      2.382      3.517
REMARK INTER + INTRA:          -4.122
REMARK INTER:                  -4.281
REMARK INTRA:                   0.159
REMARK UNBOUND:                 0.142
REMARK SMILES CC[C@H](C)[C@H]([NH3+])C(=O)[O-]
REMARK SMILES IDX 3 1 4 2 5 3 6 4 7 8 8 9 9 10 2 11 1 12
REMARK H PARENT 6 5 6 6 6 7
REMARK Flexibility Score: inf
ROOT
ATOM      1  C   UNL     1      -2.211  27.003  17.959  1.00  0.00     0.050 C 
ATOM      2  C   UNL     1      -3.604  26.675  17.390  1.00  0.00     0.014 C 
ENDROOT
BRANCH   1   3
ATOM      3  C   UNL     1      -1.085  26.581  16.966  1.00  0.00     0.230 C 
BRANCH   3   4
ATOM      4  N   UNL     1      -0.581  27.705  16.161  1.00  0.00    -0.350 N 
ATOM      5  H   UNL     1      -1.020  28.609  16.448  1.00  0.00     0.345 HD
ATOM      6  H   UNL     1      -0.800  27.536  15.152  1.00  0.00     0.345 HD
ATOM      7  H   UNL     1       0.457  27.781  16.251  1.00  0.00     0.345 HD
ENDBRANCH   3   4
BRANCH   3   8
ATOM      8  C   UNL     1      -1.538  25.441  16.086  1.00  0.00     0.099 C 
ATOM      9  O   UNL     1      -1.845  24.322  16.580  1.00  0.00    -0.544 OA
ATOM     10  O   UNL     1      -1.575  25.610  14.708  1.00  0.00    -0.544 OA
ENDBRANCH   3   8
ENDBRANCH   1   3
BRANCH   1  11
ATOM     11  C   UNL     1      -2.026  26.397  19.375  1.00  0.00     0.006 C 
ATOM     12  C   UNL     1      -0.689  25.672  19.538  1.00  0.00     0.004 C 
ENDBRANCH   1  11
TORSDOF 4
ENDMDL
MODEL 3
REMARK VINA RESULT:    -3.473      1.918      3.101
REMARK INTER + INTRA:          -4.042
REMARK INTER:                  -4.173
REMARK INTRA:                   0.131
REMARK UNBOUND:                 0.142
REMARK SMILES CC[C@H](C)[C@H]([NH3+])C(=O)[O-]
REMARK SMILES IDX 3 1 4 2 5 3 6 4 7 8 8 9 9 10 2 11 1 12
REMARK H PARENT 6 5 6 6 6 7
REMARK Flexibility Score: inf
ROOT
ATOM      1  C   UNL     1      -1.570  27.288  17.825  1.00  0.00     0.050 C 
ATOM      2  C   UNL     1      -0.873  26.364  18.840  1.00  0.00     0.014 C 
ENDROOT
BRANCH   1   3
ATOM      3  C   UNL     1      -2.750  26.555  17.116  1.00  0.00     0.230 C 
BRANCH   3   4
ATOM      4  N   UNL     1      -3.900  26.326  18.007  1.00  0.00    -0.350 N 
ATOM      5  H   UNL     1      -4.570  25.637  17.597  1.00  0.00     0.345 HD
ATOM      6  H   UNL     1      -4.405  27.228  18.163  1.00  0.00     0.345 HD
ATOM      7  H   UNL     1      -3.575  25.980  18.938  1.00  0.00     0.345 HD
ENDBRANCH   3   4
BRANCH   3   8
ATOM      8  C   UNL     1      -2.286  25.263  16.485  1.00  0.00     0.099 C 
ATOM      9  O   UNL     1      -2.450  24.159  17.072  1.00  0.00    -0.544 OA
ATOM     10  O   UNL     1      -1.629  25.294  15.262  1.00  0.00    -0.544 OA
ENDBRANCH   3   8
ENDBRANCH   1   3
BRANCH   1  11
ATOM     11  C   UNL     1      -0.551  27.896  16.827  1.00  0.00     0.006 C 
ATOM     12  C   UNL     1      -0.624  29.422  16.762  1.00  0.00     0.004 C 
ENDBRANCH   1  11
TORSDOF 4
ENDMDL
MODEL 4
REMARK VINA RESULT:    -3.427      1.819      2.648
REMARK INTER + INTRA:          -3.986
REMARK INTER:                  -4.110
REMARK INTRA:                   0.125
REMARK UNBOUND:                 0.142
REMARK SMILES CC[C@H](C)[C@H]([NH3+])C(=O)[O-]
REMARK SMILES IDX 3 1 4 2 5 3 6 4 7 8 8 9 9 10 2 11 1 12
REMARK H PARENT 6 5 6 6 6 7
REMARK Flexibility Score: inf
ROOT
ATOM      1  C   UNL     1      -2.552  26.375  16.721  1.00  0.00     0.050 C 
ATOM      2  C   UNL     1      -2.017  24.985  16.331  1.00  0.00     0.014 C 
ENDROOT
BRANCH   1   3
ATOM      3  C   UNL     1      -1.446  27.227  17.417  1.00  0.00     0.230 C 
BRANCH   3   4
ATOM      4  N   UNL     1      -0.389  27.660  16.489  1.00  0.00    -0.350 N 
ATOM      5  H   UNL     1       0.415  28.090  16.999  1.00  0.00     0.345 HD
ATOM      6  H   UNL     1      -0.777  28.369  15.825  1.00  0.00     0.345 HD
ATOM      7  H   UNL     1      -0.047  26.851  15.923  1.00  0.00     0.345 HD
ENDBRANCH   3   4
BRANCH   3   8
ATOM      8  C   UNL     1      -0.863  26.495  18.602  1.00  0.00     0.099 C 
ATOM      9  O   UNL     1       0.209  25.841  18.496  1.00  0.00    -0.544 OA
ATOM     10  O   UNL     1      -1.538  26.505  19.816  1.00  0.00    -0.544 OA
ENDBRANCH   3   8
ENDBRANCH   1   3
BRANCH   1  11
ATOM     11  C   UNL     1      -3.847  26.261  17.567  1.00  0.00     0.006 C 
ATOM     12  C   UNL     1      -4.876  27.339  17.222  1.00  0.00     0.004 C 
ENDBRANCH   1  11
TORSDOF 4
ENDMDL
MODEL 5
REMARK VINA RESULT:    -3.272      1.524      1.781
REMARK INTER + INTRA:          -3.799
REMARK INTER:                  -3.818
REMARK INTRA:                   0.019
REMARK UNBOUND:                 0.142
REMARK SMILES CC[C@H](C)[C@H]([NH3+])C(=O)[O-]
REMARK SMILES IDX 3 1 4 2 5 3 6 4 7 8 8 9 9 10 2 11 1 12
REMARK H PARENT 6 5 6 6 6 7
REMARK Flexibility Score: inf
ROOT
ATOM      1  C   UNL     1      -2.895  26.233  17.194  1.00  0.00     0.050 C 
ATOM      2  C   UNL     1      -4.191  27.052  17.053  1.00  0.00     0.014 C 
ENDROOT
BRANCH   1   3
ATOM      3  C   UNL     1      -1.769  27.075  17.868  1.00  0.00     0.230 C 
BRANCH   3   4
ATOM      4  N   UNL     1      -0.716  27.484  16.925  1.00  0.00    -0.350 N 
ATOM      5  H   UNL     1      -0.212  26.657  16.532  1.00  0.00     0.345 HD
ATOM      6  H   UNL     1      -0.022  28.092  17.418  1.00  0.00     0.345 HD
ATOM      7  H   UNL     1      -1.125  28.042  16.142  1.00  0.00     0.345 HD
ENDBRANCH   3   4
BRANCH   3   8
ATOM      8  C   UNL     1      -1.184  26.347  19.055  1.00  0.00     0.099 C 
ATOM      9  O   UNL     1      -0.159  25.624  18.930  1.00  0.00    -0.544 OA
ATOM     10  O   UNL     1      -1.806  26.439  20.293  1.00  0.00    -0.544 OA
ENDBRANCH   3   8
ENDBRANCH   1   3
BRANCH   1  11
ATOM     11  C   UNL     1      -2.462  25.627  15.833  1.00  0.00     0.006 C 
ATOM     12  C   UNL     1      -1.547  24.412  15.990  1.00  0.00     0.004 C 
ENDBRANCH   1  11
TORSDOF 4
ENDMDL
MODEL 6
REMARK VINA RESULT:    -3.237      1.982      3.069
REMARK INTER + INTRA:          -3.757
REMARK INTER:                  -3.739
REMARK INTRA:                  -0.019
REMARK UNBOUND:                 0.142
REMARK SMILES CC[C@H](C)[C@H]([NH3+])C(=O)[O-]
REMARK SMILES IDX 3 1 4 2 5 3 6 4 7 8 8 9 9 10 2 11 1 12
REMARK H PARENT 6 5 6 6 6 7
REMARK Flexibility Score: inf
ROOT
ATOM      1  C   UNL     1      -1.115  27.156  17.533  1.00  0.00     0.050 C 
ATOM      2  C   UNL     1      -0.918  28.627  17.123  1.00  0.00     0.014 C 
ENDROOT
BRANCH   1   3
ATOM      3  C   UNL     1      -2.326  26.522  16.782  1.00  0.00     0.230 C 
BRANCH   3   4
ATOM      4  N   UNL     1      -3.489  26.300  17.655  1.00  0.00    -0.350 N 
ATOM      5  H   UNL     1      -4.058  25.483  17.335  1.00  0.00     0.345 HD
ATOM      6  H   UNL     1      -4.098  27.150  17.648  1.00  0.00     0.345 HD
ATOM      7  H   UNL     1      -3.180  26.140  18.640  1.00  0.00     0.345 HD
ENDBRANCH   3   4
BRANCH   3   8
ATOM      8  C   UNL     1      -1.921  25.247  16.080  1.00  0.00     0.099 C 
ATOM      9  O   UNL     1      -2.021  24.130  16.657  1.00  0.00    -0.544 OA
ATOM     10  O   UNL     1      -1.390  25.307  14.798  1.00  0.00    -0.544 OA
ENDBRANCH   3   8
ENDBRANCH   1   3
BRANCH   1  11
ATOM     11  C   UNL     1      -1.218  27.012  19.074  1.00  0.00     0.006 C 
ATOM     12  C   UNL     1      -0.813  25.621  19.566  1.00  0.00     0.004 C 
ENDBRANCH   1  11
TORSDOF 4
ENDMDL
MODEL 7
REMARK VINA RESULT:    -2.989      0.672      2.023
REMARK INTER + INTRA:          -3.458
REMARK INTER:                  -3.339
REMARK INTRA:                  -0.120
REMARK UNBOUND:                 0.142
REMARK SMILES CC[C@H](C)[C@H]([NH3+])C(=O)[O-]
REMARK SMILES IDX 3 1 4 2 5 3 6 4 7 8 8 9 9 10 2 11 1 12
REMARK H PARENT 6 5 6 6 6 7
REMARK Flexibility Score: inf
ROOT
ATOM      1  C   UNL     1      -1.391  26.450  16.787  1.00  0.00     0.050 C 
ATOM      2  C   UNL     1      -1.635  25.618  15.515  1.00  0.00     0.014 C 
ENDROOT
BRANCH   1   3
ATOM      3  C   UNL     1      -2.152  25.846  18.007  1.00  0.00     0.230 C 
BRANCH   3   4
ATOM      4  N   UNL     1      -3.500  26.412  18.177  1.00  0.00    -0.350 N 
ATOM      5  H   UNL     1      -3.478  27.290  18.743  1.00  0.00     0.345 HD
ATOM      6  H   UNL     1      -4.111  25.717  18.667  1.00  0.00     0.345 HD
ATOM      7  H   UNL     1      -3.932  26.611  17.247  1.00  0.00     0.345 HD
ENDBRANCH   3   4
BRANCH   3   8
ATOM      8  C   UNL     1      -1.341  25.981  19.274  1.00  0.00     0.099 C 
ATOM      9  O   UNL     1      -0.128  25.641  19.306  1.00  0.00    -0.544 OA
ATOM     10  O   UNL     1      -1.951  26.444  20.433  1.00  0.00    -0.544 OA
ENDBRANCH   3   8
ENDBRANCH   1   3
BRANCH   1  11
ATOM     11  C   UNL     1      -1.720  27.947  16.551  1.00  0.00     0.006 C 
ATOM     12  C   UNL     1      -0.503  28.856  16.732  1.00  0.00     0.004 C 
ENDBRANCH   1  11
TORSDOF 4
ENDMDL
MODEL 8
REMARK VINA RESULT:    -2.952      2.478      3.514
REMARK INTER + INTRA:          -3.414
REMARK INTER:                  -3.286
REMARK INTRA:                  -0.128
REMARK UNBOUND:                 0.142
REMARK SMILES CC[C@H](C)[C@H]([NH3+])C(=O)[O-]
REMARK SMILES IDX 3 1 4 2 5 3 6 4 7 8 8 9 9 10 2 11 1 12
REMARK H PARENT 6 5 6 6 6 7
REMARK Flexibility Score: inf
ROOT
ATOM      1  C   UNL     1      -2.292  26.302  18.090  1.00  0.00     0.050 C 
ATOM      2  C   UNL     1      -1.737  26.476  19.515  1.00  0.00     0.014 C 
ENDROOT
BRANCH   1   3
ATOM      3  C   UNL     1      -1.138  26.104  17.059  1.00  0.00     0.230 C 
BRANCH   3   4
ATOM      4  N   UNL     1      -0.727  27.359  16.411  1.00  0.00    -0.350 N 
ATOM      5  H   UNL     1      -0.024  27.188  15.657  1.00  0.00     0.345 HD
ATOM      6  H   UNL     1      -0.301  27.996  17.123  1.00  0.00     0.345 HD
ATOM      7  H   UNL     1      -1.556  27.848  16.005  1.00  0.00     0.345 HD
ENDBRANCH   3   4
BRANCH   3   8
ATOM      8  C   UNL     1      -1.500  25.055  16.034  1.00  0.00     0.099 C 
ATOM      9  O   UNL     1      -1.924  23.922  16.388  1.00  0.00    -0.544 OA
ATOM     10  O   UNL     1      -1.324  25.326  14.684  1.00  0.00    -0.544 OA
ENDBRANCH   3   8
ENDBRANCH   1   3
BRANCH   1  11
ATOM     11  C   UNL     1      -3.244  27.466  17.712  1.00  0.00     0.006 C 
ATOM     12  C   UNL     1      -4.606  26.979  17.215  1.00  0.00     0.004 C 
ENDBRANCH   1  11
TORSDOF 4
ENDMDL
MODEL 9
REMARK VINA RESULT:    -2.873      2.311      3.250
REMARK INTER + INTRA:          -3.318
REMARK INTER:                  -3.188
REMARK INTRA:                  -0.130
REMARK UNBOUND:                 0.142
REMARK SMILES CC[C@H](C)[C@H]([NH3+])C(=O)[O-]
REMARK SMILES IDX 3 1 4 2 5 3 6 4 7 8 8 9 9 10 2 11 1 12
REMARK H PARENT 6 5 6 6 6 7
REMARK Flexibility Score: inf
ROOT
ATOM      1  C   UNL     1      -1.433  26.718  17.871  1.00  0.00     0.050 C 
ATOM      2  C   UNL     1      -0.600  25.740  18.719  1.00  0.00     0.014 C 
ENDROOT
BRANCH   1   3
ATOM      3  C   UNL     1      -2.645  25.993  17.209  1.00  0.00     0.230 C 
BRANCH   3   4
ATOM      4  N   UNL     1      -2.435  25.715  15.779  1.00  0.00    -0.350 N 
ATOM      5  H   UNL     1      -3.311  25.860  15.228  1.00  0.00     0.345 HD
ATOM      6  H   UNL     1      -2.128  24.723  15.658  1.00  0.00     0.345 HD
ATOM      7  H   UNL     1      -1.681  26.329  15.396  1.00  0.00     0.345 HD
ENDBRANCH   3   4
BRANCH   3   8
ATOM      8  C   UNL     1      -3.925  26.764  17.430  1.00  0.00     0.099 C 
ATOM      9  O   UNL     1      -4.294  27.087  18.592  1.00  0.00    -0.544 OA
ATOM     10  O   UNL     1      -4.731  27.083  16.345  1.00  0.00    -0.544 OA
ENDBRANCH   3   8
ENDBRANCH   1   3
BRANCH   1  11
ATOM     11  C   UNL     1      -0.546  27.469  16.845  1.00  0.00     0.006 C 
ATOM     12  C   UNL     1      -0.873  28.961  16.759  1.00  0.00     0.004 C 
ENDBRANCH   1  11
TORSDOF 4
ENDMDL
