MODEL 1
REMARK VINA RESULT:    -3.960      0.000      0.000
REMARK INTER + INTRA:          -4.279
REMARK INTER:                  -4.191
REMARK INTRA:                  -0.088
REMARK UNBOUND:                -0.088
REMARK SMILES C=C(C)[C@H]1CC=C(C)C(=O)C1
REMARK SMILES IDX 8 1 7 2 6 3 5 4 4 5 11 6 9 7 10 8 2 9 1 10 3 11
REMARK H PARENT
REMARK Flexibility Score: inf
ROOT
ATOM      1  C   UNL     1     -33.820  -3.219  61.589  1.00  0.00     0.048 C 
ATOM      2  C   UNL     1     -33.373  -1.912  60.995  1.00  0.00    -0.012 C 
ATOM      3  C   UNL     1     -32.374  -1.892  60.097  1.00  0.00    -0.019 C 
ATOM      4  C   UNL     1     -31.875  -0.609  59.485  1.00  0.00     0.036 C 
ATOM      5  C   UNL     1     -33.016   0.413  59.337  1.00  0.00     0.025 C 
ATOM      6  C   UNL     1     -33.708   0.645  60.691  1.00  0.00     0.089 C 
ATOM      7  C   UNL     1     -34.116  -0.666  61.308  1.00  0.00     0.158 C 
ATOM      8  O   UNL     1     -35.077  -0.687  62.123  1.00  0.00    -0.295 OA
ENDROOT
BRANCH   5   9
ATOM      9  C   UNL     1     -32.517   1.721  58.736  1.00  0.00    -0.077 C 
ATOM     10  C   UNL     1     -32.565   1.914  57.408  1.00  0.00     0.008 C 
ATOM     11  C   UNL     1     -31.964   2.824  59.604  1.00  0.00     0.039 C 
ENDBRANCH   5   9
TORSDOF 1
ENDMDL
MODEL 2
REMARK VINA RESULT:    -3.727      1.458      2.351
REMARK INTER + INTRA:          -4.033
REMARK INTER:                  -3.946
REMARK INTRA:                  -0.087
REMARK UNBOUND:                -0.088
REMARK SMILES C=C(C)[C@H]1CC=C(C)C(=O)C1
REMARK SMILES IDX 8 1 7 2 6 3 5 4 4 5 11 6 9 7 10 8 2 9 1 10 3 11
REMARK H PARENT
REMARK Flexibility Score: inf
ROOT
ATOM      1  C   UNL     1     -34.802  -1.525  62.058  1.00  0.00     0.048 C 
ATOM      2  C   UNL     1     -34.236  -0.647  60.975  1.00  0.00    -0.012 C 
ATOM      3  C   UNL     1     -34.932   0.420  60.547  1.00  0.00    -0.019 C 
ATOM      4  C   UNL     1     -34.421   1.320  59.454  1.00  0.00     0.036 C 
ATOM      5  C   UNL     1     -32.885   1.410  59.484  1.00  0.00     0.025 C 
ATOM      6  C   UNL     1     -32.264   0.004  59.417  1.00  0.00     0.089 C 
ATOM      7  C   UNL     1     -32.861  -0.889  60.471  1.00  0.00     0.158 C 
ATOM      8  O   UNL     1     -32.192  -1.868  60.897  1.00  0.00    -0.295 OA
ENDROOT
BRANCH   5   9
ATOM      9  C   UNL     1     -32.357   2.304  58.369  1.00  0.00    -0.077 C 
ATOM     10  C   UNL     1     -31.875   3.525  58.655  1.00  0.00     0.008 C 
ATOM     11  C   UNL     1     -32.358   1.851  56.930  1.00  0.00     0.039 C 
ENDBRANCH   5   9
TORSDOF 1
ENDMDL
MODEL 3
REMARK VINA RESULT:    -3.684      1.820      3.032
REMARK INTER + INTRA:          -3.987
REMARK INTER:                  -3.889
REMARK INTRA:                  -0.098
REMARK UNBOUND:                -0.088
REMARK SMILES C=C(C)[C@H]1CC=C(C)C(=O)C1
REMARK SMILES IDX 8 1 7 2 6 3 5 4 4 5 11 6 9 7 10 8 2 9 1 10 3 11
REMARK H PARENT
REMARK Flexibility Score: inf
ROOT
ATOM      1  C   UNL     1     -32.183  -1.176  59.884  1.00  0.00     0.048 C 
ATOM      2  C   UNL     1     -32.547   0.124  59.221  1.00  0.00    -0.012 C 
ATOM      3  C   UNL     1     -31.875   0.529  58.130  1.00  0.00    -0.019 C 
ATOM      4  C   UNL     1     -32.186   1.830  57.439  1.00  0.00     0.036 C 
ATOM      5  C   UNL     1     -33.683   2.171  57.548  1.00  0.00     0.025 C 
ATOM      6  C   UNL     1     -34.125   2.175  59.022  1.00  0.00     0.089 C 
ATOM      7  C   UNL     1     -33.723   0.893  59.698  1.00  0.00     0.158 C 
ATOM      8  O   UNL     1     -34.377   0.496  60.700  1.00  0.00    -0.295 OA
ENDROOT
BRANCH   5   9
ATOM      9  C   UNL     1     -34.004   3.496  56.868  1.00  0.00    -0.077 C 
ATOM     10  C   UNL     1     -34.136   4.614  57.599  1.00  0.00     0.008 C 
ATOM     11  C   UNL     1     -34.180   3.589  55.372  1.00  0.00     0.039 C 
ENDBRANCH   5   9
TORSDOF 1
ENDMDL
MODEL 4
REMARK VINA RESULT:    -3.634      4.502      5.529
REMARK INTER + INTRA:          -3.934
REMARK INTER:                  -3.836
REMARK INTRA:                  -0.098
REMARK UNBOUND:                -0.088
REMARK SMILES C=C(C)[C@H]1CC=C(C)C(=O)C1
REMARK SMILES IDX 8 1 7 2 6 3 5 4 4 5 11 6 9 7 10 8 2 9 1 10 3 11
REMARK H PARENT
REMARK Flexibility Score: inf
ROOT
ATOM      1  C   UNL     1     -33.474   1.991  55.387  1.00  0.00     0.048 C 
ATOM      2  C   UNL     1     -33.277   2.724  56.685  1.00  0.00    -0.012 C 
ATOM      3  C   UNL     1     -32.319   2.323  57.539  1.00  0.00    -0.019 C 
ATOM      4  C   UNL     1     -32.091   3.009  58.860  1.00  0.00     0.036 C 
ATOM      5  C   UNL     1     -32.408   4.512  58.765  1.00  0.00     0.025 C 
ATOM      6  C   UNL     1     -33.838   4.726  58.239  1.00  0.00     0.089 C 
ATOM      7  C   UNL     1     -34.052   3.958  56.962  1.00  0.00     0.158 C 
ATOM      8  O   UNL     1     -34.925   4.356  56.145  1.00  0.00    -0.295 OA
ENDROOT
BRANCH   5   9
ATOM      9  C   UNL     1     -32.198   5.212  60.102  1.00  0.00    -0.077 C 
ATOM     10  C   UNL     1     -32.297   4.519  61.248  1.00  0.00     0.008 C 
ATOM     11  C   UNL     1     -31.876   6.684  60.177  1.00  0.00     0.039 C 
ENDBRANCH   5   9
TORSDOF 1
ENDMDL
MODEL 5
REMARK VINA RESULT:    -3.597     13.843     14.988
REMARK INTER + INTRA:          -3.895
REMARK INTER:                  -3.797
REMARK INTRA:                  -0.098
REMARK UNBOUND:                -0.088
REMARK SMILES C=C(C)[C@H]1CC=C(C)C(=O)C1
REMARK SMILES IDX 8 1 7 2 6 3 5 4 4 5 11 6 9 7 10 8 2 9 1 10 3 11
REMARK H PARENT
REMARK Flexibility Score: inf
ROOT
ATOM      1  C   UNL     1     -35.981  -3.684  48.971  1.00  0.00     0.048 C 
ATOM      2  C   UNL     1     -35.630  -4.811  48.040  1.00  0.00    -0.012 C 
ATOM      3  C   UNL     1     -35.209  -4.541  46.792  1.00  0.00    -0.019 C 
ATOM      4  C   UNL     1     -34.863  -5.632  45.813  1.00  0.00     0.036 C 
ATOM      5  C   UNL     1     -34.279  -6.859  46.535  1.00  0.00     0.025 C 
ATOM      6  C   UNL     1     -35.245  -7.346  47.630  1.00  0.00     0.089 C 
ATOM      7  C   UNL     1     -35.631  -6.209  48.538  1.00  0.00     0.158 C 
ATOM      8  O   UNL     1     -35.991  -6.462  49.719  1.00  0.00    -0.295 OA
ENDROOT
BRANCH   5   9
ATOM      9  C   UNL     1     -33.944  -7.975  45.555  1.00  0.00    -0.077 C 
ATOM     10  C   UNL     1     -34.269  -7.853  44.257  1.00  0.00     0.008 C 
ATOM     11  C   UNL     1     -33.245  -9.234  46.005  1.00  0.00     0.039 C 
ENDBRANCH   5   9
TORSDOF 1
ENDMDL
MODEL 6
REMARK VINA RESULT:    -3.597      2.615      4.466
REMARK INTER + INTRA:          -3.895
REMARK INTER:                  -3.799
REMARK INTRA:                  -0.096
REMARK UNBOUND:                -0.088
REMARK SMILES C=C(C)[C@H]1CC=C(C)C(=O)C1
REMARK SMILES IDX 8 1 7 2 6 3 5 4 4 5 11 6 9 7 10 8 2 9 1 10 3 11
REMARK H PARENT
REMARK Flexibility Score: inf
ROOT
ATOM      1  C   UNL     1     -33.660   2.377  55.375  1.00  0.00     0.048 C 
ATOM      2  C   UNL     1     -33.423   2.039  56.821  1.00  0.00    -0.012 C 
ATOM      3  C   UNL     1     -32.167   1.883  57.274  1.00  0.00    -0.019 C 
ATOM      4  C   UNL     1     -31.875   1.527  58.708  1.00  0.00     0.036 C 
ATOM      5  C   UNL     1     -32.927   2.131  59.654  1.00  0.00     0.025 C 
ATOM      6  C   UNL     1     -34.342   1.704  59.226  1.00  0.00     0.089 C 
ATOM      7  C   UNL     1     -34.566   2.001  57.767  1.00  0.00     0.158 C 
ATOM      8  O   UNL     1     -35.741   2.183  57.351  1.00  0.00    -0.295 OA
ENDROOT
BRANCH   5   9
ATOM      9  C   UNL     1     -32.651   1.760  61.105  1.00  0.00    -0.077 C 
ATOM     10  C   UNL     1     -32.829   0.496  61.523  1.00  0.00     0.008 C 
ATOM     11  C   UNL     1     -32.175   2.787  62.103  1.00  0.00     0.039 C 
ENDBRANCH   5   9
TORSDOF 1
ENDMDL
MODEL 7
REMARK VINA RESULT:    -3.558     21.567     22.692
REMARK INTER + INTRA:          -3.853
REMARK INTER:                  -3.756
REMARK INTRA:                  -0.097
REMARK UNBOUND:                -0.088
REMARK SMILES C=C(C)[C@H]1CC=C(C)C(=O)C1
REMARK SMILES IDX 8 1 7 2 6 3 5 4 4 5 11 6 9 7 10 8 2 9 1 10 3 11
REMARK H PARENT
REMARK Flexibility Score: inf
ROOT
ATOM      1  C   UNL     1     -49.877  -1.796  44.126  1.00  0.00     0.048 C 
ATOM      2  C   UNL     1     -50.228  -0.478  44.759  1.00  0.00    -0.012 C 
ATOM      3  C   UNL     1     -51.381  -0.348  45.438  1.00  0.00    -0.019 C 
ATOM      4  C   UNL     1     -51.790   0.953  46.076  1.00  0.00     0.036 C 
ATOM      5  C   UNL     1     -50.561   1.743  46.559  1.00  0.00     0.025 C 
ATOM      6  C   UNL     1     -49.567   1.949  45.403  1.00  0.00     0.089 C 
ATOM      7  C   UNL     1     -49.248   0.636  44.739  1.00  0.00     0.158 C 
ATOM      8  O   UNL     1     -48.151   0.505  44.134  1.00  0.00    -0.295 OA
ENDROOT
BRANCH   5   9
ATOM      9  C   UNL     1     -50.963   3.070  47.189  1.00  0.00    -0.077 C 
ATOM     10  C   UNL     1     -51.981   3.780  46.674  1.00  0.00     0.008 C 
ATOM     11  C   UNL     1     -50.241   3.620  48.394  1.00  0.00     0.039 C 
ENDBRANCH   5   9
TORSDOF 1
ENDMDL
MODEL 8
REMARK VINA RESULT:    -3.536      3.395      5.333
REMARK INTER + INTRA:          -3.831
REMARK INTER:                  -3.733
REMARK INTRA:                  -0.098
REMARK UNBOUND:                -0.088
REMARK SMILES C=C(C)[C@H]1CC=C(C)C(=O)C1
REMARK SMILES IDX 8 1 7 2 6 3 5 4 4 5 11 6 9 7 10 8 2 9 1 10 3 11
REMARK H PARENT
REMARK Flexibility Score: inf
ROOT
ATOM      1  C   UNL     1     -31.884   0.719  58.129  1.00  0.00     0.048 C 
ATOM      2  C   UNL     1     -32.651   1.799  57.417  1.00  0.00    -0.012 C 
ATOM      3  C   UNL     1     -32.991   1.636  56.126  1.00  0.00    -0.019 C 
ATOM      4  C   UNL     1     -33.742   2.693  55.360  1.00  0.00     0.036 C 
ATOM      5  C   UNL     1     -34.704   3.465  56.280  1.00  0.00     0.025 C 
ATOM      6  C   UNL     1     -33.941   4.051  57.482  1.00  0.00     0.089 C 
ATOM      7  C   UNL     1     -33.138   2.981  58.170  1.00  0.00     0.158 C 
ATOM      8  O   UNL     1     -32.852   3.117  59.390  1.00  0.00    -0.295 OA
ENDROOT
BRANCH   5   9
ATOM      9  C   UNL     1     -35.455   4.549  55.517  1.00  0.00    -0.077 C 
ATOM     10  C   UNL     1     -35.035   5.823  55.569  1.00  0.00     0.008 C 
ATOM     11  C   UNL     1     -36.676   4.227  54.692  1.00  0.00     0.039 C 
ENDBRANCH   5   9
TORSDOF 1
ENDMDL
