MODEL 1
REMARK VINA RESULT:    -2.830      0.000      0.000
REMARK INTER + INTRA:          -3.985
REMARK INTER:                  -3.658
REMARK INTRA:                  -0.327
REMARK UNBOUND:                -0.327
REMARK SMILES CCCCCCC(=O)[O-]
REMARK SMILES IDX 5 1 6 2 7 3 8 4 9 5 4 6 3 7 2 8 1 9
REMARK H PARENT
REMARK Flexibility Score: inf
ROOT
ATOM      1  C   UNL     1      22.186  24.322  19.149  1.00  0.00     0.006 C 
ENDROOT
BRANCH   1   2
ATOM      2  C   UNL     1      21.269  24.353  17.919  1.00  0.00     0.053 C 
BRANCH   2   3
ATOM      3  C   UNL     1      19.838  24.463  18.339  1.00  0.00     0.041 C 
ATOM      4  O   UNL     1      18.960  24.827  17.513  1.00  0.00    -0.550 OA
ATOM      5  O   UNL     1      19.463  24.118  19.632  1.00  0.00    -0.550 OA
ENDBRANCH   2   3
ENDBRANCH   1   2
BRANCH   1   6
ATOM      6  C   UNL     1      22.963  23.002  19.277  1.00  0.00     0.000 C 
BRANCH   6   7
ATOM      7  C   UNL     1      22.221  21.960  20.131  1.00  0.00    -0.000 C 
BRANCH   7   8
ATOM      8  C   UNL     1      21.559  20.865  19.280  1.00  0.00    -0.003 C 
ATOM      9  C   UNL     1      22.560  20.095  18.420  1.00  0.00     0.004 C 
ENDBRANCH   7   8
ENDBRANCH   6   7
ENDBRANCH   1   6
TORSDOF 5
ENDMDL
MODEL 2
REMARK VINA RESULT:    -2.663      2.807      4.358
REMARK INTER + INTRA:          -3.769
REMARK INTER:                  -3.526
REMARK INTRA:                  -0.243
REMARK UNBOUND:                -0.327
REMARK SMILES CCCCCCC(=O)[O-]
REMARK SMILES IDX 5 1 6 2 7 3 8 4 9 5 4 6 3 7 2 8 1 9
REMARK H PARENT
REMARK Flexibility Score: inf
ROOT
ATOM      1  C   UNL     1      22.754  22.350  19.901  1.00  0.00     0.006 C 
ENDROOT
BRANCH   1   2
ATOM      2  C   UNL     1      21.507  21.578  19.449  1.00  0.00     0.053 C 
BRANCH   2   3
ATOM      3  C   UNL     1      21.868  20.172  19.086  1.00  0.00     0.041 C 
ATOM      4  O   UNL     1      21.312  19.204  19.668  1.00  0.00    -0.550 OA
ATOM      5  O   UNL     1      22.785  19.929  18.071  1.00  0.00    -0.550 OA
ENDBRANCH   2   3
ENDBRANCH   1   2
BRANCH   1   6
ATOM      6  C   UNL     1      22.748  23.813  19.431  1.00  0.00     0.000 C 
BRANCH   6   7
ATOM      7  C   UNL     1      21.877  24.030  18.183  1.00  0.00    -0.000 C 
BRANCH   7   8
ATOM      8  C   UNL     1      20.818  25.125  18.387  1.00  0.00    -0.003 C 
ATOM      9  C   UNL     1      19.461  24.756  17.788  1.00  0.00     0.004 C 
ENDBRANCH   7   8
ENDBRANCH   6   7
ENDBRANCH   1   6
TORSDOF 5
ENDMDL
MODEL 3
REMARK VINA RESULT:    -2.440      1.235      1.842
REMARK INTER + INTRA:          -3.480
REMARK INTER:                  -3.090
REMARK INTRA:                  -0.390
REMARK UNBOUND:                -0.327
REMARK SMILES CCCCCCC(=O)[O-]
REMARK SMILES IDX 5 1 6 2 7 3 8 4 9 5 4 6 3 7 2 8 1 9
REMARK H PARENT
REMARK Flexibility Score: inf
ROOT
ATOM      1  C   UNL     1      22.827  22.951  19.237  1.00  0.00     0.006 C 
ENDROOT
BRANCH   1   2
ATOM      2  C   UNL     1      21.786  23.803  19.975  1.00  0.00     0.053 C 
BRANCH   2   3
ATOM      3  C   UNL     1      20.516  23.874  19.187  1.00  0.00     0.041 C 
ATOM      4  O   UNL     1      20.522  23.630  17.952  1.00  0.00    -0.550 OA
ATOM      5  O   UNL     1      19.317  24.164  19.825  1.00  0.00    -0.550 OA
ENDBRANCH   2   3
ENDBRANCH   1   2
BRANCH   1   6
ATOM      6  C   UNL     1      22.894  21.508  19.761  1.00  0.00     0.000 C 
BRANCH   6   7
ATOM      7  C   UNL     1      22.132  20.518  18.865  1.00  0.00    -0.000 C 
BRANCH   7   8
ATOM      8  C   UNL     1      21.162  19.630  19.660  1.00  0.00    -0.003 C 
ATOM      9  C   UNL     1      19.811  20.300  19.906  1.00  0.00     0.004 C 
ENDBRANCH   7   8
ENDBRANCH   6   7
ENDBRANCH   1   6
TORSDOF 5
ENDMDL
MODEL 4
REMARK VINA RESULT:    -2.418     11.249     13.133
REMARK INTER + INTRA:          -3.451
REMARK INTER:                  -3.145
REMARK INTRA:                  -0.306
REMARK UNBOUND:                -0.327
REMARK SMILES CCCCCCC(=O)[O-]
REMARK SMILES IDX 5 1 6 2 7 3 8 4 9 5 4 6 3 7 2 8 1 9
REMARK H PARENT
REMARK Flexibility Score: inf
ROOT
ATOM      1  C   UNL     1      18.570  11.652  16.705  1.00  0.00     0.006 C 
ENDROOT
BRANCH   1   2
ATOM      2  C   UNL     1      19.698  12.145  17.622  1.00  0.00     0.053 C 
BRANCH   2   3
ATOM      3  C   UNL     1      21.021  12.018  16.935  1.00  0.00     0.041 C 
ATOM      4  O   UNL     1      21.587  10.897  16.853  1.00  0.00    -0.550 OA
ATOM      5  O   UNL     1      21.607  13.130  16.344  1.00  0.00    -0.550 OA
ENDBRANCH   2   3
ENDBRANCH   1   2
BRANCH   1   6
ATOM      6  C   UNL     1      17.989  10.301  17.152  1.00  0.00     0.000 C 
BRANCH   6   7
ATOM      7  C   UNL     1      18.276   9.173  16.147  1.00  0.00    -0.000 C 
BRANCH   7   8
ATOM      8  C   UNL     1      19.372   8.213  16.636  1.00  0.00    -0.003 C 
ATOM      9  C   UNL     1      20.248   7.685  15.501  1.00  0.00     0.004 C 
ENDBRANCH   7   8
ENDBRANCH   6   7
ENDBRANCH   1   6
TORSDOF 5
ENDMDL
MODEL 5
REMARK VINA RESULT:    -2.347      2.084      3.100
REMARK INTER + INTRA:          -3.360
REMARK INTER:                  -2.988
REMARK INTRA:                  -0.372
REMARK UNBOUND:                -0.327
REMARK SMILES CCCCCCC(=O)[O-]
REMARK SMILES IDX 5 1 6 2 7 3 8 4 9 5 4 6 3 7 2 8 1 9
REMARK H PARENT
REMARK Flexibility Score: inf
ROOT
ATOM      1  C   UNL     1      22.730  21.091  19.138  1.00  0.00     0.006 C 
ENDROOT
BRANCH   1   2
ATOM      2  C   UNL     1      22.355  22.383  19.877  1.00  0.00     0.053 C 
BRANCH   2   3
ATOM      3  C   UNL     1      22.034  23.468  18.900  1.00  0.00     0.041 C 
ATOM      4  O   UNL     1      21.062  23.344  18.110  1.00  0.00    -0.550 OA
ATOM      5  O   UNL     1      22.780  24.640  18.893  1.00  0.00    -0.550 OA
ENDBRANCH   2   3
ENDBRANCH   1   2
BRANCH   1   6
ATOM      6  C   UNL     1      21.644  20.008  19.246  1.00  0.00     0.000 C 
BRANCH   6   7
ATOM      7  C   UNL     1      20.681  20.252  20.420  1.00  0.00    -0.000 C 
BRANCH   7   8
ATOM      8  C   UNL     1      19.207  20.100  20.015  1.00  0.00    -0.003 C 
ATOM      9  C   UNL     1      18.559  21.427  19.622  1.00  0.00     0.004 C 
ENDBRANCH   7   8
ENDBRANCH   6   7
ENDBRANCH   1   6
TORSDOF 5
ENDMDL
MODEL 6
REMARK VINA RESULT:    -2.338     16.320     17.304
REMARK INTER + INTRA:          -3.349
REMARK INTER:                  -3.187
REMARK INTRA:                  -0.162
REMARK UNBOUND:                -0.327
REMARK SMILES CCCCCCC(=O)[O-]
REMARK SMILES IDX 5 1 6 2 7 3 8 4 9 5 4 6 3 7 2 8 1 9
REMARK H PARENT
REMARK Flexibility Score: inf
ROOT
ATOM      1  C   UNL     1      25.196   6.558  16.558  1.00  0.00     0.006 C 
ENDROOT
BRANCH   1   2
ATOM      2  C   UNL     1      24.983   6.368  15.050  1.00  0.00     0.053 C 
BRANCH   2   3
ATOM      3  C   UNL     1      23.894   5.374  14.798  1.00  0.00     0.041 C 
ATOM      4  O   UNL     1      23.249   4.883  15.761  1.00  0.00    -0.550 OA
ATOM      5  O   UNL     1      23.559   5.025  13.496  1.00  0.00    -0.550 OA
ENDBRANCH   2   3
ENDBRANCH   1   2
BRANCH   1   6
ATOM      6  C   UNL     1      24.832   7.973  17.036  1.00  0.00     0.000 C 
BRANCH   6   7
ATOM      7  C   UNL     1      25.049   8.160  18.547  1.00  0.00    -0.000 C 
BRANCH   7   8
ATOM      8  C   UNL     1      26.489   8.574  18.888  1.00  0.00    -0.003 C 
ATOM      9  C   UNL     1      27.091   7.747  20.024  1.00  0.00     0.004 C 
ENDBRANCH   7   8
ENDBRANCH   6   7
ENDBRANCH   1   6
TORSDOF 5
ENDMDL
MODEL 7
REMARK VINA RESULT:    -2.331     16.875     17.768
REMARK INTER + INTRA:          -3.339
REMARK INTER:                  -3.153
REMARK INTRA:                  -0.185
REMARK UNBOUND:                -0.327
REMARK SMILES CCCCCCC(=O)[O-]
REMARK SMILES IDX 5 1 6 2 7 3 8 4 9 5 4 6 3 7 2 8 1 9
REMARK H PARENT
REMARK Flexibility Score: inf
ROOT
ATOM      1  C   UNL     1      26.091   6.901  17.002  1.00  0.00     0.006 C 
ENDROOT
BRANCH   1   2
ATOM      2  C   UNL     1      25.876   6.372  18.426  1.00  0.00     0.053 C 
BRANCH   2   3
ATOM      3  C   UNL     1      26.958   6.865  19.334  1.00  0.00     0.041 C 
ATOM      4  O   UNL     1      27.086   8.098  19.556  1.00  0.00    -0.550 OA
ATOM      5  O   UNL     1      27.795   5.960  19.974  1.00  0.00    -0.550 OA
ENDBRANCH   2   3
ENDBRANCH   1   2
BRANCH   1   6
ATOM      6  C   UNL     1      24.801   6.901  16.167  1.00  0.00     0.000 C 
BRANCH   6   7
ATOM      7  C   UNL     1      24.988   6.244  14.789  1.00  0.00    -0.000 C 
BRANCH   7   8
ATOM      8  C   UNL     1      23.960   5.135  14.520  1.00  0.00    -0.003 C 
ATOM      9  C   UNL     1      22.769   5.185  15.476  1.00  0.00     0.004 C 
ENDBRANCH   7   8
ENDBRANCH   6   7
ENDBRANCH   1   6
TORSDOF 5
ENDMDL
MODEL 8
REMARK VINA RESULT:    -2.249     16.062     16.989
REMARK INTER + INTRA:          -3.233
REMARK INTER:                  -2.998
REMARK INTRA:                  -0.235
REMARK UNBOUND:                -0.327
REMARK SMILES CCCCCCC(=O)[O-]
REMARK SMILES IDX 5 1 6 2 7 3 8 4 9 5 4 6 3 7 2 8 1 9
REMARK H PARENT
REMARK Flexibility Score: inf
ROOT
ATOM      1  C   UNL     1      24.686   7.768  17.231  1.00  0.00     0.006 C 
ENDROOT
BRANCH   1   2
ATOM      2  C   UNL     1      24.225   6.327  16.974  1.00  0.00     0.053 C 
BRANCH   2   3
ATOM      3  C   UNL     1      24.111   6.071  15.505  1.00  0.00     0.041 C 
ATOM      4  O   UNL     1      23.014   5.703  15.008  1.00  0.00    -0.550 OA
ATOM      5  O   UNL     1      25.205   6.283  14.675  1.00  0.00    -0.550 OA
ENDBRANCH   2   3
ENDBRANCH   1   2
BRANCH   1   6
ATOM      6  C   UNL     1      26.169   7.856  17.627  1.00  0.00     0.000 C 
BRANCH   6   7
ATOM      7  C   UNL     1      26.389   8.662  18.918  1.00  0.00    -0.000 C 
BRANCH   7   8
ATOM      8  C   UNL     1      26.988   7.811  20.048  1.00  0.00    -0.003 C 
ATOM      9  C   UNL     1      27.302   6.380  19.612  1.00  0.00     0.004 C 
ENDBRANCH   7   8
ENDBRANCH   6   7
ENDBRANCH   1   6
TORSDOF 5
ENDMDL
