MODEL 1
REMARK VINA RESULT:    -5.135      0.000      0.000
REMARK INTER + INTRA:          -8.458
REMARK INTER:                  -7.837
REMARK INTRA:                  -0.621
REMARK UNBOUND:                -0.621
REMARK SMILES CCCCCCCCCCC(=O)[O-]
REMARK SMILES IDX 7 1 8 2 9 3 10 4 11 5 12 6 13 7 6 8 5 9 4 10 3 11 2 12 1 13
REMARK H PARENT
REMARK Flexibility Score: inf
ROOT
ATOM      1  C   UNL     1       7.428  22.309 -10.077  1.00  0.00     0.000 C 
ENDROOT
BRANCH   1   2
ATOM      2  C   UNL     1       6.068  22.861  -9.618  1.00  0.00     0.000 C 
BRANCH   2   3
ATOM      3  C   UNL     1       6.199  23.900  -8.489  1.00  0.00     0.006 C 
BRANCH   3   4
ATOM      4  C   UNL     1       5.777  23.331  -7.128  1.00  0.00     0.053 C 
BRANCH   4   5
ATOM      5  C   UNL     1       6.604  23.890  -6.011  1.00  0.00     0.041 C 
ATOM      6  O   UNL     1       7.307  23.127  -5.297  1.00  0.00    -0.550 OA
ATOM      7  O   UNL     1       6.573  25.252  -5.738  1.00  0.00    -0.550 OA
ENDBRANCH   4   5
ENDBRANCH   3   4
ENDBRANCH   2   3
ENDBRANCH   1   2
BRANCH   1   8
ATOM      8  C   UNL     1       8.612  23.005  -9.385  1.00  0.00     0.000 C 
BRANCH   8   9
ATOM      9  C   UNL     1       9.588  22.008  -8.740  1.00  0.00    -0.000 C 
BRANCH   9  10
ATOM     10  C   UNL     1      11.053  22.282  -9.112  1.00  0.00    -0.000 C 
BRANCH  10  11
ATOM     11  C   UNL     1      11.153  23.402 -10.158  1.00  0.00    -0.000 C 
BRANCH  11  12
ATOM     12  C   UNL     1      11.943  24.617  -9.649  1.00  0.00    -0.003 C 
ATOM     13  C   UNL     1      12.722  24.322  -8.367  1.00  0.00     0.004 C 
ENDBRANCH  11  12
ENDBRANCH  10  11
ENDBRANCH   9  10
ENDBRANCH   8   9
ENDBRANCH   1   8
TORSDOF 9
ENDMDL
MODEL 2
REMARK VINA RESULT:    -5.122      1.443      2.043
REMARK INTER + INTRA:          -8.438
REMARK INTER:                  -7.540
REMARK INTRA:                  -0.898
REMARK UNBOUND:                -0.621
REMARK SMILES CCCCCCCCCCC(=O)[O-]
REMARK SMILES IDX 7 1 8 2 9 3 10 4 11 5 12 6 13 7 6 8 5 9 4 10 3 11 2 12 1 13
REMARK H PARENT
REMARK Flexibility Score: inf
ROOT
ATOM      1  C   UNL     1       8.931  22.249  -8.743  1.00  0.00     0.000 C 
ENDROOT
BRANCH   1   2
ATOM      2  C   UNL     1       8.509  23.728  -8.717  1.00  0.00     0.000 C 
BRANCH   2   3
ATOM      3  C   UNL     1       7.036  23.918  -8.314  1.00  0.00     0.006 C 
BRANCH   3   4
ATOM      4  C   UNL     1       6.893  24.462  -6.887  1.00  0.00     0.053 C 
BRANCH   4   5
ATOM      5  C   UNL     1       6.462  23.397  -5.925  1.00  0.00     0.041 C 
ATOM      6  O   UNL     1       7.276  22.935  -5.083  1.00  0.00    -0.550 OA
ATOM      7  O   UNL     1       5.168  22.894  -5.981  1.00  0.00    -0.550 OA
ENDBRANCH   4   5
ENDBRANCH   3   4
ENDBRANCH   2   3
ENDBRANCH   1   2
BRANCH   1   8
ATOM      8  C   UNL     1       9.676  21.825  -7.466  1.00  0.00     0.000 C 
BRANCH   8   9
ATOM      9  C   UNL     1      10.707  20.715  -7.724  1.00  0.00    -0.000 C 
BRANCH   9  10
ATOM     10  C   UNL     1      12.142  21.251  -7.844  1.00  0.00    -0.000 C 
BRANCH  10  11
ATOM     11  C   UNL     1      12.301  22.570  -7.074  1.00  0.00    -0.000 C 
BRANCH  11  12
ATOM     12  C   UNL     1      13.040  23.644  -7.888  1.00  0.00    -0.003 C 
ATOM     13  C   UNL     1      12.141  24.327  -8.919  1.00  0.00     0.004 C 
ENDBRANCH  11  12
ENDBRANCH  10  11
ENDBRANCH   9  10
ENDBRANCH   8   9
ENDBRANCH   1   8
TORSDOF 9
ENDMDL
MODEL 3
REMARK VINA RESULT:    -5.097      1.965      4.933
REMARK INTER + INTRA:          -8.400
REMARK INTER:                  -7.663
REMARK INTRA:                  -0.736
REMARK UNBOUND:                -0.621
REMARK SMILES CCCCCCCCCCC(=O)[O-]
REMARK SMILES IDX 7 1 8 2 9 3 10 4 11 5 12 6 13 7 6 8 5 9 4 10 3 11 2 12 1 13
REMARK H PARENT
REMARK Flexibility Score: inf
ROOT
ATOM      1  C   UNL     1       7.763  22.233 -10.089  1.00  0.00     0.000 C 
ENDROOT
BRANCH   1   2
ATOM      2  C   UNL     1       8.712  22.958  -9.121  1.00  0.00     0.000 C 
BRANCH   2   3
ATOM      3  C   UNL     1      10.174  22.500  -9.270  1.00  0.00     0.006 C 
BRANCH   3   4
ATOM      4  C   UNL     1      10.870  22.337  -7.913  1.00  0.00     0.053 C 
BRANCH   4   5
ATOM      5  C   UNL     1      10.215  21.281  -7.075  1.00  0.00     0.041 C 
ATOM      6  O   UNL     1      10.286  20.070  -7.410  1.00  0.00    -0.550 OA
ATOM      7  O   UNL     1       9.501  21.640  -5.938  1.00  0.00    -0.550 OA
ENDBRANCH   4   5
ENDBRANCH   3   4
ENDBRANCH   2   3
ENDBRANCH   1   2
BRANCH   1   8
ATOM      8  C   UNL     1       6.314  22.739  -9.985  1.00  0.00     0.000 C 
BRANCH   8   9
ATOM      9  C   UNL     1       6.062  23.550  -8.704  1.00  0.00    -0.000 C 
BRANCH   9  10
ATOM     10  C   UNL     1       5.002  22.911  -7.793  1.00  0.00    -0.000 C 
BRANCH  10  11
ATOM     11  C   UNL     1       5.314  23.182  -6.314  1.00  0.00    -0.000 C 
BRANCH  11  12
ATOM     12  C   UNL     1       6.649  23.916  -6.117  1.00  0.00    -0.003 C 
ATOM     13  C   UNL     1       6.486  25.258  -5.402  1.00  0.00     0.004 C 
ENDBRANCH  11  12
ENDBRANCH  10  11
ENDBRANCH   9  10
ENDBRANCH   8   9
ENDBRANCH   1   8
TORSDOF 9
ENDMDL
MODEL 4
REMARK VINA RESULT:    -5.082      2.849      5.282
REMARK INTER + INTRA:          -8.378
REMARK INTER:                  -7.317
REMARK INTRA:                  -1.061
REMARK UNBOUND:                -0.621
REMARK SMILES CCCCCCCCCCC(=O)[O-]
REMARK SMILES IDX 7 1 8 2 9 3 10 4 11 5 12 6 13 7 6 8 5 9 4 10 3 11 2 12 1 13
REMARK H PARENT
REMARK Flexibility Score: inf
ROOT
ATOM      1  C   UNL     1       9.054  22.652  -9.528  1.00  0.00     0.000 C 
ENDROOT
BRANCH   1   2
ATOM      2  C   UNL     1       9.544  21.717  -8.410  1.00  0.00     0.000 C 
BRANCH   2   3
ATOM      3  C   UNL     1      10.579  22.387  -7.488  1.00  0.00     0.006 C 
BRANCH   3   4
ATOM      4  C   UNL     1      11.561  23.271  -8.267  1.00  0.00     0.053 C 
BRANCH   4   5
ATOM      5  C   UNL     1      12.889  23.367  -7.579  1.00  0.00     0.041 C 
ATOM      6  O   UNL     1      13.697  24.283  -7.884  1.00  0.00    -0.550 OA
ATOM      7  O   UNL     1      13.246  22.425  -6.622  1.00  0.00    -0.550 OA
ENDBRANCH   4   5
ENDBRANCH   3   4
ENDBRANCH   2   3
ENDBRANCH   1   2
BRANCH   1   8
ATOM      8  C   UNL     1       7.586  22.396  -9.911  1.00  0.00     0.000 C 
BRANCH   8   9
ATOM      9  C   UNL     1       6.606  23.262  -9.103  1.00  0.00    -0.000 C 
BRANCH   9  10
ATOM     10  C   UNL     1       7.245  24.559  -8.584  1.00  0.00    -0.000 C 
BRANCH  10  11
ATOM     11  C   UNL     1       6.976  24.741  -7.083  1.00  0.00    -0.000 C 
BRANCH  11  12
ATOM     12  C   UNL     1       6.413  23.472  -6.425  1.00  0.00    -0.003 C 
ATOM     13  C   UNL     1       7.348  22.892  -5.363  1.00  0.00     0.004 C 
ENDBRANCH  11  12
ENDBRANCH  10  11
ENDBRANCH   9  10
ENDBRANCH   8   9
ENDBRANCH   1   8
TORSDOF 9
ENDMDL
MODEL 5
REMARK VINA RESULT:    -5.027      2.726      5.393
REMARK INTER + INTRA:          -8.292
REMARK INTER:                  -7.643
REMARK INTRA:                  -0.649
REMARK UNBOUND:                -0.621
REMARK SMILES CCCCCCCCCCC(=O)[O-]
REMARK SMILES IDX 7 1 8 2 9 3 10 4 11 5 12 6 13 7 6 8 5 9 4 10 3 11 2 12 1 13
REMARK H PARENT
REMARK Flexibility Score: inf
ROOT
ATOM      1  C   UNL     1       7.656  22.414 -10.117  1.00  0.00     0.000 C 
ENDROOT
BRANCH   1   2
ATOM      2  C   UNL     1       8.763  22.605  -9.067  1.00  0.00     0.000 C 
BRANCH   2   3
ATOM      3  C   UNL     1      10.163  22.730  -9.696  1.00  0.00     0.006 C 
BRANCH   3   4
ATOM      4  C   UNL     1      11.265  22.849  -8.635  1.00  0.00     0.053 C 
BRANCH   4   5
ATOM      5  C   UNL     1      12.106  24.072  -8.841  1.00  0.00     0.041 C 
ATOM      6  O   UNL     1      11.971  24.767  -9.883  1.00  0.00    -0.550 OA
ATOM      7  O   UNL     1      13.061  24.425  -7.896  1.00  0.00    -0.550 OA
ENDBRANCH   4   5
ENDBRANCH   3   4
ENDBRANCH   2   3
ENDBRANCH   1   2
BRANCH   1   8
ATOM      8  C   UNL     1       6.384  23.214  -9.786  1.00  0.00     0.000 C 
BRANCH   8   9
ATOM      9  C   UNL     1       6.344  23.680  -8.322  1.00  0.00    -0.000 C 
BRANCH   9  10
ATOM     10  C   UNL     1       5.262  22.965  -7.499  1.00  0.00    -0.000 C 
BRANCH  10  11
ATOM     11  C   UNL     1       5.423  23.265  -6.002  1.00  0.00    -0.000 C 
BRANCH  11  12
ATOM     12  C   UNL     1       6.869  23.622  -5.623  1.00  0.00    -0.003 C 
ATOM     13  C   UNL     1       7.666  22.415  -5.128  1.00  0.00     0.004 C 
ENDBRANCH  11  12
ENDBRANCH  10  11
ENDBRANCH   9  10
ENDBRANCH   8   9
ENDBRANCH   1   8
TORSDOF 9
ENDMDL
MODEL 6
REMARK VINA RESULT:    -4.982      1.453      2.672
REMARK INTER + INTRA:          -8.224
REMARK INTER:                  -7.447
REMARK INTRA:                  -0.777
REMARK UNBOUND:                -0.621
REMARK SMILES CCCCCCCCCCC(=O)[O-]
REMARK SMILES IDX 7 1 8 2 9 3 10 4 11 5 12 6 13 7 6 8 5 9 4 10 3 11 2 12 1 13
REMARK H PARENT
REMARK Flexibility Score: inf
ROOT
ATOM      1  C   UNL     1       9.063  22.620  -9.734  1.00  0.00     0.000 C 
ENDROOT
BRANCH   1   2
ATOM      2  C   UNL     1       7.566  22.807  -9.439  1.00  0.00     0.000 C 
BRANCH   2   3
ATOM      3  C   UNL     1       7.290  23.987  -8.490  1.00  0.00     0.006 C 
BRANCH   3   4
ATOM      4  C   UNL     1       6.262  23.631  -7.407  1.00  0.00     0.053 C 
BRANCH   4   5
ATOM      5  C   UNL     1       6.729  24.036  -6.042  1.00  0.00     0.041 C 
ATOM      6  O   UNL     1       6.589  25.224  -5.649  1.00  0.00    -0.550 OA
ATOM      7  O   UNL     1       7.346  23.105  -5.215  1.00  0.00    -0.550 OA
ENDBRANCH   4   5
ENDBRANCH   3   4
ENDBRANCH   2   3
ENDBRANCH   1   2
BRANCH   1   8
ATOM      8  C   UNL     1       9.941  23.656  -9.011  1.00  0.00     0.000 C 
BRANCH   8   9
ATOM      9  C   UNL     1      11.388  23.172  -8.820  1.00  0.00    -0.000 C 
BRANCH   9  10
ATOM     10  C   UNL     1      11.569  22.322  -7.553  1.00  0.00    -0.000 C 
BRANCH  10  11
ATOM     11  C   UNL     1      12.236  20.979  -7.885  1.00  0.00    -0.000 C 
BRANCH  11  12
ATOM     12  C   UNL     1      11.257  19.798  -7.807  1.00  0.00    -0.003 C 
ATOM     13  C   UNL     1       9.936  20.168  -7.132  1.00  0.00     0.004 C 
ENDBRANCH  11  12
ENDBRANCH  10  11
ENDBRANCH   9  10
ENDBRANCH   8   9
ENDBRANCH   1   8
TORSDOF 9
ENDMDL
MODEL 7
REMARK VINA RESULT:    -4.980      2.481      3.331
REMARK INTER + INTRA:          -8.222
REMARK INTER:                  -7.386
REMARK INTRA:                  -0.836
REMARK UNBOUND:                -0.621
REMARK SMILES CCCCCCCCCCC(=O)[O-]
REMARK SMILES IDX 7 1 8 2 9 3 10 4 11 5 12 6 13 7 6 8 5 9 4 10 3 11 2 12 1 13
REMARK H PARENT
REMARK Flexibility Score: inf
ROOT
ATOM      1  C   UNL     1       8.917  22.822  -7.921  1.00  0.00     0.000 C 
ENDROOT
BRANCH   1   2
ATOM      2  C   UNL     1       8.984  22.354  -9.384  1.00  0.00     0.000 C 
BRANCH   2   3
ATOM      3  C   UNL     1       7.622  22.432 -10.096  1.00  0.00     0.006 C 
BRANCH   3   4
ATOM      4  C   UNL     1       6.582  23.201  -9.271  1.00  0.00     0.053 C 
BRANCH   4   5
ATOM      5  C   UNL     1       5.210  23.092  -9.864  1.00  0.00     0.041 C 
ATOM      6  O   UNL     1       5.020  23.362 -11.079  1.00  0.00    -0.550 OA
ATOM      7  O   UNL     1       4.135  22.721  -9.065  1.00  0.00    -0.550 OA
ENDBRANCH   4   5
ENDBRANCH   3   4
ENDBRANCH   2   3
ENDBRANCH   1   2
BRANCH   1   8
ATOM      8  C   UNL     1       9.829  22.000  -6.995  1.00  0.00     0.000 C 
BRANCH   8   9
ATOM      9  C   UNL     1      10.613  20.915  -7.750  1.00  0.00    -0.000 C 
BRANCH   9  10
ATOM     10  C   UNL     1      12.119  21.210  -7.824  1.00  0.00    -0.000 C 
BRANCH  10  11
ATOM     11  C   UNL     1      12.504  22.344  -6.862  1.00  0.00    -0.000 C 
BRANCH  11  12
ATOM     12  C   UNL     1      13.269  23.478  -7.561  1.00  0.00    -0.003 C 
ATOM     13  C   UNL     1      12.415  24.224  -8.586  1.00  0.00     0.004 C 
ENDBRANCH  11  12
ENDBRANCH  10  11
ENDBRANCH   9  10
ENDBRANCH   8   9
ENDBRANCH   1   8
TORSDOF 9
ENDMDL
MODEL 8
REMARK VINA RESULT:    -4.973      1.572      2.109
REMARK INTER + INTRA:          -8.211
REMARK INTER:                  -7.482
REMARK INTRA:                  -0.728
REMARK UNBOUND:                -0.621
REMARK SMILES CCCCCCCCCCC(=O)[O-]
REMARK SMILES IDX 7 1 8 2 9 3 10 4 11 5 12 6 13 7 6 8 5 9 4 10 3 11 2 12 1 13
REMARK H PARENT
REMARK Flexibility Score: inf
ROOT
ATOM      1  C   UNL     1       7.748  24.437  -8.605  1.00  0.00     0.000 C 
ENDROOT
BRANCH   1   2
ATOM      2  C   UNL     1       6.920  24.694  -7.335  1.00  0.00     0.000 C 
BRANCH   2   3
ATOM      3  C   UNL     1       6.490  23.393  -6.633  1.00  0.00     0.006 C 
BRANCH   3   4
ATOM      4  C   UNL     1       7.053  23.291  -5.210  1.00  0.00     0.053 C 
BRANCH   4   5
ATOM      5  C   UNL     1       8.015  22.151  -5.072  1.00  0.00     0.041 C 
ATOM      6  O   UNL     1       7.968  21.399  -4.063  1.00  0.00    -0.550 OA
ATOM      7  O   UNL     1       8.983  21.938  -6.045  1.00  0.00    -0.550 OA
ENDBRANCH   4   5
ENDBRANCH   3   4
ENDBRANCH   2   3
ENDBRANCH   1   2
BRANCH   1   8
ATOM      8  C   UNL     1       7.425  23.083  -9.258  1.00  0.00     0.000 C 
BRANCH   8   9
ATOM      9  C   UNL     1       8.686  22.324  -9.701  1.00  0.00    -0.000 C 
BRANCH   9  10
ATOM     10  C   UNL     1       9.972  22.897  -9.086  1.00  0.00    -0.000 C 
BRANCH  10  11
ATOM     11  C   UNL     1      10.939  23.373 -10.180  1.00  0.00    -0.000 C 
BRANCH  11  12
ATOM     12  C   UNL     1      11.805  24.559  -9.729  1.00  0.00    -0.003 C 
ATOM     13  C   UNL     1      12.600  24.261  -8.458  1.00  0.00     0.004 C 
ENDBRANCH  11  12
ENDBRANCH  10  11
ENDBRANCH   9  10
ENDBRANCH   8   9
ENDBRANCH   1   8
TORSDOF 9
ENDMDL
MODEL 9
REMARK VINA RESULT:    -4.836      3.087      6.030
REMARK INTER + INTRA:          -8.002
REMARK INTER:                  -7.498
REMARK INTRA:                  -0.504
REMARK UNBOUND:                -0.621
REMARK SMILES CCCCCCCCCCC(=O)[O-]
REMARK SMILES IDX 7 1 8 2 9 3 10 4 11 5 12 6 13 7 6 8 5 9 4 10 3 11 2 12 1 13
REMARK H PARENT
REMARK Flexibility Score: inf
ROOT
ATOM      1  C   UNL     1      10.754  22.613  -9.547  1.00  0.00     0.000 C 
ENDROOT
BRANCH   1   2
ATOM      2  C   UNL     1      11.460  23.970  -9.390  1.00  0.00     0.000 C 
BRANCH   2   3
ATOM      3  C   UNL     1      12.485  23.977  -8.242  1.00  0.00     0.006 C 
BRANCH   3   4
ATOM      4  C   UNL     1      12.620  22.600  -7.580  1.00  0.00     0.053 C 
BRANCH   4   5
ATOM      5  C   UNL     1      13.776  22.551  -6.627  1.00  0.00     0.041 C 
ATOM      6  O   UNL     1      13.582  22.650  -5.387  1.00  0.00    -0.550 OA
ATOM      7  O   UNL     1      15.072  22.427  -7.113  1.00  0.00    -0.550 OA
ENDBRANCH   4   5
ENDBRANCH   3   4
ENDBRANCH   2   3
ENDBRANCH   1   2
BRANCH   1   8
ATOM      8  C   UNL     1       9.232  22.755  -9.721  1.00  0.00     0.000 C 
BRANCH   8   9
ATOM      9  C   UNL     1       8.540  23.279  -8.453  1.00  0.00    -0.000 C 
BRANCH   9  10
ATOM     10  C   UNL     1       7.052  23.592  -8.673  1.00  0.00    -0.000 C 
BRANCH  10  11
ATOM     11  C   UNL     1       6.527  22.900  -9.939  1.00  0.00    -0.000 C 
BRANCH  11  12
ATOM     12  C   UNL     1       4.994  22.931 -10.038  1.00  0.00    -0.003 C 
ATOM     13  C   UNL     1       4.309  22.512  -8.737  1.00  0.00     0.004 C 
ENDBRANCH  11  12
ENDBRANCH  10  11
ENDBRANCH   9  10
ENDBRANCH   8   9
ENDBRANCH   1   8
TORSDOF 9
ENDMDL
