MODEL 1
REMARK VINA RESULT:    -4.300      0.000      0.000
REMARK INTER + INTRA:          -5.210
REMARK INTER:                  -5.180
REMARK INTRA:                  -0.030
REMARK UNBOUND:                -0.030
REMARK SMILES CC[C@H](C)[C@@H]([NH3+])C(=O)[O-]
REMARK SMILES IDX 3 1 4 2 5 3 6 4 7 8 8 9 9 10 2 11 1 12
REMARK H PARENT 6 5 6 6 6 7
REMARK Flexibility Score: inf
ROOT
ATOM      1  C   UNL     1      35.343 106.781  74.917  1.00  0.00     0.050 C 
ATOM      2  C   UNL     1      35.426 105.611  73.919  1.00  0.00     0.014 C 
ENDROOT
BRANCH   1   3
ATOM      3  C   UNL     1      36.784 107.209  75.361  1.00  0.00     0.230 C 
BRANCH   3   4
ATOM      4  N   UNL     1      37.300 108.335  74.569  1.00  0.00    -0.350 N 
ATOM      5  H   UNL     1      37.484 109.150  75.201  1.00  0.00     0.345 HD
ATOM      6  H   UNL     1      36.628 108.637  73.833  1.00  0.00     0.345 HD
ATOM      7  H   UNL     1      38.206 108.069  74.118  1.00  0.00     0.345 HD
ENDBRANCH   3   4
BRANCH   3   8
ATOM      8  C   UNL     1      36.889 107.482  76.842  1.00  0.00     0.099 C 
ATOM      9  O   UNL     1      37.416 106.641  77.619  1.00  0.00    -0.544 OA
ATOM     10  O   UNL     1      36.435 108.690  77.356  1.00  0.00    -0.544 OA
ENDBRANCH   3   8
ENDBRANCH   1   3
BRANCH   1  11
ATOM     11  C   UNL     1      34.367 106.393  76.062  1.00  0.00     0.006 C 
ATOM     12  C   UNL     1      32.923 106.843  75.838  1.00  0.00     0.004 C 
ENDBRANCH   1  11
TORSDOF 4
ENDMDL
MODEL 2
REMARK VINA RESULT:    -4.256      3.215      4.083
REMARK INTER + INTRA:          -5.157
REMARK INTER:                  -5.043
REMARK INTRA:                  -0.114
REMARK UNBOUND:                -0.030
REMARK SMILES CC[C@H](C)[C@@H]([NH3+])C(=O)[O-]
REMARK SMILES IDX 3 1 4 2 5 3 6 4 7 8 8 9 9 10 2 11 1 12
REMARK H PARENT 6 5 6 6 6 7
REMARK Flexibility Score: inf
ROOT
ATOM      1  C   UNL     1      34.176 105.951  74.635  1.00  0.00     0.050 C 
ATOM      2  C   UNL     1      35.644 106.402  74.742  1.00  0.00     0.014 C 
ENDROOT
BRANCH   1   3
ATOM      3  C   UNL     1      33.378 106.423  75.900  1.00  0.00     0.230 C 
BRANCH   3   4
ATOM      4  N   UNL     1      34.184 107.285  76.778  1.00  0.00    -0.350 N 
ATOM      5  H   UNL     1      33.750 107.314  77.731  1.00  0.00     0.345 HD
ATOM      6  H   UNL     1      34.248 108.260  76.418  1.00  0.00     0.345 HD
ATOM      7  H   UNL     1      35.148 106.892  76.877  1.00  0.00     0.345 HD
ENDBRANCH   3   4
BRANCH   3   8
ATOM      8  C   UNL     1      32.056 107.066  75.559  1.00  0.00     0.099 C 
ATOM      9  O   UNL     1      31.422 106.731  74.522  1.00  0.00    -0.544 OA
ATOM     10  O   UNL     1      31.507 108.014  76.414  1.00  0.00    -0.544 OA
ENDBRANCH   3   8
ENDBRANCH   1   3
BRANCH   1  11
ATOM     11  C   UNL     1      34.141 104.426  74.342  1.00  0.00     0.006 C 
ATOM     12  C   UNL     1      33.240 104.030  73.172  1.00  0.00     0.004 C 
ENDBRANCH   1  11
TORSDOF 4
ENDMDL
MODEL 3
REMARK VINA RESULT:    -4.252      2.065      2.692
REMARK INTER + INTRA:          -5.152
REMARK INTER:                  -5.084
REMARK INTRA:                  -0.067
REMARK UNBOUND:                -0.030
REMARK SMILES CC[C@H](C)[C@@H]([NH3+])C(=O)[O-]
REMARK SMILES IDX 3 1 4 2 5 3 6 4 7 8 8 9 9 10 2 11 1 12
REMARK H PARENT 6 5 6 6 6 7
REMARK Flexibility Score: inf
ROOT
ATOM      1  C   UNL     1      35.237 105.374  75.509  1.00  0.00     0.050 C 
ATOM      2  C   UNL     1      35.324 104.729  76.905  1.00  0.00     0.014 C 
ENDROOT
BRANCH   1   3
ATOM      3  C   UNL     1      34.981 106.914  75.646  1.00  0.00     0.230 C 
BRANCH   3   4
ATOM      4  N   UNL     1      34.090 107.233  76.771  1.00  0.00    -0.350 N 
ATOM      5  H   UNL     1      33.148 106.807  76.601  1.00  0.00     0.345 HD
ATOM      6  H   UNL     1      33.966 108.260  76.893  1.00  0.00     0.345 HD
ATOM      7  H   UNL     1      34.470 106.826  77.656  1.00  0.00     0.345 HD
ENDBRANCH   3   4
BRANCH   3   8
ATOM      8  C   UNL     1      36.255 107.723  75.705  1.00  0.00     0.099 C 
ATOM      9  O   UNL     1      36.949 107.913  74.671  1.00  0.00    -0.544 OA
ATOM     10  O   UNL     1      36.653 108.297  76.906  1.00  0.00    -0.544 OA
ENDBRANCH   3   8
ENDBRANCH   1   3
BRANCH   1  11
ATOM     11  C   UNL     1      34.201 104.588  74.658  1.00  0.00     0.006 C 
ATOM     12  C   UNL     1      34.570 104.457  73.180  1.00  0.00     0.004 C 
ENDBRANCH   1  11
TORSDOF 4
ENDMDL
MODEL 4
REMARK VINA RESULT:    -4.169      2.409      3.520
REMARK INTER + INTRA:          -5.051
REMARK INTER:                  -4.990
REMARK INTRA:                  -0.061
REMARK UNBOUND:                -0.030
REMARK SMILES CC[C@H](C)[C@@H]([NH3+])C(=O)[O-]
REMARK SMILES IDX 3 1 4 2 5 3 6 4 7 8 8 9 9 10 2 11 1 12
REMARK H PARENT 6 5 6 6 6 7
REMARK Flexibility Score: inf
ROOT
ATOM      1  C   UNL     1      36.535 106.800  73.050  1.00  0.00     0.050 C 
ATOM      2  C   UNL     1      37.387 107.847  72.308  1.00  0.00     0.014 C 
ENDROOT
BRANCH   1   3
ATOM      3  C   UNL     1      36.714 106.966  74.598  1.00  0.00     0.230 C 
BRANCH   3   4
ATOM      4  N   UNL     1      37.449 108.191  74.947  1.00  0.00    -0.350 N 
ATOM      5  H   UNL     1      36.854 109.027  74.735  1.00  0.00     0.345 HD
ATOM      6  H   UNL     1      38.338 108.280  74.412  1.00  0.00     0.345 HD
ATOM      7  H   UNL     1      37.662 108.202  75.970  1.00  0.00     0.345 HD
ENDBRANCH   3   4
BRANCH   3   8
ATOM      8  C   UNL     1      35.413 106.869  75.358  1.00  0.00     0.099 C 
ATOM      9  O   UNL     1      35.329 107.270  76.550  1.00  0.00    -0.544 OA
ATOM     10  O   UNL     1      34.282 106.366  74.728  1.00  0.00    -0.544 OA
ENDBRANCH   3   8
ENDBRANCH   1   3
BRANCH   1  11
ATOM     11  C   UNL     1      36.860 105.393  72.477  1.00  0.00     0.006 C 
ATOM     12  C   UNL     1      37.779 105.407  71.254  1.00  0.00     0.004 C 
ENDBRANCH   1  11
TORSDOF 4
ENDMDL
MODEL 5
REMARK VINA RESULT:    -4.146      2.991      4.070
REMARK INTER + INTRA:          -5.025
REMARK INTER:                  -4.962
REMARK INTRA:                  -0.062
REMARK UNBOUND:                -0.030
REMARK SMILES CC[C@H](C)[C@@H]([NH3+])C(=O)[O-]
REMARK SMILES IDX 3 1 4 2 5 3 6 4 7 8 8 9 9 10 2 11 1 12
REMARK H PARENT 6 5 6 6 6 7
REMARK Flexibility Score: inf
ROOT
ATOM      1  C   UNL     1      35.938 107.123  74.712  1.00  0.00     0.050 C 
ATOM      2  C   UNL     1      36.991 107.892  75.531  1.00  0.00     0.014 C 
ENDROOT
BRANCH   1   3
ATOM      3  C   UNL     1      34.995 106.319  75.672  1.00  0.00     0.230 C 
BRANCH   3   4
ATOM      4  N   UNL     1      34.329 107.186  76.655  1.00  0.00    -0.350 N 
ATOM      5  H   UNL     1      35.017 107.880  77.030  1.00  0.00     0.345 HD
ATOM      6  H   UNL     1      33.940 106.645  77.455  1.00  0.00     0.345 HD
ATOM      7  H   UNL     1      33.556 107.720  76.194  1.00  0.00     0.345 HD
ENDBRANCH   3   4
BRANCH   3   8
ATOM      8  C   UNL     1      34.001 105.452  74.937  1.00  0.00     0.099 C 
ATOM      9  O   UNL     1      32.941 105.944  74.464  1.00  0.00    -0.544 OA
ATOM     10  O   UNL     1      34.270 104.103  74.745  1.00  0.00    -0.544 OA
ENDBRANCH   3   8
ENDBRANCH   1   3
BRANCH   1  11
ATOM     11  C   UNL     1      36.664 106.289  73.620  1.00  0.00     0.006 C 
ATOM     12  C   UNL     1      37.101 107.097  72.398  1.00  0.00     0.004 C 
ENDBRANCH   1  11
TORSDOF 4
ENDMDL
MODEL 6
REMARK VINA RESULT:    -4.145      1.961      2.268
REMARK INTER + INTRA:          -5.023
REMARK INTER:                  -4.901
REMARK INTRA:                  -0.122
REMARK UNBOUND:                -0.030
REMARK SMILES CC[C@H](C)[C@@H]([NH3+])C(=O)[O-]
REMARK SMILES IDX 3 1 4 2 5 3 6 4 7 8 8 9 9 10 2 11 1 12
REMARK H PARENT 6 5 6 6 6 7
REMARK Flexibility Score: inf
ROOT
ATOM      1  C   UNL     1      34.058 106.210  74.997  1.00  0.00     0.050 C 
ATOM      2  C   UNL     1      34.397 104.735  74.716  1.00  0.00     0.014 C 
ENDROOT
BRANCH   1   3
ATOM      3  C   UNL     1      34.734 106.670  76.334  1.00  0.00     0.230 C 
BRANCH   3   4
ATOM      4  N   UNL     1      35.065 105.537  77.210  1.00  0.00    -0.350 N 
ATOM      5  H   UNL     1      36.049 105.637  77.554  1.00  0.00     0.345 HD
ATOM      6  H   UNL     1      34.983 104.623  76.717  1.00  0.00     0.345 HD
ATOM      7  H   UNL     1      34.434 105.534  78.044  1.00  0.00     0.345 HD
ENDBRANCH   3   4
BRANCH   3   8
ATOM      8  C   UNL     1      35.931 107.565  76.115  1.00  0.00     0.099 C 
ATOM      9  O   UNL     1      36.461 107.667  74.976  1.00  0.00    -0.544 OA
ATOM     10  O   UNL     1      36.436 108.314  77.170  1.00  0.00    -0.544 OA
ENDBRANCH   3   8
ENDBRANCH   1   3
BRANCH   1  11
ATOM     11  C   UNL     1      32.517 106.393  74.919  1.00  0.00     0.006 C 
ATOM     12  C   UNL     1      31.957 107.435  75.889  1.00  0.00     0.004 C 
ENDBRANCH   1  11
TORSDOF 4
ENDMDL
MODEL 7
REMARK VINA RESULT:    -4.133      2.220      3.086
REMARK INTER + INTRA:          -5.009
REMARK INTER:                  -4.877
REMARK INTRA:                  -0.131
REMARK UNBOUND:                -0.030
REMARK SMILES CC[C@H](C)[C@@H]([NH3+])C(=O)[O-]
REMARK SMILES IDX 3 1 4 2 5 3 6 4 7 8 8 9 9 10 2 11 1 12
REMARK H PARENT 6 5 6 6 6 7
REMARK Flexibility Score: inf
ROOT
ATOM      1  C   UNL     1      34.538 105.389  75.001  1.00  0.00     0.050 C 
ATOM      2  C   UNL     1      33.158 106.023  74.747  1.00  0.00     0.014 C 
ENDROOT
BRANCH   1   3
ATOM      3  C   UNL     1      35.205 106.044  76.259  1.00  0.00     0.230 C 
BRANCH   3   4
ATOM      4  N   UNL     1      34.380 107.119  76.831  1.00  0.00    -0.350 N 
ATOM      5  H   UNL     1      33.392 106.785  76.931  1.00  0.00     0.345 HD
ATOM      6  H   UNL     1      34.378 107.972  76.234  1.00  0.00     0.345 HD
ATOM      7  H   UNL     1      34.730 107.369  77.784  1.00  0.00     0.345 HD
ENDBRANCH   3   4
BRANCH   3   8
ATOM      8  C   UNL     1      35.603 105.036  77.310  1.00  0.00     0.099 C 
ATOM      9  O   UNL     1      35.450 103.801  77.112  1.00  0.00    -0.544 OA
ATOM     10  O   UNL     1      36.181 105.468  78.497  1.00  0.00    -0.544 OA
ENDBRANCH   3   8
ENDBRANCH   1   3
BRANCH   1  11
ATOM     11  C   UNL     1      35.366 105.450  73.687  1.00  0.00     0.006 C 
ATOM     12  C   UNL     1      36.590 106.364  73.755  1.00  0.00     0.004 C 
ENDBRANCH   1  11
TORSDOF 4
ENDMDL
MODEL 8
REMARK VINA RESULT:    -4.107      2.844      3.426
REMARK INTER + INTRA:          -4.977
REMARK INTER:                  -4.860
REMARK INTRA:                  -0.118
REMARK UNBOUND:                -0.030
REMARK SMILES CC[C@H](C)[C@@H]([NH3+])C(=O)[O-]
REMARK SMILES IDX 3 1 4 2 5 3 6 4 7 8 8 9 9 10 2 11 1 12
REMARK H PARENT 6 5 6 6 6 7
REMARK Flexibility Score: inf
ROOT
ATOM      1  C   UNL     1      35.848 106.060  74.996  1.00  0.00     0.050 C 
ATOM      2  C   UNL     1      36.053 106.293  76.504  1.00  0.00     0.014 C 
ENDROOT
BRANCH   1   3
ATOM      3  C   UNL     1      36.418 107.274  74.185  1.00  0.00     0.230 C 
BRANCH   3   4
ATOM      4  N   UNL     1      37.386 108.060  74.964  1.00  0.00    -0.350 N 
ATOM      5  H   UNL     1      37.499 109.005  74.528  1.00  0.00     0.345 HD
ATOM      6  H   UNL     1      38.322 107.604  75.001  1.00  0.00     0.345 HD
ATOM      7  H   UNL     1      37.034 108.197  75.939  1.00  0.00     0.345 HD
ENDBRANCH   3   4
BRANCH   3   8
ATOM      8  C   UNL     1      36.984 106.875  72.843  1.00  0.00     0.099 C 
ATOM      9  O   UNL     1      37.354 107.748  72.013  1.00  0.00    -0.544 OA
ATOM     10  O   UNL     1      37.135 105.531  72.529  1.00  0.00    -0.544 OA
ENDBRANCH   3   8
ENDBRANCH   1   3
BRANCH   1  11
ATOM     11  C   UNL     1      34.354 105.716  74.742  1.00  0.00     0.006 C 
ATOM     12  C   UNL     1      34.115 104.303  74.210  1.00  0.00     0.004 C 
ENDBRANCH   1  11
TORSDOF 4
ENDMDL
MODEL 9
REMARK VINA RESULT:    -4.072      2.079      2.983
REMARK INTER + INTRA:          -4.935
REMARK INTER:                  -4.875
REMARK INTRA:                  -0.061
REMARK UNBOUND:                -0.030
REMARK SMILES CC[C@H](C)[C@@H]([NH3+])C(=O)[O-]
REMARK SMILES IDX 3 1 4 2 5 3 6 4 7 8 8 9 9 10 2 11 1 12
REMARK H PARENT 6 5 6 6 6 7
REMARK Flexibility Score: inf
ROOT
ATOM      1  C   UNL     1      35.718 105.994  75.112  1.00  0.00     0.050 C 
ATOM      2  C   UNL     1      34.382 105.639  74.434  1.00  0.00     0.014 C 
ENDROOT
BRANCH   1   3
ATOM      3  C   UNL     1      35.451 106.739  76.464  1.00  0.00     0.230 C 
BRANCH   3   4
ATOM      4  N   UNL     1      34.050 107.164  76.599  1.00  0.00    -0.350 N 
ATOM      5  H   UNL     1      33.845 107.375  77.605  1.00  0.00     0.345 HD
ATOM      6  H   UNL     1      33.385 106.430  76.277  1.00  0.00     0.345 HD
ATOM      7  H   UNL     1      33.887 108.039  76.050  1.00  0.00     0.345 HD
ENDBRANCH   3   4
BRANCH   3   8
ATOM      8  C   UNL     1      35.909 105.957  77.672  1.00  0.00     0.099 C 
ATOM      9  O   UNL     1      36.266 106.547  78.727  1.00  0.00    -0.544 OA
ATOM     10  O   UNL     1      35.902 104.569  77.639  1.00  0.00    -0.544 OA
ENDBRANCH   3   8
ENDBRANCH   1   3
BRANCH   1  11
ATOM     11  C   UNL     1      36.614 106.746  74.089  1.00  0.00     0.006 C 
ATOM     12  C   UNL     1      36.883 105.972  72.798  1.00  0.00     0.004 C 
ENDBRANCH   1  11
TORSDOF 4
ENDMDL
