MODEL 1
REMARK VINA RESULT:    -6.205      0.000      0.000
REMARK INTER + INTRA:          -7.769
REMARK INTER:                  -7.474
REMARK INTRA:                  -0.295
REMARK UNBOUND:                -0.295
REMARK SMILES O=c1c(O)c(-c2ccc(O)c(O)c2)oc2cc(O)cc(O)c12
REMARK SMILES IDX 5 1 3 2 2 3 1 4 22 5 20 6 19 7 17 8 16 9 15 10 14 11 6 12
REMARK SMILES IDX 7 13 8 14 9 15 13 16 11 17 10 18 12 20 4 22 21 24 18 26
REMARK H PARENT 10 19 12 21 4 23 21 25 18 27
REMARK Flexibility Score: inf
ROOT
ATOM      1  C   UNL     1      76.277  62.247  54.123  1.00  0.00     0.180 A 
ATOM      2  C   UNL     1      75.444  62.391  53.000  1.00  0.00     0.208 A 
ATOM      3  C   UNL     1      74.098  62.740  53.191  1.00  0.00     0.238 A 
ATOM      4  O   UNL     1      73.378  62.941  52.179  1.00  0.00    -0.285 OA
ATOM      5  C   UNL     1      73.587  62.885  54.504  1.00  0.00     0.111 A 
ATOM      6  C   UNL     1      72.227  63.192  54.816  1.00  0.00     0.134 A 
ATOM      7  C   UNL     1      71.859  63.415  56.149  1.00  0.00     0.093 A 
ATOM      8  C   UNL     1      72.787  63.280  57.186  1.00  0.00     0.123 A 
ATOM      9  C   UNL     1      74.101  62.926  56.895  1.00  0.00     0.094 A 
ATOM     10  C   UNL     1      74.508  62.734  55.572  1.00  0.00     0.146 A 
ATOM     11  O   UNL     1      75.777  62.420  55.340  1.00  0.00    -0.452 OA
ENDROOT
BRANCH   1  12
ATOM     12  C   UNL     1      77.711  61.895  54.001  1.00  0.00     0.025 A 
ATOM     13  C   UNL     1      78.155  60.570  54.148  1.00  0.00     0.016 A 
ATOM     14  C   UNL     1      79.509  60.258  54.004  1.00  0.00     0.051 A 
ATOM     15  C   UNL     1      80.437  61.264  53.696  1.00  0.00     0.157 A 
ATOM     16  C   UNL     1      78.641  62.895  53.671  1.00  0.00     0.062 A 
ATOM     17  C   UNL     1      79.998  62.587  53.527  1.00  0.00     0.158 A 
BRANCH  15  18
ATOM     18  O   UNL     1      81.788  60.950  53.555  1.00  0.00    -0.504 OA
ATOM     19  H   UNL     1      82.212  60.187  54.069  1.00  0.00     0.293 HD
ENDBRANCH  15  18
BRANCH  17  20
ATOM     20  O   UNL     1      80.895  63.608  53.213  1.00  0.00    -0.504 OA
ATOM     21  H   UNL     1      81.895  63.499  53.327  1.00  0.00     0.293 HD
ENDBRANCH  17  20
ENDBRANCH   1  12
BRANCH   2  22
ATOM     22  O   UNL     1      75.949  62.170  51.716  1.00  0.00    -0.502 OA
ATOM     23  H   UNL     1      76.067  61.241  51.329  1.00  0.00     0.293 HD
ENDBRANCH   2  22
BRANCH   6  24
ATOM     24  O   UNL     1      71.202  63.263  53.869  1.00  0.00    -0.507 OA
ATOM     25  H   UNL     1      70.220  63.340  54.085  1.00  0.00     0.293 HD
ENDBRANCH   6  24
BRANCH   8  26
ATOM     26  O   UNL     1      72.407  63.486  58.510  1.00  0.00    -0.508 OA
ATOM     27  H   UNL     1      73.091  63.534  59.256  1.00  0.00     0.293 HD
ENDBRANCH   8  26
TORSDOF 6
ENDMDL
MODEL 2
REMARK VINA RESULT:    -5.849      1.913      2.633
REMARK INTER + INTRA:          -7.341
REMARK INTER:                  -7.034
REMARK INTRA:                  -0.307
REMARK UNBOUND:                -0.295
REMARK SMILES O=c1c(O)c(-c2ccc(O)c(O)c2)oc2cc(O)cc(O)c12
REMARK SMILES IDX 5 1 3 2 2 3 1 4 22 5 20 6 19 7 17 8 16 9 15 10 14 11 6 12
REMARK SMILES IDX 7 13 8 14 9 15 13 16 11 17 10 18 12 20 4 22 21 24 18 26
REMARK H PARENT 10 19 12 21 4 23 21 25 18 27
REMARK Flexibility Score: inf
ROOT
ATOM      1  C   UNL     1      75.732  61.174  54.106  1.00  0.00     0.180 A 
ATOM      2  C   UNL     1      75.189  61.927  53.051  1.00  0.00     0.208 A 
ATOM      3  C   UNL     1      74.170  62.853  53.328  1.00  0.00     0.238 A 
ATOM      4  O   UNL     1      73.742  63.576  52.392  1.00  0.00    -0.285 OA
ATOM      5  C   UNL     1      73.668  62.975  54.647  1.00  0.00     0.111 A 
ATOM      6  C   UNL     1      72.606  63.848  55.034  1.00  0.00     0.134 A 
ATOM      7  C   UNL     1      72.265  63.961  56.387  1.00  0.00     0.093 A 
ATOM      8  C   UNL     1      72.903  63.186  57.360  1.00  0.00     0.123 A 
ATOM      9  C   UNL     1      73.901  62.291  56.984  1.00  0.00     0.094 A 
ATOM     10  C   UNL     1      74.291  62.183  55.647  1.00  0.00     0.146 A 
ATOM     11  O   UNL     1      75.263  61.333  55.338  1.00  0.00    -0.452 OA
ENDROOT
BRANCH   1  12
ATOM     12  C   UNL     1      76.817  60.189  53.895  1.00  0.00     0.025 A 
ATOM     13  C   UNL     1      78.158  60.505  54.176  1.00  0.00     0.016 A 
ATOM     14  C   UNL     1      79.162  59.551  53.992  1.00  0.00     0.051 A 
ATOM     15  C   UNL     1      78.840  58.264  53.538  1.00  0.00     0.157 A 
ATOM     16  C   UNL     1      76.497  58.892  53.460  1.00  0.00     0.062 A 
ATOM     17  C   UNL     1      77.500  57.934  53.274  1.00  0.00     0.158 A 
BRANCH  15  18
ATOM     18  O   UNL     1      79.844  57.315  53.353  1.00  0.00    -0.504 OA
ATOM     19  H   UNL     1      79.786  56.617  52.621  1.00  0.00     0.293 HD
ENDBRANCH  15  18
BRANCH  17  20
ATOM     20  O   UNL     1      77.148  56.661  52.828  1.00  0.00    -0.504 OA
ATOM     21  H   UNL     1      77.463  56.296  51.939  1.00  0.00     0.293 HD
ENDBRANCH  17  20
ENDBRANCH   1  12
BRANCH   2  22
ATOM     22  O   UNL     1      75.646  61.738  51.744  1.00  0.00    -0.502 OA
ATOM     23  H   UNL     1      76.093  60.881  51.442  1.00  0.00     0.293 HD
ENDBRANCH   2  22
BRANCH   6  24
ATOM     24  O   UNL     1      71.844  64.600  54.136  1.00  0.00    -0.507 OA
ATOM     25  H   UNL     1      70.874  64.431  53.919  1.00  0.00     0.293 HD
ENDBRANCH   6  24
BRANCH   8  26
ATOM     26  O   UNL     1      72.545  63.293  58.701  1.00  0.00    -0.508 OA
ATOM     27  H   UNL     1      71.592  63.499  58.981  1.00  0.00     0.293 HD
ENDBRANCH   8  26
TORSDOF 6
ENDMDL
MODEL 3
REMARK VINA RESULT:    -5.682      3.677      6.018
REMARK INTER + INTRA:          -7.140
REMARK INTER:                  -6.871
REMARK INTRA:                  -0.269
REMARK UNBOUND:                -0.295
REMARK SMILES O=c1c(O)c(-c2ccc(O)c(O)c2)oc2cc(O)cc(O)c12
REMARK SMILES IDX 5 1 3 2 2 3 1 4 22 5 20 6 19 7 17 8 16 9 15 10 14 11 6 12
REMARK SMILES IDX 7 13 8 14 9 15 13 16 11 17 10 18 12 20 4 22 21 24 18 26
REMARK H PARENT 10 19 12 21 4 23 21 25 18 27
REMARK Flexibility Score: inf
ROOT
ATOM      1  C   UNL     1      72.212  61.425  54.443  1.00  0.00     0.180 A 
ATOM      2  C   UNL     1      72.373  60.032  54.524  1.00  0.00     0.208 A 
ATOM      3  C   UNL     1      71.363  59.199  54.018  1.00  0.00     0.238 A 
ATOM      4  O   UNL     1      71.547  57.954  54.026  1.00  0.00    -0.285 OA
ATOM      5  C   UNL     1      70.180  59.768  53.487  1.00  0.00     0.111 A 
ATOM      6  C   UNL     1      69.071  59.019  52.987  1.00  0.00     0.134 A 
ATOM      7  C   UNL     1      67.998  59.691  52.388  1.00  0.00     0.093 A 
ATOM      8  C   UNL     1      67.964  61.087  52.329  1.00  0.00     0.123 A 
ATOM      9  C   UNL     1      69.014  61.827  52.864  1.00  0.00     0.094 A 
ATOM     10  C   UNL     1      70.117  61.185  53.433  1.00  0.00     0.146 A 
ATOM     11  O   UNL     1      71.106  61.931  53.910  1.00  0.00    -0.452 OA
ENDROOT
BRANCH   1  12
ATOM     12  C   UNL     1      73.240  62.368  54.942  1.00  0.00     0.025 A 
ATOM     13  C   UNL     1      74.440  62.581  54.242  1.00  0.00     0.016 A 
ATOM     14  C   UNL     1      75.384  63.495  54.720  1.00  0.00     0.051 A 
ATOM     15  C   UNL     1      75.137  64.217  55.896  1.00  0.00     0.157 A 
ATOM     16  C   UNL     1      72.988  63.109  56.108  1.00  0.00     0.062 A 
ATOM     17  C   UNL     1      73.931  64.024  56.590  1.00  0.00     0.158 A 
BRANCH  15  18
ATOM     18  O   UNL     1      76.081  65.125  56.371  1.00  0.00    -0.504 OA
ATOM     19  H   UNL     1      75.891  66.119  56.404  1.00  0.00     0.293 HD
ENDBRANCH  15  18
BRANCH  17  20
ATOM     20  O   UNL     1      73.652  64.732  57.758  1.00  0.00    -0.504 OA
ATOM     21  H   UNL     1      74.333  64.836  58.500  1.00  0.00     0.293 HD
ENDBRANCH  17  20
ENDBRANCH   1  12
BRANCH   2  22
ATOM     22  O   UNL     1      73.514  59.488  55.120  1.00  0.00    -0.502 OA
ATOM     23  H   UNL     1      74.334  59.224  54.587  1.00  0.00     0.293 HD
ENDBRANCH   2  22
BRANCH   6  24
ATOM     24  O   UNL     1      68.961  57.628  53.075  1.00  0.00    -0.507 OA
ATOM     25  H   UNL     1      69.478  57.048  53.718  1.00  0.00     0.293 HD
ENDBRANCH   6  24
BRANCH   8  26
ATOM     26  O   UNL     1      66.884  61.747  51.748  1.00  0.00    -0.508 OA
ATOM     27  H   UNL     1      66.002  61.276  51.581  1.00  0.00     0.293 HD
ENDBRANCH   8  26
TORSDOF 6
ENDMDL
MODEL 4
REMARK VINA RESULT:    -5.678      3.837      6.248
REMARK INTER + INTRA:          -7.135
REMARK INTER:                  -6.847
REMARK INTRA:                  -0.288
REMARK UNBOUND:                -0.295
REMARK SMILES O=c1c(O)c(-c2ccc(O)c(O)c2)oc2cc(O)cc(O)c12
REMARK SMILES IDX 5 1 3 2 2 3 1 4 22 5 20 6 19 7 17 8 16 9 15 10 14 11 6 12
REMARK SMILES IDX 7 13 8 14 9 15 13 16 11 17 10 18 12 20 4 22 21 24 18 26
REMARK H PARENT 10 19 12 21 4 23 21 25 18 27
REMARK Flexibility Score: inf
ROOT
ATOM      1  C   UNL     1      71.322  62.909  54.008  1.00  0.00     0.180 A 
ATOM      2  C   UNL     1      70.251  63.731  53.619  1.00  0.00     0.208 A 
ATOM      3  C   UNL     1      69.081  63.135  53.122  1.00  0.00     0.238 A 
ATOM      4  O   UNL     1      68.099  63.871  52.846  1.00  0.00    -0.285 OA
ATOM      5  C   UNL     1      69.017  61.728  52.968  1.00  0.00     0.111 A 
ATOM      6  C   UNL     1      67.899  61.020  52.431  1.00  0.00     0.134 A 
ATOM      7  C   UNL     1      67.908  59.620  52.425  1.00  0.00     0.093 A 
ATOM      8  C   UNL     1      69.020  58.903  52.875  1.00  0.00     0.123 A 
ATOM      9  C   UNL     1      70.137  59.586  53.347  1.00  0.00     0.094 A 
ATOM     10  C   UNL     1      70.144  60.982  53.403  1.00  0.00     0.146 A 
ATOM     11  O   UNL     1      71.221  61.592  53.882  1.00  0.00    -0.452 OA
ENDROOT
BRANCH   1  12
ATOM     12  C   UNL     1      72.582  63.463  54.555  1.00  0.00     0.025 A 
ATOM     13  C   UNL     1      73.718  63.638  53.746  1.00  0.00     0.016 A 
ATOM     14  C   UNL     1      74.887  64.186  54.278  1.00  0.00     0.051 A 
ATOM     15  C   UNL     1      74.936  64.580  55.622  1.00  0.00     0.157 A 
ATOM     16  C   UNL     1      72.628  63.880  55.896  1.00  0.00     0.062 A 
ATOM     17  C   UNL     1      73.798  64.429  56.433  1.00  0.00     0.158 A 
BRANCH  15  18
ATOM     18  O   UNL     1      76.105  65.125  56.151  1.00  0.00    -0.504 OA
ATOM     19  H   UNL     1      76.125  66.059  56.542  1.00  0.00     0.293 HD
ENDBRANCH  15  18
BRANCH  17  20
ATOM     20  O   UNL     1      73.812  64.818  57.772  1.00  0.00    -0.504 OA
ATOM     21  H   UNL     1      72.963  65.036  58.278  1.00  0.00     0.293 HD
ENDBRANCH  17  20
ENDBRANCH   1  12
BRANCH   2  22
ATOM     22  O   UNL     1      70.361  65.121  53.708  1.00  0.00    -0.502 OA
ATOM     23  H   UNL     1      71.255  65.596  53.724  1.00  0.00     0.293 HD
ENDBRANCH   2  22
BRANCH   6  24
ATOM     24  O   UNL     1      66.775  61.636  51.874  1.00  0.00    -0.507 OA
ATOM     25  H   UNL     1      66.669  61.870  50.899  1.00  0.00     0.293 HD
ENDBRANCH   6  24
BRANCH   8  26
ATOM     26  O   UNL     1      69.027  57.511  52.848  1.00  0.00    -0.508 OA
ATOM     27  H   UNL     1      68.362  56.988  52.289  1.00  0.00     0.293 HD
ENDBRANCH   8  26
TORSDOF 6
ENDMDL
MODEL 5
REMARK VINA RESULT:    -5.648      1.720      7.053
REMARK INTER + INTRA:          -7.099
REMARK INTER:                  -6.779
REMARK INTRA:                  -0.320
REMARK UNBOUND:                -0.295
REMARK SMILES O=c1c(O)c(-c2ccc(O)c(O)c2)oc2cc(O)cc(O)c12
REMARK SMILES IDX 5 1 3 2 2 3 1 4 22 5 20 6 19 7 17 8 16 9 15 10 14 11 6 12
REMARK SMILES IDX 7 13 8 14 9 15 13 16 11 17 10 18 12 20 4 22 21 24 18 26
REMARK H PARENT 10 19 12 21 4 23 21 25 18 27
REMARK Flexibility Score: inf
ROOT
ATOM      1  C   UNL     1      75.958  62.167  55.050  1.00  0.00     0.180 A 
ATOM      2  C   UNL     1      77.094  62.993  55.027  1.00  0.00     0.208 A 
ATOM      3  C   UNL     1      78.343  62.424  54.730  1.00  0.00     0.238 A 
ATOM      4  O   UNL     1      79.343  63.182  54.637  1.00  0.00    -0.285 OA
ATOM      5  C   UNL     1      78.449  61.029  54.515  1.00  0.00     0.111 A 
ATOM      6  C   UNL     1      79.672  60.338  54.251  1.00  0.00     0.134 A 
ATOM      7  C   UNL     1      79.640  58.971  53.950  1.00  0.00     0.093 A 
ATOM      8  C   UNL     1      78.440  58.256  53.965  1.00  0.00     0.123 A 
ATOM      9  C   UNL     1      77.250  58.909  54.276  1.00  0.00     0.094 A 
ATOM     10  C   UNL     1      77.243  60.280  54.543  1.00  0.00     0.146 A 
ATOM     11  O   UNL     1      76.083  60.867  54.813  1.00  0.00    -0.452 OA
ENDROOT
BRANCH   1  12
ATOM     12  C   UNL     1      74.605  62.695  55.341  1.00  0.00     0.025 A 
ATOM     13  C   UNL     1      73.718  63.047  54.309  1.00  0.00     0.016 A 
ATOM     14  C   UNL     1      72.438  63.520  54.608  1.00  0.00     0.051 A 
ATOM     15  C   UNL     1      72.020  63.636  55.941  1.00  0.00     0.157 A 
ATOM     16  C   UNL     1      74.174  62.793  56.675  1.00  0.00     0.062 A 
ATOM     17  C   UNL     1      72.893  63.267  56.978  1.00  0.00     0.158 A 
BRANCH  15  18
ATOM     18  O   UNL     1      70.743  64.110  56.236  1.00  0.00    -0.504 OA
ATOM     19  H   UNL     1      70.291  64.810  55.660  1.00  0.00     0.293 HD
ENDBRANCH  15  18
BRANCH  17  20
ATOM     20  O   UNL     1      72.505  63.364  58.314  1.00  0.00    -0.504 OA
ATOM     21  H   UNL     1      72.033  64.181  58.680  1.00  0.00     0.293 HD
ENDBRANCH  17  20
ENDBRANCH   1  12
BRANCH   2  22
ATOM     22  O   UNL     1      76.980  64.355  55.316  1.00  0.00    -0.502 OA
ATOM     23  H   UNL     1      77.640  64.843  55.910  1.00  0.00     0.293 HD
ENDBRANCH   2  22
BRANCH   6  24
ATOM     24  O   UNL     1      80.935  60.935  54.298  1.00  0.00    -0.507 OA
ATOM     25  H   UNL     1      81.104  61.929  54.315  1.00  0.00     0.293 HD
ENDBRANCH   6  24
BRANCH   8  26
ATOM     26  O   UNL     1      78.421  56.892  53.681  1.00  0.00    -0.508 OA
ATOM     27  H   UNL     1      77.611  56.449  53.263  1.00  0.00     0.293 HD
ENDBRANCH   8  26
TORSDOF 6
ENDMDL
MODEL 6
REMARK VINA RESULT:    -5.592      2.611      8.189
REMARK INTER + INTRA:          -7.032
REMARK INTER:                  -6.731
REMARK INTRA:                  -0.300
REMARK UNBOUND:                -0.295
REMARK SMILES O=c1c(O)c(-c2ccc(O)c(O)c2)oc2cc(O)cc(O)c12
REMARK SMILES IDX 5 1 3 2 2 3 1 4 22 5 20 6 19 7 17 8 16 9 15 10 14 11 6 12
REMARK SMILES IDX 7 13 8 14 9 15 13 16 11 17 10 18 12 20 4 22 21 24 18 26
REMARK H PARENT 10 19 12 21 4 23 21 25 18 27
REMARK Flexibility Score: inf
ROOT
ATOM      1  C   UNL     1      71.917  63.673  54.815  1.00  0.00     0.180 A 
ATOM      2  C   UNL     1      72.637  63.647  56.022  1.00  0.00     0.208 A 
ATOM      3  C   UNL     1      74.040  63.625  55.977  1.00  0.00     0.238 A 
ATOM      4  O   UNL     1      74.679  63.678  57.060  1.00  0.00    -0.285 OA
ATOM      5  C   UNL     1      74.705  63.572  54.728  1.00  0.00     0.111 A 
ATOM      6  C   UNL     1      76.122  63.501  54.564  1.00  0.00     0.134 A 
ATOM      7  C   UNL     1      76.672  63.560  53.277  1.00  0.00     0.093 A 
ATOM      8  C   UNL     1      75.854  63.623  52.146  1.00  0.00     0.123 A 
ATOM      9  C   UNL     1      74.470  63.636  52.293  1.00  0.00     0.094 A 
ATOM     10  C   UNL     1      73.892  63.618  53.565  1.00  0.00     0.146 A 
ATOM     11  O   UNL     1      72.568  63.655  53.659  1.00  0.00    -0.452 OA
ENDROOT
BRANCH   1  12
ATOM     12  C   UNL     1      70.437  63.712  54.782  1.00  0.00     0.025 A 
ATOM     13  C   UNL     1      69.730  64.904  55.013  1.00  0.00     0.016 A 
ATOM     14  C   UNL     1      68.334  64.921  54.951  1.00  0.00     0.051 A 
ATOM     15  C   UNL     1      67.625  63.751  54.645  1.00  0.00     0.157 A 
ATOM     16  C   UNL     1      69.723  62.547  54.454  1.00  0.00     0.062 A 
ATOM     17  C   UNL     1      68.325  62.559  54.393  1.00  0.00     0.158 A 
BRANCH  15  18
ATOM     18  O   UNL     1      66.232  63.771  54.587  1.00  0.00    -0.504 OA
ATOM     19  H   UNL     1      65.705  62.980  54.237  1.00  0.00     0.293 HD
ENDBRANCH  15  18
BRANCH  17  20
ATOM     20  O   UNL     1      67.650  61.382  54.078  1.00  0.00    -0.504 OA
ATOM     21  H   UNL     1      67.779  60.906  53.194  1.00  0.00     0.293 HD
ENDBRANCH  17  20
ENDBRANCH   1  12
BRANCH   2  22
ATOM     22  O   UNL     1      71.961  63.624  57.245  1.00  0.00    -0.502 OA
ATOM     23  H   UNL     1      72.443  63.540  58.132  1.00  0.00     0.293 HD
ENDBRANCH   2  22
BRANCH   6  24
ATOM     24  O   UNL     1      77.026  63.346  55.619  1.00  0.00    -0.507 OA
ATOM     25  H   UNL     1      77.019  63.887  56.470  1.00  0.00     0.293 HD
ENDBRANCH   6  24
BRANCH   8  26
ATOM     26  O   UNL     1      76.410  63.663  50.869  1.00  0.00    -0.508 OA
ATOM     27  H   UNL     1      77.203  63.084  50.617  1.00  0.00     0.293 HD
ENDBRANCH   8  26
TORSDOF 6
ENDMDL
MODEL 7
REMARK VINA RESULT:    -5.568      1.604      3.283
REMARK INTER + INTRA:          -7.002
REMARK INTER:                  -6.671
REMARK INTRA:                  -0.331
REMARK UNBOUND:                -0.295
REMARK SMILES O=c1c(O)c(-c2ccc(O)c(O)c2)oc2cc(O)cc(O)c12
REMARK SMILES IDX 5 1 3 2 2 3 1 4 22 5 20 6 19 7 17 8 16 9 15 10 14 11 6 12
REMARK SMILES IDX 7 13 8 14 9 15 13 16 11 17 10 18 12 20 4 22 21 24 18 26
REMARK H PARENT 10 19 12 21 4 23 21 25 18 27
REMARK Flexibility Score: inf
ROOT
ATOM      1  C   UNL     1      75.158  62.373  55.298  1.00  0.00     0.180 A 
ATOM      2  C   UNL     1      74.516  62.669  56.513  1.00  0.00     0.208 A 
ATOM      3  C   UNL     1      73.158  63.024  56.496  1.00  0.00     0.238 A 
ATOM      4  O   UNL     1      72.571  63.215  57.593  1.00  0.00    -0.285 OA
ATOM      5  C   UNL     1      72.472  63.132  55.262  1.00  0.00     0.111 A 
ATOM      6  C   UNL     1      71.107  63.528  55.123  1.00  0.00     0.134 A 
ATOM      7  C   UNL     1      70.505  63.497  53.859  1.00  0.00     0.093 A 
ATOM      8  C   UNL     1      71.235  63.148  52.720  1.00  0.00     0.123 A 
ATOM      9  C   UNL     1      72.582  62.814  52.839  1.00  0.00     0.094 A 
ATOM     10  C   UNL     1      73.201  62.798  54.091  1.00  0.00     0.146 A 
ATOM     11  O   UNL     1      74.481  62.452  54.159  1.00  0.00    -0.452 OA
ENDROOT
BRANCH   1  12
ATOM     12  C   UNL     1      76.584  61.977  55.237  1.00  0.00     0.025 A 
ATOM     13  C   UNL     1      76.975  60.630  55.324  1.00  0.00     0.016 A 
ATOM     14  C   UNL     1      78.325  60.279  55.238  1.00  0.00     0.051 A 
ATOM     15  C   UNL     1      79.302  61.267  55.050  1.00  0.00     0.157 A 
ATOM     16  C   UNL     1      77.564  62.961  55.027  1.00  0.00     0.062 A 
ATOM     17  C   UNL     1      78.917  62.614  54.941  1.00  0.00     0.158 A 
BRANCH  15  18
ATOM     18  O   UNL     1      80.648  60.914  54.967  1.00  0.00    -0.504 OA
ATOM     19  H   UNL     1      80.945  59.946  54.995  1.00  0.00     0.293 HD
ENDBRANCH  15  18
BRANCH  17  20
ATOM     20  O   UNL     1      79.864  63.619  54.747  1.00  0.00    -0.504 OA
ATOM     21  H   UNL     1      80.636  63.513  54.101  1.00  0.00     0.293 HD
ENDBRANCH  17  20
ENDBRANCH   1  12
BRANCH   2  22
ATOM     22  O   UNL     1      75.229  62.630  57.714  1.00  0.00    -0.502 OA
ATOM     23  H   UNL     1      76.239  62.561  57.746  1.00  0.00     0.293 HD
ENDBRANCH   2  22
BRANCH   6  24
ATOM     24  O   UNL     1      70.311  63.981  56.179  1.00  0.00    -0.507 OA
ATOM     25  H   UNL     1      70.626  64.585  56.922  1.00  0.00     0.293 HD
ENDBRANCH   6  24
BRANCH   8  26
ATOM     26  O   UNL     1      70.632  63.137  51.465  1.00  0.00    -0.508 OA
ATOM     27  H   UNL     1      69.658  62.884  51.347  1.00  0.00     0.293 HD
ENDBRANCH   8  26
TORSDOF 6
ENDMDL
MODEL 8
REMARK VINA RESULT:    -5.460      1.588      7.070
REMARK INTER + INTRA:          -6.872
REMARK INTER:                  -6.551
REMARK INTRA:                  -0.322
REMARK UNBOUND:                -0.295
REMARK SMILES O=c1c(O)c(-c2ccc(O)c(O)c2)oc2cc(O)cc(O)c12
REMARK SMILES IDX 5 1 3 2 2 3 1 4 22 5 20 6 19 7 17 8 16 9 15 10 14 11 6 12
REMARK SMILES IDX 7 13 8 14 9 15 13 16 11 17 10 18 12 20 4 22 21 24 18 26
REMARK H PARENT 10 19 12 21 4 23 21 25 18 27
REMARK Flexibility Score: inf
ROOT
ATOM      1  C   UNL     1      75.535  61.611  54.994  1.00  0.00     0.180 A 
ATOM      2  C   UNL     1      75.773  60.233  55.139  1.00  0.00     0.208 A 
ATOM      3  C   UNL     1      77.049  59.728  54.840  1.00  0.00     0.238 A 
ATOM      4  O   UNL     1      77.276  58.508  55.044  1.00  0.00    -0.285 OA
ATOM      5  C   UNL     1      78.053  60.597  54.349  1.00  0.00     0.111 A 
ATOM      6  C   UNL     1      79.369  60.186  53.971  1.00  0.00     0.134 A 
ATOM      7  C   UNL     1      80.312  61.151  53.598  1.00  0.00     0.093 A 
ATOM      8  C   UNL     1      79.971  62.504  53.526  1.00  0.00     0.123 A 
ATOM      9  C   UNL     1      78.675  62.907  53.838  1.00  0.00     0.094 A 
ATOM     10  C   UNL     1      77.722  61.973  54.252  1.00  0.00     0.146 A 
ATOM     11  O   UNL     1      76.506  62.405  54.561  1.00  0.00    -0.452 OA
ENDROOT
BRANCH   1  12
ATOM     12  C   UNL     1      74.220  62.219  55.302  1.00  0.00     0.025 A 
ATOM     13  C   UNL     1      73.226  62.353  54.318  1.00  0.00     0.016 A 
ATOM     14  C   UNL     1      71.984  62.907  54.639  1.00  0.00     0.051 A 
ATOM     15  C   UNL     1      71.712  63.324  55.950  1.00  0.00     0.157 A 
ATOM     16  C   UNL     1      73.936  62.618  56.619  1.00  0.00     0.062 A 
ATOM     17  C   UNL     1      72.694  63.175  56.944  1.00  0.00     0.158 A 
BRANCH  15  18
ATOM     18  O   UNL     1      70.474  63.879  56.266  1.00  0.00    -0.504 OA
ATOM     19  H   UNL     1      70.222  64.816  55.975  1.00  0.00     0.293 HD
ENDBRANCH  15  18
BRANCH  17  20
ATOM     20  O   UNL     1      72.452  63.572  58.258  1.00  0.00    -0.504 OA
ATOM     21  H   UNL     1      73.194  63.653  58.942  1.00  0.00     0.293 HD
ENDBRANCH  17  20
ENDBRANCH   1  12
BRANCH   2  22
ATOM     22  O   UNL     1      74.746  59.381  55.553  1.00  0.00    -0.502 OA
ATOM     23  H   UNL     1      74.667  58.425  55.227  1.00  0.00     0.293 HD
ENDBRANCH   2  22
BRANCH   6  24
ATOM     24  O   UNL     1      79.789  58.854  53.921  1.00  0.00    -0.507 OA
ATOM     25  H   UNL     1      80.742  58.544  54.035  1.00  0.00     0.293 HD
ENDBRANCH   6  24
BRANCH   8  26
ATOM     26  O   UNL     1      80.911  63.454  53.137  1.00  0.00    -0.508 OA
ATOM     27  H   UNL     1      80.819  63.966  52.266  1.00  0.00     0.293 HD
ENDBRANCH   8  26
TORSDOF 6
ENDMDL
MODEL 9
REMARK VINA RESULT:    -5.377      2.956      4.577
REMARK INTER + INTRA:          -6.773
REMARK INTER:                  -6.466
REMARK INTRA:                  -0.307
REMARK UNBOUND:                -0.295
REMARK SMILES O=c1c(O)c(-c2ccc(O)c(O)c2)oc2cc(O)cc(O)c12
REMARK SMILES IDX 5 1 3 2 2 3 1 4 22 5 20 6 19 7 17 8 16 9 15 10 14 11 6 12
REMARK SMILES IDX 7 13 8 14 9 15 13 16 11 17 10 18 12 20 4 22 21 24 18 26
REMARK H PARENT 10 19 12 21 4 23 21 25 18 27
REMARK Flexibility Score: inf
ROOT
ATOM      1  C   UNL     1      73.055  62.218  54.246  1.00  0.00     0.180 A 
ATOM      2  C   UNL     1      72.052  63.202  54.223  1.00  0.00     0.208 A 
ATOM      3  C   UNL     1      70.710  62.804  54.125  1.00  0.00     0.238 A 
ATOM      4  O   UNL     1      69.813  63.685  54.181  1.00  0.00    -0.285 OA
ATOM      5  C   UNL     1      70.390  61.430  53.996  1.00  0.00     0.111 A 
ATOM      6  C   UNL     1      69.065  60.916  53.844  1.00  0.00     0.134 A 
ATOM      7  C   UNL     1      68.861  59.530  53.831  1.00  0.00     0.093 A 
ATOM      8  C   UNL     1      69.938  58.642  53.899  1.00  0.00     0.123 A 
ATOM      9  C   UNL     1      71.236  59.135  53.990  1.00  0.00     0.094 A 
ATOM     10  C   UNL     1      71.470  60.511  54.045  1.00  0.00     0.146 A 
ATOM     11  O   UNL     1      72.723  60.937  54.155  1.00  0.00    -0.452 OA
ENDROOT
BRANCH   1  12
ATOM     12  C   UNL     1      74.492  62.560  54.362  1.00  0.00     0.025 A 
ATOM     13  C   UNL     1      75.245  62.948  53.241  1.00  0.00     0.016 A 
ATOM     14  C   UNL     1      76.593  63.291  53.378  1.00  0.00     0.051 A 
ATOM     15  C   UNL     1      77.204  63.263  54.640  1.00  0.00     0.157 A 
ATOM     16  C   UNL     1      75.103  62.554  55.627  1.00  0.00     0.062 A 
ATOM     17  C   UNL     1      76.453  62.895  55.769  1.00  0.00     0.158 A 
BRANCH  15  18
ATOM     18  O   UNL     1      78.549  63.602  54.774  1.00  0.00    -0.504 OA
ATOM     19  H   UNL     1      79.004  64.234  54.126  1.00  0.00     0.293 HD
ENDBRANCH  15  18
BRANCH  17  20
ATOM     20  O   UNL     1      77.030  62.865  57.037  1.00  0.00    -0.504 OA
ATOM     21  H   UNL     1      76.477  62.938  57.882  1.00  0.00     0.293 HD
ENDBRANCH  17  20
ENDBRANCH   1  12
BRANCH   2  22
ATOM     22  O   UNL     1      72.393  64.556  54.276  1.00  0.00    -0.502 OA
ATOM     23  H   UNL     1      71.699  65.289  54.364  1.00  0.00     0.293 HD
ENDBRANCH   2  22
BRANCH   6  24
ATOM     24  O   UNL     1      67.929  61.712  53.678  1.00  0.00    -0.507 OA
ATOM     25  H   UNL     1      67.940  62.689  53.426  1.00  0.00     0.293 HD
ENDBRANCH   6  24
BRANCH   8  26
ATOM     26  O   UNL     1      69.726  57.265  53.867  1.00  0.00    -0.508 OA
ATOM     27  H   UNL     1      69.709  56.752  52.994  1.00  0.00     0.293 HD
ENDBRANCH   8  26
TORSDOF 6
ENDMDL
