MODEL 1
REMARK VINA RESULT:    -6.521      0.000      0.000
REMARK INTER + INTRA:          -8.388
REMARK INTER:                  -8.046
REMARK INTRA:                  -0.341
REMARK UNBOUND:                -0.341
REMARK SMILES O=c1c(O)c(-c2cc(O)c(O)c(O)c2)oc2cc(O)cc(O)c12
REMARK SMILES IDX 5 1 3 2 2 3 1 4 23 5 21 6 20 7 18 8 17 9 16 10 15 11 6 12
REMARK SMILES IDX 7 13 8 14 14 15 10 16 12 17 9 18 11 20 13 22 4 24 22 26
REMARK SMILES IDX 19 28
REMARK H PARENT 9 19 11 21 13 23 4 25 22 27 19 29
REMARK Flexibility Score: inf
ROOT
ATOM      1  C   UNL     1     -32.856   9.455   8.454  1.00  0.00     0.180 A 
ATOM      2  C   UNL     1     -31.941   8.741   9.248  1.00  0.00     0.208 A 
ATOM      3  C   UNL     1     -31.883   7.344   9.130  1.00  0.00     0.238 A 
ATOM      4  O   UNL     1     -31.025   6.716   9.803  1.00  0.00    -0.285 OA
ATOM      5  C   UNL     1     -32.751   6.675   8.233  1.00  0.00     0.111 A 
ATOM      6  C   UNL     1     -32.807   5.259   8.063  1.00  0.00     0.134 A 
ATOM      7  C   UNL     1     -33.612   4.716   7.054  1.00  0.00     0.093 A 
ATOM      8  C   UNL     1     -34.412   5.531   6.254  1.00  0.00     0.123 A 
ATOM      9  C   UNL     1     -34.410   6.912   6.451  1.00  0.00     0.094 A 
ATOM     10  C   UNL     1     -33.591   7.487   7.426  1.00  0.00     0.146 A 
ATOM     11  O   UNL     1     -33.610   8.806   7.575  1.00  0.00    -0.452 OA
ENDROOT
BRANCH   1  12
ATOM     12  C   UNL     1     -32.993  10.927   8.540  1.00  0.00     0.029 A 
ATOM     13  C   UNL     1     -32.127  11.746   7.799  1.00  0.00     0.062 A 
ATOM     14  C   UNL     1     -32.247  13.139   7.844  1.00  0.00     0.162 A 
ATOM     15  C   UNL     1     -34.009  11.523   9.305  1.00  0.00     0.062 A 
ATOM     16  C   UNL     1     -33.252  13.730   8.628  1.00  0.00     0.200 A 
ATOM     17  C   UNL     1     -34.137  12.918   9.356  1.00  0.00     0.162 A 
BRANCH  14  18
ATOM     18  O   UNL     1     -31.358  13.917   7.103  1.00  0.00    -0.504 OA
ATOM     19  H   UNL     1     -31.295  13.848   6.094  1.00  0.00     0.293 HD
ENDBRANCH  14  18
BRANCH  16  20
ATOM     20  O   UNL     1     -33.362  15.122   8.671  1.00  0.00    -0.502 OA
ATOM     21  H   UNL     1     -33.911  15.598   9.376  1.00  0.00     0.293 HD
ENDBRANCH  16  20
BRANCH  17  22
ATOM     22  O   UNL     1     -35.146  13.499  10.125  1.00  0.00    -0.504 OA
ATOM     23  H   UNL     1     -36.111  13.202  10.047  1.00  0.00     0.293 HD
ENDBRANCH  17  22
ENDBRANCH   1  12
BRANCH   2  24
ATOM     24  O   UNL     1     -31.077   9.423  10.109  1.00  0.00    -0.502 OA
ATOM     25  H   UNL     1     -30.795   9.047  11.006  1.00  0.00     0.293 HD
ENDBRANCH   2  24
BRANCH   6  26
ATOM     26  O   UNL     1     -32.118   4.349   8.869  1.00  0.00    -0.507 OA
ATOM     27  H   UNL     1     -32.511   3.497   9.241  1.00  0.00     0.293 HD
ENDBRANCH   6  26
BRANCH   8  28
ATOM     28  O   UNL     1     -35.213   4.954   5.271  1.00  0.00    -0.508 OA
ATOM     29  H   UNL     1     -35.815   5.517   4.681  1.00  0.00     0.293 HD
ENDBRANCH   8  28
TORSDOF 7
ENDMDL
MODEL 2
REMARK VINA RESULT:    -6.330      1.299      7.268
REMARK INTER + INTRA:          -8.151
REMARK INTER:                  -8.037
REMARK INTRA:                  -0.115
REMARK UNBOUND:                -0.341
REMARK SMILES O=c1c(O)c(-c2cc(O)c(O)c(O)c2)oc2cc(O)cc(O)c12
REMARK SMILES IDX 5 1 3 2 2 3 1 4 23 5 21 6 20 7 18 8 17 9 16 10 15 11 6 12
REMARK SMILES IDX 7 13 8 14 14 15 10 16 12 17 9 18 11 20 13 22 4 24 22 26
REMARK SMILES IDX 19 28
REMARK H PARENT 9 19 11 21 13 23 4 25 22 27 19 29
REMARK Flexibility Score: inf
ROOT
ATOM      1  C   UNL     1     -33.583   9.493   7.769  1.00  0.00     0.180 A 
ATOM      2  C   UNL     1     -34.766  10.136   8.177  1.00  0.00     0.208 A 
ATOM      3  C   UNL     1     -34.737  11.516   8.432  1.00  0.00     0.238 A 
ATOM      4  O   UNL     1     -35.810  12.095   8.744  1.00  0.00    -0.285 OA
ATOM      5  C   UNL     1     -33.525  12.234   8.293  1.00  0.00     0.111 A 
ATOM      6  C   UNL     1     -33.372  13.626   8.564  1.00  0.00     0.134 A 
ATOM      7  C   UNL     1     -32.158  14.259   8.267  1.00  0.00     0.093 A 
ATOM      8  C   UNL     1     -31.073  13.537   7.770  1.00  0.00     0.123 A 
ATOM      9  C   UNL     1     -31.193  12.164   7.557  1.00  0.00     0.094 A 
ATOM     10  C   UNL     1     -32.402  11.511   7.810  1.00  0.00     0.146 A 
ATOM     11  O   UNL     1     -32.478  10.205   7.584  1.00  0.00    -0.452 OA
ENDROOT
BRANCH   1  12
ATOM     12  C   UNL     1     -33.528   8.037   7.506  1.00  0.00     0.029 A 
ATOM     13  C   UNL     1     -32.666   7.230   8.265  1.00  0.00     0.062 A 
ATOM     14  C   UNL     1     -32.608   5.849   8.053  1.00  0.00     0.162 A 
ATOM     15  C   UNL     1     -34.362   7.434   6.549  1.00  0.00     0.062 A 
ATOM     16  C   UNL     1     -33.429   5.254   7.080  1.00  0.00     0.200 A 
ATOM     17  C   UNL     1     -34.311   6.051   6.330  1.00  0.00     0.162 A 
BRANCH  14  18
ATOM     18  O   UNL     1     -31.728   5.085   8.819  1.00  0.00    -0.504 OA
ATOM     19  H   UNL     1     -31.543   5.293   9.793  1.00  0.00     0.293 HD
ENDBRANCH  14  18
BRANCH  16  20
ATOM     20  O   UNL     1     -33.362   3.875   6.871  1.00  0.00    -0.502 OA
ATOM     21  H   UNL     1     -33.898   3.219   7.426  1.00  0.00     0.293 HD
ENDBRANCH  16  20
BRANCH  17  22
ATOM     22  O   UNL     1     -35.139   5.465   5.373  1.00  0.00    -0.504 OA
ATOM     23  H   UNL     1     -35.818   6.008   4.853  1.00  0.00     0.293 HD
ENDBRANCH  17  22
ENDBRANCH   1  12
BRANCH   2  24
ATOM     24  O   UNL     1     -35.956   9.412   8.286  1.00  0.00    -0.502 OA
ATOM     25  H   UNL     1     -36.834   9.846   8.543  1.00  0.00     0.293 HD
ENDBRANCH   2  24
BRANCH   6  26
ATOM     26  O   UNL     1     -34.363  14.421   9.145  1.00  0.00    -0.507 OA
ATOM     27  H   UNL     1     -34.207  15.334   9.546  1.00  0.00     0.293 HD
ENDBRANCH   6  26
BRANCH   8  28
ATOM     28  O   UNL     1     -29.875  14.197   7.501  1.00  0.00    -0.508 OA
ATOM     29  H   UNL     1     -29.786  15.200   7.613  1.00  0.00     0.293 HD
ENDBRANCH   8  28
TORSDOF 7
ENDMDL
MODEL 3
REMARK VINA RESULT:    -5.854      1.147      2.762
REMARK INTER + INTRA:          -7.564
REMARK INTER:                  -7.245
REMARK INTRA:                  -0.319
REMARK UNBOUND:                -0.341
REMARK SMILES O=c1c(O)c(-c2cc(O)c(O)c(O)c2)oc2cc(O)cc(O)c12
REMARK SMILES IDX 5 1 3 2 2 3 1 4 23 5 21 6 20 7 18 8 17 9 16 10 15 11 6 12
REMARK SMILES IDX 7 13 8 14 14 15 10 16 12 17 9 18 11 20 13 22 4 24 22 26
REMARK SMILES IDX 19 28
REMARK H PARENT 9 19 11 21 13 23 4 25 22 27 19 29
REMARK Flexibility Score: inf
ROOT
ATOM      1  C   UNL     1     -33.201   9.537   7.999  1.00  0.00     0.180 A 
ATOM      2  C   UNL     1     -34.091   9.055   7.025  1.00  0.00     0.208 A 
ATOM      3  C   UNL     1     -34.179   7.671   6.807  1.00  0.00     0.238 A 
ATOM      4  O   UNL     1     -35.016   7.242   5.972  1.00  0.00    -0.285 OA
ATOM      5  C   UNL     1     -33.363   6.787   7.555  1.00  0.00     0.111 A 
ATOM      6  C   UNL     1     -33.340   5.370   7.389  1.00  0.00     0.134 A 
ATOM      7  C   UNL     1     -32.590   4.583   8.273  1.00  0.00     0.093 A 
ATOM      8  C   UNL     1     -31.813   5.166   9.274  1.00  0.00     0.123 A 
ATOM      9  C   UNL     1     -31.782   6.554   9.407  1.00  0.00     0.094 A 
ATOM     10  C   UNL     1     -32.547   7.364   8.563  1.00  0.00     0.146 A 
ATOM     11  O   UNL     1     -32.498   8.680   8.730  1.00  0.00    -0.452 OA
ENDROOT
BRANCH   1  12
ATOM     12  C   UNL     1     -33.034  10.984   8.268  1.00  0.00     0.029 A 
ATOM     13  C   UNL     1     -31.951  11.672   7.701  1.00  0.00     0.062 A 
ATOM     14  C   UNL     1     -31.780  13.043   7.921  1.00  0.00     0.162 A 
ATOM     15  C   UNL     1     -33.970  11.698   9.036  1.00  0.00     0.062 A 
ATOM     16  C   UNL     1     -32.707  13.748   8.706  1.00  0.00     0.200 A 
ATOM     17  C   UNL     1     -33.808  13.071   9.261  1.00  0.00     0.162 A 
BRANCH  14  18
ATOM     18  O   UNL     1     -30.682  13.686   7.349  1.00  0.00    -0.504 OA
ATOM     19  H   UNL     1     -30.136  14.372   7.857  1.00  0.00     0.293 HD
ENDBRANCH  14  18
BRANCH  16  20
ATOM     20  O   UNL     1     -32.528  15.115   8.924  1.00  0.00    -0.502 OA
ATOM     21  H   UNL     1     -32.972  15.602   9.693  1.00  0.00     0.293 HD
ENDBRANCH  16  20
BRANCH  17  22
ATOM     22  O   UNL     1     -34.739  13.768  10.030  1.00  0.00    -0.504 OA
ATOM     23  H   UNL     1     -35.640  14.041   9.656  1.00  0.00     0.293 HD
ENDBRANCH  17  22
ENDBRANCH   1  12
BRANCH   2  24
ATOM     24  O   UNL     1     -34.903   9.943   6.314  1.00  0.00    -0.502 OA
ATOM     25  H   UNL     1     -35.663  10.452   6.748  1.00  0.00     0.293 HD
ENDBRANCH   2  24
BRANCH   6  26
ATOM     26  O   UNL     1     -34.007   4.693   6.365  1.00  0.00    -0.507 OA
ATOM     27  H   UNL     1     -33.934   4.918   5.384  1.00  0.00     0.293 HD
ENDBRANCH   6  26
BRANCH   8  28
ATOM     28  O   UNL     1     -31.067   4.353  10.125  1.00  0.00    -0.508 OA
ATOM     29  H   UNL     1     -30.349   4.737  10.729  1.00  0.00     0.293 HD
ENDBRANCH   8  28
TORSDOF 7
ENDMDL
MODEL 4
REMARK VINA RESULT:    -5.833      1.151      3.275
REMARK INTER + INTRA:          -7.538
REMARK INTER:                  -7.212
REMARK INTRA:                  -0.326
REMARK UNBOUND:                -0.341
REMARK SMILES O=c1c(O)c(-c2cc(O)c(O)c(O)c2)oc2cc(O)cc(O)c12
REMARK SMILES IDX 5 1 3 2 2 3 1 4 23 5 21 6 20 7 18 8 17 9 16 10 15 11 6 12
REMARK SMILES IDX 7 13 8 14 14 15 10 16 12 17 9 18 11 20 13 22 4 24 22 26
REMARK SMILES IDX 19 28
REMARK H PARENT 9 19 11 21 13 23 4 25 22 27 19 29
REMARK Flexibility Score: inf
ROOT
ATOM      1  C   UNL     1     -33.182   9.561   7.938  1.00  0.00     0.180 A 
ATOM      2  C   UNL     1     -34.075   9.064   6.972  1.00  0.00     0.208 A 
ATOM      3  C   UNL     1     -34.160   7.677   6.773  1.00  0.00     0.238 A 
ATOM      4  O   UNL     1     -34.999   7.236   5.945  1.00  0.00    -0.285 OA
ATOM      5  C   UNL     1     -33.341   6.805   7.530  1.00  0.00     0.111 A 
ATOM      6  C   UNL     1     -33.316   5.386   7.382  1.00  0.00     0.134 A 
ATOM      7  C   UNL     1     -32.563   4.612   8.274  1.00  0.00     0.093 A 
ATOM      8  C   UNL     1     -31.784   5.209   9.265  1.00  0.00     0.123 A 
ATOM      9  C   UNL     1     -31.755   6.599   9.380  1.00  0.00     0.094 A 
ATOM     10  C   UNL     1     -32.523   7.396   8.528  1.00  0.00     0.146 A 
ATOM     11  O   UNL     1     -32.476   8.714   8.678  1.00  0.00    -0.452 OA
ENDROOT
BRANCH   1  12
ATOM     12  C   UNL     1     -33.017  11.011   8.187  1.00  0.00     0.029 A 
ATOM     13  C   UNL     1     -33.944  11.682   9.000  1.00  0.00     0.062 A 
ATOM     14  C   UNL     1     -33.801  13.047   9.270  1.00  0.00     0.162 A 
ATOM     15  C   UNL     1     -31.921  11.722   7.671  1.00  0.00     0.062 A 
ATOM     16  C   UNL     1     -32.714  13.758   8.735  1.00  0.00     0.200 A 
ATOM     17  C   UNL     1     -31.769  13.090   7.937  1.00  0.00     0.162 A 
BRANCH  14  18
ATOM     18  O   UNL     1     -34.751  13.679  10.072  1.00  0.00    -0.504 OA
ATOM     19  H   UNL     1     -35.550  13.184  10.452  1.00  0.00     0.293 HD
ENDBRANCH  14  18
BRANCH  16  20
ATOM     20  O   UNL     1     -32.581  15.121   9.005  1.00  0.00    -0.502 OA
ATOM     21  H   UNL     1     -32.292  15.786   8.298  1.00  0.00     0.293 HD
ENDBRANCH  16  20
BRANCH  17  22
ATOM     22  O   UNL     1     -30.680  13.786   7.414  1.00  0.00    -0.504 OA
ATOM     23  H   UNL     1     -30.005  13.338   6.806  1.00  0.00     0.293 HD
ENDBRANCH  17  22
ENDBRANCH   1  12
BRANCH   2  24
ATOM     24  O   UNL     1     -34.890   9.942   6.252  1.00  0.00    -0.502 OA
ATOM     25  H   UNL     1     -34.813  10.948   6.335  1.00  0.00     0.293 HD
ENDBRANCH   2  24
BRANCH   6  26
ATOM     26  O   UNL     1     -33.985   4.695   6.369  1.00  0.00    -0.507 OA
ATOM     27  H   UNL     1     -34.312   3.743   6.441  1.00  0.00     0.293 HD
ENDBRANCH   6  26
BRANCH   8  28
ATOM     28  O   UNL     1     -31.034   4.409  10.125  1.00  0.00    -0.508 OA
ATOM     29  H   UNL     1     -31.452   3.963  10.934  1.00  0.00     0.293 HD
ENDBRANCH   8  28
TORSDOF 7
ENDMDL
MODEL 5
REMARK VINA RESULT:    -5.686      2.971      4.458
REMARK INTER + INTRA:          -7.357
REMARK INTER:                  -6.998
REMARK INTRA:                  -0.359
REMARK UNBOUND:                -0.341
REMARK SMILES O=c1c(O)c(-c2cc(O)c(O)c(O)c2)oc2cc(O)cc(O)c12
REMARK SMILES IDX 5 1 3 2 2 3 1 4 23 5 21 6 20 7 18 8 17 9 16 10 15 11 6 12
REMARK SMILES IDX 7 13 8 14 14 15 10 16 12 17 9 18 11 20 13 22 4 24 22 26
REMARK SMILES IDX 19 28
REMARK H PARENT 9 19 11 21 13 23 4 25 22 27 19 29
REMARK Flexibility Score: inf
ROOT
ATOM      1  C   UNL     1     -33.110   8.948   6.598  1.00  0.00     0.180 A 
ATOM      2  C   UNL     1     -34.330   9.272   7.216  1.00  0.00     0.208 A 
ATOM      3  C   UNL     1     -34.854   8.403   8.186  1.00  0.00     0.238 A 
ATOM      4  O   UNL     1     -35.919   8.726   8.774  1.00  0.00    -0.285 OA
ATOM      5  C   UNL     1     -34.161   7.213   8.514  1.00  0.00     0.111 A 
ATOM      6  C   UNL     1     -34.620   6.240   9.451  1.00  0.00     0.134 A 
ATOM      7  C   UNL     1     -33.791   5.165   9.795  1.00  0.00     0.093 A 
ATOM      8  C   UNL     1     -32.548   4.993   9.186  1.00  0.00     0.123 A 
ATOM      9  C   UNL     1     -32.114   5.905   8.223  1.00  0.00     0.094 A 
ATOM     10  C   UNL     1     -32.904   7.007   7.887  1.00  0.00     0.146 A 
ATOM     11  O   UNL     1     -32.451   7.858   6.974  1.00  0.00    -0.452 OA
ENDROOT
BRANCH   1  12
ATOM     12  C   UNL     1     -32.506   9.801   5.549  1.00  0.00     0.029 A 
ATOM     13  C   UNL     1     -31.483  10.698   5.891  1.00  0.00     0.062 A 
ATOM     14  C   UNL     1     -30.880  11.501   4.918  1.00  0.00     0.162 A 
ATOM     15  C   UNL     1     -32.899   9.694   4.204  1.00  0.00     0.062 A 
ATOM     16  C   UNL     1     -31.291  11.404   3.577  1.00  0.00     0.200 A 
ATOM     17  C   UNL     1     -32.300  10.494   3.221  1.00  0.00     0.162 A 
BRANCH  14  18
ATOM     18  O   UNL     1     -29.876  12.389   5.302  1.00  0.00    -0.504 OA
ATOM     19  H   UNL     1     -30.062  13.187   5.898  1.00  0.00     0.293 HD
ENDBRANCH  14  18
BRANCH  16  20
ATOM     20  O   UNL     1     -30.687  12.212   2.612  1.00  0.00    -0.502 OA
ATOM     21  H   UNL     1     -29.703  12.447   2.643  1.00  0.00     0.293 HD
ENDBRANCH  16  20
BRANCH  17  22
ATOM     22  O   UNL     1     -32.702  10.383   1.890  1.00  0.00    -0.504 OA
ATOM     23  H   UNL     1     -32.682  11.176   1.261  1.00  0.00     0.293 HD
ENDBRANCH  17  22
ENDBRANCH   1  12
BRANCH   2  24
ATOM     24  O   UNL     1     -34.986  10.463   6.894  1.00  0.00    -0.502 OA
ATOM     25  H   UNL     1     -34.888  10.911   5.991  1.00  0.00     0.293 HD
ENDBRANCH   2  24
BRANCH   6  26
ATOM     26  O   UNL     1     -35.883   6.268  10.050  1.00  0.00    -0.507 OA
ATOM     27  H   UNL     1     -36.290   5.505  10.569  1.00  0.00     0.293 HD
ENDBRANCH   6  26
BRANCH   8  28
ATOM     28  O   UNL     1     -31.755   3.902   9.539  1.00  0.00    -0.508 OA
ATOM     29  H   UNL     1     -31.179   3.914  10.373  1.00  0.00     0.293 HD
ENDBRANCH   8  28
TORSDOF 7
ENDMDL
MODEL 6
REMARK VINA RESULT:    -4.879      2.062      6.793
REMARK INTER + INTRA:          -6.361
REMARK INTER:                  -6.398
REMARK INTRA:                   0.037
REMARK UNBOUND:                -0.341
REMARK SMILES O=c1c(O)c(-c2cc(O)c(O)c(O)c2)oc2cc(O)cc(O)c12
REMARK SMILES IDX 5 1 3 2 2 3 1 4 23 5 21 6 20 7 18 8 17 9 16 10 15 11 6 12
REMARK SMILES IDX 7 13 8 14 14 15 10 16 12 17 9 18 11 20 13 22 4 24 22 26
REMARK SMILES IDX 19 28
REMARK H PARENT 9 19 11 21 13 23 4 25 22 27 19 29
REMARK Flexibility Score: inf
ROOT
ATOM      1  C   UNL     1     -32.606   9.121   7.546  1.00  0.00     0.180 A 
ATOM      2  C   UNL     1     -32.637  10.059   8.593  1.00  0.00     0.208 A 
ATOM      3  C   UNL     1     -32.049  11.318   8.397  1.00  0.00     0.238 A 
ATOM      4  O   UNL     1     -32.127  12.171   9.318  1.00  0.00    -0.285 OA
ATOM      5  C   UNL     1     -31.422  11.619   7.163  1.00  0.00     0.111 A 
ATOM      6  C   UNL     1     -30.759  12.848   6.870  1.00  0.00     0.134 A 
ATOM      7  C   UNL     1     -30.289  13.087   5.572  1.00  0.00     0.093 A 
ATOM      8  C   UNL     1     -30.399  12.116   4.577  1.00  0.00     0.123 A 
ATOM      9  C   UNL     1     -30.992  10.887   4.869  1.00  0.00     0.094 A 
ATOM     10  C   UNL     1     -31.503  10.634   6.144  1.00  0.00     0.146 A 
ATOM     11  O   UNL     1     -32.069   9.456   6.379  1.00  0.00    -0.452 OA
ENDROOT
BRANCH   1  12
ATOM     12  C   UNL     1     -33.182   7.764   7.686  1.00  0.00     0.029 A 
ATOM     13  C   UNL     1     -33.898   7.204   6.617  1.00  0.00     0.062 A 
ATOM     14  C   UNL     1     -34.435   5.916   6.713  1.00  0.00     0.162 A 
ATOM     15  C   UNL     1     -32.980   7.000   8.848  1.00  0.00     0.062 A 
ATOM     16  C   UNL     1     -34.249   5.164   7.885  1.00  0.00     0.200 A 
ATOM     17  C   UNL     1     -33.514   5.709   8.953  1.00  0.00     0.162 A 
BRANCH  14  18
ATOM     18  O   UNL     1     -35.152   5.402   5.632  1.00  0.00    -0.504 OA
ATOM     19  H   UNL     1     -34.780   5.406   4.690  1.00  0.00     0.293 HD
ENDBRANCH  14  18
BRANCH  16  20
ATOM     20  O   UNL     1     -34.792   3.881   7.975  1.00  0.00    -0.502 OA
ATOM     21  H   UNL     1     -35.518   3.557   7.348  1.00  0.00     0.293 HD
ENDBRANCH  16  20
BRANCH  17  22
ATOM     22  O   UNL     1     -33.313   4.962  10.114  1.00  0.00    -0.504 OA
ATOM     23  H   UNL     1     -32.385   4.715  10.433  1.00  0.00     0.293 HD
ENDBRANCH  17  22
ENDBRANCH   1  12
BRANCH   2  24
ATOM     24  O   UNL     1     -33.280   9.749   9.795  1.00  0.00    -0.502 OA
ATOM     25  H   UNL     1     -34.050  10.297  10.156  1.00  0.00     0.293 HD
ENDBRANCH   2  24
BRANCH   6  26
ATOM     26  O   UNL     1     -30.516  13.848   7.815  1.00  0.00    -0.507 OA
ATOM     27  H   UNL     1     -29.643  14.344   7.915  1.00  0.00     0.293 HD
ENDBRANCH   6  26
BRANCH   8  28
ATOM     28  O   UNL     1     -29.905  12.381   3.301  1.00  0.00    -0.508 OA
ATOM     29  H   UNL     1     -30.283  13.129   2.731  1.00  0.00     0.293 HD
ENDBRANCH   8  28
TORSDOF 7
ENDMDL
MODEL 7
REMARK VINA RESULT:    -4.451      3.300      6.329
REMARK INTER + INTRA:          -5.832
REMARK INTER:                  -5.475
REMARK INTRA:                  -0.358
REMARK UNBOUND:                -0.341
REMARK SMILES O=c1c(O)c(-c2cc(O)c(O)c(O)c2)oc2cc(O)cc(O)c12
REMARK SMILES IDX 5 1 3 2 2 3 1 4 23 5 21 6 20 7 18 8 17 9 16 10 15 11 6 12
REMARK SMILES IDX 7 13 8 14 14 15 10 16 12 17 9 18 11 20 13 22 4 24 22 26
REMARK SMILES IDX 19 28
REMARK H PARENT 9 19 11 21 13 23 4 25 22 27 19 29
REMARK Flexibility Score: inf
ROOT
ATOM      1  C   UNL     1     -32.371   9.001   6.552  1.00  0.00     0.180 A 
ATOM      2  C   UNL     1     -31.324   9.866   6.916  1.00  0.00     0.208 A 
ATOM      3  C   UNL     1     -30.857  10.801   5.980  1.00  0.00     0.238 A 
ATOM      4  O   UNL     1     -29.956  11.608   6.330  1.00  0.00    -0.285 OA
ATOM      5  C   UNL     1     -31.430  10.851   4.686  1.00  0.00     0.111 A 
ATOM      6  C   UNL     1     -31.007  11.731   3.646  1.00  0.00     0.134 A 
ATOM      7  C   UNL     1     -31.732  11.784   2.448  1.00  0.00     0.093 A 
ATOM      8  C   UNL     1     -32.823  10.943   2.230  1.00  0.00     0.123 A 
ATOM      9  C   UNL     1     -33.208  10.036   3.217  1.00  0.00     0.094 A 
ATOM     10  C   UNL     1     -32.527   9.985   4.436  1.00  0.00     0.146 A 
ATOM     11  O   UNL     1     -32.932   9.116   5.354  1.00  0.00    -0.452 OA
ENDROOT
BRANCH   1  12
ATOM     12  C   UNL     1     -32.900   7.971   7.475  1.00  0.00     0.029 A 
ATOM     13  C   UNL     1     -32.301   6.703   7.512  1.00  0.00     0.062 A 
ATOM     14  C   UNL     1     -32.767   5.718   8.389  1.00  0.00     0.162 A 
ATOM     15  C   UNL     1     -33.957   8.254   8.357  1.00  0.00     0.062 A 
ATOM     16  C   UNL     1     -33.837   5.998   9.254  1.00  0.00     0.200 A 
ATOM     17  C   UNL     1     -34.430   7.273   9.239  1.00  0.00     0.162 A 
BRANCH  14  18
ATOM     18  O   UNL     1     -32.152   4.466   8.385  1.00  0.00    -0.504 OA
ATOM     19  H   UNL     1     -32.677   3.608   8.512  1.00  0.00     0.293 HD
ENDBRANCH  14  18
BRANCH  16  20
ATOM     20  O   UNL     1     -34.299   5.008  10.123  1.00  0.00    -0.502 OA
ATOM     21  H   UNL     1     -34.129   5.044  11.121  1.00  0.00     0.293 HD
ENDBRANCH  16  20
BRANCH  17  22
ATOM     22  O   UNL     1     -35.484   7.563  10.106  1.00  0.00    -0.504 OA
ATOM     23  H   UNL     1     -36.225   6.896  10.282  1.00  0.00     0.293 HD
ENDBRANCH  17  22
ENDBRANCH   1  12
BRANCH   2  24
ATOM     24  O   UNL     1     -30.788   9.815   8.206  1.00  0.00    -0.502 OA
ATOM     25  H   UNL     1     -31.298  10.133   9.020  1.00  0.00     0.293 HD
ENDBRANCH   2  24
BRANCH   6  26
ATOM     26  O   UNL     1     -29.876  12.548   3.726  1.00  0.00    -0.507 OA
ATOM     27  H   UNL     1     -29.252  12.589   4.517  1.00  0.00     0.293 HD
ENDBRANCH   6  26
BRANCH   8  28
ATOM     28  O   UNL     1     -33.511  11.011   1.020  1.00  0.00    -0.508 OA
ATOM     29  H   UNL     1     -33.902  11.883   0.681  1.00  0.00     0.293 HD
ENDBRANCH   8  28
TORSDOF 7
ENDMDL
MODEL 8
REMARK VINA RESULT:    -4.437      2.114      3.026
REMARK INTER + INTRA:          -5.815
REMARK INTER:                  -5.923
REMARK INTRA:                   0.107
REMARK UNBOUND:                -0.341
REMARK SMILES O=c1c(O)c(-c2cc(O)c(O)c(O)c2)oc2cc(O)cc(O)c12
REMARK SMILES IDX 5 1 3 2 2 3 1 4 23 5 21 6 20 7 18 8 17 9 16 10 15 11 6 12
REMARK SMILES IDX 7 13 8 14 14 15 10 16 12 17 9 18 11 20 13 22 4 24 22 26
REMARK SMILES IDX 19 28
REMARK H PARENT 9 19 11 21 13 23 4 25 22 27 19 29
REMARK Flexibility Score: inf
ROOT
ATOM      1  C   UNL     1     -33.072  11.038   7.647  1.00  0.00     0.180 A 
ATOM      2  C   UNL     1     -32.911  10.601   6.321  1.00  0.00     0.208 A 
ATOM      3  C   UNL     1     -33.286   9.290   5.986  1.00  0.00     0.238 A 
ATOM      4  O   UNL     1     -33.189   8.922   4.786  1.00  0.00    -0.285 OA
ATOM      5  C   UNL     1     -33.801   8.428   6.983  1.00  0.00     0.111 A 
ATOM      6  C   UNL     1     -34.175   7.068   6.765  1.00  0.00     0.134 A 
ATOM      7  C   UNL     1     -34.795   6.348   7.793  1.00  0.00     0.093 A 
ATOM      8  C   UNL     1     -34.996   6.917   9.050  1.00  0.00     0.123 A 
ATOM      9  C   UNL     1     -34.580   8.226   9.293  1.00  0.00     0.094 A 
ATOM     10  C   UNL     1     -33.991   8.982   8.276  1.00  0.00     0.146 A 
ATOM     11  O   UNL     1     -33.620  10.227   8.545  1.00  0.00    -0.452 OA
ENDROOT
BRANCH   1  12
ATOM     12  C   UNL     1     -32.677  12.397   8.083  1.00  0.00     0.029 A 
ATOM     13  C   UNL     1     -31.474  12.949   7.616  1.00  0.00     0.062 A 
ATOM     14  C   UNL     1     -31.085  14.239   7.995  1.00  0.00     0.162 A 
ATOM     15  C   UNL     1     -33.508  13.170   8.911  1.00  0.00     0.062 A 
ATOM     16  C   UNL     1     -31.910  15.000   8.840  1.00  0.00     0.200 A 
ATOM     17  C   UNL     1     -33.127  14.463   9.295  1.00  0.00     0.162 A 
BRANCH  14  18
ATOM     18  O   UNL     1     -29.875  14.745   7.520  1.00  0.00    -0.504 OA
ATOM     19  H   UNL     1     -29.833  15.411   6.757  1.00  0.00     0.293 HD
ENDBRANCH  14  18
BRANCH  16  20
ATOM     20  O   UNL     1     -31.513  16.285   9.216  1.00  0.00    -0.502 OA
ATOM     21  H   UNL     1     -30.768  16.446   9.883  1.00  0.00     0.293 HD
ENDBRANCH  16  20
BRANCH  17  22
ATOM     22  O   UNL     1     -33.957  15.219  10.122  1.00  0.00    -0.504 OA
ATOM     23  H   UNL     1     -34.236  16.161   9.878  1.00  0.00     0.293 HD
ENDBRANCH  17  22
ENDBRANCH   1  12
BRANCH   2  24
ATOM     24  O   UNL     1     -32.421  11.476   5.347  1.00  0.00    -0.502 OA
ATOM     25  H   UNL     1     -32.876  12.352   5.126  1.00  0.00     0.293 HD
ENDBRANCH   2  24
BRANCH   6  26
ATOM     26  O   UNL     1     -33.936   6.375   5.575  1.00  0.00    -0.507 OA
ATOM     27  H   UNL     1     -33.115   5.820   5.387  1.00  0.00     0.293 HD
ENDBRANCH   6  26
BRANCH   8  28
ATOM     28  O   UNL     1     -35.602   6.165  10.056  1.00  0.00    -0.508 OA
ATOM     29  H   UNL     1     -35.778   5.174   9.942  1.00  0.00     0.293 HD
ENDBRANCH   8  28
TORSDOF 7
ENDMDL
MODEL 9
REMARK VINA RESULT:    -4.088      1.467      7.172
REMARK INTER + INTRA:          -5.385
REMARK INTER:                  -5.032
REMARK INTRA:                  -0.353
REMARK UNBOUND:                -0.341
REMARK SMILES O=c1c(O)c(-c2cc(O)c(O)c(O)c2)oc2cc(O)cc(O)c12
REMARK SMILES IDX 5 1 3 2 2 3 1 4 23 5 21 6 20 7 18 8 17 9 16 10 15 11 6 12
REMARK SMILES IDX 7 13 8 14 14 15 10 16 12 17 9 18 11 20 13 22 4 24 22 26
REMARK SMILES IDX 19 28
REMARK H PARENT 9 19 11 21 13 23 4 25 22 27 19 29
REMARK Flexibility Score: inf
ROOT
ATOM      1  C   UNL     1     -32.479   9.777   7.365  1.00  0.00     0.180 A 
ATOM      2  C   UNL     1     -31.419  10.294   6.601  1.00  0.00     0.208 A 
ATOM      3  C   UNL     1     -31.157  11.673   6.646  1.00  0.00     0.238 A 
ATOM      4  O   UNL     1     -30.173  12.122   6.003  1.00  0.00    -0.285 OA
ATOM      5  C   UNL     1     -31.967  12.519   7.442  1.00  0.00     0.111 A 
ATOM      6  C   UNL     1     -31.817  13.935   7.530  1.00  0.00     0.134 A 
ATOM      7  C   UNL     1     -32.591  14.656   8.449  1.00  0.00     0.093 A 
ATOM      8  C   UNL     1     -33.553  14.021   9.233  1.00  0.00     0.123 A 
ATOM      9  C   UNL     1     -33.750  12.645   9.112  1.00  0.00     0.094 A 
ATOM     10  C   UNL     1     -32.968  11.894   8.230  1.00  0.00     0.146 A 
ATOM     11  O   UNL     1     -33.179  10.586   8.152  1.00  0.00    -0.452 OA
ENDROOT
BRANCH   1  12
ATOM     12  C   UNL     1     -32.833   8.339   7.350  1.00  0.00     0.029 A 
ATOM     13  C   UNL     1     -32.190   7.459   8.235  1.00  0.00     0.062 A 
ATOM     14  C   UNL     1     -32.519   6.100   8.257  1.00  0.00     0.162 A 
ATOM     15  C   UNL     1     -33.841   7.843   6.506  1.00  0.00     0.062 A 
ATOM     16  C   UNL     1     -33.513   5.605   7.396  1.00  0.00     0.200 A 
ATOM     17  C   UNL     1     -34.178   6.483   6.521  1.00  0.00     0.162 A 
BRANCH  14  18
ATOM     18  O   UNL     1     -31.847   5.257   9.142  1.00  0.00    -0.504 OA
ATOM     19  H   UNL     1     -31.089   4.656   8.841  1.00  0.00     0.293 HD
ENDBRANCH  14  18
BRANCH  16  20
ATOM     20  O   UNL     1     -33.833   4.247   7.421  1.00  0.00    -0.502 OA
ATOM     21  H   UNL     1     -33.130   3.528   7.542  1.00  0.00     0.293 HD
ENDBRANCH  16  20
BRANCH  17  22
ATOM     22  O   UNL     1     -35.175   6.000   5.674  1.00  0.00    -0.504 OA
ATOM     23  H   UNL     1     -34.955   5.449   4.853  1.00  0.00     0.293 HD
ENDBRANCH  17  22
ENDBRANCH   1  12
BRANCH   2  24
ATOM     24  O   UNL     1     -30.618   9.438   5.841  1.00  0.00    -0.502 OA
ATOM     25  H   UNL     1     -29.866   8.895   6.246  1.00  0.00     0.293 HD
ENDBRANCH   2  24
BRANCH   6  26
ATOM     26  O   UNL     1     -30.949  14.679   6.727  1.00  0.00    -0.507 OA
ATOM     27  H   UNL     1     -30.000  14.917   6.973  1.00  0.00     0.293 HD
ENDBRANCH   6  26
BRANCH   8  28
ATOM     28  O   UNL     1     -34.317  14.772  10.125  1.00  0.00    -0.508 OA
ATOM     29  H   UNL     1     -34.601  15.721   9.910  1.00  0.00     0.293 HD
ENDBRANCH   8  28
TORSDOF 7
ENDMDL
