MODEL 1
REMARK VINA RESULT:    -4.205      0.000      0.000
REMARK INTER + INTRA:          -6.337
REMARK INTER:                  -5.679
REMARK INTRA:                  -0.658
REMARK UNBOUND:                -0.658
REMARK SMILES CCCCCCCC(=O)[O-]
REMARK SMILES IDX 5 1 6 2 7 3 8 4 9 5 10 6 4 7 3 8 2 9 1 10
REMARK H PARENT
REMARK Flexibility Score: inf
ROOT
ATOM      1  C   UNL     1     -26.291 -31.756 -12.457  1.00  0.00     0.000 C 
ENDROOT
BRANCH   1   2
ATOM      2  C   UNL     1     -25.364 -32.469 -11.457  1.00  0.00     0.006 C 
BRANCH   2   3
ATOM      3  C   UNL     1     -24.452 -33.494 -12.143  1.00  0.00     0.053 C 
BRANCH   3   4
ATOM      4  C   UNL     1     -24.980 -34.889 -12.001  1.00  0.00     0.041 C 
ATOM      5  O   UNL     1     -25.833 -35.155 -11.115  1.00  0.00    -0.550 OA
ATOM      6  O   UNL     1     -24.556 -35.886 -12.871  1.00  0.00    -0.550 OA
ENDBRANCH   3   4
ENDBRANCH   2   3
ENDBRANCH   1   2
BRANCH   1   7
ATOM      7  C   UNL     1     -27.782 -32.028 -12.188  1.00  0.00     0.000 C 
BRANCH   7   8
ATOM      8  C   UNL     1     -28.327 -33.335 -12.800  1.00  0.00    -0.000 C 
BRANCH   8   9
ATOM      9  C   UNL     1     -27.725 -33.714 -14.165  1.00  0.00    -0.003 C 
ATOM     10  C   UNL     1     -27.726 -35.221 -14.418  1.00  0.00     0.004 C 
ENDBRANCH   8   9
ENDBRANCH   7   8
ENDBRANCH   1   7
TORSDOF 6
ENDMDL
MODEL 2
REMARK VINA RESULT:    -4.170      1.464      2.689
REMARK INTER + INTRA:          -6.291
REMARK INTER:                  -5.763
REMARK INTRA:                  -0.527
REMARK UNBOUND:                -0.658
REMARK SMILES CCCCCCCC(=O)[O-]
REMARK SMILES IDX 5 1 6 2 7 3 8 4 9 5 10 6 4 7 3 8 2 9 1 10
REMARK H PARENT
REMARK Flexibility Score: inf
ROOT
ATOM      1  C   UNL     1     -27.835 -34.420 -12.213  1.00  0.00     0.000 C 
ENDROOT
BRANCH   1   2
ATOM      2  C   UNL     1     -26.531 -34.577 -11.410  1.00  0.00     0.006 C 
BRANCH   2   3
ATOM      3  C   UNL     1     -25.301 -34.135 -12.212  1.00  0.00     0.053 C 
BRANCH   3   4
ATOM      4  C   UNL     1     -24.500 -35.308 -12.689  1.00  0.00     0.041 C 
ATOM      5  O   UNL     1     -25.078 -36.314 -13.178  1.00  0.00    -0.550 OA
ATOM      6  O   UNL     1     -23.112 -35.275 -12.627  1.00  0.00    -0.550 OA
ENDBRANCH   3   4
ENDBRANCH   2   3
ENDBRANCH   1   2
BRANCH   1   7
ATOM      7  C   UNL     1     -27.718 -33.382 -13.343  1.00  0.00     0.000 C 
BRANCH   7   8
ATOM      8  C   UNL     1     -28.439 -32.045 -13.078  1.00  0.00    -0.000 C 
BRANCH   8   9
ATOM      9  C   UNL     1     -27.527 -30.896 -12.612  1.00  0.00    -0.003 C 
ATOM     10  C   UNL     1     -27.453 -30.774 -11.091  1.00  0.00     0.004 C 
ENDBRANCH   8   9
ENDBRANCH   7   8
ENDBRANCH   1   7
TORSDOF 6
ENDMDL
MODEL 3
REMARK VINA RESULT:    -4.120      2.461      3.930
REMARK INTER + INTRA:          -6.222
REMARK INTER:                  -5.700
REMARK INTRA:                  -0.522
REMARK UNBOUND:                -0.658
REMARK SMILES CCCCCCCC(=O)[O-]
REMARK SMILES IDX 5 1 6 2 7 3 8 4 9 5 10 6 4 7 3 8 2 9 1 10
REMARK H PARENT
REMARK Flexibility Score: inf
ROOT
ATOM      1  C   UNL     1     -27.825 -33.782 -13.188  1.00  0.00     0.000 C 
ENDROOT
BRANCH   1   2
ATOM      2  C   UNL     1     -28.335 -32.333 -13.085  1.00  0.00     0.006 C 
BRANCH   2   3
ATOM      3  C   UNL     1     -27.200 -31.339 -12.811  1.00  0.00     0.053 C 
BRANCH   3   4
ATOM      4  C   UNL     1     -27.265 -30.795 -11.416  1.00  0.00     0.041 C 
ATOM      5  O   UNL     1     -28.148 -29.953 -11.106  1.00  0.00    -0.550 OA
ATOM      6  O   UNL     1     -26.371 -31.244 -10.451  1.00  0.00    -0.550 OA
ENDBRANCH   3   4
ENDBRANCH   2   3
ENDBRANCH   1   2
BRANCH   1   7
ATOM      7  C   UNL     1     -27.815 -34.509 -11.832  1.00  0.00     0.000 C 
BRANCH   7   8
ATOM      8  C   UNL     1     -26.420 -34.698 -11.203  1.00  0.00    -0.000 C 
BRANCH   8   9
ATOM      9  C   UNL     1     -25.237 -34.451 -12.157  1.00  0.00    -0.003 C 
ATOM     10  C   UNL     1     -24.629 -35.743 -12.698  1.00  0.00     0.004 C 
ENDBRANCH   8   9
ENDBRANCH   7   8
ENDBRANCH   1   7
TORSDOF 6
ENDMDL
MODEL 4
REMARK VINA RESULT:    -4.052      2.546      3.300
REMARK INTER + INTRA:          -6.131
REMARK INTER:                  -5.571
REMARK INTRA:                  -0.559
REMARK UNBOUND:                -0.658
REMARK SMILES CCCCCCCC(=O)[O-]
REMARK SMILES IDX 5 1 6 2 7 3 8 4 9 5 10 6 4 7 3 8 2 9 1 10
REMARK H PARENT
REMARK Flexibility Score: inf
ROOT
ATOM      1  C   UNL     1     -25.295 -33.802 -12.060  1.00  0.00     0.000 C 
ENDROOT
BRANCH   1   2
ATOM      2  C   UNL     1     -24.991 -32.454 -11.382  1.00  0.00     0.006 C 
BRANCH   2   3
ATOM      3  C   UNL     1     -25.302 -31.264 -12.297  1.00  0.00     0.053 C 
BRANCH   3   4
ATOM      4  C   UNL     1     -26.697 -30.757 -12.093  1.00  0.00     0.041 C 
ATOM      5  O   UNL     1     -27.324 -30.227 -13.048  1.00  0.00    -0.550 OA
ATOM      6  O   UNL     1     -27.317 -30.902 -10.858  1.00  0.00    -0.550 OA
ENDBRANCH   3   4
ENDBRANCH   2   3
ENDBRANCH   1   2
BRANCH   1   7
ATOM      7  C   UNL     1     -26.467 -34.550 -11.401  1.00  0.00     0.000 C 
BRANCH   7   8
ATOM      8  C   UNL     1     -27.842 -34.318 -12.060  1.00  0.00    -0.000 C 
BRANCH   8   9
ATOM      9  C   UNL     1     -27.794 -33.951 -13.554  1.00  0.00    -0.003 C 
ATOM     10  C   UNL     1     -27.735 -35.175 -14.466  1.00  0.00     0.004 C 
ENDBRANCH   8   9
ENDBRANCH   7   8
ENDBRANCH   1   7
TORSDOF 6
ENDMDL
MODEL 5
REMARK VINA RESULT:    -3.960      1.379      3.161
REMARK INTER + INTRA:          -6.006
REMARK INTER:                  -5.366
REMARK INTRA:                  -0.640
REMARK UNBOUND:                -0.658
REMARK SMILES CCCCCCCC(=O)[O-]
REMARK SMILES IDX 5 1 6 2 7 3 8 4 9 5 10 6 4 7 3 8 2 9 1 10
REMARK H PARENT
REMARK Flexibility Score: inf
ROOT
ATOM      1  C   UNL     1     -28.470 -31.394 -13.077  1.00  0.00     0.000 C 
ENDROOT
BRANCH   1   2
ATOM      2  C   UNL     1     -28.524 -32.897 -12.751  1.00  0.00     0.006 C 
BRANCH   2   3
ATOM      3  C   UNL     1     -27.515 -33.705 -13.577  1.00  0.00     0.053 C 
BRANCH   3   4
ATOM      4  C   UNL     1     -26.773 -34.695 -12.732  1.00  0.00     0.041 C 
ATOM      5  O   UNL     1     -26.902 -34.681 -11.480  1.00  0.00    -0.550 OA
ATOM      6  O   UNL     1     -25.967 -35.656 -13.331  1.00  0.00    -0.550 OA
ENDBRANCH   3   4
ENDBRANCH   2   3
ENDBRANCH   1   2
BRANCH   1   7
ATOM      7  C   UNL     1     -27.283 -30.681 -12.406  1.00  0.00     0.000 C 
BRANCH   7   8
ATOM      8  C   UNL     1     -27.108 -30.977 -10.903  1.00  0.00    -0.000 C 
BRANCH   8   9
ATOM      9  C   UNL     1     -25.685 -31.383 -10.481  1.00  0.00    -0.003 C 
ATOM     10  C   UNL     1     -24.809 -31.795 -11.663  1.00  0.00     0.004 C 
ENDBRANCH   8   9
ENDBRANCH   7   8
ENDBRANCH   1   7
TORSDOF 6
ENDMDL
MODEL 6
REMARK VINA RESULT:    -3.926      1.803      3.090
REMARK INTER + INTRA:          -5.960
REMARK INTER:                  -5.410
REMARK INTRA:                  -0.550
REMARK UNBOUND:                -0.658
REMARK SMILES CCCCCCCC(=O)[O-]
REMARK SMILES IDX 5 1 6 2 7 3 8 4 9 5 10 6 4 7 3 8 2 9 1 10
REMARK H PARENT
REMARK Flexibility Score: inf
ROOT
ATOM      1  C   UNL     1     -25.986 -35.483 -13.331  1.00  0.00     0.000 C 
ENDROOT
BRANCH   1   2
ATOM      2  C   UNL     1     -25.364 -35.014 -12.004  1.00  0.00     0.006 C 
BRANCH   2   3
ATOM      3  C   UNL     1     -24.330 -33.901 -12.212  1.00  0.00     0.053 C 
BRANCH   3   4
ATOM      4  C   UNL     1     -24.899 -32.550 -11.900  1.00  0.00     0.041 C 
ATOM      5  O   UNL     1     -24.696 -31.583 -12.680  1.00  0.00    -0.550 OA
ATOM      6  O   UNL     1     -25.683 -32.369 -10.768  1.00  0.00    -0.550 OA
ENDBRANCH   3   4
ENDBRANCH   2   3
ENDBRANCH   1   2
BRANCH   1   7
ATOM      7  C   UNL     1     -27.475 -35.115 -13.455  1.00  0.00     0.000 C 
BRANCH   7   8
ATOM      8  C   UNL     1     -27.755 -33.651 -13.851  1.00  0.00    -0.000 C 
BRANCH   8   9
ATOM      9  C   UNL     1     -28.492 -32.819 -12.786  1.00  0.00    -0.003 C 
ATOM     10  C   UNL     1     -28.375 -31.314 -13.020  1.00  0.00     0.004 C 
ENDBRANCH   8   9
ENDBRANCH   7   8
ENDBRANCH   1   7
TORSDOF 6
ENDMDL
MODEL 7
REMARK VINA RESULT:    -3.885      2.080      2.441
REMARK INTER + INTRA:          -5.905
REMARK INTER:                  -5.572
REMARK INTRA:                  -0.333
REMARK UNBOUND:                -0.658
REMARK SMILES CCCCCCCC(=O)[O-]
REMARK SMILES IDX 5 1 6 2 7 3 8 4 9 5 10 6 4 7 3 8 2 9 1 10
REMARK H PARENT
REMARK Flexibility Score: inf
ROOT
ATOM      1  C   UNL     1     -25.529 -33.031 -12.274  1.00  0.00     0.000 C 
ENDROOT
BRANCH   1   2
ATOM      2  C   UNL     1     -24.019 -33.299 -12.148  1.00  0.00     0.006 C 
BRANCH   2   3
ATOM      3  C   UNL     1     -23.636 -34.695 -12.656  1.00  0.00     0.053 C 
BRANCH   3   4
ATOM      4  C   UNL     1     -22.165 -34.805 -12.917  1.00  0.00     0.041 C 
ATOM      5  O   UNL     1     -21.474 -35.655 -12.297  1.00  0.00    -0.550 OA
ATOM      6  O   UNL     1     -21.564 -33.992 -13.871  1.00  0.00    -0.550 OA
ENDBRANCH   3   4
ENDBRANCH   2   3
ENDBRANCH   1   2
BRANCH   1   7
ATOM      7  C   UNL     1     -26.378 -33.976 -11.405  1.00  0.00     0.000 C 
BRANCH   7   8
ATOM      8  C   UNL     1     -27.734 -34.383 -12.017  1.00  0.00    -0.000 C 
BRANCH   8   9
ATOM      9  C   UNL     1     -27.945 -33.949 -13.478  1.00  0.00    -0.003 C 
ATOM     10  C   UNL     1     -27.667 -35.069 -14.478  1.00  0.00     0.004 C 
ENDBRANCH   8   9
ENDBRANCH   7   8
ENDBRANCH   1   7
TORSDOF 6
ENDMDL
MODEL 8
REMARK VINA RESULT:    -3.854      1.771      3.260
REMARK INTER + INTRA:          -5.863
REMARK INTER:                  -5.303
REMARK INTRA:                  -0.560
REMARK UNBOUND:                -0.658
REMARK SMILES CCCCCCCC(=O)[O-]
REMARK SMILES IDX 5 1 6 2 7 3 8 4 9 5 10 6 4 7 3 8 2 9 1 10
REMARK H PARENT
REMARK Flexibility Score: inf
ROOT
ATOM      1  C   UNL     1     -26.040 -31.715 -11.413  1.00  0.00     0.000 C 
ENDROOT
BRANCH   1   2
ATOM      2  C   UNL     1     -26.504 -31.701 -12.880  1.00  0.00     0.006 C 
BRANCH   2   3
ATOM      3  C   UNL     1     -27.966 -32.138 -13.028  1.00  0.00     0.053 C 
BRANCH   3   4
ATOM      4  C   UNL     1     -28.101 -33.631 -13.033  1.00  0.00     0.041 C 
ATOM      5  O   UNL     1     -28.430 -34.240 -11.981  1.00  0.00    -0.550 OA
ATOM      6  O   UNL     1     -27.899 -34.344 -14.208  1.00  0.00    -0.550 OA
ENDBRANCH   3   4
ENDBRANCH   2   3
ENDBRANCH   1   2
BRANCH   1   7
ATOM      7  C   UNL     1     -24.747 -32.524 -11.203  1.00  0.00     0.000 C 
BRANCH   7   8
ATOM      8  C   UNL     1     -24.496 -33.634 -12.242  1.00  0.00    -0.000 C 
BRANCH   8   9
ATOM      9  C   UNL     1     -25.000 -35.031 -11.836  1.00  0.00    -0.003 C 
ATOM     10  C   UNL     1     -24.997 -36.026 -12.995  1.00  0.00     0.004 C 
ENDBRANCH   8   9
ENDBRANCH   7   8
ENDBRANCH   1   7
TORSDOF 6
ENDMDL
MODEL 9
REMARK VINA RESULT:    -3.815      1.861      2.856
REMARK INTER + INTRA:          -5.811
REMARK INTER:                  -5.162
REMARK INTRA:                  -0.649
REMARK UNBOUND:                -0.658
REMARK SMILES CCCCCCCC(=O)[O-]
REMARK SMILES IDX 5 1 6 2 7 3 8 4 9 5 10 6 4 7 3 8 2 9 1 10
REMARK H PARENT
REMARK Flexibility Score: inf
ROOT
ATOM      1  C   UNL     1     -25.017 -32.762 -11.845  1.00  0.00     0.000 C 
ENDROOT
BRANCH   1   2
ATOM      2  C   UNL     1     -25.224 -34.265 -11.584  1.00  0.00     0.006 C 
BRANCH   2   3
ATOM      3  C   UNL     1     -25.935 -34.961 -12.751  1.00  0.00     0.053 C 
BRANCH   3   4
ATOM      4  C   UNL     1     -27.425 -34.839 -12.645  1.00  0.00     0.041 C 
ATOM      5  O   UNL     1     -27.973 -34.735 -11.516  1.00  0.00    -0.550 OA
ATOM      6  O   UNL     1     -28.204 -34.804 -13.795  1.00  0.00    -0.550 OA
ENDBRANCH   3   4
ENDBRANCH   2   3
ENDBRANCH   1   2
BRANCH   1   7
ATOM      7  C   UNL     1     -25.624 -31.876 -10.744  1.00  0.00     0.000 C 
BRANCH   7   8
ATOM      8  C   UNL     1     -26.904 -31.116 -11.149  1.00  0.00    -0.000 C 
BRANCH   8   9
ATOM      9  C   UNL     1     -27.175 -31.061 -12.663  1.00  0.00    -0.003 C 
ATOM     10  C   UNL     1     -28.636 -31.335 -13.016  1.00  0.00     0.004 C 
ENDBRANCH   8   9
ENDBRANCH   7   8
ENDBRANCH   1   7
TORSDOF 6
ENDMDL
