MODEL 1
REMARK VINA RESULT:    -4.730      0.000      0.000
REMARK INTER + INTRA:          -6.833
REMARK INTER:                  -6.665
REMARK INTRA:                  -0.167
REMARK UNBOUND:                -0.167
REMARK SMILES CCCCCCCCC(=O)[O-]
REMARK SMILES IDX 6 1 7 2 8 3 9 4 10 5 11 6 5 7 4 8 3 9 2 10 1 11
REMARK H PARENT
REMARK Flexibility Score: inf
ROOT
ATOM      1  C   UNL     1     -10.886  -1.969 -10.125  1.00  0.00     0.000 C 
ENDROOT
BRANCH   1   2
ATOM      2  C   UNL     1      -9.830  -3.089 -10.103  1.00  0.00     0.006 C 
BRANCH   2   3
ATOM      3  C   UNL     1      -9.482  -3.602  -8.696  1.00  0.00     0.053 C 
BRANCH   3   4
ATOM      4  C   UNL     1      -8.714  -4.888  -8.743  1.00  0.00     0.041 C 
ATOM      5  O   UNL     1      -9.009  -5.830  -7.961  1.00  0.00    -0.550 OA
ATOM      6  O   UNL     1      -7.696  -5.056  -9.671  1.00  0.00    -0.550 OA
ENDBRANCH   3   4
ENDBRANCH   2   3
ENDBRANCH   1   2
BRANCH   1   7
ATOM      7  C   UNL     1     -10.326  -0.613  -9.668  1.00  0.00     0.000 C 
BRANCH   7   8
ATOM      8  C   UNL     1     -11.397   0.482  -9.759  1.00  0.00    -0.000 C 
BRANCH   8   9
ATOM      9  C   UNL     1     -10.775   1.875  -9.576  1.00  0.00    -0.000 C 
BRANCH   9  10
ATOM     10  C   UNL     1     -11.789   3.008  -9.795  1.00  0.00    -0.003 C 
ATOM     11  C   UNL     1     -13.226   2.580  -9.495  1.00  0.00     0.004 C 
ENDBRANCH   9  10
ENDBRANCH   8   9
ENDBRANCH   7   8
ENDBRANCH   1   7
TORSDOF 7
ENDMDL
MODEL 2
REMARK VINA RESULT:    -4.518      4.068      6.869
REMARK INTER + INTRA:          -6.535
REMARK INTER:                  -6.390
REMARK INTRA:                  -0.145
REMARK UNBOUND:                -0.167
REMARK SMILES CCCCCCCCC(=O)[O-]
REMARK SMILES IDX 6 1 7 2 8 3 9 4 10 5 11 6 5 7 4 8 3 9 2 10 1 11
REMARK H PARENT
REMARK Flexibility Score: inf
ROOT
ATOM      1  C   UNL     1     -11.012  -0.918 -10.061  1.00  0.00     0.000 C 
ENDROOT
BRANCH   1   2
ATOM      2  C   UNL     1     -10.709   0.532  -9.645  1.00  0.00     0.006 C 
BRANCH   2   3
ATOM      3  C   UNL     1     -11.945   1.443  -9.577  1.00  0.00     0.053 C 
BRANCH   3   4
ATOM      4  C   UNL     1     -11.589   2.845  -9.186  1.00  0.00     0.041 C 
ATOM      5  O   UNL     1     -12.494   3.699  -8.995  1.00  0.00    -0.550 OA
ATOM      6  O   UNL     1     -10.259   3.198  -9.002  1.00  0.00    -0.550 OA
ENDBRANCH   3   4
ENDBRANCH   2   3
ENDBRANCH   1   2
BRANCH   1   7
ATOM      7  C   UNL     1      -9.776  -1.827 -10.000  1.00  0.00     0.000 C 
BRANCH   7   8
ATOM      8  C   UNL     1     -10.155  -3.240  -9.535  1.00  0.00    -0.000 C 
BRANCH   8   9
ATOM      9  C   UNL     1      -9.255  -3.697  -8.377  1.00  0.00    -0.000 C 
BRANCH   9  10
ATOM     10  C   UNL     1      -8.240  -4.768  -8.807  1.00  0.00    -0.003 C 
ATOM     11  C   UNL     1      -8.744  -6.191  -8.567  1.00  0.00     0.004 C 
ENDBRANCH   9  10
ENDBRANCH   8   9
ENDBRANCH   7   8
ENDBRANCH   1   7
TORSDOF 7
ENDMDL
MODEL 3
REMARK VINA RESULT:    -4.452      4.729      6.597
REMARK INTER + INTRA:          -6.441
REMARK INTER:                  -6.130
REMARK INTRA:                  -0.311
REMARK UNBOUND:                -0.167
REMARK SMILES CCCCCCCCC(=O)[O-]
REMARK SMILES IDX 6 1 7 2 8 3 9 4 10 5 11 6 5 7 4 8 3 9 2 10 1 11
REMARK H PARENT
REMARK Flexibility Score: inf
ROOT
ATOM      1  C   UNL     1     -14.198   1.799  -8.658  1.00  0.00     0.000 C 
ENDROOT
BRANCH   1   2
ATOM      2  C   UNL     1     -13.335   2.510  -9.715  1.00  0.00     0.006 C 
BRANCH   2   3
ATOM      3  C   UNL     1     -12.187   3.350  -9.133  1.00  0.00     0.053 C 
BRANCH   3   4
ATOM      4  C   UNL     1     -10.858   2.676  -9.301  1.00  0.00     0.041 C 
ATOM      5  O   UNL     1      -9.795   3.348  -9.237  1.00  0.00    -0.550 OA
ATOM      6  O   UNL     1     -10.795   1.303  -9.495  1.00  0.00    -0.550 OA
ENDBRANCH   3   4
ENDBRANCH   2   3
ENDBRANCH   1   2
BRANCH   1   7
ATOM      7  C   UNL     1     -15.029   0.648  -9.243  1.00  0.00     0.000 C 
BRANCH   7   8
ATOM      8  C   UNL     1     -14.123  -0.440  -9.833  1.00  0.00    -0.000 C 
BRANCH   8   9
ATOM      9  C   UNL     1     -14.918  -1.723 -10.118  1.00  0.00    -0.000 C 
BRANCH   9  10
ATOM     10  C   UNL     1     -15.744  -2.187  -8.908  1.00  0.00    -0.003 C 
ATOM     11  C   UNL     1     -15.892  -3.707  -8.841  1.00  0.00     0.004 C 
ENDBRANCH   9  10
ENDBRANCH   8   9
ENDBRANCH   7   8
ENDBRANCH   1   7
TORSDOF 7
ENDMDL
MODEL 4
REMARK VINA RESULT:    -4.380     17.121     18.071
REMARK INTER + INTRA:          -6.340
REMARK INTER:                  -5.605
REMARK INTRA:                  -0.735
REMARK UNBOUND:                -0.167
REMARK SMILES CCCCCCCCC(=O)[O-]
REMARK SMILES IDX 6 1 7 2 8 3 9 4 10 5 11 6 5 7 4 8 3 9 2 10 1 11
REMARK H PARENT
REMARK Flexibility Score: inf
ROOT
ATOM      1  C   UNL     1     -13.212   4.010   6.222  1.00  0.00     0.000 C 
ENDROOT
BRANCH   1   2
ATOM      2  C   UNL     1     -12.754   5.138   5.279  1.00  0.00     0.006 C 
BRANCH   2   3
ATOM      3  C   UNL     1     -11.804   6.157   5.928  1.00  0.00     0.053 C 
BRANCH   3   4
ATOM      4  C   UNL     1     -10.367   5.852   5.630  1.00  0.00     0.041 C 
ATOM      5  O   UNL     1     -10.065   5.116   4.654  1.00  0.00    -0.550 OA
ATOM      6  O   UNL     1      -9.362   6.408   6.411  1.00  0.00    -0.550 OA
ENDBRANCH   3   4
ENDBRANCH   2   3
ENDBRANCH   1   2
BRANCH   1   7
ATOM      7  C   UNL     1     -12.249   2.814   6.232  1.00  0.00     0.000 C 
BRANCH   7   8
ATOM      8  C   UNL     1     -11.381   2.818   7.497  1.00  0.00    -0.000 C 
BRANCH   8   9
ATOM      9  C   UNL     1     -12.243   2.640   8.756  1.00  0.00    -0.000 C 
BRANCH   9  10
ATOM     10  C   UNL     1     -11.937   3.690   9.835  1.00  0.00    -0.003 C 
ATOM     11  C   UNL     1     -11.126   4.870   9.298  1.00  0.00     0.004 C 
ENDBRANCH   9  10
ENDBRANCH   8   9
ENDBRANCH   7   8
ENDBRANCH   1   7
TORSDOF 7
ENDMDL
MODEL 5
REMARK VINA RESULT:    -4.244      1.613      2.076
REMARK INTER + INTRA:          -6.148
REMARK INTER:                  -5.848
REMARK INTRA:                  -0.300
REMARK UNBOUND:                -0.167
REMARK SMILES CCCCCCCCC(=O)[O-]
REMARK SMILES IDX 6 1 7 2 8 3 9 4 10 5 11 6 5 7 4 8 3 9 2 10 1 11
REMARK H PARENT
REMARK Flexibility Score: inf
ROOT
ATOM      1  C   UNL     1      -9.465  -2.592  -8.873  1.00  0.00     0.000 C 
ENDROOT
BRANCH   1   2
ATOM      2  C   UNL     1      -8.686  -3.878  -9.204  1.00  0.00     0.006 C 
BRANCH   2   3
ATOM      3  C   UNL     1      -9.517  -4.954  -9.922  1.00  0.00     0.053 C 
BRANCH   3   4
ATOM      4  C   UNL     1     -10.787  -5.263  -9.190  1.00  0.00     0.041 C 
ATOM      5  O   UNL     1     -10.752  -5.895  -8.101  1.00  0.00    -0.550 OA
ATOM      6  O   UNL     1     -12.004  -4.824  -9.693  1.00  0.00    -0.550 OA
ENDBRANCH   3   4
ENDBRANCH   2   3
ENDBRANCH   1   2
BRANCH   1   7
ATOM      7  C   UNL     1      -9.852  -1.791 -10.125  1.00  0.00     0.000 C 
BRANCH   7   8
ATOM      8  C   UNL     1     -11.084  -0.916  -9.858  1.00  0.00    -0.000 C 
BRANCH   8   9
ATOM      9  C   UNL     1     -10.691   0.565  -9.742  1.00  0.00    -0.000 C 
BRANCH   9  10
ATOM     10  C   UNL     1     -11.910   1.492  -9.620  1.00  0.00    -0.003 C 
ATOM     11  C   UNL     1     -11.523   2.946  -9.348  1.00  0.00     0.004 C 
ENDBRANCH   9  10
ENDBRANCH   8   9
ENDBRANCH   7   8
ENDBRANCH   1   7
TORSDOF 7
ENDMDL
MODEL 6
REMARK VINA RESULT:    -4.238     16.819     17.888
REMARK INTER + INTRA:          -6.139
REMARK INTER:                  -5.592
REMARK INTRA:                  -0.547
REMARK UNBOUND:                -0.167
REMARK SMILES CCCCCCCCC(=O)[O-]
REMARK SMILES IDX 6 1 7 2 8 3 9 4 10 5 11 6 5 7 4 8 3 9 2 10 1 11
REMARK H PARENT
REMARK Flexibility Score: inf
ROOT
ATOM      1  C   UNL     1      -9.841   5.235   6.394  1.00  0.00     0.000 C 
ENDROOT
BRANCH   1   2
ATOM      2  C   UNL     1     -10.414   6.476   5.687  1.00  0.00     0.006 C 
BRANCH   2   3
ATOM      3  C   UNL     1      -9.383   7.272   4.871  1.00  0.00     0.053 C 
BRANCH   3   4
ATOM      4  C   UNL     1      -9.159   8.642   5.434  1.00  0.00     0.041 C 
ATOM      5  O   UNL     1      -9.857   9.612   5.036  1.00  0.00    -0.550 OA
ATOM      6  O   UNL     1      -8.203   8.841   6.421  1.00  0.00    -0.550 OA
ENDBRANCH   3   4
ENDBRANCH   2   3
ENDBRANCH   1   2
BRANCH   1   7
ATOM      7  C   UNL     1     -10.832   4.600   7.381  1.00  0.00     0.000 C 
BRANCH   7   8
ATOM      8  C   UNL     1     -11.406   3.293   6.820  1.00  0.00    -0.000 C 
BRANCH   8   9
ATOM      9  C   UNL     1     -12.938   3.361   6.726  1.00  0.00    -0.000 C 
BRANCH   9  10
ATOM     10  C   UNL     1     -13.420   4.298   5.608  1.00  0.00    -0.003 C 
ATOM     11  C   UNL     1     -12.820   3.950   4.245  1.00  0.00     0.004 C 
ENDBRANCH   9  10
ENDBRANCH   8   9
ENDBRANCH   7   8
ENDBRANCH   1   7
TORSDOF 7
ENDMDL
MODEL 7
REMARK VINA RESULT:    -4.235     16.174     17.036
REMARK INTER + INTRA:          -6.136
REMARK INTER:                  -5.764
REMARK INTRA:                  -0.372
REMARK UNBOUND:                -0.167
REMARK SMILES CCCCCCCCC(=O)[O-]
REMARK SMILES IDX 6 1 7 2 8 3 9 4 10 5 11 6 5 7 4 8 3 9 2 10 1 11
REMARK H PARENT
REMARK Flexibility Score: inf
ROOT
ATOM      1  C   UNL     1     -10.833   4.806   7.407  1.00  0.00     0.000 C 
ENDROOT
BRANCH   1   2
ATOM      2  C   UNL     1     -11.284   3.379   7.050  1.00  0.00     0.006 C 
BRANCH   2   3
ATOM      3  C   UNL     1     -12.696   3.294   6.449  1.00  0.00     0.053 C 
BRANCH   3   4
ATOM      4  C   UNL     1     -12.720   3.715   5.011  1.00  0.00     0.041 C 
ATOM      5  O   UNL     1     -13.645   4.454   4.583  1.00  0.00    -0.550 OA
ATOM      6  O   UNL     1     -11.703   3.317   4.154  1.00  0.00    -0.550 OA
ENDBRANCH   3   4
ENDBRANCH   2   3
ENDBRANCH   1   2
BRANCH   1   7
ATOM      7  C   UNL     1      -9.822   5.380   6.403  1.00  0.00     0.000 C 
BRANCH   7   8
ATOM      8  C   UNL     1     -10.426   6.557   5.626  1.00  0.00    -0.000 C 
BRANCH   8   9
ATOM      9  C   UNL     1      -9.335   7.342   4.883  1.00  0.00    -0.000 C 
BRANCH   9  10
ATOM     10  C   UNL     1      -9.298   8.825   5.283  1.00  0.00    -0.003 C 
ATOM     11  C   UNL     1      -7.876   9.384   5.353  1.00  0.00     0.004 C 
ENDBRANCH   9  10
ENDBRANCH   8   9
ENDBRANCH   7   8
ENDBRANCH   1   7
TORSDOF 7
ENDMDL
MODEL 8
REMARK VINA RESULT:    -4.230     16.587     17.455
REMARK INTER + INTRA:          -6.128
REMARK INTER:                  -5.878
REMARK INTRA:                  -0.250
REMARK UNBOUND:                -0.167
REMARK SMILES CCCCCCCCC(=O)[O-]
REMARK SMILES IDX 6 1 7 2 8 3 9 4 10 5 11 6 5 7 4 8 3 9 2 10 1 11
REMARK H PARENT
REMARK Flexibility Score: inf
ROOT
ATOM      1  C   UNL     1      -9.851   5.305   6.264  1.00  0.00     0.000 C 
ENDROOT
BRANCH   1   2
ATOM      2  C   UNL     1     -10.754   4.792   7.401  1.00  0.00     0.006 C 
BRANCH   2   3
ATOM      3  C   UNL     1     -11.256   3.352   7.208  1.00  0.00     0.053 C 
BRANCH   3   4
ATOM      4  C   UNL     1     -12.342   3.269   6.179  1.00  0.00     0.041 C 
ATOM      5  O   UNL     1     -13.519   3.610   6.471  1.00  0.00    -0.550 OA
ATOM      6  O   UNL     1     -12.047   2.848   4.890  1.00  0.00    -0.550 OA
ENDBRANCH   3   4
ENDBRANCH   2   3
ENDBRANCH   1   2
BRANCH   1   7
ATOM      7  C   UNL     1     -10.440   6.524   5.540  1.00  0.00     0.000 C 
BRANCH   7   8
ATOM      8  C   UNL     1      -9.336   7.349   4.865  1.00  0.00    -0.000 C 
BRANCH   8   9
ATOM      9  C   UNL     1      -8.786   8.418   5.821  1.00  0.00    -0.000 C 
BRANCH   9  10
ATOM     10  C   UNL     1      -8.124   9.589   5.080  1.00  0.00    -0.003 C 
ATOM     11  C   UNL     1      -6.925  10.165   5.835  1.00  0.00     0.004 C 
ENDBRANCH   9  10
ENDBRANCH   8   9
ENDBRANCH   7   8
ENDBRANCH   1   7
TORSDOF 7
ENDMDL
MODEL 9
REMARK VINA RESULT:    -1.736      4.335      5.118
REMARK INTER + INTRA:          -2.614
REMARK INTER:                  -2.396
REMARK INTRA:                  -0.218
REMARK UNBOUND:                -0.167
REMARK SMILES CCCCCCCCC(=O)[O-]
REMARK SMILES IDX 6 1 7 2 8 3 9 4 10 5 11 6 5 7 4 8 3 9 2 10 1 11
REMARK H PARENT
REMARK Flexibility Score: inf
ROOT
ATOM      1  C   UNL     1     -14.996   0.732  -8.885  1.00  0.00     0.000 C 
ENDROOT
BRANCH   1   2
ATOM      2  C   UNL     1     -15.740  -0.351  -9.687  1.00  0.00     0.006 C 
BRANCH   2   3
ATOM      3  C   UNL     1     -15.698  -1.750  -9.051  1.00  0.00     0.053 C 
BRANCH   3   4
ATOM      4  C   UNL     1     -14.629  -2.609  -9.655  1.00  0.00     0.041 C 
ATOM      5  O   UNL     1     -13.586  -2.084 -10.125  1.00  0.00    -0.550 OA
ATOM      6  O   UNL     1     -14.772  -3.990  -9.668  1.00  0.00    -0.550 OA
ENDBRANCH   3   4
ENDBRANCH   2   3
ENDBRANCH   1   2
BRANCH   1   7
ATOM      7  C   UNL     1     -13.944   1.476  -9.721  1.00  0.00     0.000 C 
BRANCH   7   8
ATOM      8  C   UNL     1     -13.478   2.752  -9.008  1.00  0.00    -0.000 C 
BRANCH   8   9
ATOM      9  C   UNL     1     -12.299   3.397  -9.752  1.00  0.00    -0.000 C 
BRANCH   9  10
ATOM     10  C   UNL     1     -11.032   2.528  -9.714  1.00  0.00    -0.003 C 
ATOM     11  C   UNL     1      -9.747   3.356  -9.735  1.00  0.00     0.004 C 
ENDBRANCH   9  10
ENDBRANCH   8   9
ENDBRANCH   7   8
ENDBRANCH   1   7
TORSDOF 7
ENDMDL
