MODEL 1
REMARK VINA RESULT:    -4.457      0.000      0.000
REMARK INTER + INTRA:          -5.442
REMARK INTER:                  -5.108
REMARK INTRA:                  -0.334
REMARK UNBOUND:                -0.334
REMARK SMILES COc1ccc(C(C)=O)c(O)c1
REMARK SMILES IDX 6 1 10 2 12 3 3 4 4 5 5 6 7 7 8 8 9 9 11 10 2 12 1 13
REMARK H PARENT 11 11
REMARK Flexibility Score: inf
ROOT
ATOM      1  C   UNL     1       4.957 -19.007 -38.302  1.00  0.00     0.059 A 
ATOM      2  C   UNL     1       4.185 -17.932 -38.801  1.00  0.00     0.130 A 
ATOM      3  C   UNL     1       4.751 -16.654 -38.917  1.00  0.00     0.093 A 
ATOM      4  C   UNL     1       6.078 -16.419 -38.550  1.00  0.00     0.122 A 
ATOM      5  C   UNL     1       6.850 -17.485 -38.057  1.00  0.00     0.047 A 
ATOM      6  C   UNL     1       6.296 -18.760 -37.935  1.00  0.00     0.019 A 
ENDROOT
BRANCH   1   7
ATOM      7  C   UNL     1       4.379 -20.374 -38.157  1.00  0.00     0.163 C 
ATOM      8  C   UNL     1       4.241 -21.035 -36.817  1.00  0.00     0.093 C 
ATOM      9  O   UNL     1       3.964 -20.996 -39.172  1.00  0.00    -0.294 OA
ENDBRANCH   1   7
BRANCH   2  10
ATOM     10  O   UNL     1       2.860 -18.130 -39.192  1.00  0.00    -0.507 OA
ATOM     11  H   UNL     1       2.596 -18.884 -39.816  1.00  0.00     0.293 HD
ENDBRANCH   2  10
BRANCH   4  12
ATOM     12  O   UNL     1       6.589 -15.121 -38.691  1.00  0.00    -0.497 OA
ATOM     13  C   UNL     1       7.909 -14.731 -38.323  1.00  0.00     0.278 C 
ENDBRANCH   4  12
TORSDOF 3
ENDMDL
MODEL 2
REMARK VINA RESULT:    -4.410      4.248      5.601
REMARK INTER + INTRA:          -5.388
REMARK INTER:                  -5.051
REMARK INTRA:                  -0.337
REMARK UNBOUND:                -0.334
REMARK SMILES COc1ccc(C(C)=O)c(O)c1
REMARK SMILES IDX 6 1 10 2 12 3 3 4 4 5 5 6 7 7 8 8 9 9 11 10 2 12 1 13
REMARK H PARENT 11 11
REMARK Flexibility Score: inf
ROOT
ATOM      1  C   UNL     1       8.941 -17.951 -38.691  1.00  0.00     0.059 A 
ATOM      2  C   UNL     1       9.615 -17.374 -39.793  1.00  0.00     0.130 A 
ATOM      3  C   UNL     1      10.928 -17.762 -40.096  1.00  0.00     0.093 A 
ATOM      4  C   UNL     1      11.590 -18.722 -39.327  1.00  0.00     0.122 A 
ATOM      5  C   UNL     1      10.924 -19.300 -38.234  1.00  0.00     0.047 A 
ATOM      6  C   UNL     1       9.617 -18.919 -37.921  1.00  0.00     0.019 A 
ENDROOT
BRANCH   1   7
ATOM      7  C   UNL     1       7.549 -17.550 -38.338  1.00  0.00     0.163 C 
ATOM      8  C   UNL     1       6.441 -18.556 -38.232  1.00  0.00     0.093 C 
ATOM      9  O   UNL     1       7.281 -16.343 -38.091  1.00  0.00    -0.294 OA
ENDBRANCH   1   7
BRANCH   2  10
ATOM     10  O   UNL     1       8.981 -16.424 -40.595  1.00  0.00    -0.507 OA
ATOM     11  H   UNL     1       9.151 -15.432 -40.481  1.00  0.00     0.293 HD
ENDBRANCH   2  10
BRANCH   4  12
ATOM     12  O   UNL     1      12.901 -19.071 -39.679  1.00  0.00    -0.497 OA
ATOM     13  C   UNL     1      13.377 -19.167 -41.018  1.00  0.00     0.278 C 
ENDBRANCH   4  12
TORSDOF 3
ENDMDL
MODEL 3
REMARK VINA RESULT:    -4.405      4.588      6.307
REMARK INTER + INTRA:          -5.382
REMARK INTER:                  -5.037
REMARK INTRA:                  -0.345
REMARK UNBOUND:                -0.334
REMARK SMILES COc1ccc(C(C)=O)c(O)c1
REMARK SMILES IDX 6 1 10 2 12 3 3 4 4 5 5 6 7 7 8 8 9 9 11 10 2 12 1 13
REMARK H PARENT 11 11
REMARK Flexibility Score: inf
ROOT
ATOM      1  C   UNL     1      10.947 -18.398 -39.346  1.00  0.00     0.059 A 
ATOM      2  C   UNL     1      10.183 -18.998 -38.318  1.00  0.00     0.130 A 
ATOM      3  C   UNL     1       8.828 -18.670 -38.166  1.00  0.00     0.093 A 
ATOM      4  C   UNL     1       8.209 -17.754 -39.020  1.00  0.00     0.122 A 
ATOM      5  C   UNL     1       8.963 -17.158 -40.044  1.00  0.00     0.047 A 
ATOM      6  C   UNL     1      10.313 -17.475 -40.204  1.00  0.00     0.019 A 
ENDROOT
BRANCH   1   7
ATOM      7  C   UNL     1      12.392 -18.719 -39.526  1.00  0.00     0.163 C 
ATOM      8  C   UNL     1      12.957 -19.088 -40.865  1.00  0.00     0.093 C 
ATOM      9  O   UNL     1      13.181 -18.658 -38.544  1.00  0.00    -0.294 OA
ENDBRANCH   1   7
BRANCH   2  10
ATOM     10  O   UNL     1      10.761 -19.930 -37.455  1.00  0.00    -0.507 OA
ATOM     11  H   UNL     1      10.797 -20.916 -37.682  1.00  0.00     0.293 HD
ENDBRANCH   2  10
BRANCH   4  12
ATOM     12  O   UNL     1       6.852 -17.466 -38.820  1.00  0.00    -0.497 OA
ATOM     13  C   UNL     1       6.110 -17.846 -37.665  1.00  0.00     0.278 C 
ENDBRANCH   4  12
TORSDOF 3
ENDMDL
MODEL 4
REMARK VINA RESULT:    -4.367      4.547      6.524
REMARK INTER + INTRA:          -5.339
REMARK INTER:                  -5.087
REMARK INTRA:                  -0.252
REMARK UNBOUND:                -0.334
REMARK SMILES COc1ccc(C(C)=O)c(O)c1
REMARK SMILES IDX 6 1 10 2 12 3 3 4 4 5 5 6 7 7 8 8 9 9 11 10 2 12 1 13
REMARK H PARENT 11 11
REMARK Flexibility Score: inf
ROOT
ATOM      1  C   UNL     1      11.223 -18.176 -39.449  1.00  0.00     0.059 A 
ATOM      2  C   UNL     1      10.222 -17.320 -39.965  1.00  0.00     0.130 A 
ATOM      3  C   UNL     1       8.918 -17.375 -39.454  1.00  0.00     0.093 A 
ATOM      4  C   UNL     1       8.584 -18.264 -38.430  1.00  0.00     0.122 A 
ATOM      5  C   UNL     1       9.575 -19.113 -37.911  1.00  0.00     0.047 A 
ATOM      6  C   UNL     1      10.876 -19.069 -38.415  1.00  0.00     0.019 A 
ENDROOT
BRANCH   1   7
ATOM      7  C   UNL     1      12.616 -18.148 -39.980  1.00  0.00     0.163 C 
ATOM      8  C   UNL     1      13.112 -19.179 -40.950  1.00  0.00     0.093 C 
ATOM      9  O   UNL     1      13.405 -17.224 -39.640  1.00  0.00    -0.294 OA
ENDBRANCH   1   7
BRANCH   2  10
ATOM     10  O   UNL     1      10.521 -16.407 -40.977  1.00  0.00    -0.507 OA
ATOM     11  H   UNL     1      11.017 -16.684 -41.816  1.00  0.00     0.293 HD
ENDBRANCH   2  10
BRANCH   4  12
ATOM     12  O   UNL     1       7.263 -18.272 -37.957  1.00  0.00    -0.497 OA
ATOM     13  C   UNL     1       6.116 -18.459 -38.779  1.00  0.00     0.278 C 
ENDBRANCH   4  12
TORSDOF 3
ENDMDL
MODEL 5
REMARK VINA RESULT:    -4.333      2.363      3.292
REMARK INTER + INTRA:          -5.300
REMARK INTER:                  -4.965
REMARK INTRA:                  -0.335
REMARK UNBOUND:                -0.334
REMARK SMILES COc1ccc(C(C)=O)c(O)c1
REMARK SMILES IDX 6 1 10 2 12 3 3 4 4 5 5 6 7 7 8 8 9 9 11 10 2 12 1 13
REMARK H PARENT 11 11
REMARK Flexibility Score: inf
ROOT
ATOM      1  C   UNL     1       2.936 -18.312 -37.387  1.00  0.00     0.059 A 
ATOM      2  C   UNL     1       3.651 -19.529 -37.465  1.00  0.00     0.130 A 
ATOM      3  C   UNL     1       4.942 -19.552 -38.013  1.00  0.00     0.093 A 
ATOM      4  C   UNL     1       5.544 -18.383 -38.485  1.00  0.00     0.122 A 
ATOM      5  C   UNL     1       4.838 -17.171 -38.407  1.00  0.00     0.047 A 
ATOM      6  C   UNL     1       3.552 -17.138 -37.865  1.00  0.00     0.019 A 
ENDROOT
BRANCH   1   7
ATOM      7  C   UNL     1       1.558 -18.259 -36.819  1.00  0.00     0.163 C 
ATOM      8  C   UNL     1       1.188 -17.290 -35.735  1.00  0.00     0.093 C 
ATOM      9  O   UNL     1       0.659 -19.021 -37.267  1.00  0.00    -0.294 OA
ENDBRANCH   1   7
BRANCH   2  10
ATOM     10  O   UNL     1       3.091 -20.715 -36.990  1.00  0.00    -0.507 OA
ATOM     11  H   UNL     1       2.752 -21.434 -37.619  1.00  0.00     0.293 HD
ENDBRANCH   2  10
BRANCH   4  12
ATOM     12  O   UNL     1       6.837 -18.468 -39.022  1.00  0.00    -0.497 OA
ATOM     13  C   UNL     1       8.030 -18.201 -38.292  1.00  0.00     0.278 C 
ENDBRANCH   4  12
TORSDOF 3
ENDMDL
MODEL 6
REMARK VINA RESULT:    -4.222      1.928      1.963
REMARK INTER + INTRA:          -5.172
REMARK INTER:                  -4.848
REMARK INTRA:                  -0.325
REMARK UNBOUND:                -0.334
REMARK SMILES COc1ccc(C(C)=O)c(O)c1
REMARK SMILES IDX 6 1 10 2 12 3 3 4 4 5 5 6 7 7 8 8 9 9 11 10 2 12 1 13
REMARK H PARENT 11 11
REMARK Flexibility Score: inf
ROOT
ATOM      1  C   UNL     1       4.660 -19.033 -37.491  1.00  0.00     0.059 A 
ATOM      2  C   UNL     1       3.796 -17.919 -37.374  1.00  0.00     0.130 A 
ATOM      3  C   UNL     1       3.993 -16.789 -38.181  1.00  0.00     0.093 A 
ATOM      4  C   UNL     1       5.034 -16.742 -39.111  1.00  0.00     0.122 A 
ATOM      5  C   UNL     1       5.892 -17.847 -39.233  1.00  0.00     0.047 A 
ATOM      6  C   UNL     1       5.706 -18.976 -38.434  1.00  0.00     0.019 A 
ENDROOT
BRANCH   1   7
ATOM      7  C   UNL     1       4.481 -20.245 -36.640  1.00  0.00     0.163 C 
ATOM      8  C   UNL     1       4.191 -21.591 -37.234  1.00  0.00     0.093 C 
ATOM      9  O   UNL     1       4.601 -20.161 -35.388  1.00  0.00    -0.294 OA
ENDBRANCH   1   7
BRANCH   2  10
ATOM     10  O   UNL     1       2.735 -17.934 -36.468  1.00  0.00    -0.507 OA
ATOM     11  H   UNL     1       2.405 -18.795 -36.048  1.00  0.00     0.293 HD
ENDBRANCH   2  10
BRANCH   4  12
ATOM     12  O   UNL     1       5.180 -15.586 -39.891  1.00  0.00    -0.497 OA
ATOM     13  C   UNL     1       6.336 -15.276 -40.663  1.00  0.00     0.278 C 
ENDBRANCH   4  12
TORSDOF 3
ENDMDL
MODEL 7
REMARK VINA RESULT:    -4.215      4.125      4.979
REMARK INTER + INTRA:          -5.165
REMARK INTER:                  -4.852
REMARK INTRA:                  -0.313
REMARK UNBOUND:                -0.334
REMARK SMILES COc1ccc(C(C)=O)c(O)c1
REMARK SMILES IDX 6 1 10 2 12 3 3 4 4 5 5 6 7 7 8 8 9 9 11 10 2 12 1 13
REMARK H PARENT 11 11
REMARK Flexibility Score: inf
ROOT
ATOM      1  C   UNL     1       2.337 -18.428 -36.885  1.00  0.00     0.059 A 
ATOM      2  C   UNL     1       0.950 -18.551 -36.639  1.00  0.00     0.130 A 
ATOM      3  C   UNL     1       0.309 -17.659 -35.767  1.00  0.00     0.093 A 
ATOM      4  C   UNL     1       1.019 -16.637 -35.133  1.00  0.00     0.122 A 
ATOM      5  C   UNL     1       2.397 -16.510 -35.376  1.00  0.00     0.047 A 
ATOM      6  C   UNL     1       3.046 -17.394 -36.240  1.00  0.00     0.019 A 
ENDROOT
BRANCH   1   7
ATOM      7  C   UNL     1       3.048 -19.368 -37.798  1.00  0.00     0.163 C 
ATOM      8  C   UNL     1       4.061 -20.350 -37.289  1.00  0.00     0.093 C 
ATOM      9  O   UNL     1       2.784 -19.374 -39.032  1.00  0.00    -0.294 OA
ENDBRANCH   1   7
BRANCH   2  10
ATOM     10  O   UNL     1       0.202 -19.548 -37.266  1.00  0.00    -0.507 OA
ATOM     11  H   UNL     1      -0.548 -19.327 -37.910  1.00  0.00     0.293 HD
ENDBRANCH   2  10
BRANCH   4  12
ATOM     12  O   UNL     1       0.324 -15.775 -34.273  1.00  0.00    -0.497 OA
ATOM     13  C   UNL     1       0.693 -15.515 -32.922  1.00  0.00     0.278 C 
ENDBRANCH   4  12
TORSDOF 3
ENDMDL
MODEL 8
REMARK VINA RESULT:    -4.185      2.866      5.439
REMARK INTER + INTRA:          -5.130
REMARK INTER:                  -4.792
REMARK INTRA:                  -0.338
REMARK UNBOUND:                -0.334
REMARK SMILES COc1ccc(C(C)=O)c(O)c1
REMARK SMILES IDX 6 1 10 2 12 3 3 4 4 5 5 6 7 7 8 8 9 9 11 10 2 12 1 13
REMARK H PARENT 11 11
REMARK Flexibility Score: inf
ROOT
ATOM      1  C   UNL     1       8.644 -17.405 -39.627  1.00  0.00     0.059 A 
ATOM      2  C   UNL     1       8.512 -18.114 -38.411  1.00  0.00     0.130 A 
ATOM      3  C   UNL     1       7.244 -18.511 -37.963  1.00  0.00     0.093 A 
ATOM      4  C   UNL     1       6.096 -18.222 -38.704  1.00  0.00     0.122 A 
ATOM      5  C   UNL     1       6.223 -17.521 -39.915  1.00  0.00     0.047 A 
ATOM      6  C   UNL     1       7.480 -17.118 -40.369  1.00  0.00     0.019 A 
ENDROOT
BRANCH   1   7
ATOM      7  C   UNL     1       9.978 -16.960 -40.124  1.00  0.00     0.163 C 
ATOM      8  C   UNL     1      10.247 -15.531 -40.492  1.00  0.00     0.093 C 
ATOM      9  O   UNL     1      10.927 -17.785 -40.216  1.00  0.00    -0.294 OA
ENDBRANCH   1   7
BRANCH   2  10
ATOM     10  O   UNL     1       9.637 -18.436 -37.650  1.00  0.00    -0.507 OA
ATOM     11  H   UNL     1      10.388 -17.772 -37.503  1.00  0.00     0.293 HD
ENDBRANCH   2  10
BRANCH   4  12
ATOM     12  O   UNL     1       4.856 -18.647 -38.206  1.00  0.00    -0.497 OA
ATOM     13  C   UNL     1       4.132 -19.769 -38.700  1.00  0.00     0.278 C 
ENDBRANCH   4  12
TORSDOF 3
ENDMDL
MODEL 9
REMARK VINA RESULT:    -4.180      2.031      4.298
REMARK INTER + INTRA:          -5.125
REMARK INTER:                  -4.785
REMARK INTRA:                  -0.340
REMARK UNBOUND:                -0.334
REMARK SMILES COc1ccc(C(C)=O)c(O)c1
REMARK SMILES IDX 6 1 10 2 12 3 3 4 4 5 5 6 7 7 8 8 9 9 11 10 2 12 1 13
REMARK H PARENT 11 11
REMARK Flexibility Score: inf
ROOT
ATOM      1  C   UNL     1       5.445 -18.254 -38.543  1.00  0.00     0.059 A 
ATOM      2  C   UNL     1       4.413 -17.289 -38.610  1.00  0.00     0.130 A 
ATOM      3  C   UNL     1       3.146 -17.577 -38.083  1.00  0.00     0.093 A 
ATOM      4  C   UNL     1       2.880 -18.810 -37.483  1.00  0.00     0.122 A 
ATOM      5  C   UNL     1       3.903 -19.771 -37.412  1.00  0.00     0.047 A 
ATOM      6  C   UNL     1       5.167 -19.495 -37.936  1.00  0.00     0.019 A 
ENDROOT
BRANCH   1   7
ATOM      7  C   UNL     1       6.799 -17.980 -39.105  1.00  0.00     0.163 C 
ATOM      8  C   UNL     1       8.047 -18.216 -38.307  1.00  0.00     0.093 C 
ATOM      9  O   UNL     1       6.921 -17.566 -40.289  1.00  0.00    -0.294 OA
ENDBRANCH   1   7
BRANCH   2  10
ATOM     10  O   UNL     1       4.644 -16.040 -39.187  1.00  0.00    -0.507 OA
ATOM     11  H   UNL     1       5.213 -15.934 -40.019  1.00  0.00     0.293 HD
ENDBRANCH   2  10
BRANCH   4  12
ATOM     12  O   UNL     1       1.595 -19.041 -36.972  1.00  0.00    -0.497 OA
ATOM     13  C   UNL     1       0.387 -18.757 -37.672  1.00  0.00     0.278 C 
ENDBRANCH   4  12
TORSDOF 3
ENDMDL
