MODEL 1
REMARK VINA RESULT:    -4.675      0.000      0.000
REMARK INTER + INTRA:          -5.847
REMARK INTER:                  -5.632
REMARK INTRA:                  -0.215
REMARK UNBOUND:                -0.215
REMARK SMILES [NH3+][C@@H](Cc1c[nH]c2ccccc12)C(=O)[O-]
REMARK SMILES IDX 3 1 2 2 1 3 13 7 14 8 15 9 4 10 12 11 5 12 7 13 11 14 6 15
REMARK SMILES IDX 8 16 10 17 9 19
REMARK H PARENT 1 4 1 5 1 6 6 18
REMARK Flexibility Score: inf
ROOT
ATOM      1  C   UNL     1      -7.353  33.748 -11.619  1.00  0.00     0.109 C 
ENDROOT
BRANCH   1   2
ATOM      2  C   UNL     1      -6.871  34.504 -12.874  1.00  0.00     0.232 C 
BRANCH   2   3
ATOM      3  N   UNL     1      -5.442  34.274 -13.125  1.00  0.00    -0.350 N 
ATOM      4  H   UNL     1      -5.081  33.539 -12.473  1.00  0.00     0.345 HD
ATOM      5  H   UNL     1      -4.901  35.151 -12.948  1.00  0.00     0.345 HD
ATOM      6  H   UNL     1      -5.283  33.965 -14.113  1.00  0.00     0.345 HD
ENDBRANCH   2   3
BRANCH   2   7
ATOM      7  C   UNL     1      -7.144  35.975 -12.718  1.00  0.00     0.099 C 
ATOM      8  O   UNL     1      -6.282  36.736 -12.204  1.00  0.00    -0.544 OA
ATOM      9  O   UNL     1      -8.365  36.501 -13.125  1.00  0.00    -0.544 OA
ENDBRANCH   2   7
ENDBRANCH   1   2
BRANCH   1  10
ATOM     10  C   UNL     1      -8.849  33.639 -11.574  1.00  0.00    -0.016 A 
ATOM     11  C   UNL     1      -9.726  34.402 -10.828  1.00  0.00     0.003 A 
ATOM     12  C   UNL     1      -9.645  32.792 -12.339  1.00  0.00     0.087 A 
ATOM     13  C   UNL     1     -10.992  33.987 -11.155  1.00  0.00     0.046 A 
ATOM     14  C   UNL     1      -9.503  35.424  -9.903  1.00  0.00     0.010 A 
ATOM     15  N   UNL     1     -10.954  33.006 -12.074  1.00  0.00    -0.361 N 
ATOM     16  C   UNL     1     -12.123  34.563 -10.579  1.00  0.00     0.026 A 
ATOM     17  C   UNL     1     -10.627  36.023  -9.305  1.00  0.00     0.001 A 
ATOM     18  H   UNL     1     -11.768  32.515 -12.506  1.00  0.00     0.166 HD
ATOM     19  C   UNL     1     -11.931  35.594  -9.641  1.00  0.00     0.002 A 
ENDBRANCH   1  10
TORSDOF 4
ENDMDL
MODEL 2
REMARK VINA RESULT:    -4.232      2.646      5.007
REMARK INTER + INTRA:          -5.313
REMARK INTER:                  -5.109
REMARK INTRA:                  -0.204
REMARK UNBOUND:                -0.215
REMARK SMILES [NH3+][C@@H](Cc1c[nH]c2ccccc12)C(=O)[O-]
REMARK SMILES IDX 3 1 2 2 1 3 13 7 14 8 15 9 4 10 12 11 5 12 7 13 11 14 6 15
REMARK SMILES IDX 8 16 10 17 9 19
REMARK H PARENT 1 4 1 5 1 6 6 18
REMARK Flexibility Score: inf
ROOT
ATOM      1  C   UNL     1      -9.463  33.463 -12.949  1.00  0.00     0.109 C 
ENDROOT
BRANCH   1   2
ATOM      2  C   UNL     1      -9.744  32.854 -11.560  1.00  0.00     0.232 C 
BRANCH   2   3
ATOM      3  N   UNL     1      -9.882  31.394 -11.631  1.00  0.00    -0.350 N 
ATOM      4  H   UNL     1     -10.886  31.139 -11.781  1.00  0.00     0.345 HD
ATOM      5  H   UNL     1      -9.575  30.960 -10.730  1.00  0.00     0.345 HD
ATOM      6  H   UNL     1      -9.307  31.003 -12.414  1.00  0.00     0.345 HD
ENDBRANCH   2   3
BRANCH   2   7
ATOM      7  C   UNL     1     -10.988  33.469 -10.976  1.00  0.00     0.099 C 
ATOM      8  O   UNL     1     -12.124  33.008 -11.263  1.00  0.00    -0.544 OA
ATOM      9  O   UNL     1     -10.888  34.568 -10.131  1.00  0.00    -0.544 OA
ENDBRANCH   2   7
ENDBRANCH   1   2
BRANCH   1  10
ATOM     10  C   UNL     1      -8.817  34.813 -12.846  1.00  0.00    -0.016 A 
ATOM     11  C   UNL     1      -7.469  35.096 -12.756  1.00  0.00     0.003 A 
ATOM     12  C   UNL     1      -9.457  36.048 -12.897  1.00  0.00     0.087 A 
ATOM     13  C   UNL     1      -7.349  36.463 -12.744  1.00  0.00     0.046 A 
ATOM     14  C   UNL     1      -6.353  34.260 -12.692  1.00  0.00     0.010 A 
ATOM     15  N   UNL     1      -8.553  37.053 -12.830  1.00  0.00    -0.361 N 
ATOM     16  C   UNL     1      -6.105  37.088 -12.667  1.00  0.00     0.026 A 
ATOM     17  C   UNL     1      -5.085  34.863 -12.611  1.00  0.00     0.001 A 
ATOM     18  H   UNL     1      -8.755  38.077 -12.851  1.00  0.00     0.166 HD
ATOM     19  C   UNL     1      -4.961  36.271 -12.599  1.00  0.00     0.002 A 
ENDBRANCH   1  10
TORSDOF 4
ENDMDL
MODEL 3
REMARK VINA RESULT:    -3.328      2.097      4.408
REMARK INTER + INTRA:          -4.224
REMARK INTER:                  -4.150
REMARK INTRA:                  -0.073
REMARK UNBOUND:                -0.215
REMARK SMILES [NH3+][C@@H](Cc1c[nH]c2ccccc12)C(=O)[O-]
REMARK SMILES IDX 3 1 2 2 1 3 13 7 14 8 15 9 4 10 12 11 5 12 7 13 11 14 6 15
REMARK SMILES IDX 8 16 10 17 9 19
REMARK H PARENT 1 4 1 5 1 6 6 18
REMARK Flexibility Score: inf
ROOT
ATOM      1  C   UNL     1     -10.362  34.528  -9.945  1.00  0.00     0.109 C 
ENDROOT
BRANCH   1   2
ATOM      2  C   UNL     1     -11.753  34.725 -10.583  1.00  0.00     0.232 C 
BRANCH   2   3
ATOM      3  N   UNL     1     -12.052  33.670 -11.560  1.00  0.00    -0.350 N 
ATOM      4  H   UNL     1     -11.664  33.932 -12.496  1.00  0.00     0.345 HD
ATOM      5  H   UNL     1     -13.087  33.559 -11.663  1.00  0.00     0.345 HD
ATOM      6  H   UNL     1     -11.637  32.757 -11.260  1.00  0.00     0.345 HD
ENDBRANCH   2   3
BRANCH   2   7
ATOM      7  C   UNL     1     -11.825  36.079 -11.238  1.00  0.00     0.099 C 
ATOM      8  O   UNL     1     -11.888  37.125 -10.539  1.00  0.00    -0.544 OA
ATOM      9  O   UNL     1     -11.844  36.179 -12.624  1.00  0.00    -0.544 OA
ENDBRANCH   2   7
ENDBRANCH   1   2
BRANCH   1  10
ATOM     10  C   UNL     1      -9.320  34.194 -10.972  1.00  0.00    -0.016 A 
ATOM     11  C   UNL     1      -8.407  35.052 -11.553  1.00  0.00     0.003 A 
ATOM     12  C   UNL     1      -9.027  32.932 -11.480  1.00  0.00     0.087 A 
ATOM     13  C   UNL     1      -7.621  34.292 -12.382  1.00  0.00     0.046 A 
ATOM     14  C   UNL     1      -8.209  36.426 -11.407  1.00  0.00     0.010 A 
ATOM     15  N   UNL     1      -7.989  33.000 -12.345  1.00  0.00    -0.361 N 
ATOM     16  C   UNL     1      -6.582  34.855 -13.124  1.00  0.00     0.026 A 
ATOM     17  C   UNL     1      -7.170  37.021 -12.145  1.00  0.00     0.001 A 
ATOM     18  H   UNL     1      -7.558  32.206 -12.868  1.00  0.00     0.166 HD
ATOM     19  C   UNL     1      -6.360  36.239 -13.000  1.00  0.00     0.002 A 
ENDBRANCH   1  10
TORSDOF 4
ENDMDL
MODEL 4
REMARK VINA RESULT:    -3.094      3.164      4.650
REMARK INTER + INTRA:          -3.942
REMARK INTER:                  -4.058
REMARK INTRA:                   0.117
REMARK UNBOUND:                -0.215
REMARK SMILES [NH3+][C@@H](Cc1c[nH]c2ccccc12)C(=O)[O-]
REMARK SMILES IDX 3 1 2 2 1 3 13 7 14 8 15 9 4 10 12 11 5 12 7 13 11 14 6 15
REMARK SMILES IDX 8 16 10 17 9 19
REMARK H PARENT 1 4 1 5 1 6 6 18
REMARK Flexibility Score: inf
ROOT
ATOM      1  C   UNL     1      -9.286  36.778  -9.724  1.00  0.00     0.109 C 
ENDROOT
BRANCH   1   2
ATOM      2  C   UNL     1      -9.905  36.069 -10.946  1.00  0.00     0.232 C 
BRANCH   2   3
ATOM      3  N   UNL     1     -10.297  34.690 -10.628  1.00  0.00    -0.350 N 
ATOM      4  H   UNL     1     -11.040  34.370 -11.292  1.00  0.00     0.345 HD
ATOM      5  H   UNL     1     -10.691  34.643  -9.661  1.00  0.00     0.345 HD
ATOM      6  H   UNL     1      -9.475  34.045 -10.696  1.00  0.00     0.345 HD
ENDBRANCH   2   3
BRANCH   2   7
ATOM      7  C   UNL     1      -8.929  36.084 -12.092  1.00  0.00     0.099 C 
ATOM      8  O   UNL     1      -9.089  35.320 -13.079  1.00  0.00    -0.544 OA
ATOM      9  O   UNL     1      -7.828  36.932 -12.054  1.00  0.00    -0.544 OA
ENDBRANCH   2   7
ENDBRANCH   1   2
BRANCH   1  10
ATOM     10  C   UNL     1     -10.182  36.702  -8.523  1.00  0.00    -0.016 A 
ATOM     11  C   UNL     1      -9.822  36.820  -7.195  1.00  0.00     0.003 A 
ATOM     12  C   UNL     1     -11.568  36.573  -8.526  1.00  0.00     0.087 A 
ATOM     13  C   UNL     1     -10.978  36.747  -6.461  1.00  0.00     0.046 A 
ATOM     14  C   UNL     1      -8.576  36.992  -6.590  1.00  0.00     0.010 A 
ATOM     15  N   UNL     1     -12.048  36.596  -7.261  1.00  0.00    -0.361 N 
ATOM     16  C   UNL     1     -10.969  36.839  -5.069  1.00  0.00     0.026 A 
ATOM     17  C   UNL     1      -8.536  37.086  -5.186  1.00  0.00     0.001 A 
ATOM     18  H   UNL     1     -13.048  36.523  -6.970  1.00  0.00     0.166 HD
ATOM     19  C   UNL     1      -9.727  37.010  -4.430  1.00  0.00     0.002 A 
ENDBRANCH   1  10
TORSDOF 4
ENDMDL
MODEL 5
REMARK VINA RESULT:    -2.991      1.922      2.952
REMARK INTER + INTRA:          -3.818
REMARK INTER:                  -3.851
REMARK INTRA:                   0.032
REMARK UNBOUND:                -0.215
REMARK SMILES [NH3+][C@@H](Cc1c[nH]c2ccccc12)C(=O)[O-]
REMARK SMILES IDX 3 1 2 2 1 3 13 7 14 8 15 9 4 10 12 11 5 12 7 13 11 14 6 15
REMARK SMILES IDX 8 16 10 17 9 19
REMARK H PARENT 1 4 1 5 1 6 6 18
REMARK Flexibility Score: inf
ROOT
ATOM      1  C   UNL     1      -7.932  36.722 -10.765  1.00  0.00     0.109 C 
ENDROOT
BRANCH   1   2
ATOM      2  C   UNL     1      -7.522  37.001 -12.226  1.00  0.00     0.232 C 
BRANCH   2   3
ATOM      3  N   UNL     1      -8.685  36.988 -13.124  1.00  0.00    -0.350 N 
ATOM      4  H   UNL     1      -9.482  37.501 -12.680  1.00  0.00     0.345 HD
ATOM      5  H   UNL     1      -8.995  36.003 -13.294  1.00  0.00     0.345 HD
ATOM      6  H   UNL     1      -8.453  37.438 -14.040  1.00  0.00     0.345 HD
ENDBRANCH   2   3
BRANCH   2   7
ATOM      7  C   UNL     1      -6.506  35.984 -12.672  1.00  0.00     0.099 C 
ATOM      8  O   UNL     1      -6.874  34.867 -13.123  1.00  0.00    -0.544 OA
ATOM      9  O   UNL     1      -5.149  36.267 -12.568  1.00  0.00    -0.544 OA
ENDBRANCH   2   7
ENDBRANCH   1   2
BRANCH   1  10
ATOM     10  C   UNL     1      -9.375  36.325 -10.657  1.00  0.00    -0.016 A 
ATOM     11  C   UNL     1      -9.925  35.080 -10.892  1.00  0.00     0.003 A 
ATOM     12  C   UNL     1     -10.428  37.125 -10.224  1.00  0.00     0.087 A 
ATOM     13  C   UNL     1     -11.263  35.177 -10.609  1.00  0.00     0.046 A 
ATOM     14  C   UNL     1      -9.348  33.883 -11.321  1.00  0.00     0.010 A 
ATOM     15  N   UNL     1     -11.581  36.417 -10.201  1.00  0.00    -0.361 N 
ATOM     16  C   UNL     1     -12.120  34.084 -10.736  1.00  0.00     0.026 A 
ATOM     17  C   UNL     1     -10.189  32.764 -11.460  1.00  0.00     0.001 A 
ATOM     18  H   UNL     1     -12.523  36.766  -9.914  1.00  0.00     0.166 HD
ATOM     19  C   UNL     1     -11.568  32.863 -11.169  1.00  0.00     0.002 A 
ENDBRANCH   1  10
TORSDOF 4
ENDMDL
MODEL 6
REMARK VINA RESULT:    -2.858      3.278      4.897
REMARK INTER + INTRA:          -3.658
REMARK INTER:                  -3.418
REMARK INTRA:                  -0.239
REMARK UNBOUND:                -0.215
REMARK SMILES [NH3+][C@@H](Cc1c[nH]c2ccccc12)C(=O)[O-]
REMARK SMILES IDX 3 1 2 2 1 3 13 7 14 8 15 9 4 10 12 11 5 12 7 13 11 14 6 15
REMARK SMILES IDX 8 16 10 17 9 19
REMARK H PARENT 1 4 1 5 1 6 6 18
REMARK Flexibility Score: inf
ROOT
ATOM      1  C   UNL     1     -11.206  36.399 -10.144  1.00  0.00     0.109 C 
ENDROOT
BRANCH   1   2
ATOM      2  C   UNL     1     -10.334  36.108 -11.382  1.00  0.00     0.232 C 
BRANCH   2   3
ATOM      3  N   UNL     1     -10.995  36.539 -12.620  1.00  0.00    -0.350 N 
ATOM      4  H   UNL     1     -11.307  35.702 -13.166  1.00  0.00     0.345 HD
ATOM      5  H   UNL     1     -10.325  37.077 -13.216  1.00  0.00     0.345 HD
ATOM      6  H   UNL     1     -11.826  37.140 -12.408  1.00  0.00     0.345 HD
ENDBRANCH   2   3
BRANCH   2   7
ATOM      7  C   UNL     1     -10.014  34.638 -11.444  1.00  0.00     0.099 C 
ATOM      8  O   UNL     1     -10.936  33.787 -11.555  1.00  0.00    -0.544 OA
ATOM      9  O   UNL     1      -8.694  34.211 -11.359  1.00  0.00    -0.544 OA
ENDBRANCH   2   7
ENDBRANCH   1   2
BRANCH   1  10
ATOM     10  C   UNL     1     -10.373  36.699  -8.932  1.00  0.00    -0.016 A 
ATOM     11  C   UNL     1     -10.780  36.708  -7.613  1.00  0.00     0.003 A 
ATOM     12  C   UNL     1      -9.005  36.953  -8.906  1.00  0.00     0.087 A 
ATOM     13  C   UNL     1      -9.667  36.974  -6.856  1.00  0.00     0.046 A 
ATOM     14  C   UNL     1     -12.031  36.497  -7.032  1.00  0.00     0.010 A 
ATOM     15  N   UNL     1      -8.581  37.125  -7.633  1.00  0.00    -0.361 N 
ATOM     16  C   UNL     1      -9.728  37.048  -5.464  1.00  0.00     0.026 A 
ATOM     17  C   UNL     1     -12.123  36.567  -5.630  1.00  0.00     0.001 A 
ATOM     18  H   UNL     1      -7.604  37.323  -7.321  1.00  0.00     0.166 HD
ATOM     19  C   UNL     1     -10.978  36.842  -4.850  1.00  0.00     0.002 A 
ENDBRANCH   1  10
TORSDOF 4
ENDMDL
MODEL 7
REMARK VINA RESULT:    -2.763      5.168      6.613
REMARK INTER + INTRA:          -3.543
REMARK INTER:                  -3.233
REMARK INTRA:                  -0.310
REMARK UNBOUND:                -0.215
REMARK SMILES [NH3+][C@@H](Cc1c[nH]c2ccccc12)C(=O)[O-]
REMARK SMILES IDX 3 1 2 2 1 3 13 7 14 8 15 9 4 10 12 11 5 12 7 13 11 14 6 15
REMARK SMILES IDX 8 16 10 17 9 19
REMARK H PARENT 1 4 1 5 1 6 6 18
REMARK Flexibility Score: inf
ROOT
ATOM      1  C   UNL     1      -8.728  37.051  -4.690  1.00  0.00     0.109 C 
ENDROOT
BRANCH   1   2
ATOM      2  C   UNL     1      -7.943  35.725  -4.641  1.00  0.00     0.232 C 
BRANCH   2   3
ATOM      3  N   UNL     1      -8.104  35.051  -3.346  1.00  0.00    -0.350 N 
ATOM      4  H   UNL     1      -8.113  34.014  -3.484  1.00  0.00     0.345 HD
ATOM      5  H   UNL     1      -9.015  35.323  -2.911  1.00  0.00     0.345 HD
ATOM      6  H   UNL     1      -7.323  35.304  -2.695  1.00  0.00     0.345 HD
ENDBRANCH   2   3
BRANCH   2   7
ATOM      7  C   UNL     1      -6.486  35.985  -4.917  1.00  0.00     0.099 C 
ATOM      8  O   UNL     1      -5.604  35.187  -4.504  1.00  0.00    -0.544 OA
ATOM      9  O   UNL     1      -6.105  37.125  -5.616  1.00  0.00    -0.544 OA
ENDBRANCH   2   7
ENDBRANCH   1   2
BRANCH   1  10
ATOM     10  C   UNL     1      -9.971  36.934  -5.523  1.00  0.00    -0.016 A 
ATOM     11  C   UNL     1     -10.065  36.953  -6.900  1.00  0.00     0.003 A 
ATOM     12  C   UNL     1     -11.263  36.706  -5.061  1.00  0.00     0.087 A 
ATOM     13  C   UNL     1     -11.386  36.752  -7.211  1.00  0.00     0.046 A 
ATOM     14  C   UNL     1      -9.095  37.122  -7.889  1.00  0.00     0.010 A 
ATOM     15  N   UNL     1     -12.125  36.601  -6.098  1.00  0.00    -0.361 N 
ATOM     16  C   UNL     1     -11.829  36.708  -8.532  1.00  0.00     0.026 A 
ATOM     17  C   UNL     1      -9.513  37.084  -9.232  1.00  0.00     0.001 A 
ATOM     18  H   UNL     1     -13.153  36.426  -6.042  1.00  0.00     0.166 HD
ATOM     19  C   UNL     1     -10.874  36.878  -9.552  1.00  0.00     0.002 A 
ENDBRANCH   1  10
TORSDOF 4
ENDMDL
