MODEL 1
REMARK VINA RESULT:    -5.072      0.000      0.000
REMARK INTER + INTRA:          -8.256
REMARK INTER:                  -7.296
REMARK INTRA:                  -0.960
REMARK UNBOUND:                -0.960
REMARK SMILES O=C(CO)[C@H](O)[C@H](O)[C@@H](O)CO
REMARK SMILES IDX 7 1 9 2 11 3 12 4 10 6 5 8 2 9 1 10 3 11 4 12 6 14 8 16
REMARK H PARENT 12 5 10 7 4 13 6 15 8 17
REMARK Flexibility Score: inf
ROOT
ATOM      1  C   UNL     1      15.750  -5.525  20.649  1.00  0.00     0.181 C 
ENDROOT
BRANCH   1   2
ATOM      2  C   UNL     1      15.855  -7.075  20.722  1.00  0.00     0.171 C 
BRANCH   2   3
ATOM      3  C   UNL     1      15.560  -7.727  19.359  1.00  0.00     0.190 C 
BRANCH   3   4
ATOM      4  O   UNL     1      16.698  -7.722  18.541  1.00  0.00    -0.394 OA
ATOM      5  H   UNL     1      16.377  -7.822  17.607  1.00  0.00     0.210 HD
ENDBRANCH   3   4
ENDBRANCH   2   3
BRANCH   2   6
ATOM      6  O   UNL     1      14.961  -7.579  21.681  1.00  0.00    -0.388 OA
ATOM      7  H   UNL     1      15.302  -8.469  21.956  1.00  0.00     0.211 HD
ENDBRANCH   2   6
ENDBRANCH   1   2
BRANCH   1   8
ATOM      8  C   UNL     1      14.411  -4.973  21.225  1.00  0.00     0.214 C 
BRANCH   8   9
ATOM      9  C   UNL     1      13.382  -4.603  20.169  1.00  0.00     0.189 C 
ATOM     10  O   UNL     1      12.953  -5.492  19.446  1.00  0.00    -0.294 OA
BRANCH   9  11
ATOM     11  C   UNL     1      12.869  -3.201  19.930  1.00  0.00     0.234 C 
BRANCH  11  12
ATOM     12  O   UNL     1      13.904  -2.270  19.761  1.00  0.00    -0.388 OA
ATOM     13  H   UNL     1      14.078  -2.208  18.785  1.00  0.00     0.211 HD
ENDBRANCH  11  12
ENDBRANCH   9  11
ENDBRANCH   8   9
BRANCH   8  14
ATOM     14  O   UNL     1      14.604  -3.908  22.127  1.00  0.00    -0.382 OA
ATOM     15  H   UNL     1      14.522  -3.049  21.638  1.00  0.00     0.211 HD
ENDBRANCH   8  14
ENDBRANCH   1   8
BRANCH   1  16
ATOM     16  O   UNL     1      16.002  -5.040  19.352  1.00  0.00    -0.387 OA
ATOM     17  H   UNL     1      15.496  -4.195  19.233  1.00  0.00     0.211 HD
ENDBRANCH   1  16
TORSDOF 10
ENDMDL
MODEL 2
REMARK VINA RESULT:    -5.038      0.873      1.717
REMARK INTER + INTRA:          -8.206
REMARK INTER:                  -7.250
REMARK INTRA:                  -0.956
REMARK UNBOUND:                -0.960
REMARK SMILES O=C(CO)[C@H](O)[C@H](O)[C@@H](O)CO
REMARK SMILES IDX 7 1 9 2 11 3 12 4 10 6 5 8 2 9 1 10 3 11 4 12 6 14 8 16
REMARK H PARENT 12 5 10 7 4 13 6 15 8 17
REMARK Flexibility Score: inf
ROOT
ATOM      1  C   UNL     1      15.749  -5.605  20.577  1.00  0.00     0.181 C 
ENDROOT
BRANCH   1   2
ATOM      2  C   UNL     1      15.845  -7.157  20.592  1.00  0.00     0.171 C 
BRANCH   2   3
ATOM      3  C   UNL     1      15.669  -7.748  19.181  1.00  0.00     0.190 C 
BRANCH   3   4
ATOM      4  O   UNL     1      16.883  -7.753  18.481  1.00  0.00    -0.394 OA
ATOM      5  H   UNL     1      17.410  -8.518  18.830  1.00  0.00     0.210 HD
ENDBRANCH   3   4
ENDBRANCH   2   3
BRANCH   2   6
ATOM      6  O   UNL     1      14.871  -7.698  21.447  1.00  0.00    -0.388 OA
ATOM      7  H   UNL     1      14.228  -8.193  20.877  1.00  0.00     0.211 HD
ENDBRANCH   2   6
ENDBRANCH   1   2
BRANCH   1   8
ATOM      8  C   UNL     1      14.322  -5.076  20.915  1.00  0.00     0.214 C 
BRANCH   8   9
ATOM      9  C   UNL     1      13.464  -4.773  19.697  1.00  0.00     0.189 C 
ATOM     10  O   UNL     1      13.704  -3.758  19.061  1.00  0.00    -0.294 OA
BRANCH   9  11
ATOM     11  C   UNL     1      12.311  -5.633  19.231  1.00  0.00     0.234 C 
BRANCH  11  12
ATOM     12  O   UNL     1      12.369  -6.937  19.742  1.00  0.00    -0.388 OA
ATOM     13  H   UNL     1      12.353  -6.859  20.732  1.00  0.00     0.211 HD
ENDBRANCH  11  12
ENDBRANCH   9  11
ENDBRANCH   8   9
BRANCH   8  14
ATOM     14  O   UNL     1      14.344  -3.976  21.795  1.00  0.00    -0.382 OA
ATOM     15  H   UNL     1      14.017  -3.170  21.317  1.00  0.00     0.211 HD
ENDBRANCH   8  14
ENDBRANCH   1   8
BRANCH   1  16
ATOM     16  O   UNL     1      16.241  -5.057  19.377  1.00  0.00    -0.387 OA
ATOM     17  H   UNL     1      17.207  -5.273  19.311  1.00  0.00     0.211 HD
ENDBRANCH   1  16
TORSDOF 10
ENDMDL
MODEL 3
REMARK VINA RESULT:    -4.967      1.227      1.911
REMARK INTER + INTRA:          -8.105
REMARK INTER:                  -7.621
REMARK INTRA:                  -0.484
REMARK UNBOUND:                -0.960
REMARK SMILES O=C(CO)[C@H](O)[C@H](O)[C@@H](O)CO
REMARK SMILES IDX 7 1 9 2 11 3 12 4 10 6 5 8 2 9 1 10 3 11 4 12 6 14 8 16
REMARK H PARENT 12 5 10 7 4 13 6 15 8 17
REMARK Flexibility Score: inf
ROOT
ATOM      1  C   UNL     1      15.426  -5.872  20.019  1.00  0.00     0.181 C 
ENDROOT
BRANCH   1   2
ATOM      2  C   UNL     1      15.244  -7.242  19.307  1.00  0.00     0.171 C 
BRANCH   2   3
ATOM      3  C   UNL     1      14.770  -8.331  20.287  1.00  0.00     0.190 C 
BRANCH   3   4
ATOM      4  O   UNL     1      14.961  -7.930  21.617  1.00  0.00    -0.394 OA
ATOM      5  H   UNL     1      15.248  -6.980  21.589  1.00  0.00     0.210 HD
ENDBRANCH   3   4
ENDBRANCH   2   3
BRANCH   2   6
ATOM      6  O   UNL     1      16.451  -7.647  18.713  1.00  0.00    -0.388 OA
ATOM      7  H   UNL     1      17.185  -7.274  19.266  1.00  0.00     0.211 HD
ENDBRANCH   2   6
ENDBRANCH   1   2
BRANCH   1   8
ATOM      8  C   UNL     1      14.083  -5.110  20.235  1.00  0.00     0.214 C 
BRANCH   8   9
ATOM      9  C   UNL     1      13.227  -4.988  18.984  1.00  0.00     0.189 C 
ATOM     10  O   UNL     1      12.291  -5.763  18.849  1.00  0.00    -0.294 OA
BRANCH   9  11
ATOM     11  C   UNL     1      13.470  -3.987  17.877  1.00  0.00     0.234 C 
BRANCH  11  12
ATOM     12  O   UNL     1      14.687  -3.307  18.024  1.00  0.00    -0.388 OA
ATOM     13  H   UNL     1      14.657  -2.529  17.407  1.00  0.00     0.211 HD
ENDBRANCH  11  12
ENDBRANCH   9  11
ENDBRANCH   8   9
BRANCH   8  14
ATOM     14  O   UNL     1      14.262  -3.851  20.840  1.00  0.00    -0.382 OA
ATOM     15  H   UNL     1      14.767  -3.965  21.686  1.00  0.00     0.211 HD
ENDBRANCH   8  14
ENDBRANCH   1   8
BRANCH   1  16
ATOM     16  O   UNL     1      16.387  -5.068  19.379  1.00  0.00    -0.387 OA
ATOM     17  H   UNL     1      16.583  -5.465  18.491  1.00  0.00     0.211 HD
ENDBRANCH   1  16
TORSDOF 10
ENDMDL
MODEL 4
REMARK VINA RESULT:    -4.887     17.580     19.473
REMARK INTER + INTRA:          -7.990
REMARK INTER:                  -7.301
REMARK INTRA:                  -0.689
REMARK UNBOUND:                -0.960
REMARK SMILES O=C(CO)[C@H](O)[C@H](O)[C@@H](O)CO
REMARK SMILES IDX 7 1 9 2 11 3 12 4 10 6 5 8 2 9 1 10 3 11 4 12 6 14 8 16
REMARK H PARENT 12 5 10 7 4 13 6 15 8 17
REMARK Flexibility Score: inf
ROOT
ATOM      1  C   UNL     1       3.255   8.137  28.342  1.00  0.00     0.181 C 
ENDROOT
BRANCH   1   2
ATOM      2  C   UNL     1       3.348   9.676  28.545  1.00  0.00     0.171 C 
BRANCH   2   3
ATOM      3  C   UNL     1       4.792  10.183  28.376  1.00  0.00     0.190 C 
BRANCH   3   4
ATOM      4  O   UNL     1       5.630   9.657  29.369  1.00  0.00    -0.394 OA
ATOM      5  H   UNL     1       5.089   9.000  29.880  1.00  0.00     0.210 HD
ENDBRANCH   3   4
ENDBRANCH   2   3
BRANCH   2   6
ATOM      6  O   UNL     1       2.878  10.029  29.820  1.00  0.00    -0.388 OA
ATOM      7  H   UNL     1       2.425   9.229  30.194  1.00  0.00     0.211 HD
ENDBRANCH   2   6
ENDBRANCH   1   2
BRANCH   1   8
ATOM      8  C   UNL     1       4.031   7.636  27.087  1.00  0.00     0.214 C 
BRANCH   8   9
ATOM      9  C   UNL     1       3.226   7.676  25.798  1.00  0.00     0.189 C 
ATOM     10  O   UNL     1       3.124   8.747  25.215  1.00  0.00    -0.294 OA
BRANCH   9  11
ATOM     11  C   UNL     1       2.516   6.484  25.197  1.00  0.00     0.234 C 
BRANCH  11  12
ATOM     12  O   UNL     1       1.934   5.657  26.168  1.00  0.00    -0.388 OA
ATOM     13  H   UNL     1       1.568   6.254  26.872  1.00  0.00     0.211 HD
ENDBRANCH  11  12
ENDBRANCH   9  11
ENDBRANCH   8   9
BRANCH   8  14
ATOM     14  O   UNL     1       4.607   6.364  27.274  1.00  0.00    -0.382 OA
ATOM     15  H   UNL     1       3.899   5.723  27.542  1.00  0.00     0.211 HD
ENDBRANCH   8  14
ENDBRANCH   1   8
BRANCH   1  16
ATOM     16  O   UNL     1       1.922   7.683  28.350  1.00  0.00    -0.387 OA
ATOM     17  H   UNL     1       1.569   7.743  27.426  1.00  0.00     0.211 HD
ENDBRANCH   1  16
TORSDOF 10
ENDMDL
MODEL 5
REMARK VINA RESULT:    -4.884      1.400      2.140
REMARK INTER + INTRA:          -7.986
REMARK INTER:                  -6.948
REMARK INTRA:                  -1.038
REMARK UNBOUND:                -0.960
REMARK SMILES O=C(CO)[C@H](O)[C@H](O)[C@@H](O)CO
REMARK SMILES IDX 7 1 9 2 11 3 12 4 10 6 5 8 2 9 1 10 3 11 4 12 6 14 8 16
REMARK H PARENT 12 5 10 7 4 13 6 15 8 17
REMARK Flexibility Score: inf
ROOT
ATOM      1  C   UNL     1      14.159  -5.580  21.074  1.00  0.00     0.181 C 
ENDROOT
BRANCH   1   2
ATOM      2  C   UNL     1      15.372  -6.540  21.234  1.00  0.00     0.171 C 
BRANCH   2   3
ATOM      3  C   UNL     1      16.203  -6.622  19.940  1.00  0.00     0.190 C 
BRANCH   3   4
ATOM      4  O   UNL     1      16.554  -5.343  19.485  1.00  0.00    -0.394 OA
ATOM      5  H   UNL     1      15.800  -4.741  19.718  1.00  0.00     0.210 HD
ENDBRANCH   3   4
ENDBRANCH   2   3
BRANCH   2   6
ATOM      6  O   UNL     1      14.932  -7.828  21.585  1.00  0.00    -0.388 OA
ATOM      7  H   UNL     1      13.940  -7.803  21.590  1.00  0.00     0.211 HD
ENDBRANCH   2   6
ENDBRANCH   1   2
BRANCH   1   8
ATOM      8  C   UNL     1      13.382  -5.791  19.739  1.00  0.00     0.214 C 
BRANCH   8   9
ATOM      9  C   UNL     1      12.760  -4.525  19.173  1.00  0.00     0.189 C 
ATOM     10  O   UNL     1      11.702  -4.139  19.649  1.00  0.00    -0.294 OA
BRANCH   9  11
ATOM     11  C   UNL     1      13.348  -3.719  18.036  1.00  0.00     0.234 C 
BRANCH  11  12
ATOM     12  O   UNL     1      14.737  -3.566  18.147  1.00  0.00    -0.388 OA
ATOM     13  H   UNL     1      14.907  -2.603  18.321  1.00  0.00     0.211 HD
ENDBRANCH  11  12
ENDBRANCH   9  11
ENDBRANCH   8   9
BRANCH   8  14
ATOM     14  O   UNL     1      12.425  -6.821  19.823  1.00  0.00    -0.382 OA
ATOM     15  H   UNL     1      12.534  -7.431  19.048  1.00  0.00     0.211 HD
ENDBRANCH   8  14
ENDBRANCH   1   8
BRANCH   1  16
ATOM     16  O   UNL     1      14.523  -4.234  21.262  1.00  0.00    -0.387 OA
ATOM     17  H   UNL     1      14.651  -4.080  22.233  1.00  0.00     0.211 HD
ENDBRANCH   1  16
TORSDOF 10
ENDMDL
MODEL 6
REMARK VINA RESULT:    -4.869      1.764      3.173
REMARK INTER + INTRA:          -7.964
REMARK INTER:                  -7.032
REMARK INTRA:                  -0.932
REMARK UNBOUND:                -0.960
REMARK SMILES O=C(CO)[C@H](O)[C@H](O)[C@@H](O)CO
REMARK SMILES IDX 7 1 9 2 11 3 12 4 10 6 5 8 2 9 1 10 3 11 4 12 6 14 8 16
REMARK H PARENT 12 5 10 7 4 13 6 15 8 17
REMARK Flexibility Score: inf
ROOT
ATOM      1  C   UNL     1      14.372  -5.271  20.562  1.00  0.00     0.181 C 
ENDROOT
BRANCH   1   2
ATOM      2  C   UNL     1      15.780  -5.868  20.280  1.00  0.00     0.171 C 
BRANCH   2   3
ATOM      3  C   UNL     1      16.668  -5.841  21.538  1.00  0.00     0.190 C 
BRANCH   3   4
ATOM      4  O   UNL     1      17.585  -4.782  21.485  1.00  0.00    -0.394 OA
ATOM      5  H   UNL     1      17.116  -4.020  21.056  1.00  0.00     0.210 HD
ENDBRANCH   3   4
ENDBRANCH   2   3
BRANCH   2   6
ATOM      6  O   UNL     1      16.415  -5.156  19.249  1.00  0.00    -0.388 OA
ATOM      7  H   UNL     1      15.857  -5.266  18.436  1.00  0.00     0.211 HD
ENDBRANCH   2   6
ENDBRANCH   1   2
BRANCH   1   8
ATOM      8  C   UNL     1      13.616  -4.846  19.266  1.00  0.00     0.214 C 
BRANCH   8   9
ATOM      9  C   UNL     1      12.155  -4.490  19.484  1.00  0.00     0.189 C 
ATOM     10  O   UNL     1      11.896  -3.467  20.101  1.00  0.00    -0.294 OA
BRANCH   9  11
ATOM     11  C   UNL     1      10.991  -5.333  19.012  1.00  0.00     0.234 C 
BRANCH  11  12
ATOM     12  O   UNL     1      11.113  -6.679  19.387  1.00  0.00    -0.388 OA
ATOM     13  H   UNL     1      11.909  -7.037  18.915  1.00  0.00     0.211 HD
ENDBRANCH  11  12
ENDBRANCH   9  11
ENDBRANCH   8   9
BRANCH   8  14
ATOM     14  O   UNL     1      13.750  -5.786  18.225  1.00  0.00    -0.382 OA
ATOM     15  H   UNL     1      12.905  -6.297  18.137  1.00  0.00     0.211 HD
ENDBRANCH   8  14
ENDBRANCH   1   8
BRANCH   1  16
ATOM     16  O   UNL     1      14.420  -4.228  21.506  1.00  0.00    -0.387 OA
ATOM     17  H   UNL     1      14.304  -4.622  22.409  1.00  0.00     0.211 HD
ENDBRANCH   1  16
TORSDOF 10
ENDMDL
MODEL 7
REMARK VINA RESULT:    -4.843     14.496     16.224
REMARK INTER + INTRA:          -7.926
REMARK INTER:                  -7.018
REMARK INTRA:                  -0.908
REMARK UNBOUND:                -0.960
REMARK SMILES O=C(CO)[C@H](O)[C@H](O)[C@@H](O)CO
REMARK SMILES IDX 7 1 9 2 11 3 12 4 10 6 5 8 2 9 1 10 3 11 4 12 6 14 8 16
REMARK H PARENT 12 5 10 7 4 13 6 15 8 17
REMARK Flexibility Score: inf
ROOT
ATOM      1  C   UNL     1      17.351   1.638  33.666  1.00  0.00     0.181 C 
ENDROOT
BRANCH   1   2
ATOM      2  C   UNL     1      17.984   3.057  33.597  1.00  0.00     0.171 C 
BRANCH   2   3
ATOM      3  C   UNL     1      18.641   3.450  34.933  1.00  0.00     0.190 C 
BRANCH   3   4
ATOM      4  O   UNL     1      17.742   3.300  35.999  1.00  0.00    -0.394 OA
ATOM      5  H   UNL     1      17.372   2.381  35.932  1.00  0.00     0.210 HD
ENDBRANCH   3   4
ENDBRANCH   2   3
BRANCH   2   6
ATOM      6  O   UNL     1      17.009   4.010  33.261  1.00  0.00    -0.388 OA
ATOM      7  H   UNL     1      17.360   4.524  32.488  1.00  0.00     0.211 HD
ENDBRANCH   2   6
ENDBRANCH   1   2
BRANCH   1   8
ATOM      8  C   UNL     1      15.810   1.665  33.900  1.00  0.00     0.214 C 
BRANCH   8   9
ATOM      9  C   UNL     1      15.299   0.563  34.814  1.00  0.00     0.189 C 
ATOM     10  O   UNL     1      15.146   0.821  35.999  1.00  0.00    -0.294 OA
BRANCH   9  11
ATOM     11  C   UNL     1      14.988  -0.846  34.361  1.00  0.00     0.234 C 
BRANCH  11  12
ATOM     12  O   UNL     1      14.188  -0.878  33.210  1.00  0.00    -0.388 OA
ATOM     13  H   UNL     1      14.805  -0.866  32.431  1.00  0.00     0.211 HD
ENDBRANCH  11  12
ENDBRANCH   9  11
ENDBRANCH   8   9
BRANCH   8  14
ATOM     14  O   UNL     1      15.077   1.695  32.698  1.00  0.00    -0.382 OA
ATOM     15  H   UNL     1      15.100   2.614  32.326  1.00  0.00     0.211 HD
ENDBRANCH   8  14
ENDBRANCH   1   8
BRANCH   1  16
ATOM     16  O   UNL     1      18.008   0.812  34.597  1.00  0.00    -0.387 OA
ATOM     17  H   UNL     1      17.438   0.739  35.405  1.00  0.00     0.211 HD
ENDBRANCH   1  16
TORSDOF 10
ENDMDL
MODEL 8
REMARK VINA RESULT:    -4.803      1.391      2.543
REMARK INTER + INTRA:          -7.868
REMARK INTER:                  -6.608
REMARK INTRA:                  -1.260
REMARK UNBOUND:                -0.960
REMARK SMILES O=C(CO)[C@H](O)[C@H](O)[C@@H](O)CO
REMARK SMILES IDX 7 1 9 2 11 3 12 4 10 6 5 8 2 9 1 10 3 11 4 12 6 14 8 16
REMARK H PARENT 12 5 10 7 4 13 6 15 8 17
REMARK Flexibility Score: inf
ROOT
ATOM      1  C   UNL     1      13.992  -6.403  19.270  1.00  0.00     0.181 C 
ENDROOT
BRANCH   1   2
ATOM      2  C   UNL     1      14.979  -7.597  19.407  1.00  0.00     0.171 C 
BRANCH   2   3
ATOM      3  C   UNL     1      14.749  -8.375  20.716  1.00  0.00     0.190 C 
BRANCH   3   4
ATOM      4  O   UNL     1      15.090  -7.597  21.832  1.00  0.00    -0.394 OA
ATOM      5  H   UNL     1      14.683  -6.703  21.690  1.00  0.00     0.210 HD
ENDBRANCH   3   4
ENDBRANCH   2   3
BRANCH   2   6
ATOM      6  O   UNL     1      16.307  -7.139  19.367  1.00  0.00    -0.388 OA
ATOM      7  H   UNL     1      16.331  -6.377  18.732  1.00  0.00     0.211 HD
ENDBRANCH   2   6
ENDBRANCH   1   2
BRANCH   1   8
ATOM      8  C   UNL     1      14.642  -5.028  19.613  1.00  0.00     0.214 C 
BRANCH   8   9
ATOM      9  C   UNL     1      14.091  -4.374  20.869  1.00  0.00     0.189 C 
ATOM     10  O   UNL     1      14.490  -4.778  21.952  1.00  0.00    -0.294 OA
BRANCH   9  11
ATOM     11  C   UNL     1      13.059  -3.268  20.874  1.00  0.00     0.234 C 
BRANCH  11  12
ATOM     12  O   UNL     1      11.965  -3.549  20.044  1.00  0.00    -0.388 OA
ATOM     13  H   UNL     1      12.105  -4.464  19.683  1.00  0.00     0.211 HD
ENDBRANCH  11  12
ENDBRANCH   9  11
ENDBRANCH   8   9
BRANCH   8  14
ATOM     14  O   UNL     1      14.614  -4.128  18.530  1.00  0.00    -0.382 OA
ATOM     15  H   UNL     1      14.522  -4.638  17.684  1.00  0.00     0.211 HD
ENDBRANCH   8  14
ENDBRANCH   1   8
BRANCH   1  16
ATOM     16  O   UNL     1      12.803  -6.616  19.993  1.00  0.00    -0.387 OA
ATOM     17  H   UNL     1      12.640  -7.593  20.041  1.00  0.00     0.211 HD
ENDBRANCH   1  16
TORSDOF 10
ENDMDL
MODEL 9
REMARK VINA RESULT:    -4.723     14.511     15.712
REMARK INTER + INTRA:          -7.754
REMARK INTER:                  -6.788
REMARK INTRA:                  -0.966
REMARK UNBOUND:                -0.960
REMARK SMILES O=C(CO)[C@H](O)[C@H](O)[C@@H](O)CO
REMARK SMILES IDX 7 1 9 2 11 3 12 4 10 6 5 8 2 9 1 10 3 11 4 12 6 14 8 16
REMARK H PARENT 12 5 10 7 4 13 6 15 8 17
REMARK Flexibility Score: inf
ROOT
ATOM      1  C   UNL     1      14.178  -0.965  35.696  1.00  0.00     0.181 C 
ENDROOT
BRANCH   1   2
ATOM      2  C   UNL     1      13.566  -2.374  35.941  1.00  0.00     0.171 C 
BRANCH   2   3
ATOM      3  C   UNL     1      14.307  -3.126  37.061  1.00  0.00     0.190 C 
BRANCH   3   4
ATOM      4  O   UNL     1      15.659  -3.308  36.737  1.00  0.00    -0.394 OA
ATOM      5  H   UNL     1      15.706  -3.392  35.749  1.00  0.00     0.210 HD
ENDBRANCH   3   4
ENDBRANCH   2   3
BRANCH   2   6
ATOM      6  O   UNL     1      13.610  -3.136  34.761  1.00  0.00    -0.388 OA
ATOM      7  H   UNL     1      12.680  -3.190  34.417  1.00  0.00     0.211 HD
ENDBRANCH   2   6
ENDBRANCH   1   2
BRANCH   1   8
ATOM      8  C   UNL     1      15.008  -0.878  34.379  1.00  0.00     0.214 C 
BRANCH   8   9
ATOM      9  C   UNL     1      16.014   0.261  34.350  1.00  0.00     0.189 C 
ATOM     10  O   UNL     1      17.152   0.035  34.739  1.00  0.00    -0.294 OA
BRANCH   9  11
ATOM     11  C   UNL     1      15.698   1.669  33.898  1.00  0.00     0.234 C 
BRANCH  11  12
ATOM     12  O   UNL     1      15.017   1.701  32.673  1.00  0.00    -0.388 OA
ATOM     13  H   UNL     1      14.096   2.022  32.865  1.00  0.00     0.211 HD
ENDBRANCH  11  12
ENDBRANCH   9  11
ENDBRANCH   8   9
BRANCH   8  14
ATOM     14  O   UNL     1      14.199  -0.856  33.226  1.00  0.00    -0.382 OA
ATOM     15  H   UNL     1      14.770  -0.697  32.431  1.00  0.00     0.211 HD
ENDBRANCH   8  14
ENDBRANCH   1   8
BRANCH   1  16
ATOM     16  O   UNL     1      14.909  -0.507  36.808  1.00  0.00    -0.387 OA
ATOM     17  H   UNL     1      14.619  -1.023  37.603  1.00  0.00     0.211 HD
ENDBRANCH   1  16
TORSDOF 10
ENDMDL
