MODEL 1
REMARK VINA RESULT:    -3.074      0.000      0.000
REMARK INTER + INTRA:          -6.414
REMARK INTER:                  -5.051
REMARK INTRA:                  -1.363
REMARK UNBOUND:                -1.363
REMARK SMILES CCCCCCCCCCCC(=O)OC
REMARK SMILES IDX 7 1 6 2 5 3 4 4 3 5 2 6 1 7 8 8 9 9 10 10 11 11 12 12 13 13
REMARK SMILES IDX 14 14 15 15
REMARK H PARENT
REMARK Flexibility Score: inf
ROOT
ATOM      1  C   UNL     1     196.282 199.025 217.202  1.00  0.00     0.000 C 
ENDROOT
BRANCH   1   2
ATOM      2  C   UNL     1     195.189 200.051 217.547  1.00  0.00     0.000 C 
BRANCH   2   3
ATOM      3  C   UNL     1     195.178 200.420 219.038  1.00  0.00    -0.000 C 
BRANCH   3   4
ATOM      4  C   UNL     1     196.578 200.786 219.565  1.00  0.00    -0.000 C 
BRANCH   4   5
ATOM      5  C   UNL     1     196.970 199.974 220.810  1.00  0.00    -0.000 C 
BRANCH   5   6
ATOM      6  C   UNL     1     198.483 199.983 221.068  1.00  0.00    -0.003 C 
ATOM      7  C   UNL     1     199.229 200.705 219.949  1.00  0.00     0.004 C 
ENDBRANCH   5   6
ENDBRANCH   4   5
ENDBRANCH   3   4
ENDBRANCH   2   3
ENDBRANCH   1   2
BRANCH   1   8
ATOM      8  C   UNL     1     195.923 197.604 217.664  1.00  0.00     0.000 C 
BRANCH   8   9
ATOM      9  C   UNL     1     197.002 196.988 218.571  1.00  0.00     0.001 C 
BRANCH   9  10
ATOM     10  C   UNL     1     198.412 197.506 218.248  1.00  0.00     0.012 C 
BRANCH  10  11
ATOM     11  C   UNL     1     199.498 196.452 218.495  1.00  0.00     0.123 C 
BRANCH  11  12
ATOM     12  C   UNL     1     200.782 196.866 217.850  1.00  0.00     0.305 C 
ATOM     13  O   UNL     1     200.988 196.598 216.634  1.00  0.00    -0.252 OA
BRANCH  12  14
ATOM     14  O   UNL     1     201.761 197.509 218.614  1.00  0.00    -0.469 OA
ATOM     15  C   UNL     1     202.785 198.307 218.033  1.00  0.00     0.282 C 
ENDBRANCH  12  14
ENDBRANCH  11  12
ENDBRANCH  10  11
ENDBRANCH   9  10
ENDBRANCH   8   9
ENDBRANCH   1   8
TORSDOF 11
ENDMDL
MODEL 2
REMARK VINA RESULT:    -3.020      1.454      2.027
REMARK INTER + INTRA:          -6.326
REMARK INTER:                  -4.790
REMARK INTRA:                  -1.535
REMARK UNBOUND:                -1.363
REMARK SMILES CCCCCCCCCCCC(=O)OC
REMARK SMILES IDX 7 1 6 2 5 3 4 4 3 5 2 6 1 7 8 8 9 9 10 10 11 11 12 12 13 13
REMARK SMILES IDX 14 14 15 15
REMARK H PARENT
REMARK Flexibility Score: inf
ROOT
ATOM      1  C   UNL     1     195.927 198.061 217.231  1.00  0.00     0.000 C 
ENDROOT
BRANCH   1   2
ATOM      2  C   UNL     1     195.459 199.524 217.316  1.00  0.00     0.000 C 
BRANCH   2   3
ATOM      3  C   UNL     1     196.621 200.500 217.563  1.00  0.00    -0.000 C 
BRANCH   3   4
ATOM      4  C   UNL     1     196.487 201.250 218.900  1.00  0.00    -0.000 C 
BRANCH   4   5
ATOM      5  C   UNL     1     195.037 201.296 219.407  1.00  0.00    -0.000 C 
BRANCH   5   6
ATOM      6  C   UNL     1     194.877 200.664 220.797  1.00  0.00    -0.003 C 
ATOM      7  C   UNL     1     196.144 199.925 221.215  1.00  0.00     0.004 C 
ENDBRANCH   5   6
ENDBRANCH   4   5
ENDBRANCH   3   4
ENDBRANCH   2   3
ENDBRANCH   1   2
BRANCH   1   8
ATOM      8  C   UNL     1     195.662 197.282 218.530  1.00  0.00     0.000 C 
BRANCH   8   9
ATOM      9  C   UNL     1     196.953 196.975 219.308  1.00  0.00     0.001 C 
BRANCH   9  10
ATOM     10  C   UNL     1     198.220 197.337 218.518  1.00  0.00     0.012 C 
BRANCH  10  11
ATOM     11  C   UNL     1     199.209 198.171 219.341  1.00  0.00     0.123 C 
BRANCH  11  12
ATOM     12  C   UNL     1     200.492 197.424 219.526  1.00  0.00     0.305 C 
ATOM     13  O   UNL     1     200.494 196.327 220.149  1.00  0.00    -0.252 OA
BRANCH  12  14
ATOM     14  O   UNL     1     201.684 197.972 219.043  1.00  0.00    -0.469 OA
ATOM     15  C   UNL     1     202.275 197.561 217.816  1.00  0.00     0.282 C 
ENDBRANCH  12  14
ENDBRANCH  11  12
ENDBRANCH  10  11
ENDBRANCH   9  10
ENDBRANCH   8   9
ENDBRANCH   1   8
TORSDOF 11
ENDMDL
MODEL 3
REMARK VINA RESULT:    -3.016      0.909      2.630
REMARK INTER + INTRA:          -6.319
REMARK INTER:                  -4.877
REMARK INTRA:                  -1.442
REMARK UNBOUND:                -1.363
REMARK SMILES CCCCCCCCCCCC(=O)OC
REMARK SMILES IDX 7 1 6 2 5 3 4 4 3 5 2 6 1 7 8 8 9 9 10 10 11 11 12 12 13 13
REMARK SMILES IDX 14 14 15 15
REMARK H PARENT
REMARK Flexibility Score: inf
ROOT
ATOM      1  C   UNL     1     198.106 198.266 220.785  1.00  0.00     0.000 C 
ENDROOT
BRANCH   1   2
ATOM      2  C   UNL     1     197.750 199.753 220.955  1.00  0.00     0.000 C 
BRANCH   2   3
ATOM      3  C   UNL     1     198.417 200.643 219.894  1.00  0.00    -0.000 C 
BRANCH   3   4
ATOM      4  C   UNL     1     197.535 200.836 218.647  1.00  0.00    -0.000 C 
BRANCH   4   5
ATOM      5  C   UNL     1     196.083 201.194 219.002  1.00  0.00    -0.000 C 
BRANCH   5   6
ATOM      6  C   UNL     1     195.071 200.191 218.429  1.00  0.00    -0.003 C 
ATOM      7  C   UNL     1     195.583 199.572 217.132  1.00  0.00     0.004 C 
ENDBRANCH   5   6
ENDBRANCH   4   5
ENDBRANCH   3   4
ENDBRANCH   2   3
ENDBRANCH   1   2
BRANCH   1   8
ATOM      8  C   UNL     1     196.962 197.456 220.153  1.00  0.00     0.000 C 
BRANCH   8   9
ATOM      9  C   UNL     1     197.400 196.710 218.881  1.00  0.00     0.001 C 
BRANCH   9  10
ATOM     10  C   UNL     1     198.719 197.249 218.305  1.00  0.00     0.012 C 
BRANCH  10  11
ATOM     11  C   UNL     1     199.753 196.140 218.066  1.00  0.00     0.123 C 
BRANCH  11  12
ATOM     12  C   UNL     1     201.092 196.735 217.768  1.00  0.00     0.305 C 
ATOM     13  O   UNL     1     201.569 196.654 216.603  1.00  0.00    -0.252 OA
BRANCH  12  14
ATOM     14  O   UNL     1     201.823 197.336 218.797  1.00  0.00    -0.469 OA
ATOM     15  C   UNL     1     202.634 198.486 218.591  1.00  0.00     0.282 C 
ENDBRANCH  12  14
ENDBRANCH  11  12
ENDBRANCH  10  11
ENDBRANCH   9  10
ENDBRANCH   8   9
ENDBRANCH   1   8
TORSDOF 11
ENDMDL
MODEL 4
REMARK VINA RESULT:    -2.977      1.440      3.392
REMARK INTER + INTRA:          -6.255
REMARK INTER:                  -4.751
REMARK INTRA:                  -1.504
REMARK UNBOUND:                -1.363
REMARK SMILES CCCCCCCCCCCC(=O)OC
REMARK SMILES IDX 7 1 6 2 5 3 4 4 3 5 2 6 1 7 8 8 9 9 10 10 11 11 12 12 13 13
REMARK SMILES IDX 14 14 15 15
REMARK H PARENT
REMARK Flexibility Score: inf
ROOT
ATOM      1  C   UNL     1     195.666 200.889 219.918  1.00  0.00     0.000 C 
ENDROOT
BRANCH   1   2
ATOM      2  C   UNL     1     196.705 201.226 218.835  1.00  0.00     0.000 C 
BRANCH   2   3
ATOM      3  C   UNL     1     196.643 200.261 217.640  1.00  0.00    -0.000 C 
BRANCH   3   4
ATOM      4  C   UNL     1     195.207 199.813 217.317  1.00  0.00    -0.000 C 
BRANCH   4   5
ATOM      5  C   UNL     1     194.975 198.322 217.609  1.00  0.00    -0.000 C 
BRANCH   5   6
ATOM      6  C   UNL     1     196.286 197.542 217.780  1.00  0.00    -0.003 C 
ATOM      7  C   UNL     1     196.134 196.429 218.812  1.00  0.00     0.004 C 
ENDBRANCH   5   6
ENDBRANCH   4   5
ENDBRANCH   3   4
ENDBRANCH   2   3
ENDBRANCH   1   2
BRANCH   1   8
ATOM      8  C   UNL     1     196.117 199.735 220.827  1.00  0.00     0.000 C 
BRANCH   8   9
ATOM      9  C   UNL     1     197.605 199.830 221.207  1.00  0.00     0.001 C 
BRANCH   9  10
ATOM     10  C   UNL     1     198.414 198.611 220.738  1.00  0.00     0.012 C 
BRANCH  10  11
ATOM     11  C   UNL     1     199.616 199.002 219.868  1.00  0.00     0.123 C 
BRANCH  11  12
ATOM     12  C   UNL     1     200.255 197.781 219.286  1.00  0.00     0.305 C 
ATOM     13  O   UNL     1     201.325 197.337 219.784  1.00  0.00    -0.252 OA
BRANCH  12  14
ATOM     14  O   UNL     1     199.681 197.171 218.167  1.00  0.00    -0.469 OA
ATOM     15  C   UNL     1     200.228 196.003 217.566  1.00  0.00     0.282 C 
ENDBRANCH  12  14
ENDBRANCH  11  12
ENDBRANCH  10  11
ENDBRANCH   9  10
ENDBRANCH   8   9
ENDBRANCH   1   8
TORSDOF 11
ENDMDL
MODEL 5
REMARK VINA RESULT:    -2.959     15.329     16.967
REMARK INTER + INTRA:          -6.225
REMARK INTER:                  -4.853
REMARK INTRA:                  -1.372
REMARK UNBOUND:                -1.363
REMARK SMILES CCCCCCCCCCCC(=O)OC
REMARK SMILES IDX 7 1 6 2 5 3 4 4 3 5 2 6 1 7 8 8 9 9 10 10 11 11 12 12 13 13
REMARK SMILES IDX 14 14 15 15
REMARK H PARENT
REMARK Flexibility Score: inf
ROOT
ATOM      1  C   UNL     1     209.375 213.460 218.569  1.00  0.00     0.000 C 
ENDROOT
BRANCH   1   2
ATOM      2  C   UNL     1     208.702 212.646 217.450  1.00  0.00     0.000 C 
BRANCH   2   3
ATOM      3  C   UNL     1     207.205 212.413 217.710  1.00  0.00    -0.000 C 
BRANCH   3   4
ATOM      4  C   UNL     1     206.910 210.994 218.227  1.00  0.00    -0.000 C 
BRANCH   4   5
ATOM      5  C   UNL     1     207.164 210.851 219.736  1.00  0.00    -0.000 C 
BRANCH   5   6
ATOM      6  C   UNL     1     208.031 209.631 220.077  1.00  0.00    -0.003 C 
ATOM      7  C   UNL     1     208.728 209.809 221.423  1.00  0.00     0.004 C 
ENDBRANCH   5   6
ENDBRANCH   4   5
ENDBRANCH   3   4
ENDBRANCH   2   3
ENDBRANCH   1   2
BRANCH   1   8
ATOM      8  C   UNL     1     210.608 212.751 219.152  1.00  0.00     0.000 C 
BRANCH   8   9
ATOM      9  C   UNL     1     210.863 211.380 218.502  1.00  0.00     0.001 C 
BRANCH   9  10
ATOM     10  C   UNL     1     211.782 210.486 219.350  1.00  0.00     0.012 C 
BRANCH  10  11
ATOM     11  C   UNL     1     211.652 209.001 218.991  1.00  0.00     0.123 C 
BRANCH  11  12
ATOM     12  C   UNL     1     212.730 208.601 218.034  1.00  0.00     0.305 C 
ATOM     13  O   UNL     1     212.693 209.011 216.841  1.00  0.00    -0.252 OA
BRANCH  12  14
ATOM     14  O   UNL     1     213.745 207.740 218.460  1.00  0.00    -0.469 OA
ATOM     15  C   UNL     1     213.529 206.721 219.429  1.00  0.00     0.282 C 
ENDBRANCH  12  14
ENDBRANCH  11  12
ENDBRANCH  10  11
ENDBRANCH   9  10
ENDBRANCH   8   9
ENDBRANCH   1   8
TORSDOF 11
ENDMDL
MODEL 6
REMARK VINA RESULT:    -2.868     17.087     18.659
REMARK INTER + INTRA:          -6.075
REMARK INTER:                  -4.482
REMARK INTRA:                  -1.593
REMARK UNBOUND:                -1.363
REMARK SMILES CCCCCCCCCCCC(=O)OC
REMARK SMILES IDX 7 1 6 2 5 3 4 4 3 5 2 6 1 7 8 8 9 9 10 10 11 11 12 12 13 13
REMARK SMILES IDX 14 14 15 15
REMARK H PARENT
REMARK Flexibility Score: inf
ROOT
ATOM      1  C   UNL     1     211.845 209.000 220.593  1.00  0.00     0.000 C 
ENDROOT
BRANCH   1   2
ATOM      2  C   UNL     1     213.129 208.164 220.460  1.00  0.00     0.000 C 
BRANCH   2   3
ATOM      3  C   UNL     1     213.269 207.518 219.072  1.00  0.00    -0.000 C 
BRANCH   3   4
ATOM      4  C   UNL     1     212.631 208.368 217.959  1.00  0.00    -0.000 C 
BRANCH   4   5
ATOM      5  C   UNL     1     213.646 209.292 217.268  1.00  0.00    -0.000 C 
BRANCH   5   6
ATOM      6  C   UNL     1     213.473 210.764 217.668  1.00  0.00    -0.003 C 
ATOM      7  C   UNL     1     214.651 211.248 218.508  1.00  0.00     0.004 C 
ENDBRANCH   5   6
ENDBRANCH   4   5
ENDBRANCH   3   4
ENDBRANCH   2   3
ENDBRANCH   1   2
BRANCH   1   8
ATOM      8  C   UNL     1     212.112 210.403 221.163  1.00  0.00     0.000 C 
BRANCH   8   9
ATOM      9  C   UNL     1     211.152 211.463 220.595  1.00  0.00     0.001 C 
BRANCH   9  10
ATOM     10  C   UNL     1     210.212 210.895 219.522  1.00  0.00     0.012 C 
BRANCH  10  11
ATOM     11  C   UNL     1     210.084 211.817 218.303  1.00  0.00     0.123 C 
BRANCH  11  12
ATOM     12  C   UNL     1     208.663 212.249 218.124  1.00  0.00     0.305 C 
ATOM     13  O   UNL     1     207.732 211.408 218.251  1.00  0.00    -0.252 OA
BRANCH  12  14
ATOM     14  O   UNL     1     208.385 213.573 217.773  1.00  0.00    -0.469 OA
ATOM     15  C   UNL     1     209.050 214.680 218.370  1.00  0.00     0.282 C 
ENDBRANCH  12  14
ENDBRANCH  11  12
ENDBRANCH  10  11
ENDBRANCH   9  10
ENDBRANCH   8   9
ENDBRANCH   1   8
TORSDOF 11
ENDMDL
MODEL 7
REMARK VINA RESULT:    -2.862      1.461      3.173
REMARK INTER + INTRA:          -6.066
REMARK INTER:                  -4.846
REMARK INTRA:                  -1.220
REMARK UNBOUND:                -1.363
REMARK SMILES CCCCCCCCCCCC(=O)OC
REMARK SMILES IDX 7 1 6 2 5 3 4 4 3 5 2 6 1 7 8 8 9 9 10 10 11 11 12 12 13 13
REMARK SMILES IDX 14 14 15 15
REMARK H PARENT
REMARK Flexibility Score: inf
ROOT
ATOM      1  C   UNL     1     197.082 198.925 221.347  1.00  0.00     0.000 C 
ENDROOT
BRANCH   1   2
ATOM      2  C   UNL     1     197.132 200.200 220.489  1.00  0.00     0.000 C 
BRANCH   2   3
ATOM      3  C   UNL     1     195.733 200.764 220.192  1.00  0.00    -0.000 C 
BRANCH   3   4
ATOM      4  C   UNL     1     195.540 201.110 218.705  1.00  0.00    -0.000 C 
BRANCH   4   5
ATOM      5  C   UNL     1     196.644 200.519 217.814  1.00  0.00    -0.000 C 
BRANCH   5   6
ATOM      6  C   UNL     1     196.102 199.512 216.790  1.00  0.00    -0.003 C 
ATOM      7  C   UNL     1     196.007 198.113 217.392  1.00  0.00     0.004 C 
ENDBRANCH   5   6
ENDBRANCH   4   5
ENDBRANCH   3   4
ENDBRANCH   2   3
ENDBRANCH   1   2
BRANCH   1   8
ATOM      8  C   UNL     1     197.810 197.742 220.687  1.00  0.00     0.000 C 
BRANCH   8   9
ATOM      9  C   UNL     1     198.951 198.195 219.761  1.00  0.00     0.001 C 
BRANCH   9  10
ATOM     10  C   UNL     1     200.338 197.815 220.303  1.00  0.00     0.012 C 
BRANCH  10  11
ATOM     11  C   UNL     1     201.453 198.708 219.745  1.00  0.00     0.123 C 
BRANCH  11  12
ATOM     12  C   UNL     1     202.154 198.020 218.616  1.00  0.00     0.305 C 
ATOM     13  O   UNL     1     203.086 198.611 218.005  1.00  0.00    -0.252 OA
BRANCH  12  14
ATOM     14  O   UNL     1     201.738 196.746 218.221  1.00  0.00    -0.469 OA
ATOM     15  C   UNL     1     201.196 196.481 216.933  1.00  0.00     0.282 C 
ENDBRANCH  12  14
ENDBRANCH  11  12
ENDBRANCH  10  11
ENDBRANCH   9  10
ENDBRANCH   8   9
ENDBRANCH   1   8
TORSDOF 11
ENDMDL
MODEL 8
REMARK VINA RESULT:    -2.856     16.005     18.091
REMARK INTER + INTRA:          -6.056
REMARK INTER:                  -4.613
REMARK INTRA:                  -1.443
REMARK UNBOUND:                -1.363
REMARK SMILES CCCCCCCCCCCC(=O)OC
REMARK SMILES IDX 7 1 6 2 5 3 4 4 3 5 2 6 1 7 8 8 9 9 10 10 11 11 12 12 13 13
REMARK SMILES IDX 14 14 15 15
REMARK H PARENT
REMARK Flexibility Score: inf
ROOT
ATOM      1  C   UNL     1     212.003 211.001 218.342  1.00  0.00     0.000 C 
ENDROOT
BRANCH   1   2
ATOM      2  C   UNL     1     213.340 210.820 217.604  1.00  0.00     0.000 C 
BRANCH   2   3
ATOM      3  C   UNL     1     213.852 209.372 217.658  1.00  0.00    -0.000 C 
BRANCH   3   4
ATOM      4  C   UNL     1     212.717 208.354 217.870  1.00  0.00    -0.000 C 
BRANCH   4   5
ATOM      5  C   UNL     1     213.040 207.332 218.972  1.00  0.00    -0.000 C 
BRANCH   5   6
ATOM      6  C   UNL     1     214.141 207.818 219.924  1.00  0.00    -0.003 C 
ATOM      7  C   UNL     1     213.555 208.271 221.258  1.00  0.00     0.004 C 
ENDBRANCH   5   6
ENDBRANCH   4   5
ENDBRANCH   3   4
ENDBRANCH   2   3
ENDBRANCH   1   2
BRANCH   1   8
ATOM      8  C   UNL     1     212.188 211.531 219.773  1.00  0.00     0.000 C 
BRANCH   8   9
ATOM      9  C   UNL     1     211.130 210.982 220.746  1.00  0.00     0.001 C 
BRANCH   9  10
ATOM     10  C   UNL     1     210.095 210.086 220.050  1.00  0.00     0.012 C 
BRANCH  10  11
ATOM     11  C   UNL     1     208.653 210.448 220.428  1.00  0.00     0.123 C 
BRANCH  11  12
ATOM     12  C   UNL     1     207.967 211.116 219.279  1.00  0.00     0.305 C 
ATOM     13  O   UNL     1     206.711 211.055 219.178  1.00  0.00    -0.252 OA
BRANCH  12  14
ATOM     14  O   UNL     1     208.730 211.765 218.304  1.00  0.00    -0.469 OA
ATOM     15  C   UNL     1     208.145 212.512 217.244  1.00  0.00     0.282 C 
ENDBRANCH  12  14
ENDBRANCH  11  12
ENDBRANCH  10  11
ENDBRANCH   9  10
ENDBRANCH   8   9
ENDBRANCH   1   8
TORSDOF 11
ENDMDL
MODEL 9
REMARK VINA RESULT:    -2.844     16.853     18.849
REMARK INTER + INTRA:          -6.035
REMARK INTER:                  -4.349
REMARK INTRA:                  -1.686
REMARK UNBOUND:                -1.363
REMARK SMILES CCCCCCCCCCCC(=O)OC
REMARK SMILES IDX 7 1 6 2 5 3 4 4 3 5 2 6 1 7 8 8 9 9 10 10 11 11 12 12 13 13
REMARK SMILES IDX 14 14 15 15
REMARK H PARENT
REMARK Flexibility Score: inf
ROOT
ATOM      1  C   UNL     1     212.555 208.589 217.694  1.00  0.00     0.000 C 
ENDROOT
BRANCH   1   2
ATOM      2  C   UNL     1     212.433 207.728 218.963  1.00  0.00     0.000 C 
BRANCH   2   3
ATOM      3  C   UNL     1     213.642 206.801 219.164  1.00  0.00    -0.000 C 
BRANCH   3   4
ATOM      4  C   UNL     1     214.302 206.983 220.543  1.00  0.00    -0.000 C 
BRANCH   4   5
ATOM      5  C   UNL     1     213.857 208.277 221.243  1.00  0.00    -0.000 C 
BRANCH   5   6
ATOM      6  C   UNL     1     214.951 209.353 221.247  1.00  0.00    -0.003 C 
ATOM      7  C   UNL     1     214.715 210.376 222.355  1.00  0.00     0.004 C 
ENDBRANCH   5   6
ENDBRANCH   4   5
ENDBRANCH   3   4
ENDBRANCH   2   3
ENDBRANCH   1   2
BRANCH   1   8
ATOM      8  C   UNL     1     213.946 209.227 217.548  1.00  0.00     0.000 C 
BRANCH   8   9
ATOM      9  C   UNL     1     213.981 210.685 218.034  1.00  0.00     0.001 C 
BRANCH   9  10
ATOM     10  C   UNL     1     212.578 211.256 218.290  1.00  0.00     0.012 C 
BRANCH  10  11
ATOM     11  C   UNL     1     212.381 211.704 219.744  1.00  0.00     0.123 C 
BRANCH  11  12
ATOM     12  C   UNL     1     211.212 210.996 220.353  1.00  0.00     0.305 C 
ATOM     13  O   UNL     1     211.237 210.680 221.574  1.00  0.00    -0.252 OA
BRANCH  12  14
ATOM     14  O   UNL     1     210.121 210.651 219.550  1.00  0.00    -0.469 OA
ATOM     15  C   UNL     1     209.008 211.515 219.356  1.00  0.00     0.282 C 
ENDBRANCH  12  14
ENDBRANCH  11  12
ENDBRANCH  10  11
ENDBRANCH   9  10
ENDBRANCH   8   9
ENDBRANCH   1   8
TORSDOF 11
ENDMDL
