MODEL 1
REMARK VINA RESULT:    -5.076      0.000      0.000
REMARK INTER + INTRA:          -8.760
REMARK INTER:                  -7.301
REMARK INTRA:                  -1.459
REMARK UNBOUND:                -1.459
REMARK SMILES O=c1c(O[C@@H]2O[C@@H](CO)[C@@H](O)[C@H](O)[C@@H]2O)c(-c2ccc(O)cc2)oc2cc(O)cc(O)c12
REMARK SMILES IDX 4 1 3 2 16 3 24 4 2 5 25 6 1 7 32 8 26 9 30 10 27 11 29 12
REMARK SMILES IDX 17 13 18 14 19 15 20 16 23 17 22 18 21 19 31 21 28 23 5 25
REMARK SMILES IDX 14 26 6 27 12 28 7 29 10 30 15 31 13 33 8 35 9 36 11 38
REMARK H PARENT 21 20 31 22 28 24 15 32 13 34 9 37 11 39
REMARK Flexibility Score: inf
ROOT
ATOM      1  O   UNL     1       3.865   3.904  26.676  1.00  0.00    -0.454 OA
ENDROOT
BRANCH   1   2
ATOM      2  C   UNL     1       3.628   2.649  26.078  1.00  0.00     0.214 A 
ATOM      3  C   UNL     1       3.678   2.564  24.671  1.00  0.00     0.180 A 
ATOM      4  O   UNL     1       3.557   1.390  24.062  1.00  0.00    -0.452 OA
ATOM      5  C   UNL     1       3.376   1.462  26.806  1.00  0.00     0.239 A 
ATOM      6  C   UNL     1       3.349   0.252  24.709  1.00  0.00     0.146 A 
ATOM      7  O   UNL     1       3.276   1.493  28.062  1.00  0.00    -0.285 OA
ATOM      8  C   UNL     1       3.237   0.236  26.119  1.00  0.00     0.111 A 
ATOM      9  C   UNL     1       3.236  -0.933  23.977  1.00  0.00     0.094 A 
ATOM     10  C   UNL     1       2.999  -0.998  26.775  1.00  0.00     0.134 A 
ATOM     11  C   UNL     1       3.009  -2.146  24.628  1.00  0.00     0.123 A 
ATOM     12  C   UNL     1       2.889  -2.177  26.022  1.00  0.00     0.093 A 
BRANCH   3  13
ATOM     13  C   UNL     1       3.884   3.761  23.829  1.00  0.00     0.021 A 
ATOM     14  C   UNL     1       5.053   4.534  23.944  1.00  0.00     0.016 A 
ATOM     15  C   UNL     1       5.225   5.676  23.158  1.00  0.00     0.047 A 
ATOM     16  C   UNL     1       4.227   6.069  22.261  1.00  0.00     0.115 A 
ATOM     17  C   UNL     1       2.876   4.172  22.944  1.00  0.00     0.016 A 
ATOM     18  C   UNL     1       3.048   5.316  22.158  1.00  0.00     0.047 A 
BRANCH  16  19
ATOM     19  O   UNL     1       4.411   7.210  21.483  1.00  0.00    -0.508 OA
ATOM     20  H   UNL     1       5.329   7.615  21.347  1.00  0.00     0.293 HD
ENDBRANCH  16  19
ENDBRANCH   3  13
BRANCH  10  21
ATOM     21  O   UNL     1       2.875  -1.062  28.164  1.00  0.00    -0.507 OA
ATOM     22  H   UNL     1       2.012  -1.350  28.610  1.00  0.00     0.293 HD
ENDBRANCH  10  21
BRANCH  11  23
ATOM     23  O   UNL     1       2.901  -3.317  23.880  1.00  0.00    -0.508 OA
ATOM     24  H   UNL     1       2.288  -3.377  23.075  1.00  0.00     0.293 HD
ENDBRANCH  11  23
ENDBRANCH   1   2
BRANCH   1  25
ATOM     25  C   UNL     1       2.883   4.836  27.144  1.00  0.00     0.339 C 
ATOM     26  C   UNL     1       3.041   5.084  28.662  1.00  0.00     0.214 C 
ATOM     27  O   UNL     1       2.932   6.054  26.415  1.00  0.00    -0.332 OA
ATOM     28  C   UNL     1       4.302   5.910  28.968  1.00  0.00     0.180 C 
ATOM     29  C   UNL     1       4.177   6.712  26.582  1.00  0.00     0.179 C 
ATOM     30  C   UNL     1       4.362   7.148  28.056  1.00  0.00     0.177 C 
BRANCH  26  31
ATOM     31  O   UNL     1       3.096   3.864  29.355  1.00  0.00    -0.384 OA
ATOM     32  H   UNL     1       3.401   3.178  28.705  1.00  0.00     0.211 HD
ENDBRANCH  26  31
BRANCH  28  33
ATOM     33  O   UNL     1       5.449   5.117  28.791  1.00  0.00    -0.387 OA
ATOM     34  H   UNL     1       5.777   4.877  29.697  1.00  0.00     0.211 HD
ENDBRANCH  28  33
BRANCH  29  35
ATOM     35  C   UNL     1       4.231   7.904  25.616  1.00  0.00     0.191 C 
BRANCH  35  36
ATOM     36  O   UNL     1       5.152   8.864  26.062  1.00  0.00    -0.394 OA
ATOM     37  H   UNL     1       5.597   9.233  25.255  1.00  0.00     0.210 HD
ENDBRANCH  35  36
ENDBRANCH  29  35
BRANCH  30  38
ATOM     38  O   UNL     1       3.348   8.045  28.434  1.00  0.00    -0.387 OA
ATOM     39  H   UNL     1       3.792   8.864  28.780  1.00  0.00     0.211 HD
ENDBRANCH  30  38
ENDBRANCH   1  25
TORSDOF 11
ENDMDL
MODEL 2
REMARK VINA RESULT:    -4.863     18.062     21.243
REMARK INTER + INTRA:          -8.454
REMARK INTER:                  -6.460
REMARK INTRA:                  -1.994
REMARK UNBOUND:                -1.459
REMARK SMILES O=c1c(O[C@@H]2O[C@@H](CO)[C@@H](O)[C@H](O)[C@@H]2O)c(-c2ccc(O)cc2)oc2cc(O)cc(O)c12
REMARK SMILES IDX 4 1 3 2 16 3 24 4 2 5 25 6 1 7 32 8 26 9 30 10 27 11 29 12
REMARK SMILES IDX 17 13 18 14 19 15 20 16 23 17 22 18 21 19 31 21 28 23 5 25
REMARK SMILES IDX 14 26 6 27 12 28 7 29 10 30 15 31 13 33 8 35 9 36 11 38
REMARK H PARENT 21 20 31 22 28 24 15 32 13 34 9 37 11 39
REMARK Flexibility Score: inf
ROOT
ATOM      1  O   UNL     1      18.768   0.225  12.072  1.00  0.00    -0.454 OA
ENDROOT
BRANCH   1   2
ATOM      2  C   UNL     1      18.206   1.452  12.482  1.00  0.00     0.214 A 
ATOM      3  C   UNL     1      18.712   2.055  13.652  1.00  0.00     0.180 A 
ATOM      4  O   UNL     1      18.284   3.255  14.031  1.00  0.00    -0.452 OA
ATOM      5  C   UNL     1      17.188   2.131  11.772  1.00  0.00     0.239 A 
ATOM      6  C   UNL     1      17.353   3.936  13.377  1.00  0.00     0.146 A 
ATOM      7  O   UNL     1      16.671   1.612  10.746  1.00  0.00    -0.285 OA
ATOM      8  C   UNL     1      16.750   3.397  12.217  1.00  0.00     0.111 A 
ATOM      9  C   UNL     1      16.972   5.193  13.854  1.00  0.00     0.094 A 
ATOM     10  C   UNL     1      15.748   4.148  11.553  1.00  0.00     0.134 A 
ATOM     11  C   UNL     1      15.989   5.930  13.194  1.00  0.00     0.123 A 
ATOM     12  C   UNL     1      15.379   5.408  12.048  1.00  0.00     0.093 A 
BRANCH   3  13
ATOM     13  C   UNL     1      19.738   1.393  14.485  1.00  0.00     0.021 A 
ATOM     14  C   UNL     1      19.375   0.601  15.587  1.00  0.00     0.016 A 
ATOM     15  C   UNL     1      20.357   0.000  16.380  1.00  0.00     0.047 A 
ATOM     16  C   UNL     1      21.711   0.196  16.090  1.00  0.00     0.115 A 
ATOM     17  C   UNL     1      21.099   1.605  14.212  1.00  0.00     0.016 A 
ATOM     18  C   UNL     1      22.080   1.004  15.006  1.00  0.00     0.047 A 
BRANCH  16  19
ATOM     19  O   UNL     1      22.679  -0.409  16.888  1.00  0.00    -0.508 OA
ATOM     20  H   UNL     1      23.668  -0.265  16.721  1.00  0.00     0.293 HD
ENDBRANCH  16  19
ENDBRANCH   3  13
BRANCH  10  21
ATOM     21  O   UNL     1      15.119   3.656  10.408  1.00  0.00    -0.507 OA
ATOM     22  H   UNL     1      14.240   3.154  10.455  1.00  0.00     0.293 HD
ENDBRANCH  10  21
BRANCH  11  23
ATOM     23  O   UNL     1      15.625   7.182  13.686  1.00  0.00    -0.508 OA
ATOM     24  H   UNL     1      16.221   7.994  13.563  1.00  0.00     0.293 HD
ENDBRANCH  11  23
ENDBRANCH   1   2
BRANCH   1  25
ATOM     25  C   UNL     1      18.225  -1.085  12.277  1.00  0.00     0.339 C 
ATOM     26  C   UNL     1      18.081  -1.835  10.933  1.00  0.00     0.214 C 
ATOM     27  O   UNL     1      19.000  -1.831  13.204  1.00  0.00    -0.332 OA
ATOM     28  C   UNL     1      19.453  -2.244  10.368  1.00  0.00     0.180 C 
ATOM     29  C   UNL     1      20.318  -2.047  12.727  1.00  0.00     0.179 C 
ATOM     30  C   UNL     1      20.294  -2.933  11.457  1.00  0.00     0.177 C 
BRANCH  26  31
ATOM     31  O   UNL     1      17.403  -1.038   9.996  1.00  0.00    -0.384 OA
ATOM     32  H   UNL     1      16.433  -1.143  10.178  1.00  0.00     0.211 HD
ENDBRANCH  26  31
BRANCH  28  33
ATOM     33  O   UNL     1      20.124  -1.112   9.875  1.00  0.00    -0.387 OA
ATOM     34  H   UNL     1      21.016  -1.417   9.565  1.00  0.00     0.211 HD
ENDBRANCH  28  33
BRANCH  29  35
ATOM     35  C   UNL     1      21.146  -2.677  13.854  1.00  0.00     0.191 C 
BRANCH  35  36
ATOM     36  O   UNL     1      20.338  -3.470  14.683  1.00  0.00    -0.394 OA
ATOM     37  H   UNL     1      20.300  -4.373  14.271  1.00  0.00     0.210 HD
ENDBRANCH  35  36
ENDBRANCH  29  35
BRANCH  30  38
ATOM     38  O   UNL     1      19.730  -4.188  11.745  1.00  0.00    -0.387 OA
ATOM     39  H   UNL     1      18.744  -4.069  11.769  1.00  0.00     0.211 HD
ENDBRANCH  30  38
ENDBRANCH   1  25
TORSDOF 11
ENDMDL
MODEL 3
REMARK VINA RESULT:    -4.305     18.328     21.371
REMARK INTER + INTRA:          -7.651
REMARK INTER:                  -5.665
REMARK INTRA:                  -1.985
REMARK UNBOUND:                -1.459
REMARK SMILES O=c1c(O[C@@H]2O[C@@H](CO)[C@@H](O)[C@H](O)[C@@H]2O)c(-c2ccc(O)cc2)oc2cc(O)cc(O)c12
REMARK SMILES IDX 4 1 3 2 16 3 24 4 2 5 25 6 1 7 32 8 26 9 30 10 27 11 29 12
REMARK SMILES IDX 17 13 18 14 19 15 20 16 23 17 22 18 21 19 31 21 28 23 5 25
REMARK SMILES IDX 14 26 6 27 12 28 7 29 10 30 15 31 13 33 8 35 9 36 11 38
REMARK H PARENT 21 20 31 22 28 24 15 32 13 34 9 37 11 39
REMARK Flexibility Score: inf
ROOT
ATOM      1  O   UNL     1      19.520  -0.408  12.756  1.00  0.00    -0.454 OA
ENDROOT
BRANCH   1   2
ATOM      2  C   UNL     1      18.855   0.802  13.048  1.00  0.00     0.214 A 
ATOM      3  C   UNL     1      19.222   1.495  14.219  1.00  0.00     0.180 A 
ATOM      4  O   UNL     1      18.695   2.684  14.492  1.00  0.00    -0.452 OA
ATOM      5  C   UNL     1      17.862   1.377  12.219  1.00  0.00     0.239 A 
ATOM      6  C   UNL     1      17.785   3.270  13.726  1.00  0.00     0.146 A 
ATOM      7  O   UNL     1      17.466   0.774  11.186  1.00  0.00    -0.285 OA
ATOM      8  C   UNL     1      17.315   2.635  12.553  1.00  0.00     0.111 A 
ATOM      9  C   UNL     1      17.292   4.524  14.098  1.00  0.00     0.094 A 
ATOM     10  C   UNL     1      16.331   3.286  11.768  1.00  0.00     0.134 A 
ATOM     11  C   UNL     1      16.328   5.163  13.319  1.00  0.00     0.123 A 
ATOM     12  C   UNL     1      15.849   4.544  12.158  1.00  0.00     0.093 A 
BRANCH   3  13
ATOM     13  C   UNL     1      20.211   0.944  15.170  1.00  0.00     0.021 A 
ATOM     14  C   UNL     1      19.800   0.230  16.308  1.00  0.00     0.016 A 
ATOM     15  C   UNL     1      20.745  -0.266  17.210  1.00  0.00     0.047 A 
ATOM     16  C   UNL     1      22.108  -0.041  16.995  1.00  0.00     0.115 A 
ATOM     17  C   UNL     1      21.579   1.187  14.970  1.00  0.00     0.016 A 
ATOM     18  C   UNL     1      22.524   0.691  15.874  1.00  0.00     0.047 A 
BRANCH  16  19
ATOM     19  O   UNL     1      23.040  -0.541  17.902  1.00  0.00    -0.508 OA
ATOM     20  H   UNL     1      24.018  -0.284  17.852  1.00  0.00     0.293 HD
ENDBRANCH  16  19
ENDBRANCH   3  13
BRANCH  10  21
ATOM     21  O   UNL     1      15.832   2.695  10.605  1.00  0.00    -0.507 OA
ATOM     22  H   UNL     1      16.237   1.851  10.219  1.00  0.00     0.293 HD
ENDBRANCH  10  21
BRANCH  11  23
ATOM     23  O   UNL     1      15.850   6.413  13.706  1.00  0.00    -0.508 OA
ATOM     24  H   UNL     1      16.035   7.244  13.155  1.00  0.00     0.293 HD
ENDBRANCH  11  23
ENDBRANCH   1   2
BRANCH   1  25
ATOM     25  C   UNL     1      19.006  -1.735  12.913  1.00  0.00     0.339 C 
ATOM     26  C   UNL     1      19.151  -2.538  11.599  1.00  0.00     0.214 C 
ATOM     27  O   UNL     1      19.625  -2.408  14.000  1.00  0.00    -0.332 OA
ATOM     28  C   UNL     1      20.621  -2.895  11.319  1.00  0.00     0.180 C 
ATOM     29  C   UNL     1      21.017  -2.573  13.787  1.00  0.00     0.179 C 
ATOM     30  C   UNL     1      21.271  -3.502  12.574  1.00  0.00     0.177 C 
BRANCH  26  31
ATOM     31  O   UNL     1      18.628  -1.809  10.519  1.00  0.00    -0.384 OA
ATOM     32  H   UNL     1      19.382  -1.639   9.895  1.00  0.00     0.211 HD
ENDBRANCH  26  31
BRANCH  28  33
ATOM     33  O   UNL     1      21.323  -1.747  10.911  1.00  0.00    -0.387 OA
ATOM     34  H   UNL     1      20.808  -0.963  11.235  1.00  0.00     0.211 HD
ENDBRANCH  28  33
BRANCH  29  35
ATOM     35  C   UNL     1      21.645  -3.120  15.075  1.00  0.00     0.191 C 
BRANCH  35  36
ATOM     36  O   UNL     1      20.748  -3.964  15.747  1.00  0.00    -0.394 OA
ATOM     37  H   UNL     1      20.356  -3.436  16.490  1.00  0.00     0.210 HD
ENDBRANCH  35  36
ENDBRANCH  29  35
BRANCH  30  38
ATOM     38  O   UNL     1      20.719  -4.774  12.807  1.00  0.00    -0.387 OA
ATOM     39  H   UNL     1      21.192  -5.162  13.589  1.00  0.00     0.211 HD
ENDBRANCH  30  38
ENDBRANCH   1  25
TORSDOF 11
ENDMDL
MODEL 4
REMARK VINA RESULT:    -4.248     18.543     21.092
REMARK INTER + INTRA:          -7.569
REMARK INTER:                  -5.687
REMARK INTRA:                  -1.882
REMARK UNBOUND:                -1.459
REMARK SMILES O=c1c(O[C@@H]2O[C@@H](CO)[C@@H](O)[C@H](O)[C@@H]2O)c(-c2ccc(O)cc2)oc2cc(O)cc(O)c12
REMARK SMILES IDX 4 1 3 2 16 3 24 4 2 5 25 6 1 7 32 8 26 9 30 10 27 11 29 12
REMARK SMILES IDX 17 13 18 14 19 15 20 16 23 17 22 18 21 19 31 21 28 23 5 25
REMARK SMILES IDX 14 26 6 27 12 28 7 29 10 30 15 31 13 33 8 35 9 36 11 38
REMARK H PARENT 21 20 31 22 28 24 15 32 13 34 9 37 11 39
REMARK Flexibility Score: inf
ROOT
ATOM      1  O   UNL     1      19.416  -0.218  14.361  1.00  0.00    -0.454 OA
ENDROOT
BRANCH   1   2
ATOM      2  C   UNL     1      18.591   0.616  13.577  1.00  0.00     0.214 A 
ATOM      3  C   UNL     1      18.419   0.289  12.217  1.00  0.00     0.180 A 
ATOM      4  O   UNL     1      17.580   0.986  11.458  1.00  0.00    -0.452 OA
ATOM      5  C   UNL     1      17.901   1.743  14.083  1.00  0.00     0.239 A 
ATOM      6  C   UNL     1      16.892   2.029  11.900  1.00  0.00     0.146 A 
ATOM      7  O   UNL     1      18.058   2.103  15.280  1.00  0.00    -0.285 OA
ATOM      8  C   UNL     1      17.030   2.466  13.238  1.00  0.00     0.111 A 
ATOM      9  C   UNL     1      16.032   2.696  11.024  1.00  0.00     0.094 A 
ATOM     10  C   UNL     1      16.291   3.595  13.672  1.00  0.00     0.134 A 
ATOM     11  C   UNL     1      15.302   3.803  11.456  1.00  0.00     0.123 A 
ATOM     12  C   UNL     1      15.433   4.251  12.776  1.00  0.00     0.093 A 
BRANCH   3  13
ATOM     13  C   UNL     1      19.141  -0.839  11.592  1.00  0.00     0.021 A 
ATOM     14  C   UNL     1      18.702  -2.163  11.764  1.00  0.00     0.016 A 
ATOM     15  C   UNL     1      19.407  -3.222  11.187  1.00  0.00     0.047 A 
ATOM     16  C   UNL     1      20.566  -2.974  10.445  1.00  0.00     0.115 A 
ATOM     17  C   UNL     1      20.318  -0.597  10.866  1.00  0.00     0.016 A 
ATOM     18  C   UNL     1      21.023  -1.658  10.290  1.00  0.00     0.047 A 
BRANCH  16  19
ATOM     19  O   UNL     1      21.260  -4.039   9.875  1.00  0.00    -0.508 OA
ATOM     20  H   UNL     1      22.223  -3.944   9.577  1.00  0.00     0.293 HD
ENDBRANCH  16  19
ENDBRANCH   3  13
BRANCH  10  21
ATOM     21  O   UNL     1      16.399   4.068  14.981  1.00  0.00    -0.507 OA
ATOM     22  H   UNL     1      16.846   3.524  15.709  1.00  0.00     0.293 HD
ENDBRANCH  10  21
BRANCH  11  23
ATOM     23  O   UNL     1      14.448   4.453  10.567  1.00  0.00    -0.508 OA
ATOM     24  H   UNL     1      14.265   4.081   9.641  1.00  0.00     0.293 HD
ENDBRANCH  11  23
ENDBRANCH   1   2
BRANCH   1  25
ATOM     25  C   UNL     1      20.708   0.098  14.893  1.00  0.00     0.339 C 
ATOM     26  C   UNL     1      20.772  -0.224  16.404  1.00  0.00     0.214 C 
ATOM     27  O   UNL     1      21.742  -0.564  14.180  1.00  0.00    -0.332 OA
ATOM     28  C   UNL     1      20.790  -1.742  16.654  1.00  0.00     0.180 C 
ATOM     29  C   UNL     1      21.631  -1.974  14.290  1.00  0.00     0.179 C 
ATOM     30  C   UNL     1      21.842  -2.418  15.758  1.00  0.00     0.177 C 
BRANCH  26  31
ATOM     31  O   UNL     1      19.682   0.353  17.076  1.00  0.00    -0.384 OA
ATOM     32  H   UNL     1      18.860  -0.024  16.665  1.00  0.00     0.211 HD
ENDBRANCH  26  31
BRANCH  28  33
ATOM     33  O   UNL     1      19.516  -2.283  16.405  1.00  0.00    -0.387 OA
ATOM     34  H   UNL     1      19.475  -2.489  15.435  1.00  0.00     0.211 HD
ENDBRANCH  28  33
BRANCH  29  35
ATOM     35  C   UNL     1      22.650  -2.617  13.340  1.00  0.00     0.191 C 
BRANCH  35  36
ATOM     36  O   UNL     1      23.124  -3.829  13.866  1.00  0.00    -0.394 OA
ATOM     37  H   UNL     1      23.361  -3.659  14.814  1.00  0.00     0.210 HD
ENDBRANCH  35  36
ENDBRANCH  29  35
BRANCH  30  38
ATOM     38  O   UNL     1      23.125  -2.051  16.202  1.00  0.00    -0.387 OA
ATOM     39  H   UNL     1      23.238  -2.425  17.116  1.00  0.00     0.211 HD
ENDBRANCH  30  38
ENDBRANCH   1  25
TORSDOF 11
ENDMDL
MODEL 5
REMARK VINA RESULT:    -4.244     19.602     22.270
REMARK INTER + INTRA:          -7.564
REMARK INTER:                  -5.702
REMARK INTRA:                  -1.862
REMARK UNBOUND:                -1.459
REMARK SMILES O=c1c(O[C@@H]2O[C@@H](CO)[C@@H](O)[C@H](O)[C@@H]2O)c(-c2ccc(O)cc2)oc2cc(O)cc(O)c12
REMARK SMILES IDX 4 1 3 2 16 3 24 4 2 5 25 6 1 7 32 8 26 9 30 10 27 11 29 12
REMARK SMILES IDX 17 13 18 14 19 15 20 16 23 17 22 18 21 19 31 21 28 23 5 25
REMARK SMILES IDX 14 26 6 27 12 28 7 29 10 30 15 31 13 33 8 35 9 36 11 38
REMARK H PARENT 21 20 31 22 28 24 15 32 13 34 9 37 11 39
REMARK Flexibility Score: inf
ROOT
ATOM      1  O   UNL     1      19.566  -2.807  14.351  1.00  0.00    -0.454 OA
ENDROOT
BRANCH   1   2
ATOM      2  C   UNL     1      19.633  -1.690  13.491  1.00  0.00     0.214 A 
ATOM      3  C   UNL     1      19.839  -1.923  12.116  1.00  0.00     0.180 A 
ATOM      4  O   UNL     1      19.816  -0.915  11.252  1.00  0.00    -0.452 OA
ATOM      5  C   UNL     1      19.472  -0.352  13.922  1.00  0.00     0.239 A 
ATOM      6  C   UNL     1      19.639   0.349  11.611  1.00  0.00     0.146 A 
ATOM      7  O   UNL     1      19.331  -0.088  15.146  1.00  0.00    -0.285 OA
ATOM      8  C   UNL     1      19.469   0.693  12.972  1.00  0.00     0.111 A 
ATOM      9  C   UNL     1      19.628   1.339  10.625  1.00  0.00     0.094 A 
ATOM     10  C   UNL     1      19.298   2.056  13.320  1.00  0.00     0.134 A 
ATOM     11  C   UNL     1      19.454   2.679  10.971  1.00  0.00     0.123 A 
ATOM     12  C   UNL     1      19.291   3.035  12.315  1.00  0.00     0.093 A 
BRANCH   3  13
ATOM     13  C   UNL     1      20.068  -3.283  11.585  1.00  0.00     0.021 A 
ATOM     14  C   UNL     1      21.369  -3.749  11.327  1.00  0.00     0.016 A 
ATOM     15  C   UNL     1      21.570  -5.029  10.804  1.00  0.00     0.047 A 
ATOM     16  C   UNL     1      20.476  -5.851  10.517  1.00  0.00     0.115 A 
ATOM     17  C   UNL     1      18.973  -4.103  11.274  1.00  0.00     0.016 A 
ATOM     18  C   UNL     1      19.175  -5.384  10.749  1.00  0.00     0.047 A 
BRANCH  16  19
ATOM     19  O   UNL     1      20.690  -7.125   9.995  1.00  0.00    -0.508 OA
ATOM     20  H   UNL     1      20.958  -7.901  10.588  1.00  0.00     0.293 HD
ENDBRANCH  16  19
ENDBRANCH   3  13
BRANCH  10  21
ATOM     21  O   UNL     1      19.133   2.445  14.651  1.00  0.00    -0.507 OA
ATOM     22  H   UNL     1      18.606   1.884  15.309  1.00  0.00     0.293 HD
ENDBRANCH  10  21
BRANCH  11  23
ATOM     23  O   UNL     1      19.444   3.651   9.972  1.00  0.00    -0.508 OA
ATOM     24  H   UNL     1      18.609   4.185   9.761  1.00  0.00     0.293 HD
ENDBRANCH  11  23
ENDBRANCH   1   2
BRANCH   1  25
ATOM     25  C   UNL     1      20.659  -3.446  15.022  1.00  0.00     0.339 C 
ATOM     26  C   UNL     1      20.460  -3.405  16.555  1.00  0.00     0.214 C 
ATOM     27  O   UNL     1      20.845  -4.777  14.561  1.00  0.00    -0.332 OA
ATOM     28  C   UNL     1      19.334  -4.353  17.001  1.00  0.00     0.180 C 
ATOM     29  C   UNL     1      19.715  -5.588  14.837  1.00  0.00     0.179 C 
ATOM     30  C   UNL     1      19.522  -5.742  16.366  1.00  0.00     0.177 C 
BRANCH  26  31
ATOM     31  O   UNL     1      20.172  -2.097  16.977  1.00  0.00    -0.384 OA
ATOM     32  H   UNL     1      19.285  -2.128  17.422  1.00  0.00     0.211 HD
ENDBRANCH  26  31
BRANCH  28  33
ATOM     33  O   UNL     1      18.086  -3.816  16.640  1.00  0.00    -0.387 OA
ATOM     34  H   UNL     1      18.034  -3.846  15.649  1.00  0.00     0.211 HD
ENDBRANCH  28  33
BRANCH  29  35
ATOM     35  C   UNL     1      19.905  -6.942  14.140  1.00  0.00     0.191 C 
BRANCH  35  36
ATOM     36  O   UNL     1      21.245  -7.125  13.767  1.00  0.00    -0.394 OA
ATOM     37  H   UNL     1      21.246  -7.367  12.804  1.00  0.00     0.210 HD
ENDBRANCH  35  36
ENDBRANCH  29  35
BRANCH  30  38
ATOM     38  O   UNL     1      20.646  -6.360  16.943  1.00  0.00    -0.387 OA
ATOM     39  H   UNL     1      21.443  -6.052  16.437  1.00  0.00     0.211 HD
ENDBRANCH  30  38
ENDBRANCH   1  25
TORSDOF 11
ENDMDL
MODEL 6
REMARK VINA RESULT:    -4.172     18.493     20.908
REMARK INTER + INTRA:          -7.460
REMARK INTER:                  -6.194
REMARK INTRA:                  -1.266
REMARK UNBOUND:                -1.459
REMARK SMILES O=c1c(O[C@@H]2O[C@@H](CO)[C@@H](O)[C@H](O)[C@@H]2O)c(-c2ccc(O)cc2)oc2cc(O)cc(O)c12
REMARK SMILES IDX 4 1 3 2 16 3 24 4 2 5 25 6 1 7 32 8 26 9 30 10 27 11 29 12
REMARK SMILES IDX 17 13 18 14 19 15 20 16 23 17 22 18 21 19 31 21 28 23 5 25
REMARK SMILES IDX 14 26 6 27 12 28 7 29 10 30 15 31 13 33 8 35 9 36 11 38
REMARK H PARENT 21 20 31 22 28 24 15 32 13 34 9 37 11 39
REMARK Flexibility Score: inf
ROOT
ATOM      1  O   UNL     1      19.974   0.004  14.403  1.00  0.00    -0.454 OA
ENDROOT
BRANCH   1   2
ATOM      2  C   UNL     1      18.989   0.682  13.654  1.00  0.00     0.214 A 
ATOM      3  C   UNL     1      18.811   0.314  12.305  1.00  0.00     0.180 A 
ATOM      4  O   UNL     1      17.836   0.854  11.582  1.00  0.00    -0.452 OA
ATOM      5  C   UNL     1      18.148   1.689  14.185  1.00  0.00     0.239 A 
ATOM      6  C   UNL     1      17.008   1.778  12.050  1.00  0.00     0.146 A 
ATOM      7  O   UNL     1      18.298   2.086  15.371  1.00  0.00    -0.285 OA
ATOM      8  C   UNL     1      17.134   2.249  13.377  1.00  0.00     0.111 A 
ATOM      9  C   UNL     1      16.012   2.283  11.211  1.00  0.00     0.094 A 
ATOM     10  C   UNL     1      16.240   3.248  13.838  1.00  0.00     0.134 A 
ATOM     11  C   UNL     1      15.131   3.263  11.670  1.00  0.00     0.123 A 
ATOM     12  C   UNL     1      15.247   3.744  12.980  1.00  0.00     0.093 A 
BRANCH   3  13
ATOM     13  C   UNL     1      19.679  -0.691  11.654  1.00  0.00     0.021 A 
ATOM     14  C   UNL     1      19.249  -2.019  11.489  1.00  0.00     0.016 A 
ATOM     15  C   UNL     1      20.089  -2.964  10.892  1.00  0.00     0.047 A 
ATOM     16  C   UNL     1      21.370  -2.597  10.468  1.00  0.00     0.115 A 
ATOM     17  C   UNL     1      20.973  -0.334  11.248  1.00  0.00     0.016 A 
ATOM     18  C   UNL     1      21.813  -1.280  10.651  1.00  0.00     0.047 A 
BRANCH  16  19
ATOM     19  O   UNL     1      22.196  -3.549   9.875  1.00  0.00    -0.508 OA
ATOM     20  H   UNL     1      22.392  -4.435  10.325  1.00  0.00     0.293 HD
ENDBRANCH  16  19
ENDBRANCH   3  13
BRANCH  10  21
ATOM     21  O   UNL     1      16.329   3.750  15.138  1.00  0.00    -0.507 OA
ATOM     22  H   UNL     1      16.797   3.239  15.876  1.00  0.00     0.293 HD
ENDBRANCH  10  21
BRANCH  11  23
ATOM     23  O   UNL     1      14.144   3.753  10.818  1.00  0.00    -0.508 OA
ATOM     24  H   UNL     1      13.390   4.337  11.162  1.00  0.00     0.293 HD
ENDBRANCH  11  23
ENDBRANCH   1   2
BRANCH   1  25
ATOM     25  C   UNL     1      19.817  -0.594  15.695  1.00  0.00     0.339 C 
ATOM     26  C   UNL     1      20.107  -2.111  15.637  1.00  0.00     0.214 C 
ATOM     27  O   UNL     1      20.627   0.050  16.668  1.00  0.00    -0.332 OA
ATOM     28  C   UNL     1      21.607  -2.388  15.440  1.00  0.00     0.180 C 
ATOM     29  C   UNL     1      22.007  -0.079  16.366  1.00  0.00     0.179 C 
ATOM     30  C   UNL     1      22.438  -1.564  16.439  1.00  0.00     0.177 C 
BRANCH  26  31
ATOM     31  O   UNL     1      19.375  -2.711  14.599  1.00  0.00    -0.384 OA
ATOM     32  H   UNL     1      19.636  -2.249  13.760  1.00  0.00     0.211 HD
ENDBRANCH  26  31
BRANCH  28  33
ATOM     33  O   UNL     1      21.982  -2.079  14.120  1.00  0.00    -0.387 OA
ATOM     34  H   UNL     1      22.507  -1.237  14.159  1.00  0.00     0.211 HD
ENDBRANCH  28  33
BRANCH  29  35
ATOM     35  C   UNL     1      22.802   0.801  17.339  1.00  0.00     0.191 C 
BRANCH  35  36
ATOM     36  O   UNL     1      22.250   0.745  18.627  1.00  0.00    -0.394 OA
ATOM     37  H   UNL     1      22.954   1.048  19.257  1.00  0.00     0.210 HD
ENDBRANCH  35  36
ENDBRANCH  29  35
BRANCH  30  38
ATOM     38  O   UNL     1      22.233  -2.072  17.733  1.00  0.00    -0.387 OA
ATOM     39  H   UNL     1      22.301  -1.308  18.364  1.00  0.00     0.211 HD
ENDBRANCH  30  38
ENDBRANCH   1  25
TORSDOF 11
ENDMDL
MODEL 7
REMARK VINA RESULT:    -4.157     18.491     21.666
REMARK INTER + INTRA:          -7.438
REMARK INTER:                  -6.251
REMARK INTRA:                  -1.187
REMARK UNBOUND:                -1.459
REMARK SMILES O=c1c(O[C@@H]2O[C@@H](CO)[C@@H](O)[C@H](O)[C@@H]2O)c(-c2ccc(O)cc2)oc2cc(O)cc(O)c12
REMARK SMILES IDX 4 1 3 2 16 3 24 4 2 5 25 6 1 7 32 8 26 9 30 10 27 11 29 12
REMARK SMILES IDX 17 13 18 14 19 15 20 16 23 17 22 18 21 19 31 21 28 23 5 25
REMARK SMILES IDX 14 26 6 27 12 28 7 29 10 30 15 31 13 33 8 35 9 36 11 38
REMARK H PARENT 21 20 31 22 28 24 15 32 13 34 9 37 11 39
REMARK Flexibility Score: inf
ROOT
ATOM      1  O   UNL     1      19.156   0.033  12.225  1.00  0.00    -0.454 OA
ENDROOT
BRANCH   1   2
ATOM      2  C   UNL     1      18.528   1.245  12.580  1.00  0.00     0.214 A 
ATOM      3  C   UNL     1      18.949   1.890  13.761  1.00  0.00     0.180 A 
ATOM      4  O   UNL     1      18.457   3.079  14.091  1.00  0.00    -0.452 OA
ATOM      5  C   UNL     1      17.522   1.870  11.804  1.00  0.00     0.239 A 
ATOM      6  C   UNL     1      17.537   3.711  13.376  1.00  0.00     0.146 A 
ATOM      7  O   UNL     1      17.079   1.312  10.764  1.00  0.00    -0.285 OA
ATOM      8  C   UNL     1      17.015   3.127  12.199  1.00  0.00     0.111 A 
ATOM      9  C   UNL     1      17.085   4.962  13.806  1.00  0.00     0.094 A 
ATOM     10  C   UNL     1      16.021   3.826  11.468  1.00  0.00     0.134 A 
ATOM     11  C   UNL     1      16.110   5.648  13.081  1.00  0.00     0.123 A 
ATOM     12  C   UNL     1      15.580   5.080  11.917  1.00  0.00     0.093 A 
BRANCH   3  13
ATOM     13  C   UNL     1      19.955   1.285  14.659  1.00  0.00     0.021 A 
ATOM     14  C   UNL     1      21.307   1.663  14.588  1.00  0.00     0.016 A 
ATOM     15  C   UNL     1      22.252   1.066  15.427  1.00  0.00     0.047 A 
ATOM     16  C   UNL     1      21.861   0.075  16.333  1.00  0.00     0.115 A 
ATOM     17  C   UNL     1      19.572   0.274  15.553  1.00  0.00     0.016 A 
ATOM     18  C   UNL     1      20.519  -0.323  16.392  1.00  0.00     0.047 A 
BRANCH  16  19
ATOM     19  O   UNL     1      22.814  -0.511  17.164  1.00  0.00    -0.508 OA
ATOM     20  H   UNL     1      23.776  -0.625  16.868  1.00  0.00     0.293 HD
ENDBRANCH  16  19
ENDBRANCH   3  13
BRANCH  10  21
ATOM     21  O   UNL     1      15.471   3.287  10.303  1.00  0.00    -0.507 OA
ATOM     22  H   UNL     1      15.861   2.464   9.861  1.00  0.00     0.293 HD
ENDBRANCH  10  21
BRANCH  11  23
ATOM     23  O   UNL     1      15.674   6.894  13.526  1.00  0.00    -0.508 OA
ATOM     24  H   UNL     1      14.871   7.354  13.111  1.00  0.00     0.293 HD
ENDBRANCH  11  23
ENDBRANCH   1   2
BRANCH   1  25
ATOM     25  C   UNL     1      19.761  -0.291  10.968  1.00  0.00     0.339 C 
ATOM     26  C   UNL     1      21.250  -0.660  11.155  1.00  0.00     0.214 C 
ATOM     27  O   UNL     1      19.053  -1.326  10.301  1.00  0.00    -0.332 OA
ATOM     28  C   UNL     1      21.408  -2.027  11.842  1.00  0.00     0.180 C 
ATOM     29  C   UNL     1      19.073  -2.534  11.043  1.00  0.00     0.179 C 
ATOM     30  C   UNL     1      20.519  -3.077  11.153  1.00  0.00     0.177 C 
BRANCH  26  31
ATOM     31  O   UNL     1      21.909   0.326  11.908  1.00  0.00    -0.384 OA
ATOM     32  H   UNL     1      22.779  -0.062  12.190  1.00  0.00     0.211 HD
ENDBRANCH  26  31
BRANCH  28  33
ATOM     33  O   UNL     1      21.073  -1.921  13.203  1.00  0.00    -0.387 OA
ATOM     34  H   UNL     1      20.198  -1.455  13.250  1.00  0.00     0.211 HD
ENDBRANCH  28  33
BRANCH  29  35
ATOM     35  C   UNL     1      18.130  -3.537  10.366  1.00  0.00     0.191 C 
BRANCH  35  36
ATOM     36  O   UNL     1      18.595  -4.850  10.535  1.00  0.00    -0.394 OA
ATOM     37  H   UNL     1      18.529  -5.296   9.651  1.00  0.00     0.210 HD
ENDBRANCH  35  36
ENDBRANCH  29  35
BRANCH  30  38
ATOM     38  O   UNL     1      21.039  -3.349   9.875  1.00  0.00    -0.387 OA
ATOM     39  H   UNL     1      21.796  -3.980   9.994  1.00  0.00     0.211 HD
ENDBRANCH  30  38
ENDBRANCH   1  25
TORSDOF 11
ENDMDL
MODEL 8
REMARK VINA RESULT:    -4.072     18.336     20.626
REMARK INTER + INTRA:          -7.315
REMARK INTER:                  -6.567
REMARK INTRA:                  -0.748
REMARK UNBOUND:                -1.459
REMARK SMILES O=c1c(O[C@@H]2O[C@@H](CO)[C@@H](O)[C@H](O)[C@@H]2O)c(-c2ccc(O)cc2)oc2cc(O)cc(O)c12
REMARK SMILES IDX 4 1 3 2 16 3 24 4 2 5 25 6 1 7 32 8 26 9 30 10 27 11 29 12
REMARK SMILES IDX 17 13 18 14 19 15 20 16 23 17 22 18 21 19 31 21 28 23 5 25
REMARK SMILES IDX 14 26 6 27 12 28 7 29 10 30 15 31 13 33 8 35 9 36 11 38
REMARK H PARENT 21 20 31 22 28 24 15 32 13 34 9 37 11 39
REMARK Flexibility Score: inf
ROOT
ATOM      1  O   UNL     1      17.838   1.739  12.646  1.00  0.00    -0.454 OA
ENDROOT
BRANCH   1   2
ATOM      2  C   UNL     1      18.358   0.537  12.122  1.00  0.00     0.214 A 
ATOM      3  C   UNL     1      19.711   0.233  12.377  1.00  0.00     0.180 A 
ATOM      4  O   UNL     1      20.225  -0.929  11.987  1.00  0.00    -0.452 OA
ATOM      5  C   UNL     1      17.595  -0.398  11.382  1.00  0.00     0.239 A 
ATOM      6  C   UNL     1      19.536  -1.843  11.318  1.00  0.00     0.146 A 
ATOM      7  O   UNL     1      16.394  -0.151  11.089  1.00  0.00    -0.285 OA
ATOM      8  C   UNL     1      18.184  -1.614  10.973  1.00  0.00     0.111 A 
ATOM      9  C   UNL     1      20.167  -3.036  10.954  1.00  0.00     0.094 A 
ATOM     10  C   UNL     1      17.484  -2.608  10.244  1.00  0.00     0.134 A 
ATOM     11  C   UNL     1      19.472  -4.013  10.242  1.00  0.00     0.123 A 
ATOM     12  C   UNL     1      18.135  -3.798   9.888  1.00  0.00     0.093 A 
BRANCH   3  13
ATOM     13  C   UNL     1      20.596   1.173  13.095  1.00  0.00     0.021 A 
ATOM     14  C   UNL     1      21.102   0.860  14.368  1.00  0.00     0.016 A 
ATOM     15  C   UNL     1      21.920   1.769  15.047  1.00  0.00     0.047 A 
ATOM     16  C   UNL     1      22.227   3.005  14.470  1.00  0.00     0.115 A 
ATOM     17  C   UNL     1      20.888   2.424  12.531  1.00  0.00     0.016 A 
ATOM     18  C   UNL     1      21.706   3.333  13.211  1.00  0.00     0.047 A 
BRANCH  16  19
ATOM     19  O   UNL     1      23.042   3.901  15.157  1.00  0.00    -0.508 OA
ATOM     20  H   UNL     1      22.844   4.172  16.112  1.00  0.00     0.293 HD
ENDBRANCH  16  19
ENDBRANCH   3  13
BRANCH  10  21
ATOM     21  O   UNL     1      16.150  -2.424   9.875  1.00  0.00    -0.507 OA
ATOM     22  H   UNL     1      15.731  -1.503   9.830  1.00  0.00     0.293 HD
ENDBRANCH  10  21
BRANCH  11  23
ATOM     23  O   UNL     1      20.119  -5.196   9.890  1.00  0.00    -0.508 OA
ATOM     24  H   UNL     1      19.667  -6.098   9.994  1.00  0.00     0.293 HD
ENDBRANCH  11  23
ENDBRANCH   1   2
BRANCH   1  25
ATOM     25  C   UNL     1      16.822   2.565  12.067  1.00  0.00     0.339 C 
ATOM     26  C   UNL     1      15.829   3.053  13.147  1.00  0.00     0.214 C 
ATOM     27  O   UNL     1      17.383   3.657  11.352  1.00  0.00    -0.332 OA
ATOM     28  C   UNL     1      16.475   4.101  14.070  1.00  0.00     0.180 C 
ATOM     29  C   UNL     1      18.118   4.518  12.206  1.00  0.00     0.179 C 
ATOM     30  C   UNL     1      17.176   5.187  13.237  1.00  0.00     0.177 C 
BRANCH  26  31
ATOM     31  O   UNL     1      15.366   1.970  13.912  1.00  0.00    -0.384 OA
ATOM     32  H   UNL     1      16.083   1.284  13.902  1.00  0.00     0.211 HD
ENDBRANCH  26  31
BRANCH  28  33
ATOM     33  O   UNL     1      17.393   3.478  14.933  1.00  0.00    -0.387 OA
ATOM     34  H   UNL     1      18.226   3.332  14.413  1.00  0.00     0.211 HD
ENDBRANCH  28  33
BRANCH  29  35
ATOM     35  C   UNL     1      18.854   5.549  11.341  1.00  0.00     0.191 C 
BRANCH  35  36
ATOM     36  O   UNL     1      19.806   6.247  12.101  1.00  0.00    -0.394 OA
ATOM     37  H   UNL     1      19.929   7.131  11.667  1.00  0.00     0.210 HD
ENDBRANCH  35  36
ENDBRANCH  29  35
BRANCH  30  38
ATOM     38  O   UNL     1      16.203   5.961  12.581  1.00  0.00    -0.387 OA
ATOM     39  H   UNL     1      16.492   6.909  12.640  1.00  0.00     0.211 HD
ENDBRANCH  30  38
ENDBRANCH   1  25
TORSDOF 11
ENDMDL
MODEL 9
REMARK VINA RESULT:    -4.066     19.881     21.557
REMARK INTER + INTRA:          -7.308
REMARK INTER:                  -5.369
REMARK INTRA:                  -1.939
REMARK UNBOUND:                -1.459
REMARK SMILES O=c1c(O[C@@H]2O[C@@H](CO)[C@@H](O)[C@H](O)[C@@H]2O)c(-c2ccc(O)cc2)oc2cc(O)cc(O)c12
REMARK SMILES IDX 4 1 3 2 16 3 24 4 2 5 25 6 1 7 32 8 26 9 30 10 27 11 29 12
REMARK SMILES IDX 17 13 18 14 19 15 20 16 23 17 22 18 21 19 31 21 28 23 5 25
REMARK SMILES IDX 14 26 6 27 12 28 7 29 10 30 15 31 13 33 8 35 9 36 11 38
REMARK H PARENT 21 20 31 22 28 24 15 32 13 34 9 37 11 39
REMARK Flexibility Score: inf
ROOT
ATOM      1  O   UNL     1      20.580  -3.990  16.221  1.00  0.00    -0.454 OA
ENDROOT
BRANCH   1   2
ATOM      2  C   UNL     1      21.110  -3.252  17.301  1.00  0.00     0.214 A 
ATOM      3  C   UNL     1      21.334  -1.873  17.116  1.00  0.00     0.180 A 
ATOM      4  O   UNL     1      21.742  -1.115  18.127  1.00  0.00    -0.452 OA
ATOM      5  C   UNL     1      21.400  -3.808  18.570  1.00  0.00     0.239 A 
ATOM      6  C   UNL     1      21.997  -1.591  19.338  1.00  0.00     0.146 A 
ATOM      7  O   UNL     1      21.260  -5.044  18.772  1.00  0.00    -0.285 OA
ATOM      8  C   UNL     1      21.847  -2.970  19.615  1.00  0.00     0.111 A 
ATOM      9  C   UNL     1      22.420  -0.711  20.338  1.00  0.00     0.094 A 
ATOM     10  C   UNL     1      22.143  -3.445  20.917  1.00  0.00     0.134 A 
ATOM     11  C   UNL     1      22.704  -1.182  21.620  1.00  0.00     0.123 A 
ATOM     12  C   UNL     1      22.567  -2.545  21.906  1.00  0.00     0.093 A 
BRANCH   3  13
ATOM     13  C   UNL     1      21.109  -1.219  15.809  1.00  0.00     0.021 A 
ATOM     14  C   UNL     1      22.175  -0.986  14.924  1.00  0.00     0.016 A 
ATOM     15  C   UNL     1      21.951  -0.346  13.702  1.00  0.00     0.047 A 
ATOM     16  C   UNL     1      20.665   0.083  13.358  1.00  0.00     0.115 A 
ATOM     17  C   UNL     1      19.825  -0.765  15.470  1.00  0.00     0.016 A 
ATOM     18  C   UNL     1      19.602  -0.124  14.247  1.00  0.00     0.047 A 
BRANCH  16  19
ATOM     19  O   UNL     1      20.456   0.720  12.137  1.00  0.00    -0.508 OA
ATOM     20  H   UNL     1      19.534   1.023  11.849  1.00  0.00     0.293 HD
ENDBRANCH  16  19
ENDBRANCH   3  13
BRANCH  10  21
ATOM     21  O   UNL     1      22.017  -4.798  21.236  1.00  0.00    -0.507 OA
ATOM     22  H   UNL     1      22.707  -5.481  20.947  1.00  0.00     0.293 HD
ENDBRANCH  10  21
BRANCH  11  23
ATOM     23  O   UNL     1      23.124  -0.288  22.603  1.00  0.00    -0.508 OA
ATOM     24  H   UNL     1      23.898   0.347  22.445  1.00  0.00     0.293 HD
ENDBRANCH  11  23
ENDBRANCH   1   2
BRANCH   1  25
ATOM     25  C   UNL     1      21.310  -4.772  15.269  1.00  0.00     0.339 C 
ATOM     26  C   UNL     1      20.829  -6.241  15.281  1.00  0.00     0.214 C 
ATOM     27  O   UNL     1      21.229  -4.213  13.966  1.00  0.00    -0.332 OA
ATOM     28  C   UNL     1      19.428  -6.378  14.661  1.00  0.00     0.180 C 
ATOM     29  C   UNL     1      19.894  -4.198  13.487  1.00  0.00     0.179 C 
ATOM     30  C   UNL     1      19.368  -5.643  13.311  1.00  0.00     0.177 C 
BRANCH  26  31
ATOM     31  O   UNL     1      20.816  -6.742  16.594  1.00  0.00    -0.384 OA
ATOM     32  H   UNL     1      21.730  -6.613  16.959  1.00  0.00     0.211 HD
ENDBRANCH  26  31
BRANCH  28  33
ATOM     33  O   UNL     1      18.462  -5.861  15.542  1.00  0.00    -0.387 OA
ATOM     34  H   UNL     1      17.594  -6.275  15.294  1.00  0.00     0.211 HD
ENDBRANCH  28  33
BRANCH  29  35
ATOM     35  C   UNL     1      19.858  -3.406  12.173  1.00  0.00     0.191 C 
BRANCH  35  36
ATOM     36  O   UNL     1      18.956  -3.986  11.267  1.00  0.00    -0.394 OA
ATOM     37  H   UNL     1      19.192  -4.948  11.201  1.00  0.00     0.210 HD
ENDBRANCH  35  36
ENDBRANCH  29  35
BRANCH  30  38
ATOM     38  O   UNL     1      20.152  -6.341  12.375  1.00  0.00    -0.387 OA
ATOM     39  H   UNL     1      20.558  -5.666  11.770  1.00  0.00     0.211 HD
ENDBRANCH  30  38
ENDBRANCH   1  25
TORSDOF 11
ENDMDL
