MODEL 1
REMARK VINA RESULT:    -5.474      0.000      0.000
REMARK INTER + INTRA:         -11.045
REMARK INTER:                  -9.315
REMARK INTRA:                  -1.730
REMARK UNBOUND:                -1.730
REMARK SMILES CCCCCCCCCCCCCC(=O)[O-]
REMARK SMILES IDX 8 1 9 2 10 3 11 4 12 5 13 6 14 7 15 8 16 9 7 10 6 11 5 12
REMARK SMILES IDX 4 13 3 14 2 15 1 16
REMARK H PARENT
REMARK Flexibility Score: inf
ROOT
ATOM      1  C   UNL     1       9.189 -12.330  34.417  1.00  0.00     0.000 C 
ENDROOT
BRANCH   1   2
ATOM      2  C   UNL     1       9.941 -11.693  35.600  1.00  0.00     0.000 C 
BRANCH   2   3
ATOM      3  C   UNL     1      11.165 -10.879  35.149  1.00  0.00     0.000 C 
BRANCH   3   4
ATOM      4  C   UNL     1      12.476 -11.678  35.251  1.00  0.00     0.000 C 
BRANCH   4   5
ATOM      5  C   UNL     1      12.895 -11.949  36.708  1.00  0.00     0.006 C 
BRANCH   5   6
ATOM      6  C   UNL     1      13.325 -10.697  37.489  1.00  0.00     0.053 C 
BRANCH   6   7
ATOM      7  C   UNL     1      12.590 -10.564  38.787  1.00  0.00     0.041 C 
ATOM      8  O   UNL     1      13.187 -10.142  39.813  1.00  0.00    -0.550 OA
ATOM      9  O   UNL     1      11.255 -10.938  38.873  1.00  0.00    -0.550 OA
ENDBRANCH   6   7
ENDBRANCH   5   6
ENDBRANCH   4   5
ENDBRANCH   3   4
ENDBRANCH   2   3
ENDBRANCH   1   2
BRANCH   1  10
ATOM     10  C   UNL     1       8.032 -13.233  34.875  1.00  0.00     0.000 C 
BRANCH  10  11
ATOM     11  C   UNL     1       7.306 -12.685  36.116  1.00  0.00    -0.000 C 
BRANCH  11  12
ATOM     12  C   UNL     1       7.259 -13.696  37.275  1.00  0.00    -0.000 C 
BRANCH  12  13
ATOM     13  C   UNL     1       8.338 -13.490  38.354  1.00  0.00    -0.000 C 
BRANCH  13  14
ATOM     14  C   UNL     1       9.231 -14.728  38.550  1.00  0.00    -0.000 C 
BRANCH  14  15
ATOM     15  C   UNL     1      10.615 -14.562  37.904  1.00  0.00    -0.003 C 
ATOM     16  C   UNL     1      10.715 -15.247  36.542  1.00  0.00     0.004 C 
ENDBRANCH  14  15
ENDBRANCH  13  14
ENDBRANCH  12  13
ENDBRANCH  11  12
ENDBRANCH  10  11
ENDBRANCH   1  10
TORSDOF 12
ENDMDL
MODEL 2
REMARK VINA RESULT:    -5.449      1.245      2.972
REMARK INTER + INTRA:         -11.002
REMARK INTER:                  -9.185
REMARK INTRA:                  -1.817
REMARK UNBOUND:                -1.730
REMARK SMILES CCCCCCCCCCCCCC(=O)[O-]
REMARK SMILES IDX 8 1 9 2 10 3 11 4 12 5 13 6 14 7 15 8 16 9 7 10 6 11 5 12
REMARK SMILES IDX 4 13 3 14 2 15 1 16
REMARK H PARENT
REMARK Flexibility Score: inf
ROOT
ATOM      1  C   UNL     1      10.283 -14.529  37.723  1.00  0.00     0.000 C 
ENDROOT
BRANCH   1   2
ATOM      2  C   UNL     1      11.344 -14.757  36.632  1.00  0.00     0.000 C 
BRANCH   2   3
ATOM      3  C   UNL     1      12.622 -13.936  36.873  1.00  0.00     0.000 C 
BRANCH   3   4
ATOM      4  C   UNL     1      13.029 -13.105  35.643  1.00  0.00     0.000 C 
BRANCH   4   5
ATOM      5  C   UNL     1      13.261 -11.620  35.978  1.00  0.00     0.006 C 
BRANCH   5   6
ATOM      6  C   UNL     1      13.229 -11.295  37.481  1.00  0.00     0.053 C 
BRANCH   6   7
ATOM      7  C   UNL     1      12.406 -10.079  37.776  1.00  0.00     0.041 C 
ATOM      8  O   UNL     1      12.146  -9.764  38.967  1.00  0.00    -0.550 OA
ATOM      9  O   UNL     1      11.895  -9.314  36.735  1.00  0.00    -0.550 OA
ENDBRANCH   6   7
ENDBRANCH   5   6
ENDBRANCH   4   5
ENDBRANCH   3   4
ENDBRANCH   2   3
ENDBRANCH   1   2
BRANCH   1  10
ATOM     10  C   UNL     1      10.159 -13.050  38.123  1.00  0.00     0.000 C 
BRANCH  10  11
ATOM     11  C   UNL     1       8.701 -12.558  38.137  1.00  0.00    -0.000 C 
BRANCH  11  12
ATOM     12  C   UNL     1       7.725 -13.564  37.502  1.00  0.00    -0.000 C 
BRANCH  12  13
ATOM     13  C   UNL     1       7.145 -13.130  36.144  1.00  0.00    -0.000 C 
BRANCH  13  14
ATOM     14  C   UNL     1       7.987 -13.617  34.951  1.00  0.00    -0.000 C 
BRANCH  14  15
ATOM     15  C   UNL     1       8.513 -12.459  34.091  1.00  0.00    -0.003 C 
ATOM     16  C   UNL     1       9.796 -11.845  34.650  1.00  0.00     0.004 C 
ENDBRANCH  14  15
ENDBRANCH  13  14
ENDBRANCH  12  13
ENDBRANCH  11  12
ENDBRANCH  10  11
ENDBRANCH   1  10
TORSDOF 12
ENDMDL
MODEL 3
REMARK VINA RESULT:    -5.422      2.542      5.362
REMARK INTER + INTRA:         -10.955
REMARK INTER:                  -9.063
REMARK INTRA:                  -1.891
REMARK UNBOUND:                -1.730
REMARK SMILES CCCCCCCCCCCCCC(=O)[O-]
REMARK SMILES IDX 8 1 9 2 10 3 11 4 12 5 13 6 14 7 15 8 16 9 7 10 6 11 5 12
REMARK SMILES IDX 4 13 3 14 2 15 1 16
REMARK H PARENT
REMARK Flexibility Score: inf
ROOT
ATOM      1  C   UNL     1      12.671 -13.671  36.914  1.00  0.00     0.000 C 
ENDROOT
BRANCH   1   2
ATOM      2  C   UNL     1      11.720 -14.879  36.860  1.00  0.00     0.000 C 
BRANCH   2   3
ATOM      3  C   UNL     1      10.243 -14.462  36.774  1.00  0.00     0.000 C 
BRANCH   3   4
ATOM      4  C   UNL     1       9.792 -13.632  37.989  1.00  0.00     0.000 C 
BRANCH   4   5
ATOM      5  C   UNL     1       8.362 -13.082  37.837  1.00  0.00     0.006 C 
BRANCH   5   6
ATOM      6  C   UNL     1       7.654 -13.503  36.539  1.00  0.00     0.053 C 
BRANCH   6   7
ATOM      7  C   UNL     1       7.443 -12.346  35.612  1.00  0.00     0.041 C 
ATOM      8  O   UNL     1       7.845 -12.407  34.420  1.00  0.00    -0.550 OA
ATOM      9  O   UNL     1       6.833 -11.186  36.073  1.00  0.00    -0.550 OA
ENDBRANCH   6   7
ENDBRANCH   5   6
ENDBRANCH   4   5
ENDBRANCH   3   4
ENDBRANCH   2   3
ENDBRANCH   1   2
BRANCH   1  10
ATOM     10  C   UNL     1      13.120 -13.214  35.516  1.00  0.00     0.000 C 
BRANCH  10  11
ATOM     11  C   UNL     1      12.947 -11.700  35.302  1.00  0.00    -0.000 C 
BRANCH  11  12
ATOM     12  C   UNL     1      11.481 -11.292  35.076  1.00  0.00    -0.000 C 
BRANCH  12  13
ATOM     13  C   UNL     1      10.841 -10.515  36.241  1.00  0.00    -0.000 C 
BRANCH  13  14
ATOM     14  C   UNL     1      11.881  -9.923  37.207  1.00  0.00    -0.000 C 
BRANCH  14  15
ATOM     15  C   UNL     1      11.725 -10.459  38.639  1.00  0.00    -0.003 C 
ATOM     16  C   UNL     1      13.011 -10.339  39.456  1.00  0.00     0.004 C 
ENDBRANCH  14  15
ENDBRANCH  13  14
ENDBRANCH  12  13
ENDBRANCH  11  12
ENDBRANCH  10  11
ENDBRANCH   1  10
TORSDOF 12
ENDMDL
MODEL 4
REMARK VINA RESULT:    -5.403      0.972      2.782
REMARK INTER + INTRA:         -10.923
REMARK INTER:                  -9.607
REMARK INTRA:                  -1.316
REMARK UNBOUND:                -1.730
REMARK SMILES CCCCCCCCCCCCCC(=O)[O-]
REMARK SMILES IDX 8 1 9 2 10 3 11 4 12 5 13 6 14 7 15 8 16 9 7 10 6 11 5 12
REMARK SMILES IDX 4 13 3 14 2 15 1 16
REMARK H PARENT
REMARK Flexibility Score: inf
ROOT
ATOM      1  C   UNL     1      12.219 -14.230  37.237  1.00  0.00     0.000 C 
ENDROOT
BRANCH   1   2
ATOM      2  C   UNL     1      12.683 -13.540  35.942  1.00  0.00     0.000 C 
BRANCH   2   3
ATOM      3  C   UNL     1      11.812 -12.327  35.577  1.00  0.00     0.000 C 
BRANCH   3   4
ATOM      4  C   UNL     1      12.648 -11.117  35.122  1.00  0.00     0.000 C 
BRANCH   4   5
ATOM      5  C   UNL     1      13.360 -10.413  36.291  1.00  0.00     0.006 C 
BRANCH   5   6
ATOM      6  C   UNL     1      12.426  -9.616  37.217  1.00  0.00     0.053 C 
BRANCH   6   7
ATOM      7  C   UNL     1      12.276 -10.266  38.559  1.00  0.00     0.041 C 
ATOM      8  O   UNL     1      13.193 -10.167  39.417  1.00  0.00    -0.550 OA
ATOM      9  O   UNL     1      11.140 -11.009  38.849  1.00  0.00    -0.550 OA
ENDBRANCH   6   7
ENDBRANCH   5   6
ENDBRANCH   4   5
ENDBRANCH   3   4
ENDBRANCH   2   3
ENDBRANCH   1   2
BRANCH   1  10
ATOM     10  C   UNL     1      10.990 -15.127  37.018  1.00  0.00     0.000 C 
BRANCH  10  11
ATOM     11  C   UNL     1       9.898 -14.910  38.080  1.00  0.00    -0.000 C 
BRANCH  11  12
ATOM     12  C   UNL     1       9.125 -13.594  37.881  1.00  0.00    -0.000 C 
BRANCH  12  13
ATOM     13  C   UNL     1       7.625 -13.767  37.580  1.00  0.00    -0.000 C 
BRANCH  13  14
ATOM     14  C   UNL     1       7.214 -13.165  36.225  1.00  0.00    -0.000 C 
BRANCH  14  15
ATOM     15  C   UNL     1       8.143 -13.602  35.082  1.00  0.00    -0.003 C 
ATOM     16  C   UNL     1       8.353 -12.503  34.042  1.00  0.00     0.004 C 
ENDBRANCH  14  15
ENDBRANCH  13  14
ENDBRANCH  12  13
ENDBRANCH  11  12
ENDBRANCH  10  11
ENDBRANCH   1  10
TORSDOF 12
ENDMDL
MODEL 5
REMARK VINA RESULT:    -5.393      2.368      5.708
REMARK INTER + INTRA:         -10.907
REMARK INTER:                  -9.469
REMARK INTRA:                  -1.437
REMARK UNBOUND:                -1.730
REMARK SMILES CCCCCCCCCCCCCC(=O)[O-]
REMARK SMILES IDX 8 1 9 2 10 3 11 4 12 5 13 6 14 7 15 8 16 9 7 10 6 11 5 12
REMARK SMILES IDX 4 13 3 14 2 15 1 16
REMARK H PARENT
REMARK Flexibility Score: inf
ROOT
ATOM      1  C   UNL     1      11.259 -14.818  36.784  1.00  0.00     0.000 C 
ENDROOT
BRANCH   1   2
ATOM      2  C   UNL     1      10.210 -14.551  37.878  1.00  0.00     0.000 C 
BRANCH   2   3
ATOM      3  C   UNL     1       9.986 -13.050  38.126  1.00  0.00     0.000 C 
BRANCH   3   4
ATOM      4  C   UNL     1       8.499 -12.658  38.066  1.00  0.00     0.000 C 
BRANCH   4   5
ATOM      5  C   UNL     1       7.691 -13.535  37.092  1.00  0.00     0.006 C 
BRANCH   5   6
ATOM      6  C   UNL     1       7.133 -12.783  35.873  1.00  0.00     0.053 C 
BRANCH   6   7
ATOM      7  C   UNL     1       8.027 -12.905  34.678  1.00  0.00     0.041 C 
ATOM      8  O   UNL     1       9.184 -12.406  34.699  1.00  0.00    -0.550 OA
ATOM      9  O   UNL     1       7.573 -13.538  33.529  1.00  0.00    -0.550 OA
ENDBRANCH   6   7
ENDBRANCH   5   6
ENDBRANCH   4   5
ENDBRANCH   3   4
ENDBRANCH   2   3
ENDBRANCH   1   2
BRANCH   1  10
ATOM     10  C   UNL     1      12.616 -14.168  37.100  1.00  0.00     0.000 C 
BRANCH  10  11
ATOM     11  C   UNL     1      13.228 -13.451  35.884  1.00  0.00    -0.000 C 
BRANCH  11  12
ATOM     12  C   UNL     1      12.524 -12.122  35.557  1.00  0.00    -0.000 C 
BRANCH  12  13
ATOM     13  C   UNL     1      13.470 -10.926  35.347  1.00  0.00    -0.000 C 
BRANCH  13  14
ATOM     14  C   UNL     1      13.576 -10.022  36.588  1.00  0.00    -0.000 C 
BRANCH  14  15
ATOM     15  C   UNL     1      12.404 -10.223  37.562  1.00  0.00    -0.003 C 
ATOM     16  C   UNL     1      12.868 -10.509  38.989  1.00  0.00     0.004 C 
ENDBRANCH  14  15
ENDBRANCH  13  14
ENDBRANCH  12  13
ENDBRANCH  11  12
ENDBRANCH  10  11
ENDBRANCH   1  10
TORSDOF 12
ENDMDL
MODEL 6
REMARK VINA RESULT:    -5.349      2.024      3.618
REMARK INTER + INTRA:         -10.831
REMARK INTER:                  -8.929
REMARK INTRA:                  -1.902
REMARK UNBOUND:                -1.730
REMARK SMILES CCCCCCCCCCCCCC(=O)[O-]
REMARK SMILES IDX 8 1 9 2 10 3 11 4 12 5 13 6 14 7 15 8 16 9 7 10 6 11 5 12
REMARK SMILES IDX 4 13 3 14 2 15 1 16
REMARK H PARENT
REMARK Flexibility Score: inf
ROOT
ATOM      1  C   UNL     1      10.246 -14.815  38.419  1.00  0.00     0.000 C 
ENDROOT
BRANCH   1   2
ATOM      2  C   UNL     1      10.606 -15.346  37.020  1.00  0.00     0.000 C 
BRANCH   2   3
ATOM      3  C   UNL     1      11.479 -14.362  36.224  1.00  0.00     0.000 C 
BRANCH   3   4
ATOM      4  C   UNL     1      12.721 -13.907  37.010  1.00  0.00     0.000 C 
BRANCH   4   5
ATOM      5  C   UNL     1      12.759 -12.384  37.235  1.00  0.00     0.006 C 
BRANCH   5   6
ATOM      6  C   UNL     1      11.737 -11.594  36.402  1.00  0.00     0.053 C 
BRANCH   6   7
ATOM      7  C   UNL     1      12.341 -11.036  35.151  1.00  0.00     0.041 C 
ATOM      8  O   UNL     1      13.561 -11.223  34.899  1.00  0.00    -0.550 OA
ATOM      9  O   UNL     1      11.567 -10.280  34.280  1.00  0.00    -0.550 OA
ENDBRANCH   6   7
ENDBRANCH   5   6
ENDBRANCH   4   5
ENDBRANCH   3   4
ENDBRANCH   2   3
ENDBRANCH   1   2
BRANCH   1  10
ATOM     10  C   UNL     1       8.853 -15.275  38.882  1.00  0.00     0.000 C 
BRANCH  10  11
ATOM     11  C   UNL     1       7.780 -14.187  38.707  1.00  0.00    -0.000 C 
BRANCH  11  12
ATOM     12  C   UNL     1       8.379 -12.786  38.490  1.00  0.00    -0.000 C 
BRANCH  12  13
ATOM     13  C   UNL     1       8.086 -12.167  37.111  1.00  0.00    -0.000 C 
BRANCH  13  14
ATOM     14  C   UNL     1       7.249 -13.089  36.207  1.00  0.00    -0.000 C 
BRANCH  14  15
ATOM     15  C   UNL     1       8.011 -13.524  34.946  1.00  0.00    -0.003 C 
ATOM     16  C   UNL     1       8.722 -12.361  34.256  1.00  0.00     0.004 C 
ENDBRANCH  14  15
ENDBRANCH  13  14
ENDBRANCH  12  13
ENDBRANCH  11  12
ENDBRANCH  10  11
ENDBRANCH   1  10
TORSDOF 12
ENDMDL
MODEL 7
REMARK VINA RESULT:    -5.327      2.120      3.526
REMARK INTER + INTRA:         -10.794
REMARK INTER:                  -9.233
REMARK INTRA:                  -1.560
REMARK UNBOUND:                -1.730
REMARK SMILES CCCCCCCCCCCCCC(=O)[O-]
REMARK SMILES IDX 8 1 9 2 10 3 11 4 12 5 13 6 14 7 15 8 16 9 7 10 6 11 5 12
REMARK SMILES IDX 4 13 3 14 2 15 1 16
REMARK H PARENT
REMARK Flexibility Score: inf
ROOT
ATOM      1  C   UNL     1      10.632 -15.058  36.679  1.00  0.00     0.000 C 
ENDROOT
BRANCH   1   2
ATOM      2  C   UNL     1      11.463 -13.842  36.230  1.00  0.00     0.000 C 
BRANCH   2   3
ATOM      3  C   UNL     1      12.882 -13.849  36.821  1.00  0.00     0.000 C 
BRANCH   3   4
ATOM      4  C   UNL     1      13.114 -12.694  37.811  1.00  0.00     0.000 C 
BRANCH   4   5
ATOM      5  C   UNL     1      12.597 -11.343  37.282  1.00  0.00     0.006 C 
BRANCH   5   6
ATOM      6  C   UNL     1      13.638 -10.525  36.502  1.00  0.00     0.053 C 
BRANCH   6   7
ATOM      7  C   UNL     1      13.576 -10.792  35.030  1.00  0.00     0.041 C 
ATOM      8  O   UNL     1      14.637 -10.930  34.365  1.00  0.00    -0.550 OA
ATOM      9  O   UNL     1      12.347 -10.853  34.384  1.00  0.00    -0.550 OA
ENDBRANCH   6   7
ENDBRANCH   5   6
ENDBRANCH   4   5
ENDBRANCH   3   4
ENDBRANCH   2   3
ENDBRANCH   1   2
BRANCH   1  10
ATOM     10  C   UNL     1      10.149 -14.935  38.133  1.00  0.00     0.000 C 
BRANCH  10  11
ATOM     11  C   UNL     1       9.338 -13.652  38.384  1.00  0.00    -0.000 C 
BRANCH  11  12
ATOM     12  C   UNL     1       7.823 -13.909  38.463  1.00  0.00    -0.000 C 
BRANCH  12  13
ATOM     13  C   UNL     1       7.082 -13.820  37.117  1.00  0.00    -0.000 C 
BRANCH  13  14
ATOM     14  C   UNL     1       7.662 -12.741  36.185  1.00  0.00    -0.000 C 
BRANCH  14  15
ATOM     15  C   UNL     1       7.893 -13.260  34.758  1.00  0.00    -0.003 C 
ATOM     16  C   UNL     1       8.742 -12.308  33.916  1.00  0.00     0.004 C 
ENDBRANCH  14  15
ENDBRANCH  13  14
ENDBRANCH  12  13
ENDBRANCH  11  12
ENDBRANCH  10  11
ENDBRANCH   1  10
TORSDOF 12
ENDMDL
MODEL 8
REMARK VINA RESULT:    -5.192      2.632      5.316
REMARK INTER + INTRA:         -10.564
REMARK INTER:                  -9.051
REMARK INTRA:                  -1.512
REMARK UNBOUND:                -1.730
REMARK SMILES CCCCCCCCCCCCCC(=O)[O-]
REMARK SMILES IDX 8 1 9 2 10 3 11 4 12 5 13 6 14 7 15 8 16 9 7 10 6 11 5 12
REMARK SMILES IDX 4 13 3 14 2 15 1 16
REMARK H PARENT
REMARK Flexibility Score: inf
ROOT
ATOM      1  C   UNL     1      11.074 -10.980  38.694  1.00  0.00     0.000 C 
ENDROOT
BRANCH   1   2
ATOM      2  C   UNL     1      10.039 -11.632  37.761  1.00  0.00     0.000 C 
BRANCH   2   3
ATOM      3  C   UNL     1       8.761 -12.056  38.504  1.00  0.00     0.000 C 
BRANCH   3   4
ATOM      4  C   UNL     1       8.359 -13.511  38.205  1.00  0.00     0.000 C 
BRANCH   4   5
ATOM      5  C   UNL     1       7.330 -13.622  37.065  1.00  0.00     0.006 C 
BRANCH   5   6
ATOM      6  C   UNL     1       7.945 -13.688  35.657  1.00  0.00     0.053 C 
BRANCH   6   7
ATOM      7  C   UNL     1       7.753 -12.410  34.900  1.00  0.00     0.041 C 
ATOM      8  O   UNL     1       8.309 -12.248  33.780  1.00  0.00    -0.550 OA
ATOM      9  O   UNL     1       6.992 -11.384  35.444  1.00  0.00    -0.550 OA
ENDBRANCH   6   7
ENDBRANCH   5   6
ENDBRANCH   4   5
ENDBRANCH   3   4
ENDBRANCH   2   3
ENDBRANCH   1   2
BRANCH   1  10
ATOM     10  C   UNL     1      12.159 -10.210  37.922  1.00  0.00     0.000 C 
BRANCH  10  11
ATOM     11  C   UNL     1      13.302 -11.119  37.439  1.00  0.00    -0.000 C 
BRANCH  11  12
ATOM     12  C   UNL     1      13.142 -11.553  35.972  1.00  0.00    -0.000 C 
BRANCH  12  13
ATOM     13  C   UNL     1      12.907 -13.061  35.768  1.00  0.00    -0.000 C 
BRANCH  13  14
ATOM     14  C   UNL     1      13.162 -13.884  37.043  1.00  0.00    -0.000 C 
BRANCH  14  15
ATOM     15  C   UNL     1      11.878 -14.518  37.599  1.00  0.00    -0.003 C 
ATOM     16  C   UNL     1      11.110 -15.314  36.545  1.00  0.00     0.004 C 
ENDBRANCH  14  15
ENDBRANCH  13  14
ENDBRANCH  12  13
ENDBRANCH  11  12
ENDBRANCH  10  11
ENDBRANCH   1  10
TORSDOF 12
ENDMDL
MODEL 9
REMARK VINA RESULT:    -5.190      1.928      3.229
REMARK INTER + INTRA:         -10.561
REMARK INTER:                  -8.905
REMARK INTRA:                  -1.656
REMARK UNBOUND:                -1.730
REMARK SMILES CCCCCCCCCCCCCC(=O)[O-]
REMARK SMILES IDX 8 1 9 2 10 3 11 4 12 5 13 6 14 7 15 8 16 9 7 10 6 11 5 12
REMARK SMILES IDX 4 13 3 14 2 15 1 16
REMARK H PARENT
REMARK Flexibility Score: inf
ROOT
ATOM      1  C   UNL     1      10.727 -11.713  38.454  1.00  0.00     0.000 C 
ENDROOT
BRANCH   1   2
ATOM      2  C   UNL     1      11.212 -10.452  39.191  1.00  0.00     0.000 C 
BRANCH   2   3
ATOM      3  C   UNL     1      12.701 -10.158  38.940  1.00  0.00     0.000 C 
BRANCH   3   4
ATOM      4  C   UNL     1      13.314 -11.090  37.880  1.00  0.00     0.000 C 
BRANCH   4   5
ATOM      5  C   UNL     1      13.667 -10.354  36.574  1.00  0.00     0.006 C 
BRANCH   5   6
ATOM      6  C   UNL     1      12.996 -10.933  35.317  1.00  0.00     0.053 C 
BRANCH   6   7
ATOM      7  C   UNL     1      11.577 -10.476  35.176  1.00  0.00     0.041 C 
ATOM      8  O   UNL     1      11.216  -9.371  35.662  1.00  0.00    -0.550 OA
ATOM      9  O   UNL     1      10.644 -11.285  34.540  1.00  0.00    -0.550 OA
ENDBRANCH   6   7
ENDBRANCH   5   6
ENDBRANCH   4   5
ENDBRANCH   3   4
ENDBRANCH   2   3
ENDBRANCH   1   2
BRANCH   1  10
ATOM     10  C   UNL     1       9.204 -11.724  38.247  1.00  0.00     0.000 C 
BRANCH  10  11
ATOM     11  C   UNL     1       8.609 -13.142  38.286  1.00  0.00    -0.000 C 
BRANCH  11  12
ATOM     12  C   UNL     1       8.075 -13.604  36.918  1.00  0.00    -0.000 C 
BRANCH  12  13
ATOM     13  C   UNL     1       9.155 -14.091  35.936  1.00  0.00    -0.000 C 
BRANCH  13  14
ATOM     14  C   UNL     1      10.308 -14.832  36.634  1.00  0.00    -0.000 C 
BRANCH  14  15
ATOM     15  C   UNL     1      11.687 -14.281  36.237  1.00  0.00    -0.003 C 
ATOM     16  C   UNL     1      12.755 -14.546  37.297  1.00  0.00     0.004 C 
ENDBRANCH  14  15
ENDBRANCH  13  14
ENDBRANCH  12  13
ENDBRANCH  11  12
ENDBRANCH  10  11
ENDBRANCH   1  10
TORSDOF 12
ENDMDL
