MODEL 1
REMARK VINA RESULT:    45.119      0.000      0.000
REMARK INTER + INTRA:          78.720
REMARK INTER:                  71.496
REMARK INTRA:                   7.224
REMARK UNBOUND:                 7.224
REMARK SMILES C[C@H]1O[C@@H](O[C@H]2[C@H](Oc3cc(O)c4c(c3)O[C@@H](c3ccc(O)cc3)CC4=O)O[C@@H](CO)[C@@H](O)[C@H]2O)[C@@H](O)[C@H](O)[C@@H]1O
REMARK SMILES IDX 6 1 34 2 32 3 29 4 28 5 7 6 5 7 4 8 1 9 2 10 40 11 3 12
REMARK SMILES IDX 38 13 36 14 41 15 39 17 37 19 35 21 8 23 9 24 10 25 15 26
REMARK SMILES IDX 11 27 14 28 13 29 16 30 26 31 17 32 27 33 25 34 12 35 18 37
REMARK SMILES IDX 19 38 24 39 20 40 23 41 21 42 22 43 33 45 30 47 31 48
REMARK H PARENT 41 16 39 18 37 20 35 22 12 36 22 44 33 46 31 49
REMARK Flexibility Score: inf
ROOT
ATOM      1  C   UNL     1      -6.189   5.187  16.513  1.00  0.00     0.221 C 
ATOM      2  C   UNL     1      -7.578   4.663  16.053  1.00  0.00     0.181 C 
ATOM      3  C   UNL     1      -8.043   5.360  14.782  1.00  0.00     0.177 C 
ATOM      4  C   UNL     1      -7.983   6.862  15.057  1.00  0.00     0.179 C 
ATOM      5  O   UNL     1      -6.642   7.310  15.081  1.00  0.00    -0.332 OA
ATOM      6  C   UNL     1      -5.815   6.650  16.041  1.00  0.00     0.339 C 
ENDROOT
BRANCH   1   7
ATOM      7  O   UNL     1      -5.193   4.268  16.085  1.00  0.00    -0.337 OA
BRANCH   7   8
ATOM      8  C   UNL     1      -5.672   3.066  15.509  1.00  0.00     0.282 C 
ATOM      9  C   UNL     1      -2.658   2.874  16.495  1.00  0.00     0.041 C 
ATOM     10  C   UNL     1      -3.529   2.002  15.586  1.00  0.00     0.150 C 
ATOM     11  C   UNL     1      -3.280   2.288  14.063  1.00  0.00     0.174 C 
ATOM     12  O   UNL     1      -4.897   1.983  16.012  1.00  0.00    -0.344 OA
ATOM     13  C   UNL     1      -4.235   3.352  13.491  1.00  0.00     0.179 C 
ATOM     14  C   UNL     1      -5.643   3.023  13.966  1.00  0.00     0.202 C 
BRANCH  11  15
ATOM     15  O   UNL     1      -3.445   1.076  13.349  1.00  0.00    -0.388 OA
ATOM     16  H   UNL     1      -4.422   0.887  13.327  1.00  0.00     0.211 HD
ENDBRANCH  11  15
BRANCH  13  17
ATOM     17  O   UNL     1      -4.178   3.366  12.081  1.00  0.00    -0.387 OA
ATOM     18  H   UNL     1      -4.590   2.520  11.780  1.00  0.00     0.211 HD
ENDBRANCH  13  17
BRANCH  14  19
ATOM     19  O   UNL     1      -6.601   3.858  13.382  1.00  0.00    -0.385 OA
ATOM     20  H   UNL     1      -6.765   3.514  12.459  1.00  0.00     0.211 HD
ENDBRANCH  14  19
ENDBRANCH   7   8
ENDBRANCH   1   7
BRANCH   2  21
ATOM     21  O   UNL     1      -7.537   3.268  15.840  1.00  0.00    -0.387 OA
ATOM     22  H   UNL     1      -6.602   3.040  15.582  1.00  0.00     0.211 HD
ENDBRANCH   2  21
BRANCH   6  23
ATOM     23  O   UNL     1      -5.527   7.513  17.154  1.00  0.00    -0.462 OA
BRANCH  23  24
ATOM     24  C   UNL     1      -6.362   8.526  17.647  1.00  0.00     0.130 A 
ATOM     25  C   UNL     1      -7.070   8.373  18.842  1.00  0.00     0.093 A 
ATOM     26  C   UNL     1      -6.593   9.659  16.869  1.00  0.00     0.094 A 
ATOM     27  C   UNL     1      -7.919   9.373  19.313  1.00  0.00     0.133 A 
ATOM     28  C   UNL     1      -7.445  10.669  17.325  1.00  0.00     0.138 A 
ATOM     29  C   UNL     1      -8.059  10.565  18.580  1.00  0.00     0.102 A 
ATOM     30  O   UNL     1      -7.710  11.773  16.503  1.00  0.00    -0.484 OA
ATOM     31  C   UNL     1      -8.865  11.716  19.035  1.00  0.00     0.174 C 
ATOM     32  C   UNL     1      -8.446  12.941  16.917  1.00  0.00     0.211 C 
ATOM     33  O   UNL     1      -9.019  11.954  20.265  1.00  0.00    -0.294 OA
ATOM     34  C   UNL     1      -9.481  12.623  18.015  1.00  0.00     0.131 C 
BRANCH  27  35
ATOM     35  O   UNL     1      -8.661   9.114  20.467  1.00  0.00    -0.507 OA
ATOM     36  H   UNL     1      -8.359   8.449  21.176  1.00  0.00     0.293 HD
ENDBRANCH  27  35
BRANCH  32  37
ATOM     37  C   UNL     1      -9.146  13.545  15.710  1.00  0.00    -0.007 A 
ATOM     38  C   UNL     1      -9.163  12.856  14.480  1.00  0.00     0.011 A 
ATOM     39  C   UNL     1      -9.880  14.736  15.827  1.00  0.00     0.011 A 
ATOM     40  C   UNL     1      -9.921  13.339  13.405  1.00  0.00     0.046 A 
ATOM     41  C   UNL     1     -10.640  15.216  14.754  1.00  0.00     0.046 A 
ATOM     42  C   UNL     1     -10.669  14.518  13.541  1.00  0.00     0.115 A 
BRANCH  42  43
ATOM     43  O   UNL     1     -11.408  14.991  12.458  1.00  0.00    -0.508 OA
ATOM     44  H   UNL     1     -12.247  14.508  12.158  1.00  0.00     0.293 HD
ENDBRANCH  42  43
ENDBRANCH  32  37
ENDBRANCH  23  24
ENDBRANCH   6  23
BRANCH   3  45
ATOM     45  O   UNL     1      -7.208   5.019  13.695  1.00  0.00    -0.387 OA
ATOM     46  H   UNL     1      -7.088   5.852  13.159  1.00  0.00     0.211 HD
ENDBRANCH   3  45
BRANCH   4  47
ATOM     47  C   UNL     1      -8.738   7.669  13.990  1.00  0.00     0.191 C 
BRANCH  47  48
ATOM     48  O   UNL     1      -8.275   8.993  13.975  1.00  0.00    -0.394 OA
ATOM     49  H   UNL     1      -7.943   9.181  13.060  1.00  0.00     0.210 HD
ENDBRANCH  47  48
ENDBRANCH   4  47
TORSDOF 14
ENDMDL
MODEL 2
REMARK VINA RESULT:    46.814      0.969      1.798
REMARK INTER + INTRA:          81.406
REMARK INTER:                  82.616
REMARK INTRA:                  -1.210
REMARK UNBOUND:                 7.224
REMARK SMILES C[C@H]1O[C@@H](O[C@H]2[C@H](Oc3cc(O)c4c(c3)O[C@@H](c3ccc(O)cc3)CC4=O)O[C@@H](CO)[C@@H](O)[C@H]2O)[C@@H](O)[C@H](O)[C@@H]1O
REMARK SMILES IDX 6 1 34 2 32 3 29 4 28 5 7 6 5 7 4 8 1 9 2 10 40 11 3 12
REMARK SMILES IDX 38 13 36 14 41 15 39 17 37 19 35 21 8 23 9 24 10 25 15 26
REMARK SMILES IDX 11 27 14 28 13 29 16 30 26 31 17 32 27 33 25 34 12 35 18 37
REMARK SMILES IDX 19 38 24 39 20 40 23 41 21 42 22 43 33 45 30 47 31 48
REMARK H PARENT 41 16 39 18 37 20 35 22 12 36 22 44 33 46 31 49
REMARK Flexibility Score: inf
ROOT
ATOM      1  C   UNL     1      -6.669   5.160  16.175  1.00  0.00     0.221 C 
ATOM      2  C   UNL     1      -8.094   4.858  15.634  1.00  0.00     0.181 C 
ATOM      3  C   UNL     1      -8.392   5.656  14.372  1.00  0.00     0.177 C 
ATOM      4  C   UNL     1      -8.132   7.124  14.708  1.00  0.00     0.179 C 
ATOM      5  O   UNL     1      -6.744   7.373  14.809  1.00  0.00    -0.332 OA
ATOM      6  C   UNL     1      -6.067   6.569  15.778  1.00  0.00     0.339 C 
ENDROOT
BRANCH   1   7
ATOM      7  O   UNL     1      -5.794   4.122  15.756  1.00  0.00    -0.337 OA
BRANCH   7   8
ATOM      8  C   UNL     1      -4.479   4.177  16.280  1.00  0.00     0.282 C 
ATOM      9  C   UNL     1      -4.629   2.845  13.400  1.00  0.00     0.041 C 
ATOM     10  C   UNL     1      -3.552   2.890  14.488  1.00  0.00     0.150 C 
ATOM     11  C   UNL     1      -3.534   1.591  15.368  1.00  0.00     0.174 C 
ATOM     12  O   UNL     1      -3.557   4.136  15.196  1.00  0.00    -0.344 OA
ATOM     13  C   UNL     1      -4.414   1.709  16.625  1.00  0.00     0.179 C 
ATOM     14  C   UNL     1      -4.125   3.053  17.278  1.00  0.00     0.202 C 
BRANCH  11  15
ATOM     15  O   UNL     1      -2.195   1.332  15.754  1.00  0.00    -0.388 OA
ATOM     16  H   UNL     1      -2.152   0.372  16.010  1.00  0.00     0.211 HD
ENDBRANCH  11  15
BRANCH  13  17
ATOM     17  O   UNL     1      -4.145   0.653  17.523  1.00  0.00    -0.387 OA
ATOM     18  H   UNL     1      -4.405   0.981  18.419  1.00  0.00     0.211 HD
ENDBRANCH  13  17
BRANCH  14  19
ATOM     19  O   UNL     1      -4.779   3.191  18.505  1.00  0.00    -0.385 OA
ATOM     20  H   UNL     1      -4.869   2.275  18.894  1.00  0.00     0.211 HD
ENDBRANCH  14  19
ENDBRANCH   7   8
ENDBRANCH   1   7
BRANCH   2  21
ATOM     21  O   UNL     1      -8.242   3.480  15.369  1.00  0.00    -0.387 OA
ATOM     22  H   UNL     1      -8.249   3.372  14.379  1.00  0.00     0.211 HD
ENDBRANCH   2  21
BRANCH   6  23
ATOM     23  O   UNL     1      -5.714   7.344  16.936  1.00  0.00    -0.462 OA
BRANCH  23  24
ATOM     24  C   UNL     1      -6.467   8.392  17.484  1.00  0.00     0.130 A 
ATOM     25  C   UNL     1      -7.109   8.262  18.719  1.00  0.00     0.093 A 
ATOM     26  C   UNL     1      -6.688   9.544  16.730  1.00  0.00     0.094 A 
ATOM     27  C   UNL     1      -7.879   9.298  19.246  1.00  0.00     0.133 A 
ATOM     28  C   UNL     1      -7.460  10.589  17.244  1.00  0.00     0.138 A 
ATOM     29  C   UNL     1      -8.002  10.503  18.532  1.00  0.00     0.102 A 
ATOM     30  O   UNL     1      -7.717  11.713  16.447  1.00  0.00    -0.484 OA
ATOM     31  C   UNL     1      -8.722  11.687  19.042  1.00  0.00     0.174 C 
ATOM     32  C   UNL     1      -8.369  12.911  16.913  1.00  0.00     0.211 C 
ATOM     33  O   UNL     1      -8.790  11.920  20.281  1.00  0.00    -0.294 OA
ATOM     34  C   UNL     1      -9.351  12.634  18.068  1.00  0.00     0.131 C 
BRANCH  27  35
ATOM     35  O   UNL     1      -8.563   9.064  20.441  1.00  0.00    -0.507 OA
ATOM     36  H   UNL     1      -8.155   9.255  21.354  1.00  0.00     0.293 HD
ENDBRANCH  27  35
BRANCH  32  37
ATOM     37  C   UNL     1      -9.109  13.562  15.753  1.00  0.00    -0.007 A 
ATOM     38  C   UNL     1      -9.206  12.900  14.512  1.00  0.00     0.011 A 
ATOM     39  C   UNL     1      -9.800  14.771  15.930  1.00  0.00     0.011 A 
ATOM     40  C   UNL     1     -10.000  13.428  13.486  1.00  0.00     0.046 A 
ATOM     41  C   UNL     1     -10.596  15.295  14.906  1.00  0.00     0.046 A 
ATOM     42  C   UNL     1     -10.705  14.624  13.683  1.00  0.00     0.115 A 
BRANCH  42  43
ATOM     43  O   UNL     1     -11.481  15.142  12.646  1.00  0.00    -0.508 OA
ATOM     44  H   UNL     1     -11.967  16.025  12.761  1.00  0.00     0.293 HD
ENDBRANCH  42  43
ENDBRANCH  32  37
ENDBRANCH  23  24
ENDBRANCH   6  23
BRANCH   3  45
ATOM     45  O   UNL     1      -7.562   5.234  13.310  1.00  0.00    -0.387 OA
ATOM     46  H   UNL     1      -6.996   4.495  13.671  1.00  0.00     0.211 HD
ENDBRANCH   3  45
BRANCH   4  47
ATOM     47  C   UNL     1      -8.711   8.066  13.643  1.00  0.00     0.191 C 
BRANCH  47  48
ATOM     48  O   UNL     1      -8.478   9.401  14.006  1.00  0.00    -0.394 OA
ATOM     49  H   UNL     1      -8.471   9.939  13.173  1.00  0.00     0.210 HD
ENDBRANCH  47  48
ENDBRANCH   4  47
TORSDOF 14
ENDMDL
MODEL 3
REMARK VINA RESULT:    47.348      3.564      6.076
REMARK INTER + INTRA:          82.252
REMARK INTER:                  83.659
REMARK INTRA:                  -1.407
REMARK UNBOUND:                 7.224
REMARK SMILES C[C@H]1O[C@@H](O[C@H]2[C@H](Oc3cc(O)c4c(c3)O[C@@H](c3ccc(O)cc3)CC4=O)O[C@@H](CO)[C@@H](O)[C@H]2O)[C@@H](O)[C@H](O)[C@@H]1O
REMARK SMILES IDX 6 1 34 2 32 3 29 4 28 5 7 6 5 7 4 8 1 9 2 10 40 11 3 12
REMARK SMILES IDX 38 13 36 14 41 15 39 17 37 19 35 21 8 23 9 24 10 25 15 26
REMARK SMILES IDX 11 27 14 28 13 29 16 30 26 31 17 32 27 33 25 34 12 35 18 37
REMARK SMILES IDX 19 38 24 39 20 40 23 41 21 42 22 43 33 45 30 47 31 48
REMARK H PARENT 41 16 39 18 37 20 35 22 12 36 22 44 33 46 31 49
REMARK Flexibility Score: inf
ROOT
ATOM      1  C   UNL     1      -5.898   7.247  16.517  1.00  0.00     0.221 C 
ATOM      2  C   UNL     1      -5.917   7.901  15.107  1.00  0.00     0.181 C 
ATOM      3  C   UNL     1      -4.606   8.613  14.806  1.00  0.00     0.177 C 
ATOM      4  C   UNL     1      -4.357   9.584  15.960  1.00  0.00     0.179 C 
ATOM      5  O   UNL     1      -3.970   8.883  17.125  1.00  0.00    -0.332 OA
ATOM      6  C   UNL     1      -4.910   7.901  17.566  1.00  0.00     0.339 C 
ENDROOT
BRANCH   1   7
ATOM      7  O   UNL     1      -5.607   5.863  16.372  1.00  0.00    -0.337 OA
BRANCH   7   8
ATOM      8  C   UNL     1      -6.631   4.974  16.781  1.00  0.00     0.282 C 
ATOM      9  C   UNL     1      -3.953   3.498  15.922  1.00  0.00     0.041 C 
ATOM     10  C   UNL     1      -5.390   3.024  16.159  1.00  0.00     0.150 C 
ATOM     11  C   UNL     1      -6.200   2.877  14.823  1.00  0.00     0.174 C 
ATOM     12  O   UNL     1      -6.029   3.758  17.211  1.00  0.00    -0.344 OA
ATOM     13  C   UNL     1      -6.977   4.153  14.452  1.00  0.00     0.179 C 
ATOM     14  C   UNL     1      -7.688   4.651  15.703  1.00  0.00     0.202 C 
BRANCH  11  15
ATOM     15  O   UNL     1      -7.108   1.800  14.970  1.00  0.00    -0.388 OA
ATOM     16  H   UNL     1      -7.411   1.554  14.054  1.00  0.00     0.211 HD
ENDBRANCH  11  15
BRANCH  13  17
ATOM     17  O   UNL     1      -7.908   3.889  13.425  1.00  0.00    -0.387 OA
ATOM     18  H   UNL     1      -8.027   4.740  12.936  1.00  0.00     0.211 HD
ENDBRANCH  13  17
BRANCH  14  19
ATOM     19  O   UNL     1      -8.532   5.732  15.430  1.00  0.00    -0.385 OA
ATOM     20  H   UNL     1      -9.463   5.434  15.632  1.00  0.00     0.211 HD
ENDBRANCH  14  19
ENDBRANCH   7   8
ENDBRANCH   1   7
BRANCH   2  21
ATOM     21  O   UNL     1      -6.168   6.931  14.113  1.00  0.00    -0.387 OA
ATOM     22  H   UNL     1      -6.913   6.359  14.445  1.00  0.00     0.211 HD
ENDBRANCH   2  21
BRANCH   6  23
ATOM     23  O   UNL     1      -5.601   8.342  18.747  1.00  0.00    -0.462 OA
BRANCH  23  24
ATOM     24  C   UNL     1      -6.955   8.698  18.823  1.00  0.00     0.130 A 
ATOM     25  C   UNL     1      -7.355  10.035  18.903  1.00  0.00     0.093 A 
ATOM     26  C   UNL     1      -7.919   7.700  18.952  1.00  0.00     0.094 A 
ATOM     27  C   UNL     1      -8.701  10.382  19.008  1.00  0.00     0.133 A 
ATOM     28  C   UNL     1      -9.272   8.032  19.060  1.00  0.00     0.138 A 
ATOM     29  C   UNL     1      -9.678   9.372  19.019  1.00  0.00     0.102 A 
ATOM     30  O   UNL     1     -10.220   7.016  19.246  1.00  0.00    -0.484 OA
ATOM     31  C   UNL     1     -11.131   9.637  19.039  1.00  0.00     0.174 C 
ATOM     32  C   UNL     1     -11.647   7.217  19.223  1.00  0.00     0.211 C 
ATOM     33  O   UNL     1     -11.606  10.681  18.512  1.00  0.00    -0.294 OA
ATOM     34  C   UNL     1     -12.046   8.636  19.673  1.00  0.00     0.131 C 
BRANCH  27  35
ATOM     35  O   UNL     1      -9.019  11.732  19.173  1.00  0.00    -0.507 OA
ATOM     36  H   UNL     1      -8.668  12.287  19.950  1.00  0.00     0.293 HD
ENDBRANCH  27  35
BRANCH  32  37
ATOM     37  C   UNL     1     -12.312   6.186  20.122  1.00  0.00    -0.007 A 
ATOM     38  C   UNL     1     -13.571   5.651  19.779  1.00  0.00     0.011 A 
ATOM     39  C   UNL     1     -11.639   5.666  21.239  1.00  0.00     0.011 A 
ATOM     40  C   UNL     1     -14.125   4.603  20.525  1.00  0.00     0.046 A 
ATOM     41  C   UNL     1     -12.193   4.617  21.982  1.00  0.00     0.046 A 
ATOM     42  C   UNL     1     -13.433   4.076  21.625  1.00  0.00     0.115 A 
BRANCH  42  43
ATOM     43  O   UNL     1     -14.004   3.042  22.365  1.00  0.00    -0.508 OA
ATOM     44  H   UNL     1     -13.776   2.925  23.346  1.00  0.00     0.293 HD
ENDBRANCH  42  43
ENDBRANCH  32  37
ENDBRANCH  23  24
ENDBRANCH   6  23
BRANCH   3  45
ATOM     45  O   UNL     1      -3.548   7.683  14.702  1.00  0.00    -0.387 OA
ATOM     46  H   UNL     1      -3.275   7.672  13.742  1.00  0.00     0.211 HD
ENDBRANCH   3  45
BRANCH   4  47
ATOM     47  C   UNL     1      -3.257  10.600  15.625  1.00  0.00     0.191 C 
BRANCH  47  48
ATOM     48  O   UNL     1      -2.037   9.937  15.424  1.00  0.00    -0.394 OA
ATOM     49  H   UNL     1      -2.171   9.284  14.689  1.00  0.00     0.210 HD
ENDBRANCH  47  48
ENDBRANCH   4  47
TORSDOF 14
ENDMDL
MODEL 4
REMARK VINA RESULT:    47.885      2.865      3.381
REMARK INTER + INTRA:          83.103
REMARK INTER:                  78.129
REMARK INTRA:                   4.974
REMARK UNBOUND:                 7.224
REMARK SMILES C[C@H]1O[C@@H](O[C@H]2[C@H](Oc3cc(O)c4c(c3)O[C@@H](c3ccc(O)cc3)CC4=O)O[C@@H](CO)[C@@H](O)[C@H]2O)[C@@H](O)[C@H](O)[C@@H]1O
REMARK SMILES IDX 6 1 34 2 32 3 29 4 28 5 7 6 5 7 4 8 1 9 2 10 40 11 3 12
REMARK SMILES IDX 38 13 36 14 41 15 39 17 37 19 35 21 8 23 9 24 10 25 15 26
REMARK SMILES IDX 11 27 14 28 13 29 16 30 26 31 17 32 27 33 25 34 12 35 18 37
REMARK SMILES IDX 19 38 24 39 20 40 23 41 21 42 22 43 33 45 30 47 31 48
REMARK H PARENT 41 16 39 18 37 20 35 22 12 36 22 44 33 46 31 49
REMARK Flexibility Score: inf
ROOT
ATOM      1  C   UNL     1      -6.349   4.484  16.695  1.00  0.00     0.221 C 
ATOM      2  C   UNL     1      -7.598   3.834  16.039  1.00  0.00     0.181 C 
ATOM      3  C   UNL     1      -7.979   4.540  14.744  1.00  0.00     0.177 C 
ATOM      4  C   UNL     1      -8.128   6.024  15.081  1.00  0.00     0.179 C 
ATOM      5  O   UNL     1      -6.863   6.616  15.296  1.00  0.00    -0.332 OA
ATOM      6  C   UNL     1      -6.091   6.002  16.331  1.00  0.00     0.339 C 
ENDROOT
BRANCH   1   7
ATOM      7  O   UNL     1      -5.206   3.705  16.368  1.00  0.00    -0.337 OA
BRANCH   7   8
ATOM      8  C   UNL     1      -5.433   2.625  15.478  1.00  0.00     0.282 C 
ATOM      9  C   UNL     1      -2.907   2.198  17.356  1.00  0.00     0.041 C 
ATOM     10  C   UNL     1      -3.404   1.508  16.082  1.00  0.00     0.150 C 
ATOM     11  C   UNL     1      -2.677   2.034  14.794  1.00  0.00     0.174 C 
ATOM     12  O   UNL     1      -4.835   1.455  16.025  1.00  0.00    -0.344 OA
ATOM     13  C   UNL     1      -3.422   3.200  14.121  1.00  0.00     0.179 C 
ATOM     14  C   UNL     1      -4.897   2.834  14.045  1.00  0.00     0.202 C 
BRANCH  11  15
ATOM     15  O   UNL     1      -2.561   0.959  13.879  1.00  0.00    -0.388 OA
ATOM     16  H   UNL     1      -3.188   0.250  14.188  1.00  0.00     0.211 HD
ENDBRANCH  11  15
BRANCH  13  17
ATOM     17  O   UNL     1      -2.905   3.444  12.831  1.00  0.00    -0.387 OA
ATOM     18  H   UNL     1      -2.221   2.748  12.673  1.00  0.00     0.211 HD
ENDBRANCH  13  17
BRANCH  14  19
ATOM     19  O   UNL     1      -5.635   3.778  13.323  1.00  0.00    -0.385 OA
ATOM     20  H   UNL     1      -5.959   3.324  12.495  1.00  0.00     0.211 HD
ENDBRANCH  14  19
ENDBRANCH   7   8
ENDBRANCH   1   7
BRANCH   2  21
ATOM     21  O   UNL     1      -7.369   2.466  15.781  1.00  0.00    -0.387 OA
ATOM     22  H   UNL     1      -6.388   2.355  15.644  1.00  0.00     0.211 HD
ENDBRANCH   2  21
BRANCH   6  23
ATOM     23  O   UNL     1      -6.048   6.832  17.504  1.00  0.00    -0.462 OA
BRANCH  23  24
ATOM     24  C   UNL     1      -6.258   8.218  17.539  1.00  0.00     0.130 A 
ATOM     25  C   UNL     1      -7.497   8.761  17.894  1.00  0.00     0.093 A 
ATOM     26  C   UNL     1      -5.254   9.073  17.088  1.00  0.00     0.094 A 
ATOM     27  C   UNL     1      -7.707  10.138  17.900  1.00  0.00     0.133 A 
ATOM     28  C   UNL     1      -5.452  10.457  17.085  1.00  0.00     0.138 A 
ATOM     29  C   UNL     1      -6.653  11.003  17.557  1.00  0.00     0.102 A 
ATOM     30  O   UNL     1      -4.452  11.296  16.575  1.00  0.00    -0.484 OA
ATOM     31  C   UNL     1      -6.748  12.475  17.615  1.00  0.00     0.174 C 
ATOM     32  C   UNL     1      -4.475  12.735  16.653  1.00  0.00     0.211 C 
ATOM     33  O   UNL     1      -7.506  13.043  18.449  1.00  0.00    -0.294 OA
ATOM     34  C   UNL     1      -5.910  13.298  16.686  1.00  0.00     0.131 C 
BRANCH  27  35
ATOM     35  O   UNL     1      -8.994  10.604  18.180  1.00  0.00    -0.507 OA
ATOM     36  H   UNL     1      -9.187  11.269  18.926  1.00  0.00     0.293 HD
ENDBRANCH  27  35
BRANCH  32  37
ATOM     37  C   UNL     1      -3.722  13.314  15.465  1.00  0.00    -0.007 A 
ATOM     38  C   UNL     1      -2.795  12.522  14.758  1.00  0.00     0.011 A 
ATOM     39  C   UNL     1      -4.018  14.599  14.984  1.00  0.00     0.011 A 
ATOM     40  C   UNL     1      -2.203  13.000  13.582  1.00  0.00     0.046 A 
ATOM     41  C   UNL     1      -3.428  15.075  13.808  1.00  0.00     0.046 A 
ATOM     42  C   UNL     1      -2.524  14.277  13.099  1.00  0.00     0.115 A 
BRANCH  42  43
ATOM     43  O   UNL     1      -1.915  14.744  11.934  1.00  0.00    -0.508 OA
ATOM     44  H   UNL     1      -0.937  15.009  11.937  1.00  0.00     0.293 HD
ENDBRANCH  42  43
ENDBRANCH  32  37
ENDBRANCH  23  24
ENDBRANCH   6  23
BRANCH   3  45
ATOM     45  O   UNL     1      -6.979   4.351  13.764  1.00  0.00    -0.387 OA
ATOM     46  H   UNL     1      -6.424   3.581  14.071  1.00  0.00     0.211 HD
ENDBRANCH   3  45
BRANCH   4  47
ATOM     47  C   UNL     1      -8.833   6.796  13.956  1.00  0.00     0.191 C 
BRANCH  47  48
ATOM     48  O   UNL     1      -8.345   8.111  13.900  1.00  0.00    -0.394 OA
ATOM     49  H   UNL     1      -7.745   8.239  14.679  1.00  0.00     0.210 HD
ENDBRANCH  47  48
ENDBRANCH   4  47
TORSDOF 14
ENDMDL
