MODEL 1
REMARK VINA RESULT:    -4.780      0.000      0.000
REMARK INTER + INTRA:          -5.255
REMARK INTER:                  -5.200
REMARK INTRA:                  -0.055
REMARK UNBOUND:                -0.055
REMARK SMILES CCc1cccc(O)c1
REMARK SMILES IDX 3 1 9 2 7 3 6 4 5 5 4 6 2 7 1 8 8 9
REMARK H PARENT 8 10
REMARK Flexibility Score: inf
ROOT
ATOM      1  C   UNL     1      21.066  33.946  34.687  1.00  0.00    -0.045 A 
ATOM      2  C   UNL     1      21.884  32.860  35.039  1.00  0.00     0.049 A 
ATOM      3  C   UNL     1      21.567  32.066  36.150  1.00  0.00     0.115 A 
ATOM      4  C   UNL     1      20.425  32.353  36.906  1.00  0.00     0.046 A 
ATOM      5  C   UNL     1      19.600  33.423  36.552  1.00  0.00     0.004 A 
ATOM      6  C   UNL     1      19.915  34.215  35.444  1.00  0.00     0.004 A 
ENDROOT
BRANCH   1   7
ATOM      7  C   UNL     1      21.388  34.778  33.474  1.00  0.00     0.032 C 
ATOM      8  C   UNL     1      20.634  34.266  32.252  1.00  0.00     0.009 C 
ENDBRANCH   1   7
BRANCH   3   9
ATOM      9  O   UNL     1      22.377  30.991  36.510  1.00  0.00    -0.508 OA
ATOM     10  H   UNL     1      22.709  30.873  37.461  1.00  0.00     0.293 HD
ENDBRANCH   3   9
TORSDOF 2
ENDMDL
MODEL 2
REMARK VINA RESULT:    -4.541     17.864     19.070
REMARK INTER + INTRA:          -4.994
REMARK INTER:                  -4.925
REMARK INTRA:                  -0.069
REMARK UNBOUND:                -0.055
REMARK SMILES CCc1cccc(O)c1
REMARK SMILES IDX 3 1 9 2 7 3 6 4 5 5 4 6 2 7 1 8 8 9
REMARK H PARENT 8 10
REMARK Flexibility Score: inf
ROOT
ATOM      1  C   UNL     1      21.463  22.861  20.203  1.00  0.00    -0.045 A 
ATOM      2  C   UNL     1      20.233  23.540  20.246  1.00  0.00     0.049 A 
ATOM      3  C   UNL     1      19.636  23.999  19.064  1.00  0.00     0.115 A 
ATOM      4  C   UNL     1      20.264  23.772  17.835  1.00  0.00     0.046 A 
ATOM      5  C   UNL     1      21.479  23.086  17.784  1.00  0.00     0.004 A 
ATOM      6  C   UNL     1      22.076  22.628  18.961  1.00  0.00     0.004 A 
ENDROOT
BRANCH   1   7
ATOM      7  C   UNL     1      22.088  22.340  21.469  1.00  0.00     0.032 C 
ATOM      8  C   UNL     1      22.456  20.867  21.322  1.00  0.00     0.009 C 
ENDBRANCH   1   7
BRANCH   3   9
ATOM      9  O   UNL     1      18.420  24.678  19.100  1.00  0.00    -0.508 OA
ATOM     10  H   UNL     1      17.645  24.347  19.662  1.00  0.00     0.293 HD
ENDBRANCH   3   9
TORSDOF 2
ENDMDL
MODEL 3
REMARK VINA RESULT:    -4.465     23.242     24.074
REMARK INTER + INTRA:          -4.912
REMARK INTER:                  -4.865
REMARK INTRA:                  -0.046
REMARK UNBOUND:                -0.055
REMARK SMILES CCc1cccc(O)c1
REMARK SMILES IDX 3 1 9 2 7 3 6 4 5 5 4 6 2 7 1 8 8 9
REMARK H PARENT 8 10
REMARK Flexibility Score: inf
ROOT
ATOM      1  C   UNL     1      31.764  15.631  22.086  1.00  0.00    -0.045 A 
ATOM      2  C   UNL     1      30.412  16.013  22.106  1.00  0.00     0.049 A 
ATOM      3  C   UNL     1      29.638  15.817  23.259  1.00  0.00     0.115 A 
ATOM      4  C   UNL     1      30.219  15.246  24.396  1.00  0.00     0.046 A 
ATOM      5  C   UNL     1      31.565  14.877  24.387  1.00  0.00     0.004 A 
ATOM      6  C   UNL     1      32.339  15.072  23.239  1.00  0.00     0.004 A 
ENDROOT
BRANCH   1   7
ATOM      7  C   UNL     1      32.603  15.872  20.860  1.00  0.00     0.032 C 
ATOM      8  C   UNL     1      32.250  14.878  19.760  1.00  0.00     0.009 C 
ENDBRANCH   1   7
BRANCH   3   9
ATOM      9  O   UNL     1      28.295  16.187  23.284  1.00  0.00    -0.508 OA
ATOM     10  H   UNL     1      27.897  16.783  22.568  1.00  0.00     0.293 HD
ENDBRANCH   3   9
TORSDOF 2
ENDMDL
MODEL 4
REMARK VINA RESULT:    -4.435      2.061      3.870
REMARK INTER + INTRA:          -4.878
REMARK INTER:                  -4.804
REMARK INTRA:                  -0.074
REMARK UNBOUND:                -0.055
REMARK SMILES CCc1cccc(O)c1
REMARK SMILES IDX 3 1 9 2 7 3 6 4 5 5 4 6 2 7 1 8 8 9
REMARK H PARENT 8 10
REMARK Flexibility Score: inf
ROOT
ATOM      1  C   UNL     1      20.888  30.742  36.332  1.00  0.00    -0.045 A 
ATOM      2  C   UNL     1      21.844  31.377  35.520  1.00  0.00     0.049 A 
ATOM      3  C   UNL     1      21.776  32.759  35.296  1.00  0.00     0.115 A 
ATOM      4  C   UNL     1      20.757  33.510  35.891  1.00  0.00     0.046 A 
ATOM      5  C   UNL     1      19.813  32.887  36.710  1.00  0.00     0.004 A 
ATOM      6  C   UNL     1      19.879  31.509  36.935  1.00  0.00     0.004 A 
ENDROOT
BRANCH   1   7
ATOM      7  C   UNL     1      20.981  29.263  36.599  1.00  0.00     0.032 C 
ATOM      8  C   UNL     1      19.654  28.725  37.124  1.00  0.00     0.009 C 
ENDBRANCH   1   7
BRANCH   3   9
ATOM      9  O   UNL     1      22.716  33.395  34.487  1.00  0.00    -0.508 OA
ATOM     10  H   UNL     1      22.447  34.123  33.836  1.00  0.00     0.293 HD
ENDBRANCH   3   9
TORSDOF 2
ENDMDL
MODEL 5
REMARK VINA RESULT:    -4.333     16.862     18.299
REMARK INTER + INTRA:          -4.768
REMARK INTER:                  -4.721
REMARK INTRA:                  -0.047
REMARK UNBOUND:                -0.055
REMARK SMILES CCc1cccc(O)c1
REMARK SMILES IDX 3 1 9 2 7 3 6 4 5 5 4 6 2 7 1 8 8 9
REMARK H PARENT 8 10
REMARK Flexibility Score: inf
ROOT
ATOM      1  C   UNL     1      20.944  23.988  18.882  1.00  0.00    -0.045 A 
ATOM      2  C   UNL     1      20.216  24.427  20.001  1.00  0.00     0.049 A 
ATOM      3  C   UNL     1      20.397  23.813  21.249  1.00  0.00     0.115 A 
ATOM      4  C   UNL     1      21.312  22.763  21.380  1.00  0.00     0.046 A 
ATOM      5  C   UNL     1      22.049  22.332  20.274  1.00  0.00     0.004 A 
ATOM      6  C   UNL     1      21.870  22.943  19.030  1.00  0.00     0.004 A 
ENDROOT
BRANCH   1   7
ATOM      7  C   UNL     1      20.774  24.669  17.551  1.00  0.00     0.032 C 
ATOM      8  C   UNL     1      19.437  24.297  16.920  1.00  0.00     0.009 C 
ENDBRANCH   1   7
BRANCH   3   9
ATOM      9  O   UNL     1      19.674  24.238  22.361  1.00  0.00    -0.508 OA
ATOM     10  H   UNL     1      18.671  24.110  22.421  1.00  0.00     0.293 HD
ENDBRANCH   3   9
TORSDOF 2
ENDMDL
MODEL 6
REMARK VINA RESULT:    -4.308     16.918     18.362
REMARK INTER + INTRA:          -4.740
REMARK INTER:                  -4.692
REMARK INTRA:                  -0.048
REMARK UNBOUND:                -0.055
REMARK SMILES CCc1cccc(O)c1
REMARK SMILES IDX 3 1 9 2 7 3 6 4 5 5 4 6 2 7 1 8 8 9
REMARK H PARENT 8 10
REMARK Flexibility Score: inf
ROOT
ATOM      1  C   UNL     1      20.025  23.601  20.780  1.00  0.00    -0.045 A 
ATOM      2  C   UNL     1      21.094  22.727  20.522  1.00  0.00     0.049 A 
ATOM      3  C   UNL     1      21.809  22.818  19.320  1.00  0.00     0.115 A 
ATOM      4  C   UNL     1      21.460  23.790  18.376  1.00  0.00     0.046 A 
ATOM      5  C   UNL     1      20.407  24.671  18.632  1.00  0.00     0.004 A 
ATOM      6  C   UNL     1      19.694  24.582  19.831  1.00  0.00     0.004 A 
ENDROOT
BRANCH   1   7
ATOM      7  C   UNL     1      19.279  23.525  22.085  1.00  0.00     0.032 C 
ATOM      8  C   UNL     1      18.158  22.494  22.007  1.00  0.00     0.009 C 
ENDBRANCH   1   7
BRANCH   3   9
ATOM      9  O   UNL     1      22.866  21.950  19.054  1.00  0.00    -0.508 OA
ATOM     10  H   UNL     1      22.761  21.165  18.422  1.00  0.00     0.293 HD
ENDBRANCH   3   9
TORSDOF 2
ENDMDL
MODEL 7
REMARK VINA RESULT:    -4.263     17.099     18.856
REMARK INTER + INTRA:          -4.692
REMARK INTER:                  -4.640
REMARK INTRA:                  -0.053
REMARK UNBOUND:                -0.055
REMARK SMILES CCc1cccc(O)c1
REMARK SMILES IDX 3 1 9 2 7 3 6 4 5 5 4 6 2 7 1 8 8 9
REMARK H PARENT 8 10
REMARK Flexibility Score: inf
ROOT
ATOM      1  C   UNL     1      20.224  23.772  20.314  1.00  0.00    -0.045 A 
ATOM      2  C   UNL     1      19.583  24.537  19.325  1.00  0.00     0.049 A 
ATOM      3  C   UNL     1      20.019  24.483  17.994  1.00  0.00     0.115 A 
ATOM      4  C   UNL     1      21.094  23.657  17.649  1.00  0.00     0.046 A 
ATOM      5  C   UNL     1      21.726  22.883  18.624  1.00  0.00     0.004 A 
ATOM      6  C   UNL     1      21.292  22.935  19.952  1.00  0.00     0.004 A 
ENDROOT
BRANCH   1   7
ATOM      7  C   UNL     1      19.733  23.804  21.737  1.00  0.00     0.032 C 
ATOM      8  C   UNL     1      18.605  22.800  21.942  1.00  0.00     0.009 C 
ENDBRANCH   1   7
BRANCH   3   9
ATOM      9  O   UNL     1      19.393  25.244  17.009  1.00  0.00    -0.508 OA
ATOM     10  H   UNL     1      19.925  25.724  16.293  1.00  0.00     0.293 HD
ENDBRANCH   3   9
TORSDOF 2
ENDMDL
MODEL 8
REMARK VINA RESULT:    -4.246      1.108      2.941
REMARK INTER + INTRA:          -4.673
REMARK INTER:                  -4.625
REMARK INTRA:                  -0.048
REMARK UNBOUND:                -0.055
REMARK SMILES CCc1cccc(O)c1
REMARK SMILES IDX 3 1 9 2 7 3 6 4 5 5 4 6 2 7 1 8 8 9
REMARK H PARENT 8 10
REMARK Flexibility Score: inf
ROOT
ATOM      1  C   UNL     1      19.881  33.608  36.198  1.00  0.00    -0.045 A 
ATOM      2  C   UNL     1      20.504  32.447  36.688  1.00  0.00     0.049 A 
ATOM      3  C   UNL     1      21.740  32.035  36.169  1.00  0.00     0.115 A 
ATOM      4  C   UNL     1      22.357  32.787  35.164  1.00  0.00     0.046 A 
ATOM      5  C   UNL     1      21.749  33.948  34.682  1.00  0.00     0.004 A 
ATOM      6  C   UNL     1      20.518  34.362  35.199  1.00  0.00     0.004 A 
ENDROOT
BRANCH   1   7
ATOM      7  C   UNL     1      18.571  34.069  36.779  1.00  0.00     0.032 C 
ATOM      8  C   UNL     1      17.665  32.880  37.080  1.00  0.00     0.009 C 
ENDBRANCH   1   7
BRANCH   3   9
ATOM      9  O   UNL     1      22.360  30.882  36.644  1.00  0.00    -0.508 OA
ATOM     10  H   UNL     1      23.207  30.927  37.199  1.00  0.00     0.293 HD
ENDBRANCH   3   9
TORSDOF 2
ENDMDL
MODEL 9
REMARK VINA RESULT:    -4.246      1.905      3.526
REMARK INTER + INTRA:          -4.673
REMARK INTER:                  -4.602
REMARK INTRA:                  -0.071
REMARK UNBOUND:                -0.055
REMARK SMILES CCc1cccc(O)c1
REMARK SMILES IDX 3 1 9 2 7 3 6 4 5 5 4 6 2 7 1 8 8 9
REMARK H PARENT 8 10
REMARK Flexibility Score: inf
ROOT
ATOM      1  C   UNL     1      19.927  33.349  36.352  1.00  0.00    -0.045 A 
ATOM      2  C   UNL     1      20.458  34.155  35.330  1.00  0.00     0.049 A 
ATOM      3  C   UNL     1      21.704  33.851  34.764  1.00  0.00     0.115 A 
ATOM      4  C   UNL     1      22.418  32.736  35.215  1.00  0.00     0.046 A 
ATOM      5  C   UNL     1      21.890  31.924  36.221  1.00  0.00     0.004 A 
ATOM      6  C   UNL     1      20.647  32.224  36.785  1.00  0.00     0.004 A 
ENDROOT
BRANCH   1   7
ATOM      7  C   UNL     1      18.574  33.656  36.936  1.00  0.00     0.032 C 
ATOM      8  C   UNL     1      17.764  32.378  37.122  1.00  0.00     0.009 C 
ENDBRANCH   1   7
BRANCH   3   9
ATOM      9  O   UNL     1      22.240  34.649  33.755  1.00  0.00    -0.508 OA
ATOM     10  H   UNL     1      23.115  35.143  33.880  1.00  0.00     0.293 HD
ENDBRANCH   3   9
TORSDOF 2
ENDMDL
