MODEL 1
REMARK VINA RESULT:     2.563      0.000      0.000
REMARK INTER + INTRA:           2.638
REMARK INTER:                   2.863
REMARK INTRA:                  -0.225
REMARK UNBOUND:                -0.225
REMARK SMILES O=C([O-])C=Cc1ccccc1
REMARK SMILES IDX 4 1 5 2 2 3 1 4 3 5 6 6 7 7 11 8 8 9 10 10 9 11
REMARK H PARENT
REMARK Flexibility Score: inf
ROOT
ATOM      1  C   UNL     1     -33.183  41.021 -24.182  1.00  0.00     0.025 C 
ATOM      2  C   UNL     1     -32.660  40.808 -25.399  1.00  0.00     0.010 C 
ENDROOT
BRANCH   1   3
ATOM      3  C   UNL     1     -32.585  40.586 -22.906  1.00  0.00     0.064 C 
ATOM      4  O   UNL     1     -33.219  39.788 -22.169  1.00  0.00    -0.545 OA
ATOM      5  O   UNL     1     -31.368  41.093 -22.464  1.00  0.00    -0.545 OA
ENDBRANCH   1   3
BRANCH   2   6
ATOM      6  C   UNL     1     -31.502  39.938 -25.692  1.00  0.00    -0.026 A 
ATOM      7  C   UNL     1     -30.204  40.468 -25.810  1.00  0.00     0.008 A 
ATOM      8  C   UNL     1     -31.685  38.548 -25.752  1.00  0.00     0.008 A 
ATOM      9  C   UNL     1     -29.116  39.619 -26.036  1.00  0.00     0.001 A 
ATOM     10  C   UNL     1     -30.594  37.703 -25.978  1.00  0.00     0.001 A 
ATOM     11  C   UNL     1     -29.312  38.239 -26.125  1.00  0.00     0.000 A 
ENDBRANCH   2   6
TORSDOF 2
ENDMDL
