MODEL 1
REMARK VINA RESULT:    -2.425      0.000      0.000
REMARK INTER + INTRA:          -5.363
REMARK INTER:                  -4.693
REMARK INTRA:                  -0.670
REMARK UNBOUND:                -0.670
REMARK SMILES CCCCCCCCCCCCCCCCCC(=O)[O-]
REMARK SMILES IDX 10 1 11 2 12 3 13 4 14 5 15 6 16 7 17 8 18 9 19 10 20 11
REMARK SMILES IDX 9 12 8 13 7 14 6 15 5 16 4 17 3 18 2 19 1 20
REMARK H PARENT
REMARK Flexibility Score: inf
ROOT
ATOM      1  C   UNL     1      -6.643 -22.073  17.835  1.00  0.00     0.000 C 
ENDROOT
BRANCH   1   2
ATOM      2  C   UNL     1      -5.469 -22.991  17.453  1.00  0.00     0.000 C 
BRANCH   2   3
ATOM      3  C   UNL     1      -4.612 -22.421  16.311  1.00  0.00     0.000 C 
BRANCH   3   4
ATOM      4  C   UNL     1      -3.226 -23.080  16.227  1.00  0.00     0.000 C 
BRANCH   4   5
ATOM      5  C   UNL     1      -2.151 -22.131  15.672  1.00  0.00     0.000 C 
BRANCH   5   6
ATOM      6  C   UNL     1      -1.052 -21.881  16.710  1.00  0.00     0.000 C 
BRANCH   6   7
ATOM      7  C   UNL     1       0.334 -21.854  16.050  1.00  0.00     0.006 C 
BRANCH   7   8
ATOM      8  C   UNL     1       0.617 -23.125  15.239  1.00  0.00     0.053 C 
BRANCH   8   9
ATOM      9  C   UNL     1       1.826 -22.968  14.368  1.00  0.00     0.041 C 
ATOM     10  O   UNL     1       1.696 -22.788  13.128  1.00  0.00    -0.550 OA
ATOM     11  O   UNL     1       3.096 -22.991  14.930  1.00  0.00    -0.550 OA
ENDBRANCH   8   9
ENDBRANCH   7   8
ENDBRANCH   6   7
ENDBRANCH   5   6
ENDBRANCH   4   5
ENDBRANCH   3   4
ENDBRANCH   2   3
ENDBRANCH   1   2
BRANCH   1  12
ATOM     12  C   UNL     1      -8.003 -22.540  17.272  1.00  0.00     0.000 C 
BRANCH  12  13
ATOM     13  C   UNL     1      -9.178 -21.733  17.848  1.00  0.00    -0.000 C 
BRANCH  13  14
ATOM     14  C   UNL     1      -9.409 -21.993  19.348  1.00  0.00    -0.000 C 
BRANCH  14  15
ATOM     15  C   UNL     1     -10.810 -21.622  19.866  1.00  0.00    -0.000 C 
BRANCH  15  16
ATOM     16  C   UNL     1     -10.798 -20.391  20.789  1.00  0.00    -0.000 C 
BRANCH  16  17
ATOM     17  C   UNL     1     -10.589 -19.078  20.017  1.00  0.00    -0.000 C 
BRANCH  17  18
ATOM     18  C   UNL     1     -10.506 -17.853  20.941  1.00  0.00    -0.000 C 
BRANCH  18  19
ATOM     19  C   UNL     1     -10.338 -18.280  22.404  1.00  0.00    -0.003 C 
ATOM     20  C   UNL     1      -9.186 -17.532  23.068  1.00  0.00     0.004 C 
ENDBRANCH  18  19
ENDBRANCH  17  18
ENDBRANCH  16  17
ENDBRANCH  15  16
ENDBRANCH  14  15
ENDBRANCH  13  14
ENDBRANCH  12  13
ENDBRANCH   1  12
TORSDOF 16
ENDMDL
MODEL 2
REMARK VINA RESULT:    -1.911      4.935     11.333
REMARK INTER + INTRA:          -4.370
REMARK INTER:                  -3.804
REMARK INTRA:                  -0.566
REMARK UNBOUND:                -0.670
REMARK SMILES CCCCCCCCCCCCCCCCCC(=O)[O-]
REMARK SMILES IDX 10 1 11 2 12 3 13 4 14 5 15 6 16 7 17 8 18 9 19 10 20 11
REMARK SMILES IDX 9 12 8 13 7 14 6 15 5 16 4 17 3 18 2 19 1 20
REMARK H PARENT
REMARK Flexibility Score: inf
ROOT
ATOM      1  C   UNL     1      -5.648 -22.058  17.317  1.00  0.00     0.000 C 
ENDROOT
BRANCH   1   2
ATOM      2  C   UNL     1      -6.615 -22.641  18.363  1.00  0.00     0.000 C 
BRANCH   2   3
ATOM      3  C   UNL     1      -8.082 -22.608  17.902  1.00  0.00     0.000 C 
BRANCH   3   4
ATOM      4  C   UNL     1      -8.960 -21.712  18.790  1.00  0.00     0.000 C 
BRANCH   4   5
ATOM      5  C   UNL     1     -10.056 -22.498  19.527  1.00  0.00     0.000 C 
BRANCH   5   6
ATOM      6  C   UNL     1     -10.376 -21.855  20.881  1.00  0.00     0.000 C 
BRANCH   6   7
ATOM      7  C   UNL     1     -10.920 -20.430  20.700  1.00  0.00     0.006 C 
BRANCH   7   8
ATOM      8  C   UNL     1     -10.388 -19.464  21.766  1.00  0.00     0.053 C 
BRANCH   8   9
ATOM      9  C   UNL     1     -10.177 -18.089  21.212  1.00  0.00     0.041 C 
ATOM     10  O   UNL     1     -10.732 -17.747  20.134  1.00  0.00    -0.550 OA
ATOM     11  O   UNL     1      -9.391 -17.174  21.901  1.00  0.00    -0.550 OA
ENDBRANCH   8   9
ENDBRANCH   7   8
ENDBRANCH   6   7
ENDBRANCH   5   6
ENDBRANCH   4   5
ENDBRANCH   3   4
ENDBRANCH   2   3
ENDBRANCH   1   2
BRANCH   1  12
ATOM     12  C   UNL     1      -4.764 -23.122  16.632  1.00  0.00     0.000 C 
BRANCH  12  13
ATOM     13  C   UNL     1      -3.539 -22.500  15.940  1.00  0.00    -0.000 C 
BRANCH  13  14
ATOM     14  C   UNL     1      -2.204 -22.957  16.556  1.00  0.00    -0.000 C 
BRANCH  14  15
ATOM     15  C   UNL     1      -0.992 -22.888  15.609  1.00  0.00    -0.000 C 
BRANCH  15  16
ATOM     16  C   UNL     1       0.248 -22.264  16.271  1.00  0.00    -0.000 C 
BRANCH  16  17
ATOM     17  C   UNL     1       1.562 -22.765  15.651  1.00  0.00    -0.000 C 
BRANCH  17  18
ATOM     18  C   UNL     1       1.492 -22.873  14.120  1.00  0.00    -0.000 C 
BRANCH  18  19
ATOM     19  C   UNL     1       2.893 -23.030  13.517  1.00  0.00    -0.003 C 
ATOM     20  C   UNL     1       3.956 -23.125  14.607  1.00  0.00     0.004 C 
ENDBRANCH  18  19
ENDBRANCH  17  18
ENDBRANCH  16  17
ENDBRANCH  15  16
ENDBRANCH  14  15
ENDBRANCH  13  14
ENDBRANCH  12  13
ENDBRANCH   1  12
TORSDOF 16
ENDMDL
MODEL 3
REMARK VINA RESULT:    -1.892      5.071     12.261
REMARK INTER + INTRA:          -4.331
REMARK INTER:                  -3.762
REMARK INTRA:                  -0.570
REMARK UNBOUND:                -0.670
REMARK SMILES CCCCCCCCCCCCCCCCCC(=O)[O-]
REMARK SMILES IDX 10 1 11 2 12 3 13 4 14 5 15 6 16 7 17 8 18 9 19 10 20 11
REMARK SMILES IDX 9 12 8 13 7 14 6 15 5 16 4 17 3 18 2 19 1 20
REMARK H PARENT
REMARK Flexibility Score: inf
ROOT
ATOM      1  C   UNL     1      -1.002 -22.578  16.329  1.00  0.00     0.000 C 
ENDROOT
BRANCH   1   2
ATOM      2  C   UNL     1      -2.324 -21.894  15.936  1.00  0.00     0.000 C 
BRANCH   2   3
ATOM      3  C   UNL     1      -3.510 -22.872  15.887  1.00  0.00     0.000 C 
BRANCH   3   4
ATOM      4  C   UNL     1      -4.179 -23.058  17.257  1.00  0.00     0.000 C 
BRANCH   4   5
ATOM      5  C   UNL     1      -5.678 -22.716  17.236  1.00  0.00     0.000 C 
BRANCH   5   6
ATOM      6  C   UNL     1      -6.343 -23.087  18.567  1.00  0.00     0.000 C 
BRANCH   6   7
ATOM      7  C   UNL     1      -7.771 -22.526  18.644  1.00  0.00     0.006 C 
BRANCH   7   8
ATOM      8  C   UNL     1      -8.535 -22.697  17.325  1.00  0.00     0.053 C 
BRANCH   8   9
ATOM      9  C   UNL     1      -9.934 -22.170  17.423  1.00  0.00     0.041 C 
ATOM     10  O   UNL     1     -10.712 -22.597  18.316  1.00  0.00    -0.550 OA
ATOM     11  O   UNL     1     -10.369 -21.184  16.546  1.00  0.00    -0.550 OA
ENDBRANCH   8   9
ENDBRANCH   7   8
ENDBRANCH   6   7
ENDBRANCH   5   6
ENDBRANCH   4   5
ENDBRANCH   3   4
ENDBRANCH   2   3
ENDBRANCH   1   2
BRANCH   1  12
ATOM     12  C   UNL     1      -0.002 -22.709  15.161  1.00  0.00     0.000 C 
BRANCH  12  13
ATOM     13  C   UNL     1       1.410 -23.078  15.645  1.00  0.00    -0.000 C 
BRANCH  13  14
ATOM     14  C   UNL     1       2.478 -22.940  14.545  1.00  0.00    -0.000 C 
BRANCH  14  15
ATOM     15  C   UNL     1       3.934 -22.952  15.046  1.00  0.00    -0.000 C 
BRANCH  15  16
ATOM     16  C   UNL     1       4.955 -23.125  13.907  1.00  0.00    -0.000 C 
BRANCH  16  17
ATOM     17  C   UNL     1       6.346 -22.587  14.277  1.00  0.00    -0.000 C 
BRANCH  17  18
ATOM     18  C   UNL     1       6.837 -23.098  15.640  1.00  0.00    -0.000 C 
BRANCH  18  19
ATOM     19  C   UNL     1       7.315 -21.938  16.521  1.00  0.00    -0.003 C 
ATOM     20  C   UNL     1       6.207 -21.462  17.456  1.00  0.00     0.004 C 
ENDBRANCH  18  19
ENDBRANCH  17  18
ENDBRANCH  16  17
ENDBRANCH  15  16
ENDBRANCH  14  15
ENDBRANCH  13  14
ENDBRANCH  12  13
ENDBRANCH   1  12
TORSDOF 16
ENDMDL
MODEL 4
REMARK VINA RESULT:    -1.868      5.015     10.141
REMARK INTER + INTRA:          -4.285
REMARK INTER:                  -3.650
REMARK INTRA:                  -0.635
REMARK UNBOUND:                -0.670
REMARK SMILES CCCCCCCCCCCCCCCCCC(=O)[O-]
REMARK SMILES IDX 10 1 11 2 12 3 13 4 14 5 15 6 16 7 17 8 18 9 19 10 20 11
REMARK SMILES IDX 9 12 8 13 7 14 6 15 5 16 4 17 3 18 2 19 1 20
REMARK H PARENT
REMARK Flexibility Score: inf
ROOT
ATOM      1  C   UNL     1      -9.458 -21.718  17.534  1.00  0.00     0.000 C 
ENDROOT
BRANCH   1   2
ATOM      2  C   UNL     1     -10.028 -21.437  18.936  1.00  0.00     0.000 C 
BRANCH   2   3
ATOM      3  C   UNL     1      -9.860 -22.626  19.897  1.00  0.00     0.000 C 
BRANCH   3   4
ATOM      4  C   UNL     1     -11.106 -22.864  20.765  1.00  0.00     0.000 C 
BRANCH   4   5
ATOM      5  C   UNL     1     -11.124 -21.989  22.028  1.00  0.00     0.000 C 
BRANCH   5   6
ATOM      6  C   UNL     1      -9.746 -21.968  22.700  1.00  0.00     0.000 C 
BRANCH   6   7
ATOM      7  C   UNL     1      -9.250 -20.528  22.896  1.00  0.00     0.006 C 
BRANCH   7   8
ATOM      8  C   UNL     1     -10.357 -19.493  22.651  1.00  0.00     0.053 C 
BRANCH   8   9
ATOM      9  C   UNL     1      -9.792 -18.151  22.300  1.00  0.00     0.041 C 
ATOM     10  O   UNL     1      -9.093 -17.519  23.135  1.00  0.00    -0.550 OA
ATOM     11  O   UNL     1     -10.014 -17.611  21.040  1.00  0.00    -0.550 OA
ENDBRANCH   8   9
ENDBRANCH   7   8
ENDBRANCH   6   7
ENDBRANCH   5   6
ENDBRANCH   4   5
ENDBRANCH   3   4
ENDBRANCH   2   3
ENDBRANCH   1   2
BRANCH   1  12
ATOM     12  C   UNL     1      -8.653 -23.032  17.445  1.00  0.00     0.000 C 
BRANCH  12  13
ATOM     13  C   UNL     1      -7.332 -22.958  18.229  1.00  0.00    -0.000 C 
BRANCH  13  14
ATOM     14  C   UNL     1      -6.091 -22.964  17.318  1.00  0.00    -0.000 C 
BRANCH  14  15
ATOM     15  C   UNL     1      -5.880 -21.680  16.496  1.00  0.00    -0.000 C 
BRANCH  15  16
ATOM     16  C   UNL     1      -4.659 -21.763  15.563  1.00  0.00    -0.000 C 
BRANCH  16  17
ATOM     17  C   UNL     1      -3.508 -22.581  16.170  1.00  0.00    -0.000 C 
BRANCH  17  18
ATOM     18  C   UNL     1      -2.125 -22.079  15.727  1.00  0.00    -0.000 C 
BRANCH  18  19
ATOM     19  C   UNL     1      -1.014 -22.995  16.254  1.00  0.00    -0.003 C 
ATOM     20  C   UNL     1       0.344 -22.603  15.679  1.00  0.00     0.004 C 
ENDBRANCH  18  19
ENDBRANCH  17  18
ENDBRANCH  16  17
ENDBRANCH  15  16
ENDBRANCH  14  15
ENDBRANCH  13  14
ENDBRANCH  12  13
ENDBRANCH   1  12
TORSDOF 16
ENDMDL
MODEL 5
REMARK VINA RESULT:    -1.797      4.911     12.536
REMARK INTER + INTRA:          -4.148
REMARK INTER:                  -3.593
REMARK INTRA:                  -0.554
REMARK UNBOUND:                -0.670
REMARK SMILES CCCCCCCCCCCCCCCCCC(=O)[O-]
REMARK SMILES IDX 10 1 11 2 12 3 13 4 14 5 15 6 16 7 17 8 18 9 19 10 20 11
REMARK SMILES IDX 9 12 8 13 7 14 6 15 5 16 4 17 3 18 2 19 1 20
REMARK H PARENT
REMARK Flexibility Score: inf
ROOT
ATOM      1  C   UNL     1      -0.919 -22.043  16.337  1.00  0.00     0.000 C 
ENDROOT
BRANCH   1   2
ATOM      2  C   UNL     1      -2.313 -21.721  15.771  1.00  0.00     0.000 C 
BRANCH   2   3
ATOM      3  C   UNL     1      -3.282 -22.912  15.857  1.00  0.00     0.000 C 
BRANCH   3   4
ATOM      4  C   UNL     1      -4.464 -22.644  16.801  1.00  0.00     0.000 C 
BRANCH   4   5
ATOM      5  C   UNL     1      -5.647 -21.965  16.092  1.00  0.00     0.000 C 
BRANCH   5   6
ATOM      6  C   UNL     1      -6.962 -22.689  16.403  1.00  0.00     0.000 C 
BRANCH   6   7
ATOM      7  C   UNL     1      -7.649 -22.081  17.634  1.00  0.00     0.006 C 
BRANCH   7   8
ATOM      8  C   UNL     1      -7.786 -23.091  18.781  1.00  0.00     0.053 C 
BRANCH   8   9
ATOM      9  C   UNL     1      -8.754 -22.618  19.822  1.00  0.00     0.041 C 
ATOM     10  O   UNL     1      -9.778 -21.966  19.487  1.00  0.00    -0.550 OA
ATOM     11  O   UNL     1      -8.542 -22.924  21.160  1.00  0.00    -0.550 OA
ENDBRANCH   8   9
ENDBRANCH   7   8
ENDBRANCH   6   7
ENDBRANCH   5   6
ENDBRANCH   4   5
ENDBRANCH   3   4
ENDBRANCH   2   3
ENDBRANCH   1   2
BRANCH   1  12
ATOM     12  C   UNL     1      -0.161 -23.125  15.539  1.00  0.00     0.000 C 
BRANCH  12  13
ATOM     13  C   UNL     1       0.983 -22.532  14.700  1.00  0.00    -0.000 C 
BRANCH  13  14
ATOM     14  C   UNL     1       2.377 -22.905  15.235  1.00  0.00    -0.000 C 
BRANCH  14  15
ATOM     15  C   UNL     1       3.514 -22.833  14.199  1.00  0.00    -0.000 C 
BRANCH  15  16
ATOM     16  C   UNL     1       4.903 -23.055  14.822  1.00  0.00    -0.000 C 
BRANCH  16  17
ATOM     17  C   UNL     1       6.031 -22.432  13.983  1.00  0.00    -0.000 C 
BRANCH  17  18
ATOM     18  C   UNL     1       5.892 -22.736  12.484  1.00  0.00    -0.000 C 
BRANCH  18  19
ATOM     19  C   UNL     1       7.167 -22.348  11.725  1.00  0.00    -0.003 C 
ATOM     20  C   UNL     1       7.615 -20.935  12.084  1.00  0.00     0.004 C 
ENDBRANCH  18  19
ENDBRANCH  17  18
ENDBRANCH  16  17
ENDBRANCH  15  16
ENDBRANCH  14  15
ENDBRANCH  13  14
ENDBRANCH  12  13
ENDBRANCH   1  12
TORSDOF 16
ENDMDL
MODEL 6
REMARK VINA RESULT:    -1.676      2.681      5.505
REMARK INTER + INTRA:          -3.914
REMARK INTER:                  -3.362
REMARK INTRA:                  -0.552
REMARK UNBOUND:                -0.670
REMARK SMILES CCCCCCCCCCCCCCCCCC(=O)[O-]
REMARK SMILES IDX 10 1 11 2 12 3 13 4 14 5 15 6 16 7 17 8 18 9 19 10 20 11
REMARK SMILES IDX 9 12 8 13 7 14 6 15 5 16 4 17 3 18 2 19 1 20
REMARK H PARENT
REMARK Flexibility Score: inf
ROOT
ATOM      1  C   UNL     1      -1.281 -22.962  16.452  1.00  0.00     0.000 C 
ENDROOT
BRANCH   1   2
ATOM      2  C   UNL     1      -0.172 -23.051  15.389  1.00  0.00     0.000 C 
BRANCH   2   3
ATOM      3  C   UNL     1       1.067 -22.214  15.748  1.00  0.00     0.000 C 
BRANCH   3   4
ATOM      4  C   UNL     1       2.383 -22.941  15.431  1.00  0.00     0.000 C 
BRANCH   4   5
ATOM      5  C   UNL     1       2.737 -22.903  13.936  1.00  0.00     0.000 C 
BRANCH   5   6
ATOM      6  C   UNL     1       4.256 -22.890  13.732  1.00  0.00     0.000 C 
BRANCH   6   7
ATOM      7  C   UNL     1       4.992 -23.125  15.059  1.00  0.00     0.006 C 
BRANCH   7   8
ATOM      8  C   UNL     1       6.450 -22.648  15.007  1.00  0.00     0.053 C 
BRANCH   8   9
ATOM      9  C   UNL     1       6.925 -22.174  16.347  1.00  0.00     0.041 C 
ATOM     10  O   UNL     1       6.129 -21.600  17.135  1.00  0.00    -0.550 OA
ATOM     11  O   UNL     1       8.240 -22.392  16.736  1.00  0.00    -0.550 OA
ENDBRANCH   8   9
ENDBRANCH   7   8
ENDBRANCH   6   7
ENDBRANCH   5   6
ENDBRANCH   4   5
ENDBRANCH   3   4
ENDBRANCH   2   3
ENDBRANCH   1   2
BRANCH   1  12
ATOM     12  C   UNL     1      -2.704 -23.125  15.876  1.00  0.00     0.000 C 
BRANCH  12  13
ATOM     13  C   UNL     1      -3.788 -22.979  16.957  1.00  0.00    -0.000 C 
BRANCH  13  14
ATOM     14  C   UNL     1      -5.182 -22.684  16.375  1.00  0.00    -0.000 C 
BRANCH  14  15
ATOM     15  C   UNL     1      -6.066 -21.764  17.236  1.00  0.00    -0.000 C 
BRANCH  15  16
ATOM     16  C   UNL     1      -7.016 -22.544  18.162  1.00  0.00    -0.000 C 
BRANCH  16  17
ATOM     17  C   UNL     1      -8.496 -22.319  17.813  1.00  0.00    -0.000 C 
BRANCH  17  18
ATOM     18  C   UNL     1      -9.335 -21.897  19.028  1.00  0.00    -0.000 C 
BRANCH  18  19
ATOM     19  C   UNL     1     -10.437 -20.912  18.619  1.00  0.00    -0.003 C 
ATOM     20  C   UNL     1     -10.656 -20.925  17.109  1.00  0.00     0.004 C 
ENDBRANCH  18  19
ENDBRANCH  17  18
ENDBRANCH  16  17
ENDBRANCH  15  16
ENDBRANCH  14  15
ENDBRANCH  13  14
ENDBRANCH  12  13
ENDBRANCH   1  12
TORSDOF 16
ENDMDL
MODEL 7
REMARK VINA RESULT:    -1.672      1.887      2.216
REMARK INTER + INTRA:          -3.906
REMARK INTER:                  -2.757
REMARK INTRA:                  -1.148
REMARK UNBOUND:                -0.670
REMARK SMILES CCCCCCCCCCCCCCCCCC(=O)[O-]
REMARK SMILES IDX 10 1 11 2 12 3 13 4 14 5 15 6 16 7 17 8 18 9 19 10 20 11
REMARK SMILES IDX 9 12 8 13 7 14 6 15 5 16 4 17 3 18 2 19 1 20
REMARK H PARENT
REMARK Flexibility Score: inf
ROOT
ATOM      1  C   UNL     1      -6.089 -22.946  17.886  1.00  0.00     0.000 C 
ENDROOT
BRANCH   1   2
ATOM      2  C   UNL     1      -5.835 -21.987  16.710  1.00  0.00     0.000 C 
BRANCH   2   3
ATOM      3  C   UNL     1      -4.571 -22.344  15.911  1.00  0.00     0.000 C 
BRANCH   3   4
ATOM      4  C   UNL     1      -3.535 -23.105  16.754  1.00  0.00     0.000 C 
BRANCH   4   5
ATOM      5  C   UNL     1      -2.135 -23.100  16.119  1.00  0.00     0.000 C 
BRANCH   5   6
ATOM      6  C   UNL     1      -1.402 -21.788  16.418  1.00  0.00     0.000 C 
BRANCH   6   7
ATOM      7  C   UNL     1      -0.047 -21.736  15.697  1.00  0.00     0.006 C 
BRANCH   7   8
ATOM      8  C   UNL     1       0.420 -23.124  15.237  1.00  0.00     0.053 C 
BRANCH   8   9
ATOM      9  C   UNL     1       1.850 -23.108  14.794  1.00  0.00     0.041 C 
ATOM     10  O   UNL     1       2.135 -23.051  13.569  1.00  0.00    -0.550 OA
ATOM     11  O   UNL     1       2.871 -23.125  15.736  1.00  0.00    -0.550 OA
ENDBRANCH   8   9
ENDBRANCH   7   8
ENDBRANCH   6   7
ENDBRANCH   5   6
ENDBRANCH   4   5
ENDBRANCH   3   4
ENDBRANCH   2   3
ENDBRANCH   1   2
BRANCH   1  12
ATOM     12  C   UNL     1      -7.338 -22.586  18.719  1.00  0.00     0.000 C 
BRANCH  12  13
ATOM     13  C   UNL     1      -8.205 -21.517  18.034  1.00  0.00    -0.000 C 
BRANCH  13  14
ATOM     14  C   UNL     1      -9.672 -21.951  17.865  1.00  0.00    -0.000 C 
BRANCH  14  15
ATOM     15  C   UNL     1     -10.552 -21.776  19.116  1.00  0.00    -0.000 C 
BRANCH  15  16
ATOM     16  C   UNL     1     -10.774 -23.095  19.878  1.00  0.00    -0.000 C 
BRANCH  16  17
ATOM     17  C   UNL     1     -10.417 -22.980  21.369  1.00  0.00    -0.000 C 
BRANCH  17  18
ATOM     18  C   UNL     1      -9.553 -21.749  21.679  1.00  0.00    -0.000 C 
BRANCH  18  19
ATOM     19  C   UNL     1      -8.551 -22.050  22.800  1.00  0.00    -0.003 C 
ATOM     20  C   UNL     1      -9.262 -22.528  24.063  1.00  0.00     0.004 C 
ENDBRANCH  18  19
ENDBRANCH  17  18
ENDBRANCH  16  17
ENDBRANCH  15  16
ENDBRANCH  14  15
ENDBRANCH  13  14
ENDBRANCH  12  13
ENDBRANCH   1  12
TORSDOF 16
ENDMDL
MODEL 8
REMARK VINA RESULT:    -1.473      5.022     10.902
REMARK INTER + INTRA:          -3.522
REMARK INTER:                  -3.329
REMARK INTRA:                  -0.192
REMARK UNBOUND:                -0.670
REMARK SMILES CCCCCCCCCCCCCCCCCC(=O)[O-]
REMARK SMILES IDX 10 1 11 2 12 3 13 4 14 5 15 6 16 7 17 8 18 9 19 10 20 11
REMARK SMILES IDX 9 12 8 13 7 14 6 15 5 16 4 17 3 18 2 19 1 20
REMARK H PARENT
REMARK Flexibility Score: inf
ROOT
ATOM      1  C   UNL     1      -6.514 -21.617  15.810  1.00  0.00     0.000 C 
ENDROOT
BRANCH   1   2
ATOM      2  C   UNL     1      -8.002 -21.477  16.176  1.00  0.00     0.000 C 
BRANCH   2   3
ATOM      3  C   UNL     1      -8.407 -22.353  17.373  1.00  0.00     0.000 C 
BRANCH   3   4
ATOM      4  C   UNL     1      -9.850 -22.093  17.832  1.00  0.00     0.000 C 
BRANCH   4   5
ATOM      5  C   UNL     1     -10.038 -20.692  18.436  1.00  0.00     0.000 C 
BRANCH   5   6
ATOM      6  C   UNL     1     -10.034 -20.751  19.968  1.00  0.00     0.000 C 
BRANCH   6   7
ATOM      7  C   UNL     1     -10.820 -21.969  20.475  1.00  0.00     0.006 C 
BRANCH   7   8
ATOM      8  C   UNL     1     -10.027 -22.785  21.504  1.00  0.00     0.053 C 
BRANCH   8   9
ATOM      9  C   UNL     1      -9.644 -21.957  22.692  1.00  0.00     0.041 C 
ATOM     10  O   UNL     1     -10.018 -20.758  22.776  1.00  0.00    -0.550 OA
ATOM     11  O   UNL     1      -8.898 -22.518  23.720  1.00  0.00    -0.550 OA
ENDBRANCH   8   9
ENDBRANCH   7   8
ENDBRANCH   6   7
ENDBRANCH   5   6
ENDBRANCH   4   5
ENDBRANCH   3   4
ENDBRANCH   2   3
ENDBRANCH   1   2
BRANCH   1  12
ATOM     12  C   UNL     1      -5.617 -22.008  17.004  1.00  0.00     0.000 C 
BRANCH  12  13
ATOM     13  C   UNL     1      -4.623 -23.124  16.642  1.00  0.00    -0.000 C 
BRANCH  13  14
ATOM     14  C   UNL     1      -3.423 -22.619  15.821  1.00  0.00    -0.000 C 
BRANCH  14  15
ATOM     15  C   UNL     1      -2.049 -23.125  16.296  1.00  0.00    -0.000 C 
BRANCH  15  16
ATOM     16  C   UNL     1      -0.885 -22.253  15.794  1.00  0.00    -0.000 C 
BRANCH  16  17
ATOM     17  C   UNL     1       0.218 -23.078  15.112  1.00  0.00    -0.000 C 
BRANCH  17  18
ATOM     18  C   UNL     1       1.630 -22.584  15.461  1.00  0.00    -0.000 C 
BRANCH  18  19
ATOM     19  C   UNL     1       2.650 -23.059  14.420  1.00  0.00    -0.003 C 
ATOM     20  C   UNL     1       4.056 -23.119  15.011  1.00  0.00     0.004 C 
ENDBRANCH  18  19
ENDBRANCH  17  18
ENDBRANCH  16  17
ENDBRANCH  15  16
ENDBRANCH  14  15
ENDBRANCH  13  14
ENDBRANCH  12  13
ENDBRANCH   1  12
TORSDOF 16
ENDMDL
MODEL 9
REMARK VINA RESULT:    -0.056      3.595      6.981
REMARK INTER + INTRA:          -0.779
REMARK INTER:                  -0.039
REMARK INTRA:                  -0.739
REMARK UNBOUND:                -0.670
REMARK SMILES CCCCCCCCCCCCCCCCCC(=O)[O-]
REMARK SMILES IDX 10 1 11 2 12 3 13 4 14 5 15 6 16 7 17 8 18 9 19 10 20 11
REMARK SMILES IDX 9 12 8 13 7 14 6 15 5 16 4 17 3 18 2 19 1 20
REMARK H PARENT
REMARK Flexibility Score: inf
ROOT
ATOM      1  C   UNL     1       0.408 -23.101  15.642  1.00  0.00     0.000 C 
ENDROOT
BRANCH   1   2
ATOM      2  C   UNL     1       1.621 -22.310  15.121  1.00  0.00     0.000 C 
BRANCH   2   3
ATOM      3  C   UNL     1       2.935 -22.710  15.812  1.00  0.00     0.000 C 
BRANCH   3   4
ATOM      4  C   UNL     1       4.043 -23.070  14.810  1.00  0.00     0.000 C 
BRANCH   4   5
ATOM      5  C   UNL     1       5.435 -23.123  15.460  1.00  0.00     0.000 C 
BRANCH   5   6
ATOM      6  C   UNL     1       5.691 -21.874  16.311  1.00  0.00     0.000 C 
BRANCH   6   7
ATOM      7  C   UNL     1       7.164 -21.445  16.232  1.00  0.00     0.006 C 
BRANCH   7   8
ATOM      8  C   UNL     1       7.885 -22.061  15.025  1.00  0.00     0.053 C 
BRANCH   8   9
ATOM      9  C   UNL     1       7.997 -21.088  13.892  1.00  0.00     0.041 C 
ATOM     10  O   UNL     1       7.573 -21.395  12.747  1.00  0.00    -0.550 OA
ATOM     11  O   UNL     1       8.544 -19.829  14.107  1.00  0.00    -0.550 OA
ENDBRANCH   8   9
ENDBRANCH   7   8
ENDBRANCH   6   7
ENDBRANCH   5   6
ENDBRANCH   4   5
ENDBRANCH   3   4
ENDBRANCH   2   3
ENDBRANCH   1   2
BRANCH   1  12
ATOM     12  C   UNL     1      -0.686 -22.212  16.272  1.00  0.00     0.000 C 
BRANCH  12  13
ATOM     13  C   UNL     1      -2.069 -22.465  15.650  1.00  0.00    -0.000 C 
BRANCH  13  14
ATOM     14  C   UNL     1      -3.096 -23.000  16.665  1.00  0.00    -0.000 C 
BRANCH  14  15
ATOM     15  C   UNL     1      -4.535 -23.125  16.132  1.00  0.00    -0.000 C 
BRANCH  15  16
ATOM     16  C   UNL     1      -5.413 -21.915  16.495  1.00  0.00    -0.000 C 
BRANCH  16  17
ATOM     17  C   UNL     1      -6.899 -22.286  16.633  1.00  0.00    -0.000 C 
BRANCH  17  18
ATOM     18  C   UNL     1      -7.485 -21.887  17.996  1.00  0.00    -0.000 C 
BRANCH  18  19
ATOM     19  C   UNL     1      -7.506 -23.084  18.955  1.00  0.00    -0.003 C 
ATOM     20  C   UNL     1      -6.245 -23.125  19.813  1.00  0.00     0.004 C 
ENDBRANCH  18  19
ENDBRANCH  17  18
ENDBRANCH  16  17
ENDBRANCH  15  16
ENDBRANCH  14  15
ENDBRANCH  13  14
ENDBRANCH  12  13
ENDBRANCH   1  12
TORSDOF 16
ENDMDL
