MODEL 1
REMARK VINA RESULT:    -3.623      0.000      0.000
REMARK INTER + INTRA:          -4.927
REMARK INTER:                  -4.681
REMARK INTRA:                  -0.246
REMARK UNBOUND:                -0.246
REMARK SMILES C=CC(=O)CCCCC
REMARK SMILES IDX 6 1 7 2 8 3 9 4 5 5 3 6 4 7 2 8 1 9
REMARK H PARENT
REMARK Flexibility Score: inf
ROOT
ATOM      1  C   UNL     1       7.309 -20.536  22.297  1.00  0.00     0.008 C 
ENDROOT
BRANCH   1   2
ATOM      2  C   UNL     1       6.654 -20.815  23.655  1.00  0.00     0.000 C 
BRANCH   2   3
ATOM      3  C   UNL     1       7.100 -19.786  24.701  1.00  0.00    -0.003 C 
ATOM      4  C   UNL     1       6.516 -18.408  24.402  1.00  0.00     0.004 C 
ENDBRANCH   2   3
ENDBRANCH   1   2
BRANCH   1   5
ATOM      5  C   UNL     1       6.834 -21.542  21.241  1.00  0.00     0.080 C 
BRANCH   5   6
ATOM      6  C   UNL     1       8.004 -22.253  20.617  1.00  0.00     0.155 C 
ATOM      7  O   UNL     1       8.283 -22.010  19.412  1.00  0.00    -0.295 OA
BRANCH   6   8
ATOM      8  C   UNL     1       8.865 -23.201  21.357  1.00  0.00     0.039 C 
ATOM      9  C   UNL     1      10.105 -22.925  21.759  1.00  0.00     0.012 C 
ENDBRANCH   6   8
ENDBRANCH   5   6
ENDBRANCH   1   5
TORSDOF 5
ENDMDL
MODEL 2
REMARK VINA RESULT:    -3.616      4.214      6.109
REMARK INTER + INTRA:          -4.919
REMARK INTER:                  -4.295
REMARK INTRA:                  -0.624
REMARK UNBOUND:                -0.246
REMARK SMILES C=CC(=O)CCCCC
REMARK SMILES IDX 6 1 7 2 8 3 9 4 5 5 3 6 4 7 2 8 1 9
REMARK H PARENT
REMARK Flexibility Score: inf
ROOT
ATOM      1  C   UNL     1       7.066 -16.367  23.350  1.00  0.00     0.008 C 
ENDROOT
BRANCH   1   2
ATOM      2  C   UNL     1       7.661 -17.414  22.401  1.00  0.00     0.000 C 
BRANCH   2   3
ATOM      3  C   UNL     1       7.676 -18.801  23.054  1.00  0.00    -0.003 C 
ATOM      4  C   UNL     1       6.657 -18.889  24.187  1.00  0.00     0.004 C 
ENDBRANCH   2   3
ENDBRANCH   1   2
BRANCH   1   5
ATOM      5  C   UNL     1       7.979 -15.140  23.456  1.00  0.00     0.080 C 
BRANCH   5   6
ATOM      6  C   UNL     1       9.181 -15.441  24.310  1.00  0.00     0.155 C 
ATOM      7  O   UNL     1      10.313 -15.052  23.915  1.00  0.00    -0.295 OA
BRANCH   6   8
ATOM      8  C   UNL     1       9.096 -16.145  25.608  1.00  0.00     0.039 C 
ATOM      9  C   UNL     1       9.784 -17.246  25.906  1.00  0.00     0.012 C 
ENDBRANCH   6   8
ENDBRANCH   5   6
ENDBRANCH   1   5
TORSDOF 5
ENDMDL
MODEL 3
REMARK VINA RESULT:    -3.539      5.219      6.573
REMARK INTER + INTRA:          -4.819
REMARK INTER:                  -4.256
REMARK INTRA:                  -0.563
REMARK UNBOUND:                -0.246
REMARK SMILES C=CC(=O)CCCCC
REMARK SMILES IDX 6 1 7 2 8 3 9 4 5 5 3 6 4 7 2 8 1 9
REMARK H PARENT
REMARK Flexibility Score: inf
ROOT
ATOM      1  C   UNL     1       6.888 -15.651  22.896  1.00  0.00     0.008 C 
ENDROOT
BRANCH   1   2
ATOM      2  C   UNL     1       7.214 -15.823  21.407  1.00  0.00     0.000 C 
BRANCH   2   3
ATOM      3  C   UNL     1       7.856 -17.189  21.141  1.00  0.00    -0.003 C 
ATOM      4  C   UNL     1       9.024 -17.069  20.164  1.00  0.00     0.004 C 
ENDBRANCH   2   3
ENDBRANCH   1   2
BRANCH   1   5
ATOM      5  C   UNL     1       7.652 -16.672  23.747  1.00  0.00     0.080 C 
BRANCH   5   6
ATOM      6  C   UNL     1       8.671 -15.986  24.618  1.00  0.00     0.155 C 
ATOM      7  O   UNL     1       8.532 -16.047  25.869  1.00  0.00    -0.295 OA
BRANCH   6   8
ATOM      8  C   UNL     1       9.846 -15.269  24.078  1.00  0.00     0.039 C 
ATOM      9  C   UNL     1      10.823 -15.854  23.385  1.00  0.00     0.012 C 
ENDBRANCH   6   8
ENDBRANCH   5   6
ENDBRANCH   1   5
TORSDOF 5
ENDMDL
MODEL 4
REMARK VINA RESULT:    -3.528      4.047      6.206
REMARK INTER + INTRA:          -4.805
REMARK INTER:                  -4.217
REMARK INTRA:                  -0.588
REMARK UNBOUND:                -0.246
REMARK SMILES C=CC(=O)CCCCC
REMARK SMILES IDX 6 1 7 2 8 3 9 4 5 5 3 6 4 7 2 8 1 9
REMARK H PARENT
REMARK Flexibility Score: inf
ROOT
ATOM      1  C   UNL     1       8.616 -17.717  25.504  1.00  0.00     0.008 C 
ENDROOT
BRANCH   1   2
ATOM      2  C   UNL     1       7.157 -18.178  25.604  1.00  0.00     0.000 C 
BRANCH   2   3
ATOM      3  C   UNL     1       6.767 -19.032  24.391  1.00  0.00    -0.003 C 
ATOM      4  C   UNL     1       7.990 -19.384  23.548  1.00  0.00     0.004 C 
ENDBRANCH   2   3
ENDBRANCH   1   2
BRANCH   1   5
ATOM      5  C   UNL     1       8.727 -16.201  25.705  1.00  0.00     0.080 C 
BRANCH   5   6
ATOM      6  C   UNL     1       8.911 -15.500  24.386  1.00  0.00     0.155 C 
ATOM      7  O   UNL     1      10.081 -15.213  24.014  1.00  0.00    -0.295 OA
BRANCH   6   8
ATOM      8  C   UNL     1       7.787 -15.158  23.487  1.00  0.00     0.039 C 
ATOM      9  C   UNL     1       7.465 -15.855  22.398  1.00  0.00     0.012 C 
ENDBRANCH   6   8
ENDBRANCH   5   6
ENDBRANCH   1   5
TORSDOF 5
ENDMDL
MODEL 5
REMARK VINA RESULT:    -3.508      2.639      5.177
REMARK INTER + INTRA:          -4.779
REMARK INTER:                  -4.535
REMARK INTRA:                  -0.244
REMARK UNBOUND:                -0.246
REMARK SMILES C=CC(=O)CCCCC
REMARK SMILES IDX 6 1 7 2 8 3 9 4 5 5 3 6 4 7 2 8 1 9
REMARK H PARENT
REMARK Flexibility Score: inf
ROOT
ATOM      1  C   UNL     1       6.784 -20.776  22.973  1.00  0.00     0.008 C 
ENDROOT
BRANCH   1   2
ATOM      2  C   UNL     1       8.157 -21.237  22.469  1.00  0.00     0.000 C 
BRANCH   2   3
ATOM      3  C   UNL     1       8.062 -22.613  21.799  1.00  0.00    -0.003 C 
ATOM      4  C   UNL     1       9.437 -23.108  21.359  1.00  0.00     0.004 C 
ENDBRANCH   2   3
ENDBRANCH   1   2
BRANCH   1   5
ATOM      5  C   UNL     1       6.737 -20.761  24.505  1.00  0.00     0.080 C 
BRANCH   5   6
ATOM      6  C   UNL     1       6.875 -19.357  25.029  1.00  0.00     0.155 C 
ATOM      7  O   UNL     1       7.236 -19.194  26.226  1.00  0.00    -0.295 OA
BRANCH   6   8
ATOM      8  C   UNL     1       6.636 -18.156  24.200  1.00  0.00     0.039 C 
ATOM      9  C   UNL     1       7.521 -17.173  24.039  1.00  0.00     0.012 C 
ENDBRANCH   6   8
ENDBRANCH   5   6
ENDBRANCH   1   5
TORSDOF 5
ENDMDL
MODEL 6
REMARK VINA RESULT:    -3.501      4.012      5.897
REMARK INTER + INTRA:          -4.770
REMARK INTER:                  -4.162
REMARK INTRA:                  -0.608
REMARK UNBOUND:                -0.246
REMARK SMILES C=CC(=O)CCCCC
REMARK SMILES IDX 6 1 7 2 8 3 9 4 5 5 3 6 4 7 2 8 1 9
REMARK H PARENT
REMARK Flexibility Score: inf
ROOT
ATOM      1  C   UNL     1       9.074 -15.216  24.452  1.00  0.00     0.008 C 
ENDROOT
BRANCH   1   2
ATOM      2  C   UNL     1      10.422 -15.504  23.780  1.00  0.00     0.000 C 
BRANCH   2   3
ATOM      3  C   UNL     1      11.115 -16.705  24.433  1.00  0.00    -0.003 C 
ATOM      4  C   UNL     1      10.414 -17.110  25.728  1.00  0.00     0.004 C 
ENDBRANCH   2   3
ENDBRANCH   1   2
BRANCH   1   5
ATOM      5  C   UNL     1       7.950 -15.127  23.413  1.00  0.00     0.080 C 
BRANCH   5   6
ATOM      6  C   UNL     1       7.507 -16.500  22.986  1.00  0.00     0.155 C 
ATOM      7  O   UNL     1       7.550 -16.793  21.761  1.00  0.00    -0.295 OA
BRANCH   6   8
ATOM      8  C   UNL     1       7.053 -17.537  23.938  1.00  0.00     0.039 C 
ATOM      9  C   UNL     1       7.576 -18.760  24.015  1.00  0.00     0.012 C 
ENDBRANCH   6   8
ENDBRANCH   5   6
ENDBRANCH   1   5
TORSDOF 5
ENDMDL
MODEL 7
REMARK VINA RESULT:    -3.494      1.335      3.852
REMARK INTER + INTRA:          -4.761
REMARK INTER:                  -4.212
REMARK INTRA:                  -0.549
REMARK UNBOUND:                -0.246
REMARK SMILES C=CC(=O)CCCCC
REMARK SMILES IDX 6 1 7 2 8 3 9 4 5 5 3 6 4 7 2 8 1 9
REMARK H PARENT
REMARK Flexibility Score: inf
ROOT
ATOM      1  C   UNL     1       8.414 -23.181  21.568  1.00  0.00     0.008 C 
ENDROOT
BRANCH   1   2
ATOM      2  C   UNL     1       9.805 -22.823  21.033  1.00  0.00     0.000 C 
BRANCH   2   3
ATOM      3  C   UNL     1      10.816 -22.688  22.178  1.00  0.00    -0.003 C 
ATOM      4  C   UNL     1      10.932 -21.239  22.643  1.00  0.00     0.004 C 
ENDBRANCH   2   3
ENDBRANCH   1   2
BRANCH   1   5
ATOM      5  C   UNL     1       7.347 -22.241  20.997  1.00  0.00     0.080 C 
BRANCH   5   6
ATOM      6  C   UNL     1       7.309 -20.947  21.765  1.00  0.00     0.155 C 
ATOM      7  O   UNL     1       7.581 -19.877  21.156  1.00  0.00    -0.295 OA
BRANCH   6   8
ATOM      8  C   UNL     1       6.938 -20.864  23.194  1.00  0.00     0.039 C 
ATOM      9  C   UNL     1       7.571 -20.103  24.086  1.00  0.00     0.012 C 
ENDBRANCH   6   8
ENDBRANCH   5   6
ENDBRANCH   1   5
TORSDOF 5
ENDMDL
MODEL 8
REMARK VINA RESULT:    -3.464      3.954      5.883
REMARK INTER + INTRA:          -4.722
REMARK INTER:                  -4.513
REMARK INTRA:                  -0.209
REMARK UNBOUND:                -0.246
REMARK SMILES C=CC(=O)CCCCC
REMARK SMILES IDX 6 1 7 2 8 3 9 4 5 5 3 6 4 7 2 8 1 9
REMARK H PARENT
REMARK Flexibility Score: inf
ROOT
ATOM      1  C   UNL     1       7.783 -18.218  23.802  1.00  0.00     0.008 C 
ENDROOT
BRANCH   1   2
ATOM      2  C   UNL     1       6.609 -19.000  24.402  1.00  0.00     0.000 C 
BRANCH   2   3
ATOM      3  C   UNL     1       6.686 -20.484  24.022  1.00  0.00    -0.003 C 
ATOM      4  C   UNL     1       7.060 -20.657  22.552  1.00  0.00     0.004 C 
ENDBRANCH   2   3
ENDBRANCH   1   2
BRANCH   1   5
ATOM      5  C   UNL     1       7.531 -16.707  23.874  1.00  0.00     0.080 C 
BRANCH   5   6
ATOM      6  C   UNL     1       8.594 -16.027  24.694  1.00  0.00     0.155 C 
ATOM      7  O   UNL     1       8.539 -16.123  25.950  1.00  0.00    -0.295 OA
BRANCH   6   8
ATOM      8  C   UNL     1       9.720 -15.277  24.098  1.00  0.00     0.039 C 
ATOM      9  C   UNL     1      10.874 -15.832  23.730  1.00  0.00     0.012 C 
ENDBRANCH   6   8
ENDBRANCH   5   6
ENDBRANCH   1   5
TORSDOF 5
ENDMDL
MODEL 9
REMARK VINA RESULT:    -3.433      3.292      5.612
REMARK INTER + INTRA:          -4.683
REMARK INTER:                  -4.478
REMARK INTRA:                  -0.205
REMARK UNBOUND:                -0.246
REMARK SMILES C=CC(=O)CCCCC
REMARK SMILES IDX 6 1 7 2 8 3 9 4 5 5 3 6 4 7 2 8 1 9
REMARK H PARENT
REMARK Flexibility Score: inf
ROOT
ATOM      1  C   UNL     1       6.610 -18.846  24.165  1.00  0.00     0.008 C 
ENDROOT
BRANCH   1   2
ATOM      2  C   UNL     1       6.442 -20.265  23.609  1.00  0.00     0.000 C 
BRANCH   2   3
ATOM      3  C   UNL     1       7.476 -20.552  22.514  1.00  0.00    -0.003 C 
ATOM      4  C   UNL     1       6.874 -21.399  21.395  1.00  0.00     0.004 C 
ENDBRANCH   2   3
ENDBRANCH   1   2
BRANCH   1   5
ATOM      5  C   UNL     1       7.535 -18.012  23.271  1.00  0.00     0.080 C 
BRANCH   5   6
ATOM      6  C   UNL     1       7.630 -16.596  23.773  1.00  0.00     0.155 C 
ATOM      7  O   UNL     1       8.133 -16.394  24.912  1.00  0.00    -0.295 OA
BRANCH   6   8
ATOM      8  C   UNL     1       7.192 -15.426  22.983  1.00  0.00     0.039 C 
ATOM      9  C   UNL     1       6.934 -15.462  21.677  1.00  0.00     0.012 C 
ENDBRANCH   6   8
ENDBRANCH   5   6
ENDBRANCH   1   5
TORSDOF 5
ENDMDL
