MODEL 1
REMARK VINA RESULT:    -7.110      0.000      0.000
REMARK INTER + INTRA:          -9.173
REMARK INTER:                  -9.604
REMARK INTRA:                   0.431
REMARK UNBOUND:                 0.431
REMARK SMILES CC[C@H](CC[C@@H](C)[C@H]1CC[C@H]2[C@H]3CC(=O)C4=CC(=O)CC[C@@]4(C)[C@H]3CC[C@@]12C)C(C)C
REMARK SMILES IDX 4 1 3 2 2 3 1 4 29 5 30 6 31 7 5 8 6 9 7 10 8 11 9 12 27 13
REMARK SMILES IDX 10 14 11 15 26 16 28 17 12 18 25 19 24 20 13 21 22 22 14 23
REMARK SMILES IDX 16 24 21 25 23 26 15 27 17 28 20 29 18 30 19 31
REMARK H PARENT
REMARK Flexibility Score: inf
ROOT
ATOM      1  C   UNL     1      -5.192 -20.104 -12.136  1.00  0.00     0.004 C 
ENDROOT
BRANCH   1   2
ATOM      2  C   UNL     1      -6.631 -19.511 -12.113  1.00  0.00    -0.009 C 
BRANCH   2   3
ATOM      3  C   UNL     1      -7.288 -19.740 -10.720  1.00  0.00     0.000 C 
ATOM      4  C   UNL     1      -8.803 -19.541 -10.688  1.00  0.00     0.004 C 
ENDBRANCH   2   3
BRANCH   2   5
ATOM      5  C   UNL     1      -6.593 -18.015 -12.595  1.00  0.00    -0.014 C 
ATOM      6  C   UNL     1      -5.228 -17.593 -13.162  1.00  0.00     0.007 C 
ATOM      7  C   UNL     1      -7.728 -17.642 -13.563  1.00  0.00     0.007 C 
ENDBRANCH   2   5
ENDBRANCH   1   2
BRANCH   1   8
ATOM      8  C   UNL     1      -4.880 -21.018 -10.932  1.00  0.00     0.004 C 
BRANCH   8   9
ATOM      9  C   UNL     1      -4.093 -22.298 -11.336  1.00  0.00    -0.011 C 
ATOM     10  C   UNL     1      -3.697 -22.217 -12.822  1.00  0.00     0.008 C 
BRANCH   9  11
ATOM     11  C   UNL     1      -2.825 -22.590 -10.454  1.00  0.00    -0.002 C 
ATOM     12  C   UNL     1      -2.746 -23.984  -9.829  1.00  0.00     0.005 C 
ATOM     13  C   UNL     1      -1.420 -22.292 -11.071  1.00  0.00    -0.026 C 
ATOM     14  C   UNL     1      -1.282 -24.198  -9.462  1.00  0.00     0.005 C 
ATOM     15  C   UNL     1      -0.457 -23.078 -10.128  1.00  0.00    -0.001 C 
ATOM     16  C   UNL     1      -1.252 -22.727 -12.566  1.00  0.00     0.007 C 
ATOM     17  C   UNL     1      -1.126 -20.771 -10.984  1.00  0.00     0.012 C 
ATOM     18  C   UNL     1       0.852 -23.573 -10.821  1.00  0.00     0.004 C 
ATOM     19  C   UNL     1      -0.802 -24.182 -12.722  1.00  0.00     0.005 C 
ATOM     20  C   UNL     1       0.631 -24.373 -12.171  1.00  0.00     0.003 C 
ATOM     21  C   UNL     1       1.829 -24.197  -9.802  1.00  0.00     0.085 C 
ATOM     22  C   UNL     1       1.186 -25.871 -12.298  1.00  0.00    -0.000 C 
ATOM     23  C   UNL     1       2.813 -25.085 -10.465  1.00  0.00     0.159 C 
ATOM     24  C   UNL     1       2.277 -26.172 -11.276  1.00  0.00     0.005 C 
ATOM     25  C   UNL     1       0.072 -26.957 -12.146  1.00  0.00     0.020 C 
ATOM     26  C   UNL     1       1.828 -26.018 -13.708  1.00  0.00     0.017 C 
ATOM     27  O   UNL     1       4.047 -24.989 -10.228  1.00  0.00    -0.295 OA
ATOM     28  C   UNL     1       2.654 -27.431 -11.003  1.00  0.00     0.055 C 
ATOM     29  C   UNL     1       0.606 -28.398 -12.258  1.00  0.00     0.081 C 
ATOM     30  C   UNL     1       1.906 -28.584 -11.527  1.00  0.00     0.156 C 
ATOM     31  O   UNL     1       2.357 -29.746 -11.352  1.00  0.00    -0.295 OA
ENDBRANCH   9  11
ENDBRANCH   8   9
ENDBRANCH   1   8
TORSDOF 6
ENDMDL
MODEL 2
REMARK VINA RESULT:    -7.086      0.478      1.482
REMARK INTER + INTRA:          -9.140
REMARK INTER:                  -9.622
REMARK INTRA:                   0.482
REMARK UNBOUND:                 0.431
REMARK SMILES CC[C@H](CC[C@@H](C)[C@H]1CC[C@H]2[C@H]3CC(=O)C4=CC(=O)CC[C@@]4(C)[C@H]3CC[C@@]12C)C(C)C
REMARK SMILES IDX 4 1 3 2 2 3 1 4 29 5 30 6 31 7 5 8 6 9 7 10 8 11 9 12 27 13
REMARK SMILES IDX 10 14 11 15 26 16 28 17 12 18 25 19 24 20 13 21 22 22 14 23
REMARK SMILES IDX 16 24 21 25 23 26 15 27 17 28 20 29 18 30 19 31
REMARK H PARENT
REMARK Flexibility Score: inf
ROOT
ATOM      1  C   UNL     1      -5.405 -20.243 -12.225  1.00  0.00     0.004 C 
ENDROOT
BRANCH   1   2
ATOM      2  C   UNL     1      -6.486 -19.175 -11.887  1.00  0.00    -0.009 C 
BRANCH   2   3
ATOM      3  C   UNL     1      -6.525 -18.077 -12.991  1.00  0.00     0.000 C 
ATOM      4  C   UNL     1      -5.235 -17.269 -13.132  1.00  0.00     0.004 C 
ENDBRANCH   2   3
BRANCH   2   5
ATOM      5  C   UNL     1      -7.860 -19.886 -11.605  1.00  0.00    -0.014 C 
ATOM      6  C   UNL     1      -8.736 -19.135 -10.589  1.00  0.00     0.007 C 
ATOM      7  C   UNL     1      -8.659 -20.225 -12.873  1.00  0.00     0.007 C 
ENDBRANCH   2   5
ENDBRANCH   1   2
BRANCH   1   8
ATOM      8  C   UNL     1      -4.863 -20.989 -10.987  1.00  0.00     0.004 C 
BRANCH   8   9
ATOM      9  C   UNL     1      -4.112 -22.301 -11.356  1.00  0.00    -0.011 C 
ATOM     10  C   UNL     1      -3.717 -22.272 -12.845  1.00  0.00     0.008 C 
BRANCH   9  11
ATOM     11  C   UNL     1      -2.849 -22.601 -10.468  1.00  0.00    -0.002 C 
ATOM     12  C   UNL     1      -2.780 -23.998  -9.848  1.00  0.00     0.005 C 
ATOM     13  C   UNL     1      -1.440 -22.307 -11.076  1.00  0.00    -0.026 C 
ATOM     14  C   UNL     1      -1.319 -24.219  -9.473  1.00  0.00     0.005 C 
ATOM     15  C   UNL     1      -0.485 -23.101 -10.131  1.00  0.00    -0.001 C 
ATOM     16  C   UNL     1      -1.266 -22.737 -12.572  1.00  0.00     0.007 C 
ATOM     17  C   UNL     1      -1.140 -20.788 -10.982  1.00  0.00     0.012 C 
ATOM     18  C   UNL     1       0.825 -23.599 -10.818  1.00  0.00     0.004 C 
ATOM     19  C   UNL     1      -0.821 -24.194 -12.731  1.00  0.00     0.005 C 
ATOM     20  C   UNL     1       0.608 -24.393 -12.172  1.00  0.00     0.003 C 
ATOM     21  C   UNL     1       1.794 -24.231  -9.796  1.00  0.00     0.085 C 
ATOM     22  C   UNL     1       1.158 -25.893 -12.302  1.00  0.00    -0.000 C 
ATOM     23  C   UNL     1       2.778 -25.121 -10.457  1.00  0.00     0.159 C 
ATOM     24  C   UNL     1       2.241 -26.203 -11.275  1.00  0.00     0.005 C 
ATOM     25  C   UNL     1       0.038 -26.974 -12.160  1.00  0.00     0.020 C 
ATOM     26  C   UNL     1       1.806 -26.037 -13.709  1.00  0.00     0.017 C 
ATOM     27  O   UNL     1       4.011 -25.031 -10.213  1.00  0.00    -0.295 OA
ATOM     28  C   UNL     1       2.612 -27.464 -11.004  1.00  0.00     0.055 C 
ATOM     29  C   UNL     1       0.566 -28.418 -12.274  1.00  0.00     0.081 C 
ATOM     30  C   UNL     1       1.862 -28.612 -11.537  1.00  0.00     0.156 C 
ATOM     31  O   UNL     1       2.307 -29.776 -11.364  1.00  0.00    -0.295 OA
ENDBRANCH   9  11
ENDBRANCH   8   9
ENDBRANCH   1   8
TORSDOF 6
ENDMDL
MODEL 3
REMARK VINA RESULT:    -6.194      1.298      2.142
REMARK INTER + INTRA:          -7.936
REMARK INTER:                  -7.889
REMARK INTRA:                  -0.046
REMARK UNBOUND:                 0.431
REMARK SMILES CC[C@H](CC[C@@H](C)[C@H]1CC[C@H]2[C@H]3CC(=O)C4=CC(=O)CC[C@@]4(C)[C@H]3CC[C@@]12C)C(C)C
REMARK SMILES IDX 4 1 3 2 2 3 1 4 29 5 30 6 31 7 5 8 6 9 7 10 8 11 9 12 27 13
REMARK SMILES IDX 10 14 11 15 26 16 28 17 12 18 25 19 24 20 13 21 22 22 14 23
REMARK SMILES IDX 16 24 21 25 23 26 15 27 17 28 20 29 18 30 19 31
REMARK H PARENT
REMARK Flexibility Score: inf
ROOT
ATOM      1  C   UNL     1      -5.956 -20.264 -11.698  1.00  0.00     0.004 C 
ENDROOT
BRANCH   1   2
ATOM      2  C   UNL     1      -6.716 -18.909 -11.804  1.00  0.00    -0.009 C 
BRANCH   2   3
ATOM      3  C   UNL     1      -6.041 -17.993 -12.867  1.00  0.00     0.000 C 
ATOM      4  C   UNL     1      -7.016 -17.252 -13.782  1.00  0.00     0.004 C 
ENDBRANCH   2   3
BRANCH   2   5
ATOM      5  C   UNL     1      -8.248 -19.180 -12.032  1.00  0.00    -0.014 C 
ATOM      6  C   UNL     1      -8.523 -20.391 -12.939  1.00  0.00     0.007 C 
ATOM      7  C   UNL     1      -9.066 -19.269 -10.734  1.00  0.00     0.007 C 
ENDBRANCH   2   5
ENDBRANCH   1   2
BRANCH   1   8
ATOM      8  C   UNL     1      -4.635 -20.297 -12.497  1.00  0.00     0.004 C 
BRANCH   8   9
ATOM      9  C   UNL     1      -4.225 -21.736 -12.922  1.00  0.00    -0.011 C 
ATOM     10  C   UNL     1      -3.092 -21.667 -13.963  1.00  0.00     0.008 C 
BRANCH   9  11
ATOM     11  C   UNL     1      -3.807 -22.674 -11.731  1.00  0.00    -0.002 C 
ATOM     12  C   UNL     1      -3.763 -24.172 -12.038  1.00  0.00     0.005 C 
ATOM     13  C   UNL     1      -2.493 -22.333 -10.957  1.00  0.00    -0.026 C 
ATOM     14  C   UNL     1      -2.897 -24.798 -10.951  1.00  0.00     0.005 C 
ATOM     15  C   UNL     1      -2.193 -23.658 -10.188  1.00  0.00    -0.001 C 
ATOM     16  C   UNL     1      -1.289 -21.902 -11.861  1.00  0.00     0.007 C 
ATOM     17  C   UNL     1      -2.765 -21.184  -9.952  1.00  0.00     0.012 C 
ATOM     18  C   UNL     1      -0.677 -23.909  -9.915  1.00  0.00     0.004 C 
ATOM     19  C   UNL     1      -0.461 -23.088 -12.365  1.00  0.00     0.005 C 
ATOM     20  C   UNL     1       0.258 -23.791 -11.189  1.00  0.00     0.003 C 
ATOM     21  C   UNL     1      -0.463 -25.145  -9.015  1.00  0.00     0.085 C 
ATOM     22  C   UNL     1       1.155 -25.045 -11.627  1.00  0.00    -0.000 C 
ATOM     23  C   UNL     1       0.914 -25.680  -9.144  1.00  0.00     0.159 C 
ATOM     24  C   UNL     1       1.357 -26.037 -10.486  1.00  0.00     0.005 C 
ATOM     25  C   UNL     1       0.567 -25.828 -12.845  1.00  0.00     0.020 C 
ATOM     26  C   UNL     1       2.560 -24.506 -12.019  1.00  0.00     0.017 C 
ATOM     27  O   UNL     1       1.614 -25.941  -8.129  1.00  0.00    -0.295 OA
ATOM     28  C   UNL     1       1.803 -27.283 -10.711  1.00  0.00     0.055 C 
ATOM     29  C   UNL     1       1.422 -27.041 -13.261  1.00  0.00     0.081 C 
ATOM     30  C   UNL     1       1.930 -27.814 -12.077  1.00  0.00     0.156 C 
ATOM     31  O   UNL     1       2.464 -28.941 -12.255  1.00  0.00    -0.295 OA
ENDBRANCH   9  11
ENDBRANCH   8   9
ENDBRANCH   1   8
TORSDOF 6
ENDMDL
MODEL 4
REMARK VINA RESULT:    -5.888      3.886      9.659
REMARK INTER + INTRA:          -7.522
REMARK INTER:                  -7.636
REMARK INTRA:                   0.114
REMARK UNBOUND:                 0.431
REMARK SMILES CC[C@H](CC[C@@H](C)[C@H]1CC[C@H]2[C@H]3CC(=O)C4=CC(=O)CC[C@@]4(C)[C@H]3CC[C@@]12C)C(C)C
REMARK SMILES IDX 4 1 3 2 2 3 1 4 29 5 30 6 31 7 5 8 6 9 7 10 8 11 9 12 27 13
REMARK SMILES IDX 10 14 11 15 26 16 28 17 12 18 25 19 24 20 13 21 22 22 14 23
REMARK SMILES IDX 16 24 21 25 23 26 15 27 17 28 20 29 18 30 19 31
REMARK H PARENT
REMARK Flexibility Score: inf
ROOT
ATOM      1  C   UNL     1       0.204 -24.467 -12.058  1.00  0.00     0.004 C 
ENDROOT
BRANCH   1   2
ATOM      2  C   UNL     1       1.416 -25.370 -11.681  1.00  0.00    -0.009 C 
BRANCH   2   3
ATOM      3  C   UNL     1       1.885 -25.064 -10.228  1.00  0.00     0.000 C 
ATOM      4  C   UNL     1       3.257 -24.396 -10.128  1.00  0.00     0.004 C 
ENDBRANCH   2   3
BRANCH   2   5
ATOM      5  C   UNL     1       1.061 -26.875 -11.965  1.00  0.00    -0.014 C 
ATOM      6  C   UNL     1       1.522 -27.358 -13.350  1.00  0.00     0.007 C 
ATOM      7  C   UNL     1       1.525 -27.843 -10.865  1.00  0.00     0.007 C 
ENDBRANCH   2   5
ENDBRANCH   1   2
BRANCH   1   8
ATOM      8  C   UNL     1      -0.989 -24.596 -11.086  1.00  0.00     0.004 C 
BRANCH   8   9
ATOM      9  C   UNL     1      -2.357 -24.320 -11.774  1.00  0.00    -0.011 C 
ATOM     10  C   UNL     1      -3.485 -24.371 -10.725  1.00  0.00     0.008 C 
BRANCH   9  11
ATOM     11  C   UNL     1      -2.425 -22.968 -12.574  1.00  0.00    -0.002 C 
ATOM     12  C   UNL     1      -3.443 -22.911 -13.714  1.00  0.00     0.005 C 
ATOM     13  C   UNL     1      -2.583 -21.643 -11.761  1.00  0.00    -0.026 C 
ATOM     14  C   UNL     1      -3.673 -21.431 -13.999  1.00  0.00     0.005 C 
ATOM     15  C   UNL     1      -3.035 -20.622 -12.852  1.00  0.00    -0.001 C 
ATOM     16  C   UNL     1      -3.605 -21.716 -10.576  1.00  0.00     0.007 C 
ATOM     17  C   UNL     1      -1.209 -21.224 -11.176  1.00  0.00     0.012 C 
ATOM     18  C   UNL     1      -3.930 -19.463 -12.310  1.00  0.00     0.004 C 
ATOM     19  C   UNL     1      -5.043 -21.405 -11.001  1.00  0.00     0.005 C 
ATOM     20  C   UNL     1      -5.174 -19.928 -11.446  1.00  0.00     0.003 C 
ATOM     21  C   UNL     1      -4.206 -18.406 -13.401  1.00  0.00     0.085 C 
ATOM     22  C   UNL     1      -6.652 -19.513 -11.905  1.00  0.00    -0.000 C 
ATOM     23  C   UNL     1      -5.404 -17.594 -13.081  1.00  0.00     0.159 C 
ATOM     24  C   UNL     1      -6.648 -18.319 -12.853  1.00  0.00     0.005 C 
ATOM     25  C   UNL     1      -7.432 -20.676 -12.600  1.00  0.00     0.020 C 
ATOM     26  C   UNL     1      -7.438 -19.085 -10.632  1.00  0.00     0.017 C 
ATOM     27  O   UNL     1      -5.378 -16.335 -13.140  1.00  0.00    -0.295 OA
ATOM     28  C   UNL     1      -7.725 -18.005 -13.591  1.00  0.00     0.055 C 
ATOM     29  C   UNL     1      -8.849 -20.275 -13.052  1.00  0.00     0.081 C 
ATOM     30  C   UNL     1      -8.886 -18.905 -13.668  1.00  0.00     0.156 C 
ATOM     31  O   UNL     1      -9.924 -18.524 -14.271  1.00  0.00    -0.295 OA
ENDBRANCH   9  11
ENDBRANCH   8   9
ENDBRANCH   1   8
TORSDOF 6
ENDMDL
MODEL 5
REMARK VINA RESULT:    -4.848      3.337      9.653
REMARK INTER + INTRA:          -6.117
REMARK INTER:                  -6.084
REMARK INTRA:                  -0.033
REMARK UNBOUND:                 0.431
REMARK SMILES CC[C@H](CC[C@@H](C)[C@H]1CC[C@H]2[C@H]3CC(=O)C4=CC(=O)CC[C@@]4(C)[C@H]3CC[C@@]12C)C(C)C
REMARK SMILES IDX 4 1 3 2 2 3 1 4 29 5 30 6 31 7 5 8 6 9 7 10 8 11 9 12 27 13
REMARK SMILES IDX 10 14 11 15 26 16 28 17 12 18 25 19 24 20 13 21 22 22 14 23
REMARK SMILES IDX 16 24 21 25 23 26 15 27 17 28 20 29 18 30 19 31
REMARK H PARENT
REMARK Flexibility Score: inf
ROOT
ATOM      1  C   UNL     1       4.836 -27.822 -10.559  1.00  0.00     0.004 C 
ENDROOT
BRANCH   1   2
ATOM      2  C   UNL     1       6.258 -28.287 -10.991  1.00  0.00    -0.009 C 
BRANCH   2   3
ATOM      3  C   UNL     1       6.195 -29.001 -12.374  1.00  0.00     0.000 C 
ATOM      4  C   UNL     1       6.769 -30.417 -12.387  1.00  0.00     0.004 C 
ENDBRANCH   2   3
BRANCH   2   5
ATOM      5  C   UNL     1       7.256 -27.075 -10.911  1.00  0.00    -0.014 C 
ATOM      6  C   UNL     1       7.918 -26.742 -12.258  1.00  0.00     0.007 C 
ATOM      7  C   UNL     1       6.656 -25.814 -10.269  1.00  0.00     0.007 C 
ENDBRANCH   2   5
ENDBRANCH   1   2
BRANCH   1   8
ATOM      8  C   UNL     1       3.732 -28.178 -11.577  1.00  0.00     0.004 C 
BRANCH   8   9
ATOM      9  C   UNL     1       3.031 -26.922 -12.169  1.00  0.00    -0.011 C 
ATOM     10  C   UNL     1       1.908 -27.357 -13.129  1.00  0.00     0.008 C 
BRANCH   9  11
ATOM     11  C   UNL     1       2.466 -25.923 -11.094  1.00  0.00    -0.002 C 
ATOM     12  C   UNL     1       2.551 -24.436 -11.446  1.00  0.00     0.005 C 
ATOM     13  C   UNL     1       1.023 -26.175 -10.547  1.00  0.00    -0.026 C 
ATOM     14  C   UNL     1       1.546 -23.732 -10.542  1.00  0.00     0.005 C 
ATOM     15  C   UNL     1       0.666 -24.811  -9.879  1.00  0.00    -0.001 C 
ATOM     16  C   UNL     1      -0.030 -26.583 -11.632  1.00  0.00     0.007 C 
ATOM     17  C   UNL     1       1.062 -27.298  -9.478  1.00  0.00     0.012 C 
ATOM     18  C   UNL     1      -0.860 -24.481  -9.878  1.00  0.00     0.004 C 
ATOM     19  C   UNL     1      -0.699 -25.380 -12.304  1.00  0.00     0.005 C 
ATOM     20  C   UNL     1      -1.570 -24.603 -11.289  1.00  0.00     0.003 C 
ATOM     21  C   UNL     1      -1.161 -23.204  -9.063  1.00  0.00     0.085 C 
ATOM     22  C   UNL     1      -2.314 -23.326 -11.909  1.00  0.00    -0.000 C 
ATOM     23  C   UNL     1      -2.466 -22.613  -9.441  1.00  0.00     0.159 C 
ATOM     24  C   UNL     1      -2.657 -22.285 -10.849  1.00  0.00     0.005 C 
ATOM     25  C   UNL     1      -1.489 -22.616 -13.031  1.00  0.00     0.020 C 
ATOM     26  C   UNL     1      -3.658 -23.815 -12.522  1.00  0.00     0.017 C 
ATOM     27  O   UNL     1      -3.314 -22.282  -8.569  1.00  0.00    -0.295 OA
ATOM     28  C   UNL     1      -2.993 -21.029 -11.182  1.00  0.00     0.055 C 
ATOM     29  C   UNL     1      -2.198 -21.382 -13.621  1.00  0.00     0.081 C 
ATOM     30  C   UNL     1      -2.860 -20.543 -12.564  1.00  0.00     0.156 C 
ATOM     31  O   UNL     1      -3.297 -19.401 -12.863  1.00  0.00    -0.295 OA
ENDBRANCH   9  11
ENDBRANCH   8   9
ENDBRANCH   1   8
TORSDOF 6
ENDMDL
MODEL 6
REMARK VINA RESULT:    -4.807      3.327      9.607
REMARK INTER + INTRA:          -6.062
REMARK INTER:                  -5.656
REMARK INTRA:                  -0.406
REMARK UNBOUND:                 0.431
REMARK SMILES CC[C@H](CC[C@@H](C)[C@H]1CC[C@H]2[C@H]3CC(=O)C4=CC(=O)CC[C@@]4(C)[C@H]3CC[C@@]12C)C(C)C
REMARK SMILES IDX 4 1 3 2 2 3 1 4 29 5 30 6 31 7 5 8 6 9 7 10 8 11 9 12 27 13
REMARK SMILES IDX 10 14 11 15 26 16 28 17 12 18 25 19 24 20 13 21 22 22 14 23
REMARK SMILES IDX 16 24 21 25 23 26 15 27 17 28 20 29 18 30 19 31
REMARK H PARENT
REMARK Flexibility Score: inf
ROOT
ATOM      1  C   UNL     1       4.399 -28.566 -10.804  1.00  0.00     0.004 C 
ENDROOT
BRANCH   1   2
ATOM      2  C   UNL     1       5.568 -27.649 -11.270  1.00  0.00    -0.009 C 
BRANCH   2   3
ATOM      3  C   UNL     1       5.918 -26.614 -10.160  1.00  0.00     0.000 C 
ATOM      4  C   UNL     1       7.413 -26.358  -9.976  1.00  0.00     0.004 C 
ENDBRANCH   2   3
BRANCH   2   5
ATOM      5  C   UNL     1       6.771 -28.534 -11.760  1.00  0.00    -0.014 C 
ATOM      6  C   UNL     1       6.795 -29.935 -11.125  1.00  0.00     0.007 C 
ATOM      7  C   UNL     1       6.897 -28.624 -13.289  1.00  0.00     0.007 C 
ENDBRANCH   2   5
ENDBRANCH   1   2
BRANCH   1   8
ATOM      8  C   UNL     1       3.130 -28.442 -11.674  1.00  0.00     0.004 C 
BRANCH   8   9
ATOM      9  C   UNL     1       2.912 -27.001 -12.217  1.00  0.00    -0.011 C 
ATOM     10  C   UNL     1       1.961 -27.041 -13.429  1.00  0.00     0.008 C 
BRANCH   9  11
ATOM     11  C   UNL     1       2.383 -25.974 -11.150  1.00  0.00    -0.002 C 
ATOM     12  C   UNL     1       2.480 -24.496 -11.533  1.00  0.00     0.005 C 
ATOM     13  C   UNL     1       0.951 -26.196 -10.566  1.00  0.00    -0.026 C 
ATOM     14  C   UNL     1       1.505 -23.761 -10.620  1.00  0.00     0.005 C 
ATOM     15  C   UNL     1       0.626 -24.815  -9.917  1.00  0.00    -0.001 C 
ATOM     16  C   UNL     1      -0.132 -26.611 -11.620  1.00  0.00     0.007 C 
ATOM     17  C   UNL     1       0.998 -27.299  -9.477  1.00  0.00     0.012 C 
ATOM     18  C   UNL     1      -0.895 -24.464  -9.888  1.00  0.00     0.004 C 
ATOM     19  C   UNL     1      -0.800 -25.412 -12.300  1.00  0.00     0.005 C 
ATOM     20  C   UNL     1      -1.638 -24.604 -11.281  1.00  0.00     0.003 C 
ATOM     21  C   UNL     1      -1.161 -23.169  -9.092  1.00  0.00     0.085 C 
ATOM     22  C   UNL     1      -2.379 -23.329 -11.909  1.00  0.00    -0.000 C 
ATOM     23  C   UNL     1      -2.467 -22.567  -9.453  1.00  0.00     0.159 C 
ATOM     24  C   UNL     1      -2.684 -22.264 -10.862  1.00  0.00     0.005 C 
ATOM     25  C   UNL     1      -1.570 -22.652 -13.062  1.00  0.00     0.020 C 
ATOM     26  C   UNL     1      -3.743 -23.812 -12.482  1.00  0.00     0.017 C 
ATOM     27  O   UNL     1      -3.290 -22.208  -8.569  1.00  0.00    -0.295 OA
ATOM     28  C   UNL     1      -3.012 -21.010 -11.212  1.00  0.00     0.055 C 
ATOM     29  C   UNL     1      -2.276 -21.420 -13.661  1.00  0.00     0.081 C 
ATOM     30  C   UNL     1      -2.903 -20.552 -12.606  1.00  0.00     0.156 C 
ATOM     31  O   UNL     1      -3.332 -19.411 -12.918  1.00  0.00    -0.295 OA
ENDBRANCH   9  11
ENDBRANCH   8   9
ENDBRANCH   1   8
TORSDOF 6
ENDMDL
MODEL 7
REMARK VINA RESULT:    -4.190      1.344      3.438
REMARK INTER + INTRA:          -5.229
REMARK INTER:                  -5.670
REMARK INTRA:                   0.441
REMARK UNBOUND:                 0.431
REMARK SMILES CC[C@H](CC[C@@H](C)[C@H]1CC[C@H]2[C@H]3CC(=O)C4=CC(=O)CC[C@@]4(C)[C@H]3CC[C@@]12C)C(C)C
REMARK SMILES IDX 4 1 3 2 2 3 1 4 29 5 30 6 31 7 5 8 6 9 7 10 8 11 9 12 27 13
REMARK SMILES IDX 10 14 11 15 26 16 28 17 12 18 25 19 24 20 13 21 22 22 14 23
REMARK SMILES IDX 16 24 21 25 23 26 15 27 17 28 20 29 18 30 19 31
REMARK H PARENT
REMARK Flexibility Score: inf
ROOT
ATOM      1  C   UNL     1      -5.463 -19.189 -12.445  1.00  0.00     0.004 C 
ENDROOT
BRANCH   1   2
ATOM      2  C   UNL     1      -6.857 -18.588 -12.101  1.00  0.00    -0.009 C 
BRANCH   2   3
ATOM      3  C   UNL     1      -7.273 -17.540 -13.175  1.00  0.00     0.000 C 
ATOM      4  C   UNL     1      -6.186 -17.206 -14.196  1.00  0.00     0.004 C 
ENDBRANCH   2   3
BRANCH   2   5
ATOM      5  C   UNL     1      -7.890 -19.751 -11.868  1.00  0.00    -0.014 C 
ATOM      6  C   UNL     1      -8.800 -19.521 -10.651  1.00  0.00     0.007 C 
ATOM      7  C   UNL     1      -8.718 -20.108 -13.112  1.00  0.00     0.007 C 
ENDBRANCH   2   5
ENDBRANCH   1   2
BRANCH   1   8
ATOM      8  C   UNL     1      -5.327 -20.684 -12.084  1.00  0.00     0.004 C 
BRANCH   8   9
ATOM      9  C   UNL     1      -3.943 -21.029 -11.463  1.00  0.00    -0.011 C 
ATOM     10  C   UNL     1      -4.143 -21.754 -10.118  1.00  0.00     0.008 C 
BRANCH   9  11
ATOM     11  C   UNL     1      -3.001 -21.875 -12.396  1.00  0.00    -0.002 C 
ATOM     12  C   UNL     1      -1.567 -21.363 -12.546  1.00  0.00     0.005 C 
ATOM     13  C   UNL     1      -2.907 -23.414 -12.141  1.00  0.00    -0.026 C 
ATOM     14  C   UNL     1      -0.750 -22.545 -13.055  1.00  0.00     0.005 C 
ATOM     15  C   UNL     1      -1.617 -23.814 -12.923  1.00  0.00    -0.001 C 
ATOM     16  C   UNL     1      -2.821 -23.826 -10.632  1.00  0.00     0.007 C 
ATOM     17  C   UNL     1      -4.143 -24.120 -12.755  1.00  0.00     0.012 C 
ATOM     18  C   UNL     1      -0.865 -25.045 -12.328  1.00  0.00     0.004 C 
ATOM     19  C   UNL     1      -1.388 -23.840 -10.092  1.00  0.00     0.005 C 
ATOM     20  C   UNL     1      -0.558 -24.953 -10.776  1.00  0.00     0.003 C 
ATOM     21  C   UNL     1       0.303 -25.487 -13.236  1.00  0.00     0.085 C 
ATOM     22  C   UNL     1       0.959 -25.043 -10.267  1.00  0.00    -0.000 C 
ATOM     23  C   UNL     1       1.297 -26.294 -12.490  1.00  0.00     0.159 C 
ATOM     24  C   UNL     1       1.879 -25.685 -11.300  1.00  0.00     0.005 C 
ATOM     25  C   UNL     1       1.564 -23.654  -9.883  1.00  0.00     0.020 C 
ATOM     26  C   UNL     1       0.980 -25.954  -9.006  1.00  0.00     0.017 C 
ATOM     27  O   UNL     1       1.720 -27.393 -12.940  1.00  0.00    -0.295 OA
ATOM     28  C   UNL     1       3.214 -25.580 -11.212  1.00  0.00     0.055 C 
ATOM     29  C   UNL     1       3.026 -23.737  -9.403  1.00  0.00     0.081 C 
ATOM     30  C   UNL     1       3.847 -24.683 -10.234  1.00  0.00     0.156 C 
ATOM     31  O   UNL     1       5.099 -24.700 -10.098  1.00  0.00    -0.295 OA
ENDBRANCH   9  11
ENDBRANCH   8   9
ENDBRANCH   1   8
TORSDOF 6
ENDMDL
