MODEL 1
REMARK VINA RESULT:    -4.828      0.000      0.000
REMARK INTER + INTRA:          -8.365
REMARK INTER:                  -7.368
REMARK INTRA:                  -0.997
REMARK UNBOUND:                -0.997
REMARK SMILES CCCCCCCCCCC(=O)[O-]
REMARK SMILES IDX 7 1 8 2 9 3 10 4 11 5 12 6 13 7 6 8 5 9 4 10 3 11 2 12 1 13
REMARK H PARENT
REMARK Flexibility Score: inf
ROOT
ATOM      1  C   UNL     1     133.168 135.948 114.767  1.00  0.00     0.000 C 
ENDROOT
BRANCH   1   2
ATOM      2  C   UNL     1     134.056 136.109 116.012  1.00  0.00     0.000 C 
BRANCH   2   3
ATOM      3  C   UNL     1     135.456 136.652 115.675  1.00  0.00     0.006 C 
BRANCH   3   4
ATOM      4  C   UNL     1     136.569 135.842 116.353  1.00  0.00     0.053 C 
BRANCH   4   5
ATOM      5  C   UNL     1     136.211 135.470 117.760  1.00  0.00     0.041 C 
ATOM      6  O   UNL     1     136.287 136.326 118.680  1.00  0.00    -0.550 OA
ATOM      7  O   UNL     1     135.823 134.170 118.059  1.00  0.00    -0.550 OA
ENDBRANCH   4   5
ENDBRANCH   3   4
ENDBRANCH   2   3
ENDBRANCH   1   2
BRANCH   1   8
ATOM      8  C   UNL     1     133.198 134.518 114.199  1.00  0.00     0.000 C 
BRANCH   8   9
ATOM      9  C   UNL     1     134.097 134.393 112.958  1.00  0.00    -0.000 C 
BRANCH   9  10
ATOM     10  C   UNL     1     135.485 133.821 113.286  1.00  0.00    -0.000 C 
BRANCH  10  11
ATOM     11  C   UNL     1     135.422 132.900 114.511  1.00  0.00    -0.000 C 
BRANCH  11  12
ATOM     12  C   UNL     1     136.829 132.574 115.027  1.00  0.00    -0.003 C 
ATOM     13  C   UNL     1     136.998 131.075 115.253  1.00  0.00     0.004 C 
ENDBRANCH  11  12
ENDBRANCH  10  11
ENDBRANCH   9  10
ENDBRANCH   8   9
ENDBRANCH   1   8
TORSDOF 9
ENDMDL
MODEL 2
REMARK VINA RESULT:    -4.725      1.614      3.360
REMARK INTER + INTRA:          -8.208
REMARK INTER:                  -7.012
REMARK INTRA:                  -1.196
REMARK UNBOUND:                -0.997
REMARK SMILES CCCCCCCCCCC(=O)[O-]
REMARK SMILES IDX 7 1 8 2 9 3 10 4 11 5 12 6 13 7 6 8 5 9 4 10 3 11 2 12 1 13
REMARK H PARENT
REMARK Flexibility Score: inf
ROOT
ATOM      1  C   UNL     1     133.537 133.844 114.974  1.00  0.00     0.000 C 
ENDROOT
BRANCH   1   2
ATOM      2  C   UNL     1     134.878 133.417 114.354  1.00  0.00     0.000 C 
BRANCH   2   3
ATOM      3  C   UNL     1     136.067 134.230 114.898  1.00  0.00     0.006 C 
BRANCH   3   4
ATOM      4  C   UNL     1     136.653 133.613 116.175  1.00  0.00     0.053 C 
BRANCH   4   5
ATOM      5  C   UNL     1     136.336 134.434 117.388  1.00  0.00     0.041 C 
ATOM      6  O   UNL     1     135.204 134.347 117.932  1.00  0.00    -0.550 OA
ATOM      7  O   UNL     1     137.278 135.316 117.898  1.00  0.00    -0.550 OA
ENDBRANCH   4   5
ENDBRANCH   3   4
ENDBRANCH   2   3
ENDBRANCH   1   2
BRANCH   1   8
ATOM      8  C   UNL     1     133.308 135.363 114.901  1.00  0.00     0.000 C 
BRANCH   8   9
ATOM      9  C   UNL     1     132.242 135.751 113.863  1.00  0.00    -0.000 C 
BRANCH   9  10
ATOM     10  C   UNL     1     132.829 136.524 112.671  1.00  0.00    -0.000 C 
BRANCH  10  11
ATOM     11  C   UNL     1     134.304 136.865 112.913  1.00  0.00    -0.000 C 
BRANCH  11  12
ATOM     12  C   UNL     1     135.189 136.305 111.793  1.00  0.00    -0.003 C 
ATOM     13  C   UNL     1     134.492 135.166 111.057  1.00  0.00     0.004 C 
ENDBRANCH  11  12
ENDBRANCH  10  11
ENDBRANCH   9  10
ENDBRANCH   8   9
ENDBRANCH   1   8
TORSDOF 9
ENDMDL
MODEL 3
REMARK VINA RESULT:    -4.705      7.927      9.236
REMARK INTER + INTRA:          -8.178
REMARK INTER:                  -7.145
REMARK INTRA:                  -1.032
REMARK UNBOUND:                -0.997
REMARK SMILES CCCCCCCCCCC(=O)[O-]
REMARK SMILES IDX 7 1 8 2 9 3 10 4 11 5 12 6 13 7 6 8 5 9 4 10 3 11 2 12 1 13
REMARK H PARENT
REMARK Flexibility Score: inf
ROOT
ATOM      1  C   UNL     1     141.070 139.558 115.015  1.00  0.00     0.000 C 
ENDROOT
BRANCH   1   2
ATOM      2  C   UNL     1     141.944 139.829 116.250  1.00  0.00     0.000 C 
BRANCH   2   3
ATOM      3  C   UNL     1     141.480 141.063 117.045  1.00  0.00     0.006 C 
BRANCH   3   4
ATOM      4  C   UNL     1     141.507 140.818 118.560  1.00  0.00     0.053 C 
BRANCH   4   5
ATOM      5  C   UNL     1     140.137 140.888 119.162  1.00  0.00     0.041 C 
ATOM      6  O   UNL     1     139.151 141.225 118.454  1.00  0.00    -0.550 OA
ATOM      7  O   UNL     1     139.953 140.612 120.510  1.00  0.00    -0.550 OA
ENDBRANCH   4   5
ENDBRANCH   3   4
ENDBRANCH   2   3
ENDBRANCH   1   2
BRANCH   1   8
ATOM      8  C   UNL     1     140.203 140.768 114.626  1.00  0.00     0.000 C 
BRANCH   8   9
ATOM      9  C   UNL     1     140.384 141.176 113.155  1.00  0.00    -0.000 C 
BRANCH   9  10
ATOM     10  C   UNL     1     141.394 142.321 112.978  1.00  0.00    -0.000 C 
BRANCH  10  11
ATOM     11  C   UNL     1     142.766 141.779 112.557  1.00  0.00    -0.000 C 
BRANCH  11  12
ATOM     12  C   UNL     1     143.751 141.802 113.733  1.00  0.00    -0.003 C 
ATOM     13  C   UNL     1     144.602 140.537 113.763  1.00  0.00     0.004 C 
ENDBRANCH  11  12
ENDBRANCH  10  11
ENDBRANCH   9  10
ENDBRANCH   8   9
ENDBRANCH   1   8
TORSDOF 9
ENDMDL
MODEL 4
REMARK VINA RESULT:    -4.702      1.704      3.231
REMARK INTER + INTRA:          -8.173
REMARK INTER:                  -7.147
REMARK INTRA:                  -1.025
REMARK UNBOUND:                -0.997
REMARK SMILES CCCCCCCCCCC(=O)[O-]
REMARK SMILES IDX 7 1 8 2 9 3 10 4 11 5 12 6 13 7 6 8 5 9 4 10 3 11 2 12 1 13
REMARK H PARENT
REMARK Flexibility Score: inf
ROOT
ATOM      1  C   UNL     1     135.810 134.149 115.422  1.00  0.00     0.000 C 
ENDROOT
BRANCH   1   2
ATOM      2  C   UNL     1     134.690 134.702 116.318  1.00  0.00     0.000 C 
BRANCH   2   3
ATOM      3  C   UNL     1     135.069 136.038 116.984  1.00  0.00     0.006 C 
BRANCH   3   4
ATOM      4  C   UNL     1     134.925 135.984 118.511  1.00  0.00     0.053 C 
BRANCH   4   5
ATOM      5  C   UNL     1     136.231 135.694 119.185  1.00  0.00     0.041 C 
ATOM      6  O   UNL     1     136.366 135.898 120.420  1.00  0.00    -0.550 OA
ATOM      7  O   UNL     1     137.309 135.227 118.444  1.00  0.00    -0.550 OA
ENDBRANCH   4   5
ENDBRANCH   3   4
ENDBRANCH   2   3
ENDBRANCH   1   2
BRANCH   1   8
ATOM      8  C   UNL     1     136.597 135.260 114.705  1.00  0.00     0.000 C 
BRANCH   8   9
ATOM      9  C   UNL     1     136.132 135.471 113.255  1.00  0.00    -0.000 C 
BRANCH   9  10
ATOM     10  C   UNL     1     135.229 134.336 112.750  1.00  0.00    -0.000 C 
BRANCH  10  11
ATOM     11  C   UNL     1     133.920 134.892 112.174  1.00  0.00    -0.000 C 
BRANCH  11  12
ATOM     12  C   UNL     1     133.404 136.065 113.015  1.00  0.00    -0.003 C 
ATOM     13  C   UNL     1     132.187 135.659 113.840  1.00  0.00     0.004 C 
ENDBRANCH  11  12
ENDBRANCH  10  11
ENDBRANCH   9  10
ENDBRANCH   8   9
ENDBRANCH   1   8
TORSDOF 9
ENDMDL
MODEL 5
REMARK VINA RESULT:    -4.675      7.790      9.335
REMARK INTER + INTRA:          -8.131
REMARK INTER:                  -6.766
REMARK INTRA:                  -1.365
REMARK UNBOUND:                -0.997
REMARK SMILES CCCCCCCCCCC(=O)[O-]
REMARK SMILES IDX 7 1 8 2 9 3 10 4 11 5 12 6 13 7 6 8 5 9 4 10 3 11 2 12 1 13
REMARK H PARENT
REMARK Flexibility Score: inf
ROOT
ATOM      1  C   UNL     1     139.702 139.836 112.955  1.00  0.00     0.000 C 
ENDROOT
BRANCH   1   2
ATOM      2  C   UNL     1     140.551 139.168 114.048  1.00  0.00     0.000 C 
BRANCH   2   3
ATOM      3  C   UNL     1     140.486 139.918 115.391  1.00  0.00     0.006 C 
BRANCH   3   4
ATOM      4  C   UNL     1     139.509 141.101 115.345  1.00  0.00     0.053 C 
BRANCH   4   5
ATOM      5  C   UNL     1     140.004 142.265 116.148  1.00  0.00     0.041 C 
ATOM      6  O   UNL     1     139.581 143.427 115.907  1.00  0.00    -0.550 OA
ATOM      7  O   UNL     1     140.956 142.072 117.141  1.00  0.00    -0.550 OA
ENDBRANCH   4   5
ENDBRANCH   3   4
ENDBRANCH   2   3
ENDBRANCH   1   2
BRANCH   1   8
ATOM      8  C   UNL     1     140.505 140.123 111.674  1.00  0.00     0.000 C 
BRANCH   8   9
ATOM      9  C   UNL     1     141.054 141.558 111.630  1.00  0.00    -0.000 C 
BRANCH   9  10
ATOM     10  C   UNL     1     142.502 141.656 112.135  1.00  0.00    -0.000 C 
BRANCH  10  11
ATOM     11  C   UNL     1     142.574 142.466 113.436  1.00  0.00    -0.000 C 
BRANCH  11  12
ATOM     12  C   UNL     1     143.414 141.738 114.492  1.00  0.00    -0.003 C 
ATOM     13  C   UNL     1     144.230 140.611 113.866  1.00  0.00     0.004 C 
ENDBRANCH  11  12
ENDBRANCH  10  11
ENDBRANCH   9  10
ENDBRANCH   8   9
ENDBRANCH   1   8
TORSDOF 9
ENDMDL
MODEL 6
REMARK VINA RESULT:    -4.662      1.327      2.593
REMARK INTER + INTRA:          -8.112
REMARK INTER:                  -6.865
REMARK INTRA:                  -1.248
REMARK UNBOUND:                -0.997
REMARK SMILES CCCCCCCCCCC(=O)[O-]
REMARK SMILES IDX 7 1 8 2 9 3 10 4 11 5 12 6 13 7 6 8 5 9 4 10 3 11 2 12 1 13
REMARK H PARENT
REMARK Flexibility Score: inf
ROOT
ATOM      1  C   UNL     1     136.488 136.528 113.349  1.00  0.00     0.000 C 
ENDROOT
BRANCH   1   2
ATOM      2  C   UNL     1     137.316 136.271 114.618  1.00  0.00     0.000 C 
BRANCH   2   3
ATOM      3  C   UNL     1     136.445 136.177 115.885  1.00  0.00     0.006 C 
BRANCH   3   4
ATOM      4  C   UNL     1     137.039 135.217 116.925  1.00  0.00     0.053 C 
BRANCH   4   5
ATOM      5  C   UNL     1     136.094 134.971 118.061  1.00  0.00     0.041 C 
ATOM      6  O   UNL     1     135.012 134.358 117.863  1.00  0.00    -0.550 OA
ATOM      7  O   UNL     1     136.393 135.445 119.331  1.00  0.00    -0.550 OA
ENDBRANCH   4   5
ENDBRANCH   3   4
ENDBRANCH   2   3
ENDBRANCH   1   2
BRANCH   1   8
ATOM      8  C   UNL     1     135.121 137.167 113.653  1.00  0.00     0.000 C 
BRANCH   8   9
ATOM      9  C   UNL     1     133.944 136.258 113.262  1.00  0.00    -0.000 C 
BRANCH   9  10
ATOM     10  C   UNL     1     133.092 135.839 114.470  1.00  0.00    -0.000 C 
BRANCH  10  11
ATOM     11  C   UNL     1     133.283 134.350 114.785  1.00  0.00    -0.000 C 
BRANCH  11  12
ATOM     12  C   UNL     1     134.212 133.686 113.761  1.00  0.00    -0.003 C 
ATOM     13  C   UNL     1     135.375 132.979 114.448  1.00  0.00     0.004 C 
ENDBRANCH  11  12
ENDBRANCH  10  11
ENDBRANCH   9  10
ENDBRANCH   8   9
ENDBRANCH   1   8
TORSDOF 9
ENDMDL
MODEL 7
REMARK VINA RESULT:    -4.641      7.812      9.409
REMARK INTER + INTRA:          -8.080
REMARK INTER:                  -6.903
REMARK INTRA:                  -1.178
REMARK UNBOUND:                -0.997
REMARK SMILES CCCCCCCCCCC(=O)[O-]
REMARK SMILES IDX 7 1 8 2 9 3 10 4 11 5 12 6 13 7 6 8 5 9 4 10 3 11 2 12 1 13
REMARK H PARENT
REMARK Flexibility Score: inf
ROOT
ATOM      1  C   UNL     1     141.523 143.174 114.231  1.00  0.00     0.000 C 
ENDROOT
BRANCH   1   2
ATOM      2  C   UNL     1     140.259 142.988 115.086  1.00  0.00     0.000 C 
BRANCH   2   3
ATOM      3  C   UNL     1     139.802 141.520 115.157  1.00  0.00     0.006 C 
BRANCH   3   4
ATOM      4  C   UNL     1     139.609 141.044 116.603  1.00  0.00     0.053 C 
BRANCH   4   5
ATOM      5  C   UNL     1     140.917 140.850 117.307  1.00  0.00     0.041 C 
ATOM      6  O   UNL     1     141.227 141.584 118.282  1.00  0.00    -0.550 OA
ATOM      7  O   UNL     1     141.808 139.880 116.866  1.00  0.00    -0.550 OA
ENDBRANCH   4   5
ENDBRANCH   3   4
ENDBRANCH   2   3
ENDBRANCH   1   2
BRANCH   1   8
ATOM      8  C   UNL     1     142.805 142.751 114.970  1.00  0.00     0.000 C 
BRANCH   8   9
ATOM      9  C   UNL     1     143.554 141.615 114.252  1.00  0.00    -0.000 C 
BRANCH   9  10
ATOM     10  C   UNL     1     143.050 141.386 112.819  1.00  0.00    -0.000 C 
BRANCH  10  11
ATOM     11  C   UNL     1     143.008 139.889 112.486  1.00  0.00    -0.000 C 
BRANCH  11  12
ATOM     12  C   UNL     1     141.838 139.200 113.199  1.00  0.00    -0.003 C 
ATOM     13  C   UNL     1     140.571 139.247 112.350  1.00  0.00     0.004 C 
ENDBRANCH  11  12
ENDBRANCH  10  11
ENDBRANCH   9  10
ENDBRANCH   8   9
ENDBRANCH   1   8
TORSDOF 9
ENDMDL
MODEL 8
REMARK VINA RESULT:    -4.637      7.573      9.586
REMARK INTER + INTRA:          -8.074
REMARK INTER:                  -6.621
REMARK INTRA:                  -1.453
REMARK UNBOUND:                -0.997
REMARK SMILES CCCCCCCCCCC(=O)[O-]
REMARK SMILES IDX 7 1 8 2 9 3 10 4 11 5 12 6 13 7 6 8 5 9 4 10 3 11 2 12 1 13
REMARK H PARENT
REMARK Flexibility Score: inf
ROOT
ATOM      1  C   UNL     1     141.515 139.379 114.068  1.00  0.00     0.000 C 
ENDROOT
BRANCH   1   2
ATOM      2  C   UNL     1     140.018 139.724 114.017  1.00  0.00     0.000 C 
BRANCH   2   3
ATOM      3  C   UNL     1     139.505 140.334 115.334  1.00  0.00     0.006 C 
BRANCH   3   4
ATOM      4  C   UNL     1     140.577 140.322 116.432  1.00  0.00     0.053 C 
BRANCH   4   5
ATOM      5  C   UNL     1     140.232 141.247 117.559  1.00  0.00     0.041 C 
ATOM      6  O   UNL     1     139.108 141.168 118.122  1.00  0.00    -0.550 OA
ATOM      7  O   UNL     1     141.139 142.217 117.968  1.00  0.00    -0.550 OA
ENDBRANCH   4   5
ENDBRANCH   3   4
ENDBRANCH   2   3
ENDBRANCH   1   2
BRANCH   1   8
ATOM      8  C   UNL     1     142.268 139.825 112.803  1.00  0.00     0.000 C 
BRANCH   8   9
ATOM      9  C   UNL     1     142.688 141.303 112.856  1.00  0.00    -0.000 C 
BRANCH   9  10
ATOM     10  C   UNL     1     143.331 141.690 114.198  1.00  0.00    -0.000 C 
BRANCH  10  11
ATOM     11  C   UNL     1     142.601 142.881 114.831  1.00  0.00    -0.000 C 
BRANCH  11  12
ATOM     12  C   UNL     1     141.379 143.284 113.998  1.00  0.00    -0.003 C 
ATOM     13  C   UNL     1     140.263 143.829 114.884  1.00  0.00     0.004 C 
ENDBRANCH  11  12
ENDBRANCH  10  11
ENDBRANCH   9  10
ENDBRANCH   8   9
ENDBRANCH   1   8
TORSDOF 9
ENDMDL
MODEL 9
REMARK VINA RESULT:    -4.590      1.820      2.534
REMARK INTER + INTRA:          -8.003
REMARK INTER:                  -6.971
REMARK INTRA:                  -1.032
REMARK UNBOUND:                -0.997
REMARK SMILES CCCCCCCCCCC(=O)[O-]
REMARK SMILES IDX 7 1 8 2 9 3 10 4 11 5 12 6 13 7 6 8 5 9 4 10 3 11 2 12 1 13
REMARK H PARENT
REMARK Flexibility Score: inf
ROOT
ATOM      1  C   UNL     1     134.225 134.241 115.526  1.00  0.00     0.000 C 
ENDROOT
BRANCH   1   2
ATOM      2  C   UNL     1     133.882 135.739 115.563  1.00  0.00     0.000 C 
BRANCH   2   3
ATOM      3  C   UNL     1     134.856 136.549 116.438  1.00  0.00     0.006 C 
BRANCH   3   4
ATOM      4  C   UNL     1     134.754 136.168 117.921  1.00  0.00     0.053 C 
BRANCH   4   5
ATOM      5  C   UNL     1     136.093 135.832 118.505  1.00  0.00     0.041 C 
ATOM      6  O   UNL     1     136.368 136.162 119.689  1.00  0.00    -0.550 OA
ATOM      7  O   UNL     1     137.046 135.182 117.732  1.00  0.00    -0.550 OA
ENDBRANCH   4   5
ENDBRANCH   3   4
ENDBRANCH   2   3
ENDBRANCH   1   2
BRANCH   1   8
ATOM      8  C   UNL     1     134.042 133.627 114.127  1.00  0.00     0.000 C 
BRANCH   8   9
ATOM      9  C   UNL     1     133.292 134.562 113.164  1.00  0.00    -0.000 C 
BRANCH   9  10
ATOM     10  C   UNL     1     134.116 134.913 111.915  1.00  0.00    -0.000 C 
BRANCH  10  11
ATOM     11  C   UNL     1     135.618 134.795 112.200  1.00  0.00    -0.000 C 
BRANCH  11  12
ATOM     12  C   UNL     1     136.271 136.179 112.299  1.00  0.00    -0.003 C 
ATOM     13  C   UNL     1     137.033 136.336 113.610  1.00  0.00     0.004 C 
ENDBRANCH  11  12
ENDBRANCH  10  11
ENDBRANCH   9  10
ENDBRANCH   8   9
ENDBRANCH   1   8
TORSDOF 9
ENDMDL
