MODEL 1
REMARK VINA RESULT:    -2.488      0.000      0.000
REMARK INTER + INTRA:          -2.955
REMARK INTER:                  -2.925
REMARK INTRA:                  -0.030
REMARK UNBOUND:                -0.030
REMARK SMILES CCCCC(=O)[O-]
REMARK SMILES IDX 4 1 5 2 6 3 7 4 3 5 2 6 1 7
REMARK H PARENT
REMARK Flexibility Score: inf
ROOT
ATOM      1  C   UNL     1       9.110  37.649 149.760  1.00  0.00     0.053 C 
ENDROOT
BRANCH   1   2
ATOM      2  C   UNL     1       9.049  36.154 149.699  1.00  0.00     0.041 C 
ATOM      3  O   UNL     1       7.970  35.576 149.400  1.00  0.00    -0.550 OA
ATOM      4  O   UNL     1      10.173  35.398 150.006  1.00  0.00    -0.550 OA
ENDBRANCH   1   2
BRANCH   1   5
ATOM      5  C   UNL     1      10.534  38.151 150.032  1.00  0.00     0.006 C 
BRANCH   5   6
ATOM      6  C   UNL     1      10.565  39.267 151.088  1.00  0.00    -0.003 C 
ATOM      7  C   UNL     1      11.966  39.858 151.223  1.00  0.00     0.004 C 
ENDBRANCH   5   6
ENDBRANCH   1   5
TORSDOF 3
ENDMDL
MODEL 2
REMARK VINA RESULT:    -2.455      2.697      4.289
REMARK INTER + INTRA:          -2.915
REMARK INTER:                  -2.887
REMARK INTRA:                  -0.029
REMARK UNBOUND:                -0.030
REMARK SMILES CCCCC(=O)[O-]
REMARK SMILES IDX 4 1 5 2 6 3 7 4 3 5 2 6 1 7
REMARK H PARENT
REMARK Flexibility Score: inf
ROOT
ATOM      1  C   UNL     1      11.016  38.410 149.885  1.00  0.00     0.053 C 
ENDROOT
BRANCH   1   2
ATOM      2  C   UNL     1      11.097  39.350 151.049  1.00  0.00     0.041 C 
ATOM      3  O   UNL     1      12.209  39.820 151.408  1.00  0.00    -0.550 OA
ATOM      4  O   UNL     1       9.949  39.680 151.759  1.00  0.00    -0.550 OA
ENDBRANCH   1   2
BRANCH   1   5
ATOM      5  C   UNL     1       9.766  37.523 149.954  1.00  0.00     0.006 C 
BRANCH   5   6
ATOM      6  C   UNL     1      10.116  36.028 149.987  1.00  0.00    -0.003 C 
ATOM      7  C   UNL     1       8.933  35.176 149.535  1.00  0.00     0.004 C 
ENDBRANCH   5   6
ENDBRANCH   1   5
TORSDOF 3
ENDMDL
MODEL 3
REMARK VINA RESULT:    -2.435      5.389      6.573
REMARK INTER + INTRA:          -2.892
REMARK INTER:                  -2.853
REMARK INTRA:                  -0.039
REMARK UNBOUND:                -0.030
REMARK SMILES CCCCC(=O)[O-]
REMARK SMILES IDX 4 1 5 2 6 3 7 4 3 5 2 6 1 7
REMARK H PARENT
REMARK Flexibility Score: inf
ROOT
ATOM      1  C   UNL     1      11.701  41.879 152.664  1.00  0.00     0.053 C 
ENDROOT
BRANCH   1   2
ATOM      2  C   UNL     1      11.862  42.722 153.891  1.00  0.00     0.041 C 
ATOM      3  O   UNL     1      12.870  43.466 154.021  1.00  0.00    -0.550 OA
ATOM      4  O   UNL     1      10.915  42.663 154.906  1.00  0.00    -0.550 OA
ENDBRANCH   1   2
BRANCH   1   5
ATOM      5  C   UNL     1      10.556  40.868 152.813  1.00  0.00     0.006 C 
BRANCH   5   6
ATOM      6  C   UNL     1      10.629  39.748 151.763  1.00  0.00    -0.003 C 
ATOM      7  C   UNL     1      12.013  39.686 151.122  1.00  0.00     0.004 C 
ENDBRANCH   5   6
ENDBRANCH   1   5
TORSDOF 3
ENDMDL
MODEL 4
REMARK VINA RESULT:    -2.404      4.185      4.819
REMARK INTER + INTRA:          -2.855
REMARK INTER:                  -2.834
REMARK INTRA:                  -0.021
REMARK UNBOUND:                -0.030
REMARK SMILES CCCCC(=O)[O-]
REMARK SMILES IDX 4 1 5 2 6 3 7 4 3 5 2 6 1 7
REMARK H PARENT
REMARK Flexibility Score: inf
ROOT
ATOM      1  C   UNL     1      10.638  39.750 151.824  1.00  0.00     0.053 C 
ENDROOT
BRANCH   1   2
ATOM      2  C   UNL     1      10.538  40.883 152.799  1.00  0.00     0.041 C 
ATOM      3  O   UNL     1       9.548  40.965 153.574  1.00  0.00    -0.550 OA
ATOM      4  O   UNL     1      11.520  41.865 152.829  1.00  0.00    -0.550 OA
ENDBRANCH   1   2
BRANCH   1   5
ATOM      5  C   UNL     1      12.004  39.719 151.125  1.00  0.00     0.006 C 
BRANCH   5   6
ATOM      6  C   UNL     1      11.963  38.936 149.804  1.00  0.00    -0.003 C 
ATOM      7  C   UNL     1      13.125  37.950 149.713  1.00  0.00     0.004 C 
ENDBRANCH   5   6
ENDBRANCH   1   5
TORSDOF 3
ENDMDL
MODEL 5
REMARK VINA RESULT:    -2.399      4.287      5.581
REMARK INTER + INTRA:          -2.850
REMARK INTER:                  -2.740
REMARK INTRA:                  -0.110
REMARK UNBOUND:                -0.030
REMARK SMILES CCCCC(=O)[O-]
REMARK SMILES IDX 4 1 5 2 6 3 7 4 3 5 2 6 1 7
REMARK H PARENT
REMARK Flexibility Score: inf
ROOT
ATOM      1  C   UNL     1      11.633  42.106 152.099  1.00  0.00     0.053 C 
ENDROOT
BRANCH   1   2
ATOM      2  C   UNL     1      11.393  40.629 152.040  1.00  0.00     0.041 C 
ATOM      3  O   UNL     1      12.175  39.885 151.390  1.00  0.00    -0.550 OA
ATOM      4  O   UNL     1      10.287  40.077 152.674  1.00  0.00    -0.550 OA
ENDBRANCH   1   2
BRANCH   1   5
ATOM      5  C   UNL     1      12.015  42.565 153.513  1.00  0.00     0.006 C 
BRANCH   5   6
ATOM      6  C   UNL     1      10.844  43.245 154.239  1.00  0.00    -0.003 C 
ATOM      7  C   UNL     1      10.345  42.389 155.400  1.00  0.00     0.004 C 
ENDBRANCH   5   6
ENDBRANCH   1   5
TORSDOF 3
ENDMDL
MODEL 6
REMARK VINA RESULT:    -2.366      5.374      6.672
REMARK INTER + INTRA:          -2.811
REMARK INTER:                  -2.698
REMARK INTRA:                  -0.113
REMARK UNBOUND:                -0.030
REMARK SMILES CCCCC(=O)[O-]
REMARK SMILES IDX 4 1 5 2 6 3 7 4 3 5 2 6 1 7
REMARK H PARENT
REMARK Flexibility Score: inf
ROOT
ATOM      1  C   UNL     1      11.418  42.718 154.153  1.00  0.00     0.053 C 
ENDROOT
BRANCH   1   2
ATOM      2  C   UNL     1      10.284  42.266 155.022  1.00  0.00     0.041 C 
ATOM      3  O   UNL     1      10.423  42.224 156.273  1.00  0.00    -0.550 OA
ATOM      4  O   UNL     1       9.087  41.858 154.448  1.00  0.00    -0.550 OA
ENDBRANCH   1   2
BRANCH   1   5
ATOM      5  C   UNL     1      11.143  42.446 152.669  1.00  0.00     0.006 C 
BRANCH   5   6
ATOM      6  C   UNL     1      11.839  41.169 152.173  1.00  0.00    -0.003 C 
ATOM      7  C   UNL     1      10.827  40.062 151.895  1.00  0.00     0.004 C 
ENDBRANCH   5   6
ENDBRANCH   1   5
TORSDOF 3
ENDMDL
MODEL 7
REMARK VINA RESULT:    -2.344     18.795     19.483
REMARK INTER + INTRA:          -2.785
REMARK INTER:                  -2.677
REMARK INTRA:                  -0.108
REMARK UNBOUND:                -0.030
REMARK SMILES CCCCC(=O)[O-]
REMARK SMILES IDX 4 1 5 2 6 3 7 4 3 5 2 6 1 7
REMARK H PARENT
REMARK Flexibility Score: inf
ROOT
ATOM      1  C   UNL     1      -4.751  42.127 139.992  1.00  0.00     0.053 C 
ENDROOT
BRANCH   1   2
ATOM      2  C   UNL     1      -5.742  42.730 139.045  1.00  0.00     0.041 C 
ATOM      3  O   UNL     1      -5.462  42.841 137.821  1.00  0.00    -0.550 OA
ATOM      4  O   UNL     1      -6.961  43.200 139.517  1.00  0.00    -0.550 OA
ENDBRANCH   1   2
BRANCH   1   5
ATOM      5  C   UNL     1      -5.102  40.673 140.334  1.00  0.00     0.006 C 
BRANCH   5   6
ATOM      6  C   UNL     1      -5.550  40.511 141.794  1.00  0.00    -0.003 C 
ATOM      7  C   UNL     1      -7.072  40.504 141.905  1.00  0.00     0.004 C 
ENDBRANCH   5   6
ENDBRANCH   1   5
TORSDOF 3
ENDMDL
MODEL 8
REMARK VINA RESULT:    -2.319      3.994      4.670
REMARK INTER + INTRA:          -2.756
REMARK INTER:                  -2.646
REMARK INTRA:                  -0.109
REMARK UNBOUND:                -0.030
REMARK SMILES CCCCC(=O)[O-]
REMARK SMILES IDX 4 1 5 2 6 3 7 4 3 5 2 6 1 7
REMARK H PARENT
REMARK Flexibility Score: inf
ROOT
ATOM      1  C   UNL     1      10.552  39.762 151.811  1.00  0.00     0.053 C 
ENDROOT
BRANCH   1   2
ATOM      2  C   UNL     1       9.945  40.508 152.958  1.00  0.00     0.041 C 
ATOM      3  O   UNL     1       8.778  40.236 153.345  1.00  0.00    -0.550 OA
ATOM      4  O   UNL     1      10.655  41.528 153.580  1.00  0.00    -0.550 OA
ENDBRANCH   1   2
BRANCH   1   5
ATOM      5  C   UNL     1      11.965  40.264 151.487  1.00  0.00     0.006 C 
BRANCH   5   6
ATOM      6  C   UNL     1      11.990  41.169 150.245  1.00  0.00    -0.003 C 
ATOM      7  C   UNL     1      12.418  42.588 150.607  1.00  0.00     0.004 C 
ENDBRANCH   5   6
ENDBRANCH   1   5
TORSDOF 3
ENDMDL
MODEL 9
REMARK VINA RESULT:    -2.317      5.527      6.719
REMARK INTER + INTRA:          -2.753
REMARK INTER:                  -2.660
REMARK INTRA:                  -0.093
REMARK UNBOUND:                -0.030
REMARK SMILES CCCCC(=O)[O-]
REMARK SMILES IDX 4 1 5 2 6 3 7 4 3 5 2 6 1 7
REMARK H PARENT
REMARK Flexibility Score: inf
ROOT
ATOM      1  C   UNL     1      11.583  42.497 152.315  1.00  0.00     0.053 C 
ENDROOT
BRANCH   1   2
ATOM      2  C   UNL     1      12.010  43.018 153.653  1.00  0.00     0.041 C 
ATOM      3  O   UNL     1      11.341  42.739 154.684  1.00  0.00    -0.550 OA
ATOM      4  O   UNL     1      13.125  43.840 153.758  1.00  0.00    -0.550 OA
ENDBRANCH   1   2
BRANCH   1   5
ATOM      5  C   UNL     1      11.997  41.033 152.115  1.00  0.00     0.006 C 
BRANCH   5   6
ATOM      6  C   UNL     1      10.804  40.137 151.750  1.00  0.00    -0.003 C 
ATOM      7  C   UNL     1       9.742  40.160 152.847  1.00  0.00     0.004 C 
ENDBRANCH   5   6
ENDBRANCH   1   5
TORSDOF 3
ENDMDL
