MODEL 1
REMARK VINA RESULT:    -6.221      0.000      0.000
REMARK INTER + INTRA:          -7.388
REMARK INTER:                  -7.312
REMARK INTRA:                  -0.075
REMARK UNBOUND:                -0.075
REMARK SMILES O=c1c(O)c(-c2ccc(O)cc2)oc2cc(O)cc(O)c12
REMARK SMILES IDX 5 1 3 2 2 3 1 4 21 5 19 6 18 7 16 8 15 9 14 10 13 11 6 12
REMARK SMILES IDX 7 13 8 14 9 15 12 16 11 17 10 18 4 20 20 22 17 24
REMARK H PARENT 10 19 4 21 20 23 17 25
REMARK Flexibility Score: inf
ROOT
ATOM      1  C   UNL     1      11.048  -5.879 -10.762  1.00  0.00     0.180 A 
ATOM      2  C   UNL     1      10.898  -6.269  -9.420  1.00  0.00     0.208 A 
ATOM      3  C   UNL     1       9.813  -7.088  -9.066  1.00  0.00     0.238 A 
ATOM      4  O   UNL     1       9.715  -7.479  -7.874  1.00  0.00    -0.285 OA
ATOM      5  C   UNL     1       8.884  -7.492 -10.055  1.00  0.00     0.111 A 
ATOM      6  C   UNL     1       7.726  -8.288  -9.802  1.00  0.00     0.134 A 
ATOM      7  C   UNL     1       6.948  -8.736 -10.876  1.00  0.00     0.093 A 
ATOM      8  C   UNL     1       7.249  -8.363 -12.188  1.00  0.00     0.123 A 
ATOM      9  C   UNL     1       8.343  -7.539 -12.440  1.00  0.00     0.094 A 
ATOM     10  C   UNL     1       9.158  -7.104 -11.392  1.00  0.00     0.146 A 
ATOM     11  O   UNL     1      10.197  -6.328 -11.677  1.00  0.00    -0.452 OA
ENDROOT
BRANCH   1  12
ATOM     12  C   UNL     1      12.151  -4.997 -11.207  1.00  0.00     0.021 A 
ATOM     13  C   UNL     1      11.895  -3.757 -11.821  1.00  0.00     0.016 A 
ATOM     14  C   UNL     1      12.954  -2.952 -12.255  1.00  0.00     0.047 A 
ATOM     15  C   UNL     1      14.277  -3.382 -12.095  1.00  0.00     0.115 A 
ATOM     16  C   UNL     1      13.481  -5.429 -11.069  1.00  0.00     0.016 A 
ATOM     17  C   UNL     1      14.536  -4.622 -11.504  1.00  0.00     0.047 A 
BRANCH  15  18
ATOM     18  O   UNL     1      15.339  -2.587 -12.523  1.00  0.00    -0.508 OA
ATOM     19  H   UNL     1      15.654  -1.790 -11.984  1.00  0.00     0.293 HD
ENDBRANCH  15  18
ENDBRANCH   1  12
BRANCH   2  20
ATOM     20  O   UNL     1      11.839  -5.878  -8.464  1.00  0.00    -0.502 OA
ATOM     21  H   UNL     1      11.926  -4.920  -8.146  1.00  0.00     0.293 HD
ENDBRANCH   2  20
BRANCH   6  22
ATOM     22  O   UNL     1       7.284  -8.638  -8.522  1.00  0.00    -0.507 OA
ATOM     23  H   UNL     1       7.633  -9.419  -7.988  1.00  0.00     0.293 HD
ENDBRANCH   6  22
BRANCH   8  24
ATOM     24  O   UNL     1       6.460  -8.802 -13.250  1.00  0.00    -0.508 OA
ATOM     25  H   UNL     1       6.459  -9.771 -13.545  1.00  0.00     0.293 HD
ENDBRANCH   8  24
TORSDOF 5
ENDMDL
MODEL 2
REMARK VINA RESULT:    -6.106      2.296      4.004
REMARK INTER + INTRA:          -7.251
REMARK INTER:                  -6.956
REMARK INTRA:                  -0.295
REMARK UNBOUND:                -0.075
REMARK SMILES O=c1c(O)c(-c2ccc(O)cc2)oc2cc(O)cc(O)c12
REMARK SMILES IDX 5 1 3 2 2 3 1 4 21 5 19 6 18 7 16 8 15 9 14 10 13 11 6 12
REMARK SMILES IDX 7 13 8 14 9 15 12 16 11 17 10 18 4 20 20 22 17 24
REMARK H PARENT 10 19 4 21 20 23 17 25
REMARK Flexibility Score: inf
ROOT
ATOM      1  C   UNL     1      10.509  -6.194  -9.324  1.00  0.00     0.180 A 
ATOM      2  C   UNL     1       9.873  -7.383  -9.723  1.00  0.00     0.208 A 
ATOM      3  C   UNL     1       8.915  -7.960  -8.874  1.00  0.00     0.238 A 
ATOM      4  O   UNL     1       8.310  -8.994  -9.261  1.00  0.00    -0.285 OA
ATOM      5  C   UNL     1       8.616  -7.351  -7.632  1.00  0.00     0.111 A 
ATOM      6  C   UNL     1       7.692  -7.871  -6.677  1.00  0.00     0.134 A 
ATOM      7  C   UNL     1       7.377  -7.117  -5.539  1.00  0.00     0.093 A 
ATOM      8  C   UNL     1       8.003  -5.894  -5.291  1.00  0.00     0.123 A 
ATOM      9  C   UNL     1       8.950  -5.406  -6.188  1.00  0.00     0.094 A 
ATOM     10  C   UNL     1       9.258  -6.118  -7.349  1.00  0.00     0.146 A 
ATOM     11  O   UNL     1      10.159  -5.612  -8.183  1.00  0.00    -0.452 OA
ENDROOT
BRANCH   1  12
ATOM     12  C   UNL     1      11.547  -5.540 -10.152  1.00  0.00     0.021 A 
ATOM     13  C   UNL     1      12.913  -5.835  -9.984  1.00  0.00     0.016 A 
ATOM     14  C   UNL     1      13.877  -5.186 -10.761  1.00  0.00     0.047 A 
ATOM     15  C   UNL     1      13.491  -4.225 -11.704  1.00  0.00     0.115 A 
ATOM     16  C   UNL     1      11.171  -4.559 -11.086  1.00  0.00     0.016 A 
ATOM     17  C   UNL     1      12.138  -3.913 -11.861  1.00  0.00     0.047 A 
BRANCH  15  18
ATOM     18  O   UNL     1      14.444  -3.573 -12.485  1.00  0.00    -0.508 OA
ATOM     19  H   UNL     1      14.241  -3.280 -13.433  1.00  0.00     0.293 HD
ENDBRANCH  15  18
ENDBRANCH   1  12
BRANCH   2  20
ATOM     20  O   UNL     1      10.167  -7.955 -10.963  1.00  0.00    -0.502 OA
ATOM     21  H   UNL     1      11.079  -8.337 -11.185  1.00  0.00     0.293 HD
ENDBRANCH   2  20
BRANCH   6  22
ATOM     22  O   UNL     1       7.081  -9.125  -6.783  1.00  0.00    -0.507 OA
ATOM     23  H   UNL     1       6.111  -9.273  -7.011  1.00  0.00     0.293 HD
ENDBRANCH   6  22
BRANCH   8  24
ATOM     24  O   UNL     1       7.695  -5.158  -4.148  1.00  0.00    -0.508 OA
ATOM     25  H   UNL     1       6.758  -5.141  -3.764  1.00  0.00     0.293 HD
ENDBRANCH   8  24
TORSDOF 5
ENDMDL
MODEL 3
REMARK VINA RESULT:    -6.036     10.225     13.534
REMARK INTER + INTRA:          -7.170
REMARK INTER:                  -6.890
REMARK INTRA:                  -0.280
REMARK UNBOUND:                -0.075
REMARK SMILES O=c1c(O)c(-c2ccc(O)cc2)oc2cc(O)cc(O)c12
REMARK SMILES IDX 5 1 3 2 2 3 1 4 21 5 19 6 18 7 16 8 15 9 14 10 13 11 6 12
REMARK SMILES IDX 7 13 8 14 9 15 12 16 11 17 10 18 4 20 20 22 17 24
REMARK H PARENT 10 19 4 21 20 23 17 25
REMARK Flexibility Score: inf
ROOT
ATOM      1  C   UNL     1       7.652   3.029 -17.117  1.00  0.00     0.180 A 
ATOM      2  C   UNL     1       7.973   4.274 -16.548  1.00  0.00     0.208 A 
ATOM      3  C   UNL     1       8.919   5.092 -17.188  1.00  0.00     0.238 A 
ATOM      4  O   UNL     1       9.161   6.228 -16.703  1.00  0.00    -0.285 OA
ATOM      5  C   UNL     1       9.544   4.648 -18.377  1.00  0.00     0.111 A 
ATOM      6  C   UNL     1      10.546   5.376 -19.086  1.00  0.00     0.134 A 
ATOM      7  C   UNL     1      11.001   4.900 -20.323  1.00  0.00     0.093 A 
ATOM      8  C   UNL     1      10.537   3.690 -20.843  1.00  0.00     0.123 A 
ATOM      9  C   UNL     1       9.603   2.943 -20.130  1.00  0.00     0.094 A 
ATOM     10  C   UNL     1       9.104   3.408 -18.911  1.00  0.00     0.146 A 
ATOM     11  O   UNL     1       8.207   2.670 -18.269  1.00  0.00    -0.452 OA
ENDROOT
BRANCH   1  12
ATOM     12  C   UNL     1       6.684   2.102 -16.490  1.00  0.00     0.021 A 
ATOM     13  C   UNL     1       7.111   1.044 -15.666  1.00  0.00     0.016 A 
ATOM     14  C   UNL     1       6.178   0.166 -15.104  1.00  0.00     0.047 A 
ATOM     15  C   UNL     1       4.812   0.325 -15.368  1.00  0.00     0.115 A 
ATOM     16  C   UNL     1       5.313   2.241 -16.766  1.00  0.00     0.016 A 
ATOM     17  C   UNL     1       4.384   1.362 -16.201  1.00  0.00     0.047 A 
BRANCH  15  18
ATOM     18  O   UNL     1       3.875  -0.544 -14.812  1.00  0.00    -0.508 OA
ATOM     19  H   UNL     1       3.499  -1.324 -15.338  1.00  0.00     0.293 HD
ENDBRANCH  15  18
ENDBRANCH   1  12
BRANCH   2  20
ATOM     20  O   UNL     1       7.327   4.702 -15.385  1.00  0.00    -0.502 OA
ATOM     21  H   UNL     1       6.575   5.381 -15.398  1.00  0.00     0.293 HD
ENDBRANCH   2  20
BRANCH   6  22
ATOM     22  O   UNL     1      11.143   6.548 -18.611  1.00  0.00    -0.507 OA
ATOM     23  H   UNL     1      10.949   6.968 -17.715  1.00  0.00     0.293 HD
ENDBRANCH   6  22
BRANCH   8  24
ATOM     24  O   UNL     1      11.007   3.216 -22.067  1.00  0.00    -0.508 OA
ATOM     25  H   UNL     1      11.625   2.416 -22.124  1.00  0.00     0.293 HD
ENDBRANCH   8  24
TORSDOF 5
ENDMDL
MODEL 4
REMARK VINA RESULT:    -5.908     12.722     15.587
REMARK INTER + INTRA:          -7.020
REMARK INTER:                  -6.730
REMARK INTRA:                  -0.290
REMARK UNBOUND:                -0.075
REMARK SMILES O=c1c(O)c(-c2ccc(O)cc2)oc2cc(O)cc(O)c12
REMARK SMILES IDX 5 1 3 2 2 3 1 4 21 5 19 6 18 7 16 8 15 9 14 10 13 11 6 12
REMARK SMILES IDX 7 13 8 14 9 15 12 16 11 17 10 18 4 20 20 22 17 24
REMARK H PARENT 10 19 4 21 20 23 17 25
REMARK Flexibility Score: inf
ROOT
ATOM      1  C   UNL     1      12.189   4.915 -18.609  1.00  0.00     0.180 A 
ATOM      2  C   UNL     1      13.199   4.270 -17.873  1.00  0.00     0.208 A 
ATOM      3  C   UNL     1      14.285   5.025 -17.401  1.00  0.00     0.238 A 
ATOM      4  O   UNL     1      15.158   4.453 -16.697  1.00  0.00    -0.285 OA
ATOM      5  C   UNL     1      14.357   6.410 -17.684  1.00  0.00     0.111 A 
ATOM      6  C   UNL     1      15.431   7.263 -17.290  1.00  0.00     0.134 A 
ATOM      7  C   UNL     1      15.334   8.643 -17.511  1.00  0.00     0.093 A 
ATOM      8  C   UNL     1      14.231   9.191 -18.170  1.00  0.00     0.123 A 
ATOM      9  C   UNL     1      13.205   8.358 -18.610  1.00  0.00     0.094 A 
ATOM     10  C   UNL     1      13.256   6.983 -18.373  1.00  0.00     0.146 A 
ATOM     11  O   UNL     1      12.252   6.227 -18.801  1.00  0.00    -0.452 OA
ENDROOT
BRANCH   1  12
ATOM     12  C   UNL     1      11.026   4.183 -19.160  1.00  0.00     0.021 A 
ATOM     13  C   UNL     1      11.105   3.502 -20.388  1.00  0.00     0.016 A 
ATOM     14  C   UNL     1       9.986   2.837 -20.901  1.00  0.00     0.047 A 
ATOM     15  C   UNL     1       8.773   2.858 -20.201  1.00  0.00     0.115 A 
ATOM     16  C   UNL     1       9.800   4.216 -18.475  1.00  0.00     0.016 A 
ATOM     17  C   UNL     1       8.684   3.551 -18.991  1.00  0.00     0.047 A 
BRANCH  15  18
ATOM     18  O   UNL     1       7.652   2.199 -20.702  1.00  0.00    -0.508 OA
ATOM     19  H   UNL     1       7.693   1.666 -21.564  1.00  0.00     0.293 HD
ENDBRANCH  15  18
ENDBRANCH   1  12
BRANCH   2  20
ATOM     20  O   UNL     1      13.097   2.907 -17.586  1.00  0.00    -0.502 OA
ATOM     21  H   UNL     1      12.488   2.285 -18.104  1.00  0.00     0.293 HD
ENDBRANCH   2  20
BRANCH   6  22
ATOM     22  O   UNL     1      16.618   6.806 -16.709  1.00  0.00    -0.507 OA
ATOM     23  H   UNL     1      17.062   7.224 -15.906  1.00  0.00     0.293 HD
ENDBRANCH   6  22
BRANCH   8  24
ATOM     24  O   UNL     1      14.150  10.563 -18.399  1.00  0.00    -0.508 OA
ATOM     25  H   UNL     1      14.979  11.146 -18.426  1.00  0.00     0.293 HD
ENDBRANCH   8  24
TORSDOF 5
ENDMDL
MODEL 5
REMARK VINA RESULT:    -5.821      6.232      9.845
REMARK INTER + INTRA:          -6.917
REMARK INTER:                  -6.811
REMARK INTRA:                  -0.107
REMARK UNBOUND:                -0.075
REMARK SMILES O=c1c(O)c(-c2ccc(O)cc2)oc2cc(O)cc(O)c12
REMARK SMILES IDX 5 1 3 2 2 3 1 4 21 5 19 6 18 7 16 8 15 9 14 10 13 11 6 12
REMARK SMILES IDX 7 13 8 14 9 15 12 16 11 17 10 18 4 20 20 22 17 24
REMARK H PARENT 10 19 4 21 20 23 17 25
REMARK Flexibility Score: inf
ROOT
ATOM      1  C   UNL     1      17.646  -1.409 -15.897  1.00  0.00     0.180 A 
ATOM      2  C   UNL     1      17.197  -0.257 -15.227  1.00  0.00     0.208 A 
ATOM      3  C   UNL     1      16.288  -0.397 -14.166  1.00  0.00     0.238 A 
ATOM      4  O   UNL     1      15.932   0.632 -13.535  1.00  0.00    -0.285 OA
ATOM      5  C   UNL     1      15.827  -1.684 -13.798  1.00  0.00     0.111 A 
ATOM      6  C   UNL     1      14.876  -1.940 -12.766  1.00  0.00     0.134 A 
ATOM      7  C   UNL     1      14.591  -3.262 -12.400  1.00  0.00     0.093 A 
ATOM      8  C   UNL     1      15.175  -4.337 -13.075  1.00  0.00     0.123 A 
ATOM      9  C   UNL     1      16.060  -4.097 -14.124  1.00  0.00     0.094 A 
ATOM     10  C   UNL     1      16.390  -2.790 -14.487  1.00  0.00     0.146 A 
ATOM     11  O   UNL     1      17.246  -2.606 -15.486  1.00  0.00    -0.452 OA
ENDROOT
BRANCH   1  12
ATOM     12  C   UNL     1      18.584  -1.340 -17.040  1.00  0.00     0.021 A 
ATOM     13  C   UNL     1      19.887  -0.831 -16.889  1.00  0.00     0.016 A 
ATOM     14  C   UNL     1      20.747  -0.753 -17.989  1.00  0.00     0.047 A 
ATOM     15  C   UNL     1      20.312  -1.169 -19.254  1.00  0.00     0.115 A 
ATOM     16  C   UNL     1      18.150  -1.736 -18.316  1.00  0.00     0.016 A 
ATOM     17  C   UNL     1      19.013  -1.657 -19.413  1.00  0.00     0.047 A 
BRANCH  15  18
ATOM     18  O   UNL     1      21.162  -1.097 -20.356  1.00  0.00    -0.508 OA
ATOM     19  H   UNL     1      20.817  -0.841 -21.274  1.00  0.00     0.293 HD
ENDBRANCH  15  18
ENDBRANCH   1  12
BRANCH   2  20
ATOM     20  O   UNL     1      17.681   1.002 -15.591  1.00  0.00    -0.502 OA
ATOM     21  H   UNL     1      18.577   1.130 -16.047  1.00  0.00     0.293 HD
ENDBRANCH   2  20
BRANCH   6  22
ATOM     22  O   UNL     1      14.167  -0.940 -12.092  1.00  0.00    -0.507 OA
ATOM     23  H   UNL     1      14.276  -0.718 -11.115  1.00  0.00     0.293 HD
ENDBRANCH   6  22
BRANCH   8  24
ATOM     24  O   UNL     1      14.874  -5.649 -12.715  1.00  0.00    -0.508 OA
ATOM     25  H   UNL     1      15.577  -6.268 -12.329  1.00  0.00     0.293 HD
ENDBRANCH   8  24
TORSDOF 5
ENDMDL
MODEL 6
REMARK VINA RESULT:    -5.766      2.657      6.663
REMARK INTER + INTRA:          -6.853
REMARK INTER:                  -6.580
REMARK INTRA:                  -0.272
REMARK UNBOUND:                -0.075
REMARK SMILES O=c1c(O)c(-c2ccc(O)cc2)oc2cc(O)cc(O)c12
REMARK SMILES IDX 5 1 3 2 2 3 1 4 21 5 19 6 18 7 16 8 15 9 14 10 13 11 6 12
REMARK SMILES IDX 7 13 8 14 9 15 12 16 11 17 10 18 4 20 20 22 17 24
REMARK H PARENT 10 19 4 21 20 23 17 25
REMARK Flexibility Score: inf
ROOT
ATOM      1  C   UNL     1      11.469  -6.260 -10.154  1.00  0.00     0.180 A 
ATOM      2  C   UNL     1      11.543  -7.422 -10.942  1.00  0.00     0.208 A 
ATOM      3  C   UNL     1      12.653  -7.604 -11.783  1.00  0.00     0.238 A 
ATOM      4  O   UNL     1      12.740  -8.671 -12.445  1.00  0.00    -0.285 OA
ATOM      5  C   UNL     1      13.666  -6.617 -11.837  1.00  0.00     0.111 A 
ATOM      6  C   UNL     1      14.814  -6.680 -12.683  1.00  0.00     0.134 A 
ATOM      7  C   UNL     1      15.816  -5.710 -12.559  1.00  0.00     0.093 A 
ATOM      8  C   UNL     1      15.681  -4.645 -11.665  1.00  0.00     0.123 A 
ATOM      9  C   UNL     1      14.537  -4.543 -10.878  1.00  0.00     0.094 A 
ATOM     10  C   UNL     1      13.536  -5.514 -10.954  1.00  0.00     0.146 A 
ATOM     11  O   UNL     1      12.466  -5.384 -10.178  1.00  0.00    -0.452 OA
ENDROOT
BRANCH   1  12
ATOM     12  C   UNL     1      10.319  -5.984  -9.262  1.00  0.00     0.021 A 
ATOM     13  C   UNL     1       9.106  -5.479  -9.766  1.00  0.00     0.016 A 
ATOM     14  C   UNL     1       8.042  -5.204  -8.901  1.00  0.00     0.047 A 
ATOM     15  C   UNL     1       8.182  -5.416  -7.523  1.00  0.00     0.115 A 
ATOM     16  C   UNL     1      10.457  -6.174  -7.877  1.00  0.00     0.016 A 
ATOM     17  C   UNL     1       9.391  -5.898  -7.015  1.00  0.00     0.047 A 
BRANCH  15  18
ATOM     18  O   UNL     1       7.128  -5.146  -6.652  1.00  0.00    -0.508 OA
ATOM     19  H   UNL     1       6.198  -5.515  -6.816  1.00  0.00     0.293 HD
ENDBRANCH  15  18
ENDBRANCH   1  12
BRANCH   2  20
ATOM     20  O   UNL     1      10.543  -8.394 -10.857  1.00  0.00    -0.502 OA
ATOM     21  H   UNL     1       9.881  -8.429 -10.090  1.00  0.00     0.293 HD
ENDBRANCH   2  20
BRANCH   6  22
ATOM     22  O   UNL     1      15.002  -7.649 -13.672  1.00  0.00    -0.507 OA
ATOM     23  H   UNL     1      15.849  -7.768 -14.206  1.00  0.00     0.293 HD
ENDBRANCH   6  22
BRANCH   8  24
ATOM     24  O   UNL     1      16.678  -3.676 -11.560  1.00  0.00    -0.508 OA
ATOM     25  H   UNL     1      16.667  -2.983 -10.821  1.00  0.00     0.293 HD
ENDBRANCH   8  24
TORSDOF 5
ENDMDL
MODEL 7
REMARK VINA RESULT:    -5.744     12.736     14.338
REMARK INTER + INTRA:          -6.827
REMARK INTER:                  -6.761
REMARK INTRA:                  -0.065
REMARK UNBOUND:                -0.075
REMARK SMILES O=c1c(O)c(-c2ccc(O)cc2)oc2cc(O)cc(O)c12
REMARK SMILES IDX 5 1 3 2 2 3 1 4 21 5 19 6 18 7 16 8 15 9 14 10 13 11 6 12
REMARK SMILES IDX 7 13 8 14 9 15 12 16 11 17 10 18 4 20 20 22 17 24
REMARK H PARENT 10 19 4 21 20 23 17 25
REMARK Flexibility Score: inf
ROOT
ATOM      1  C   UNL     1       4.730   5.590 -10.901  1.00  0.00     0.180 A 
ATOM      2  C   UNL     1       4.612   6.990 -10.848  1.00  0.00     0.208 A 
ATOM      3  C   UNL     1       4.411   7.702 -12.042  1.00  0.00     0.238 A 
ATOM      4  O   UNL     1       4.251   8.949 -11.982  1.00  0.00    -0.285 OA
ATOM      5  C   UNL     1       4.346   7.008 -13.274  1.00  0.00     0.111 A 
ATOM      6  C   UNL     1       4.185   7.631 -14.548  1.00  0.00     0.134 A 
ATOM      7  C   UNL     1       4.004   6.837 -15.687  1.00  0.00     0.093 A 
ATOM      8  C   UNL     1       4.042   5.444 -15.607  1.00  0.00     0.123 A 
ATOM      9  C   UNL     1       4.257   4.827 -14.377  1.00  0.00     0.094 A 
ATOM     10  C   UNL     1       4.407   5.591 -13.218  1.00  0.00     0.146 A 
ATOM     11  O   UNL     1       4.599   4.962 -12.064  1.00  0.00    -0.452 OA
ENDROOT
BRANCH   1  12
ATOM     12  C   UNL     1       4.968   4.773  -9.690  1.00  0.00     0.021 A 
ATOM     13  C   UNL     1       4.069   4.788  -8.608  1.00  0.00     0.016 A 
ATOM     14  C   UNL     1       4.328   4.026  -7.464  1.00  0.00     0.047 A 
ATOM     15  C   UNL     1       5.493   3.253  -7.381  1.00  0.00     0.115 A 
ATOM     16  C   UNL     1       6.145   4.010  -9.589  1.00  0.00     0.016 A 
ATOM     17  C   UNL     1       6.399   3.250  -8.444  1.00  0.00     0.047 A 
BRANCH  15  18
ATOM     18  O   UNL     1       5.760   2.489  -6.246  1.00  0.00    -0.508 OA
ATOM     19  H   UNL     1       6.181   2.898  -5.420  1.00  0.00     0.293 HD
ENDBRANCH  15  18
ENDBRANCH   1  12
BRANCH   2  20
ATOM     20  O   UNL     1       4.657   7.653  -9.619  1.00  0.00    -0.502 OA
ATOM     21  H   UNL     1       4.770   7.163  -8.740  1.00  0.00     0.293 HD
ENDBRANCH   2  20
BRANCH   6  22
ATOM     22  O   UNL     1       4.225   9.014 -14.750  1.00  0.00    -0.507 OA
ATOM     23  H   UNL     1       4.824   9.651 -14.248  1.00  0.00     0.293 HD
ENDBRANCH   6  22
BRANCH   8  24
ATOM     24  O   UNL     1       3.875   4.662 -16.749  1.00  0.00    -0.508 OA
ATOM     25  H   UNL     1       2.962   4.515 -17.162  1.00  0.00     0.293 HD
ENDBRANCH   8  24
TORSDOF 5
ENDMDL
MODEL 8
REMARK VINA RESULT:    -5.737     10.762     12.361
REMARK INTER + INTRA:          -6.818
REMARK INTER:                  -6.549
REMARK INTRA:                  -0.269
REMARK UNBOUND:                -0.075
REMARK SMILES O=c1c(O)c(-c2ccc(O)cc2)oc2cc(O)cc(O)c12
REMARK SMILES IDX 5 1 3 2 2 3 1 4 21 5 19 6 18 7 16 8 15 9 14 10 13 11 6 12
REMARK SMILES IDX 7 13 8 14 9 15 12 16 11 17 10 18 4 20 20 22 17 24
REMARK H PARENT 10 19 4 21 20 23 17 25
REMARK Flexibility Score: inf
ROOT
ATOM      1  C   UNL     1       5.011   3.093 -13.363  1.00  0.00     0.180 A 
ATOM      2  C   UNL     1       4.683   4.459 -13.419  1.00  0.00     0.208 A 
ATOM      3  C   UNL     1       4.592   5.187 -12.222  1.00  0.00     0.238 A 
ATOM      4  O   UNL     1       4.352   6.421 -12.282  1.00  0.00    -0.285 OA
ATOM      5  C   UNL     1       4.813   4.538 -10.984  1.00  0.00     0.111 A 
ATOM      6  C   UNL     1       4.707   5.169  -9.708  1.00  0.00     0.134 A 
ATOM      7  C   UNL     1       5.075   4.462  -8.556  1.00  0.00     0.093 A 
ATOM      8  C   UNL     1       5.483   3.129  -8.628  1.00  0.00     0.123 A 
ATOM      9  C   UNL     1       5.532   2.486  -9.863  1.00  0.00     0.094 A 
ATOM     10  C   UNL     1       5.205   3.175 -11.034  1.00  0.00     0.146 A 
ATOM     11  O   UNL     1       5.277   2.528 -12.191  1.00  0.00    -0.452 OA
ENDROOT
BRANCH   1  12
ATOM     12  C   UNL     1       5.101   2.253 -14.579  1.00  0.00     0.021 A 
ATOM     13  C   UNL     1       6.336   2.002 -15.205  1.00  0.00     0.016 A 
ATOM     14  C   UNL     1       6.394   1.226 -16.367  1.00  0.00     0.047 A 
ATOM     15  C   UNL     1       5.219   0.704 -16.925  1.00  0.00     0.115 A 
ATOM     16  C   UNL     1       3.926   1.744 -15.157  1.00  0.00     0.016 A 
ATOM     17  C   UNL     1       3.988   0.968 -16.318  1.00  0.00     0.047 A 
BRANCH  15  18
ATOM     18  O   UNL     1       5.266  -0.071 -18.082  1.00  0.00    -0.508 OA
ATOM     19  H   UNL     1       4.782  -0.959 -18.144  1.00  0.00     0.293 HD
ENDBRANCH  15  18
ENDBRANCH   1  12
BRANCH   2  20
ATOM     20  O   UNL     1       4.491   5.085 -14.653  1.00  0.00    -0.502 OA
ATOM     21  H   UNL     1       4.769   6.044 -14.827  1.00  0.00     0.293 HD
ENDBRANCH   2  20
BRANCH   6  22
ATOM     22  O   UNL     1       4.223   6.466  -9.516  1.00  0.00    -0.507 OA
ATOM     23  H   UNL     1       4.780   7.303  -9.589  1.00  0.00     0.293 HD
ENDBRANCH   6  22
BRANCH   8  24
ATOM     24  O   UNL     1       5.832   2.429  -7.475  1.00  0.00    -0.508 OA
ATOM     25  H   UNL     1       6.709   2.599  -6.996  1.00  0.00     0.293 HD
ENDBRANCH   8  24
TORSDOF 5
ENDMDL
MODEL 9
REMARK VINA RESULT:    -5.660     15.439     19.728
REMARK INTER + INTRA:          -6.727
REMARK INTER:                  -6.489
REMARK INTRA:                  -0.238
REMARK UNBOUND:                -0.075
REMARK SMILES O=c1c(O)c(-c2ccc(O)cc2)oc2cc(O)cc(O)c12
REMARK SMILES IDX 5 1 3 2 2 3 1 4 21 5 19 6 18 7 16 8 15 9 14 10 13 11 6 12
REMARK SMILES IDX 7 13 8 14 9 15 12 16 11 17 10 18 4 20 20 22 17 24
REMARK H PARENT 10 19 4 21 20 23 17 25
REMARK Flexibility Score: inf
ROOT
ATOM      1  C   UNL     1      17.349   7.739 -20.076  1.00  0.00     0.180 A 
ATOM      2  C   UNL     1      17.618   7.489 -21.434  1.00  0.00     0.208 A 
ATOM      3  C   UNL     1      18.916   7.709 -21.923  1.00  0.00     0.238 A 
ATOM      4  O   UNL     1      19.163   7.432 -23.125  1.00  0.00    -0.285 OA
ATOM      5  C   UNL     1      19.924   8.190 -21.053  1.00  0.00     0.111 A 
ATOM      6  C   UNL     1      21.263   8.486 -21.450  1.00  0.00     0.134 A 
ATOM      7  C   UNL     1      22.210   8.833 -20.479  1.00  0.00     0.093 A 
ATOM      8  C   UNL     1      21.852   8.956 -19.135  1.00  0.00     0.123 A 
ATOM      9  C   UNL     1      20.534   8.727 -18.746  1.00  0.00     0.094 A 
ATOM     10  C   UNL     1      19.574   8.346 -19.687  1.00  0.00     0.146 A 
ATOM     11  O   UNL     1      18.332   8.126 -19.272  1.00  0.00    -0.452 OA
ENDROOT
BRANCH   1  12
ATOM     12  C   UNL     1      16.001   7.555 -19.493  1.00  0.00     0.021 A 
ATOM     13  C   UNL     1      15.178   8.655 -19.190  1.00  0.00     0.016 A 
ATOM     14  C   UNL     1      13.917   8.457 -18.617  1.00  0.00     0.047 A 
ATOM     15  C   UNL     1      13.471   7.162 -18.327  1.00  0.00     0.115 A 
ATOM     16  C   UNL     1      15.553   6.260 -19.180  1.00  0.00     0.016 A 
ATOM     17  C   UNL     1      14.293   6.067 -18.607  1.00  0.00     0.047 A 
BRANCH  15  18
ATOM     18  O   UNL     1      12.216   6.954 -17.757  1.00  0.00    -0.508 OA
ATOM     19  H   UNL     1      11.985   7.316 -16.839  1.00  0.00     0.293 HD
ENDBRANCH  15  18
ENDBRANCH   1  12
BRANCH   2  20
ATOM     20  O   UNL     1      16.614   6.994 -22.269  1.00  0.00    -0.502 OA
ATOM     21  H   UNL     1      16.668   7.051 -23.279  1.00  0.00     0.293 HD
ENDBRANCH   2  20
BRANCH   6  22
ATOM     22  O   UNL     1      21.702   8.483 -22.778  1.00  0.00    -0.507 OA
ATOM     23  H   UNL     1      21.283   9.017 -23.523  1.00  0.00     0.293 HD
ENDBRANCH   6  22
BRANCH   8  24
ATOM     24  O   UNL     1      22.798   9.317 -18.177  1.00  0.00    -0.508 OA
ATOM     25  H   UNL     1      23.789   9.323 -18.387  1.00  0.00     0.293 HD
ENDBRANCH   8  24
TORSDOF 5
ENDMDL
