MODEL 1
REMARK VINA RESULT:    -6.064      0.000      0.000
REMARK INTER + INTRA:         -16.831
REMARK INTER:                 -13.864
REMARK INTRA:                  -2.967
REMARK UNBOUND:                -2.967
REMARK SMILES CCCCCCCCCCCCCCCCCCCCCCCC(=O)[O-]
REMARK SMILES IDX 13 1 14 2 15 3 16 4 17 5 18 6 19 7 20 8 21 9 22 10 23 11
REMARK SMILES IDX 24 12 25 13 26 14 12 15 11 16 10 17 9 18 8 19 7 20 6 21 5 22
REMARK SMILES IDX 4 23 3 24 2 25 1 26
REMARK H PARENT
REMARK Flexibility Score: inf
ROOT
ATOM      1  C   UNL     1     -25.359 -33.230  25.901  1.00  0.00     0.000 C 
ENDROOT
BRANCH   1   2
ATOM      2  C   UNL     1     -26.700 -32.617  26.362  1.00  0.00     0.000 C 
BRANCH   2   3
ATOM      3  C   UNL     1     -27.816 -32.805  25.320  1.00  0.00     0.000 C 
BRANCH   3   4
ATOM      4  C   UNL     1     -27.312 -33.486  24.028  1.00  0.00     0.000 C 
BRANCH   4   5
ATOM      5  C   UNL     1     -28.154 -33.148  22.784  1.00  0.00     0.000 C 
BRANCH   5   6
ATOM      6  C   UNL     1     -28.140 -31.663  22.380  1.00  0.00     0.000 C 
BRANCH   6   7
ATOM      7  C   UNL     1     -29.528 -31.053  22.085  1.00  0.00     0.000 C 
BRANCH   7   8
ATOM      8  C   UNL     1     -30.525 -31.106  23.256  1.00  0.00     0.000 C 
BRANCH   8   9
ATOM      9  C   UNL     1     -30.597 -29.786  24.039  1.00  0.00     0.000 C 
BRANCH   9  10
ATOM     10  C   UNL     1     -29.725 -29.848  25.302  1.00  0.00     0.006 C 
BRANCH  10  11
ATOM     11  C   UNL     1     -28.400 -29.092  25.131  1.00  0.00     0.053 C 
BRANCH  11  12
ATOM     12  C   UNL     1     -28.557 -27.628  25.405  1.00  0.00     0.041 C 
ATOM     13  O   UNL     1     -27.707 -26.807  24.970  1.00  0.00    -0.550 OA
ATOM     14  O   UNL     1     -29.665 -27.164  26.102  1.00  0.00    -0.550 OA
ENDBRANCH  11  12
ENDBRANCH  10  11
ENDBRANCH   9  10
ENDBRANCH   8   9
ENDBRANCH   7   8
ENDBRANCH   6   7
ENDBRANCH   5   6
ENDBRANCH   4   5
ENDBRANCH   3   4
ENDBRANCH   2   3
ENDBRANCH   1   2
BRANCH   1  15
ATOM     15  C   UNL     1     -24.306 -32.188  25.480  1.00  0.00     0.000 C 
BRANCH  15  16
ATOM     16  C   UNL     1     -24.858 -30.781  25.189  1.00  0.00     0.000 C 
BRANCH  16  17
ATOM     17  C   UNL     1     -24.861 -30.438  23.690  1.00  0.00     0.000 C 
BRANCH  17  18
ATOM     18  C   UNL     1     -24.318 -31.585  22.823  1.00  0.00    -0.000 C 
BRANCH  18  19
ATOM     19  C   UNL     1     -22.959 -31.255  22.183  1.00  0.00    -0.000 C 
BRANCH  19  20
ATOM     20  C   UNL     1     -21.795 -32.003  22.867  1.00  0.00    -0.000 C 
BRANCH  20  21
ATOM     21  C   UNL     1     -20.817 -31.076  23.610  1.00  0.00    -0.000 C 
BRANCH  21  22
ATOM     22  C   UNL     1     -19.363 -31.576  23.557  1.00  0.00    -0.000 C 
BRANCH  22  23
ATOM     23  C   UNL     1     -18.350 -30.499  23.977  1.00  0.00    -0.000 C 
BRANCH  23  24
ATOM     24  C   UNL     1     -16.904 -30.875  23.606  1.00  0.00    -0.000 C 
BRANCH  24  25
ATOM     25  C   UNL     1     -16.656 -30.828  22.090  1.00  0.00    -0.003 C 
ATOM     26  C   UNL     1     -16.639 -29.403  21.536  1.00  0.00     0.004 C 
ENDBRANCH  24  25
ENDBRANCH  23  24
ENDBRANCH  22  23
ENDBRANCH  21  22
ENDBRANCH  20  21
ENDBRANCH  19  20
ENDBRANCH  18  19
ENDBRANCH  17  18
ENDBRANCH  16  17
ENDBRANCH  15  16
ENDBRANCH   1  15
TORSDOF 22
ENDMDL
MODEL 2
REMARK VINA RESULT:    -5.926      1.410      3.062
REMARK INTER + INTRA:         -16.515
REMARK INTER:                 -13.252
REMARK INTRA:                  -3.263
REMARK UNBOUND:                -2.967
REMARK SMILES CCCCCCCCCCCCCCCCCCCCCCCC(=O)[O-]
REMARK SMILES IDX 13 1 14 2 15 3 16 4 17 5 18 6 19 7 20 8 21 9 22 10 23 11
REMARK SMILES IDX 24 12 25 13 26 14 12 15 11 16 10 17 9 18 8 19 7 20 6 21 5 22
REMARK SMILES IDX 4 23 3 24 2 25 1 26
REMARK H PARENT
REMARK Flexibility Score: inf
ROOT
ATOM      1  C   UNL     1     -27.246 -31.598  22.026  1.00  0.00     0.000 C 
ENDROOT
BRANCH   1   2
ATOM      2  C   UNL     1     -27.956 -32.937  22.319  1.00  0.00     0.000 C 
BRANCH   2   3
ATOM      3  C   UNL     1     -27.361 -33.657  23.541  1.00  0.00     0.000 C 
BRANCH   3   4
ATOM      4  C   UNL     1     -28.012 -33.209  24.869  1.00  0.00     0.000 C 
BRANCH   4   5
ATOM      5  C   UNL     1     -27.002 -33.011  26.014  1.00  0.00     0.000 C 
BRANCH   5   6
ATOM      6  C   UNL     1     -25.583 -32.622  25.564  1.00  0.00     0.000 C 
BRANCH   6   7
ATOM      7  C   UNL     1     -25.280 -31.108  25.594  1.00  0.00     0.000 C 
BRANCH   7   8
ATOM      8  C   UNL     1     -26.502 -30.202  25.824  1.00  0.00     0.000 C 
BRANCH   8   9
ATOM      9  C   UNL     1     -26.627 -29.089  24.774  1.00  0.00     0.000 C 
BRANCH   9  10
ATOM     10  C   UNL     1     -28.086 -28.633  24.625  1.00  0.00     0.006 C 
BRANCH  10  11
ATOM     11  C   UNL     1     -29.048 -29.814  24.433  1.00  0.00     0.053 C 
BRANCH  11  12
ATOM     12  C   UNL     1     -30.396 -29.533  25.020  1.00  0.00     0.041 C 
ATOM     13  O   UNL     1     -30.498 -28.894  26.099  1.00  0.00    -0.550 OA
ATOM     14  O   UNL     1     -31.544 -29.940  24.352  1.00  0.00    -0.550 OA
ENDBRANCH  11  12
ENDBRANCH  10  11
ENDBRANCH   9  10
ENDBRANCH   8   9
ENDBRANCH   7   8
ENDBRANCH   6   7
ENDBRANCH   5   6
ENDBRANCH   4   5
ENDBRANCH   3   4
ENDBRANCH   2   3
ENDBRANCH   1   2
BRANCH   1  15
ATOM     15  C   UNL     1     -25.708 -31.679  22.078  1.00  0.00     0.000 C 
BRANCH  15  16
ATOM     16  C   UNL     1     -24.974 -30.349  21.836  1.00  0.00     0.000 C 
BRANCH  16  17
ATOM     17  C   UNL     1     -23.450 -30.467  22.009  1.00  0.00     0.000 C 
BRANCH  17  18
ATOM     18  C   UNL     1     -23.040 -31.754  22.742  1.00  0.00    -0.000 C 
BRANCH  18  19
ATOM     19  C   UNL     1     -21.871 -31.535  23.718  1.00  0.00    -0.000 C 
BRANCH  19  20
ATOM     20  C   UNL     1     -22.154 -30.395  24.719  1.00  0.00    -0.000 C 
BRANCH  20  21
ATOM     21  C   UNL     1     -21.084 -29.290  24.716  1.00  0.00    -0.000 C 
BRANCH  21  22
ATOM     22  C   UNL     1     -19.676 -29.820  25.039  1.00  0.00    -0.000 C 
BRANCH  22  23
ATOM     23  C   UNL     1     -18.698 -29.659  23.865  1.00  0.00    -0.000 C 
BRANCH  23  24
ATOM     24  C   UNL     1     -18.125 -31.005  23.385  1.00  0.00    -0.000 C 
BRANCH  24  25
ATOM     25  C   UNL     1     -16.589 -31.029  23.405  1.00  0.00    -0.003 C 
ATOM     26  C   UNL     1     -15.974 -30.739  22.036  1.00  0.00     0.004 C 
ENDBRANCH  24  25
ENDBRANCH  23  24
ENDBRANCH  22  23
ENDBRANCH  21  22
ENDBRANCH  20  21
ENDBRANCH  19  20
ENDBRANCH  18  19
ENDBRANCH  17  18
ENDBRANCH  16  17
ENDBRANCH  15  16
ENDBRANCH   1  15
TORSDOF 22
ENDMDL
MODEL 3
REMARK VINA RESULT:    -5.839      1.673      2.950
REMARK INTER + INTRA:         -16.316
REMARK INTER:                 -13.481
REMARK INTRA:                  -2.835
REMARK UNBOUND:                -2.967
REMARK SMILES CCCCCCCCCCCCCCCCCCCCCCCC(=O)[O-]
REMARK SMILES IDX 13 1 14 2 15 3 16 4 17 5 18 6 19 7 20 8 21 9 22 10 23 11
REMARK SMILES IDX 24 12 25 13 26 14 12 15 11 16 10 17 9 18 8 19 7 20 6 21 5 22
REMARK SMILES IDX 4 23 3 24 2 25 1 26
REMARK H PARENT
REMARK Flexibility Score: inf
ROOT
ATOM      1  C   UNL     1     -25.575 -28.990  22.555  1.00  0.00     0.000 C 
ENDROOT
BRANCH   1   2
ATOM      2  C   UNL     1     -26.510 -29.899  21.727  1.00  0.00     0.000 C 
BRANCH   2   3
ATOM      3  C   UNL     1     -26.287 -31.392  22.025  1.00  0.00     0.000 C 
BRANCH   3   4
ATOM      4  C   UNL     1     -27.613 -32.173  22.161  1.00  0.00     0.000 C 
BRANCH   4   5
ATOM      5  C   UNL     1     -27.569 -33.280  23.232  1.00  0.00     0.000 C 
BRANCH   5   6
ATOM      6  C   UNL     1     -26.709 -32.951  24.465  1.00  0.00     0.000 C 
BRANCH   6   7
ATOM      7  C   UNL     1     -27.459 -32.246  25.615  1.00  0.00     0.000 C 
BRANCH   7   8
ATOM      8  C   UNL     1     -26.740 -31.023  26.211  1.00  0.00     0.000 C 
BRANCH   8   9
ATOM      9  C   UNL     1     -27.108 -29.710  25.504  1.00  0.00     0.000 C 
BRANCH   9  10
ATOM     10  C   UNL     1     -28.588 -29.702  25.093  1.00  0.00     0.006 C 
BRANCH  10  11
ATOM     11  C   UNL     1     -29.369 -28.559  25.757  1.00  0.00     0.053 C 
BRANCH  11  12
ATOM     12  C   UNL     1     -30.846 -28.711  25.569  1.00  0.00     0.041 C 
ATOM     13  O   UNL     1     -31.302 -29.214  24.509  1.00  0.00    -0.550 OA
ATOM     14  O   UNL     1     -31.720 -28.339  26.583  1.00  0.00    -0.550 OA
ENDBRANCH  11  12
ENDBRANCH  10  11
ENDBRANCH   9  10
ENDBRANCH   8   9
ENDBRANCH   7   8
ENDBRANCH   6   7
ENDBRANCH   5   6
ENDBRANCH   4   5
ENDBRANCH   3   4
ENDBRANCH   2   3
ENDBRANCH   1   2
BRANCH   1  15
ATOM     15  C   UNL     1     -24.180 -29.593  22.809  1.00  0.00     0.000 C 
BRANCH  15  16
ATOM     16  C   UNL     1     -23.626 -29.382  24.229  1.00  0.00     0.000 C 
BRANCH  16  17
ATOM     17  C   UNL     1     -22.949 -30.640  24.799  1.00  0.00     0.000 C 
BRANCH  17  18
ATOM     18  C   UNL     1     -23.004 -31.829  23.827  1.00  0.00    -0.000 C 
BRANCH  18  19
ATOM     19  C   UNL     1     -21.640 -32.139  23.188  1.00  0.00    -0.000 C 
BRANCH  19  20
ATOM     20  C   UNL     1     -20.536 -31.178  23.675  1.00  0.00    -0.000 C 
BRANCH  20  21
ATOM     21  C   UNL     1     -19.110 -31.669  23.370  1.00  0.00    -0.000 C 
BRANCH  21  22
ATOM     22  C   UNL     1     -18.025 -30.689  23.850  1.00  0.00    -0.000 C 
BRANCH  22  23
ATOM     23  C   UNL     1     -16.622 -31.063  23.344  1.00  0.00    -0.000 C 
BRANCH  23  24
ATOM     24  C   UNL     1     -16.051 -30.019  22.368  1.00  0.00    -0.000 C 
BRANCH  24  25
ATOM     25  C   UNL     1     -16.346 -30.365  20.900  1.00  0.00    -0.003 C 
ATOM     26  C   UNL     1     -16.499 -29.126  20.019  1.00  0.00     0.004 C 
ENDBRANCH  24  25
ENDBRANCH  23  24
ENDBRANCH  22  23
ENDBRANCH  21  22
ENDBRANCH  20  21
ENDBRANCH  19  20
ENDBRANCH  18  19
ENDBRANCH  17  18
ENDBRANCH  16  17
ENDBRANCH  15  16
ENDBRANCH   1  15
TORSDOF 22
ENDMDL
MODEL 4
REMARK VINA RESULT:    -5.771      2.114      4.080
REMARK INTER + INTRA:         -16.160
REMARK INTER:                 -13.202
REMARK INTRA:                  -2.957
REMARK UNBOUND:                -2.967
REMARK SMILES CCCCCCCCCCCCCCCCCCCCCCCC(=O)[O-]
REMARK SMILES IDX 13 1 14 2 15 3 16 4 17 5 18 6 19 7 20 8 21 9 22 10 23 11
REMARK SMILES IDX 24 12 25 13 26 14 12 15 11 16 10 17 9 18 8 19 7 20 6 21 5 22
REMARK SMILES IDX 4 23 3 24 2 25 1 26
REMARK H PARENT
REMARK Flexibility Score: inf
ROOT
ATOM      1  C   UNL     1     -28.112 -32.919  22.796  1.00  0.00     0.000 C 
ENDROOT
BRANCH   1   2
ATOM      2  C   UNL     1     -28.545 -31.438  22.732  1.00  0.00     0.000 C 
BRANCH   2   3
ATOM      3  C   UNL     1     -30.065 -31.281  22.559  1.00  0.00     0.000 C 
BRANCH   3   4
ATOM      4  C   UNL     1     -30.668 -30.243  23.532  1.00  0.00     0.000 C 
BRANCH   4   5
ATOM      5  C   UNL     1     -30.185 -30.407  24.985  1.00  0.00     0.000 C 
BRANCH   5   6
ATOM      6  C   UNL     1     -29.955 -29.087  25.743  1.00  0.00     0.000 C 
BRANCH   6   7
ATOM      7  C   UNL     1     -28.853 -28.181  25.155  1.00  0.00     0.000 C 
BRANCH   7   8
ATOM      8  C   UNL     1     -27.476 -28.848  24.992  1.00  0.00     0.000 C 
BRANCH   8   9
ATOM      9  C   UNL     1     -26.483 -27.984  24.200  1.00  0.00     0.000 C 
BRANCH   9  10
ATOM     10  C   UNL     1     -25.368 -28.846  23.589  1.00  0.00     0.006 C 
BRANCH  10  11
ATOM     11  C   UNL     1     -24.288 -27.998  22.903  1.00  0.00     0.053 C 
BRANCH  11  12
ATOM     12  C   UNL     1     -24.062 -28.425  21.486  1.00  0.00     0.041 C 
ATOM     13  O   UNL     1     -23.404 -29.468  21.235  1.00  0.00    -0.550 OA
ATOM     14  O   UNL     1     -24.617 -27.695  20.442  1.00  0.00    -0.550 OA
ENDBRANCH  11  12
ENDBRANCH  10  11
ENDBRANCH   9  10
ENDBRANCH   8   9
ENDBRANCH   7   8
ENDBRANCH   6   7
ENDBRANCH   5   6
ENDBRANCH   4   5
ENDBRANCH   3   4
ENDBRANCH   2   3
ENDBRANCH   1   2
BRANCH   1  15
ATOM     15  C   UNL     1     -27.200 -33.254  23.991  1.00  0.00     0.000 C 
BRANCH  15  16
ATOM     16  C   UNL     1     -27.511 -32.484  25.287  1.00  0.00     0.000 C 
BRANCH  16  17
ATOM     17  C   UNL     1     -26.279 -32.318  26.193  1.00  0.00     0.000 C 
BRANCH  17  18
ATOM     18  C   UNL     1     -24.984 -32.801  25.520  1.00  0.00    -0.000 C 
BRANCH  18  19
ATOM     19  C   UNL     1     -24.063 -31.642  25.103  1.00  0.00    -0.000 C 
BRANCH  19  20
ATOM     20  C   UNL     1     -23.339 -31.923  23.770  1.00  0.00    -0.000 C 
BRANCH  20  21
ATOM     21  C   UNL     1     -21.915 -31.344  23.706  1.00  0.00    -0.000 C 
BRANCH  21  22
ATOM     22  C   UNL     1     -21.679 -30.226  24.736  1.00  0.00    -0.000 C 
BRANCH  22  23
ATOM     23  C   UNL     1     -20.199 -29.821  24.843  1.00  0.00    -0.000 C 
BRANCH  23  24
ATOM     24  C   UNL     1     -19.273 -30.758  24.047  1.00  0.00    -0.000 C 
BRANCH  24  25
ATOM     25  C   UNL     1     -17.968 -30.068  23.620  1.00  0.00    -0.003 C 
ATOM     26  C   UNL     1     -16.788 -31.036  23.533  1.00  0.00     0.004 C 
ENDBRANCH  24  25
ENDBRANCH  23  24
ENDBRANCH  22  23
ENDBRANCH  21  22
ENDBRANCH  20  21
ENDBRANCH  19  20
ENDBRANCH  18  19
ENDBRANCH  17  18
ENDBRANCH  16  17
ENDBRANCH  15  16
ENDBRANCH   1  15
TORSDOF 22
ENDMDL
MODEL 5
REMARK VINA RESULT:    -5.764      1.274      1.996
REMARK INTER + INTRA:         -16.144
REMARK INTER:                 -13.052
REMARK INTRA:                  -3.091
REMARK UNBOUND:                -2.967
REMARK SMILES CCCCCCCCCCCCCCCCCCCCCCCC(=O)[O-]
REMARK SMILES IDX 13 1 14 2 15 3 16 4 17 5 18 6 19 7 20 8 21 9 22 10 23 11
REMARK SMILES IDX 24 12 25 13 26 14 12 15 11 16 10 17 9 18 8 19 7 20 6 21 5 22
REMARK SMILES IDX 4 23 3 24 2 25 1 26
REMARK H PARENT
REMARK Flexibility Score: inf
ROOT
ATOM      1  C   UNL     1     -24.050 -32.153  25.374  1.00  0.00     0.000 C 
ENDROOT
BRANCH   1   2
ATOM      2  C   UNL     1     -25.061 -33.027  26.147  1.00  0.00     0.000 C 
BRANCH   2   3
ATOM      3  C   UNL     1     -26.447 -32.366  26.247  1.00  0.00     0.000 C 
BRANCH   3   4
ATOM      4  C   UNL     1     -27.564 -33.236  25.629  1.00  0.00     0.000 C 
BRANCH   4   5
ATOM      5  C   UNL     1     -27.305 -33.618  24.159  1.00  0.00     0.000 C 
BRANCH   5   6
ATOM      6  C   UNL     1     -28.542 -33.543  23.246  1.00  0.00     0.000 C 
BRANCH   6   7
ATOM      7  C   UNL     1     -28.356 -32.704  21.964  1.00  0.00     0.000 C 
BRANCH   7   8
ATOM      8  C   UNL     1     -28.245 -31.185  22.187  1.00  0.00     0.000 C 
BRANCH   8   9
ATOM      9  C   UNL     1     -29.187 -30.673  23.287  1.00  0.00     0.000 C 
BRANCH   9  10
ATOM     10  C   UNL     1     -28.411 -29.889  24.356  1.00  0.00     0.006 C 
BRANCH  10  11
ATOM     11  C   UNL     1     -29.168 -29.818  25.689  1.00  0.00     0.053 C 
BRANCH  11  12
ATOM     12  C   UNL     1     -30.024 -28.593  25.777  1.00  0.00     0.041 C 
ATOM     13  O   UNL     1     -29.688 -27.539  25.176  1.00  0.00    -0.550 OA
ATOM     14  O   UNL     1     -31.218 -28.627  26.487  1.00  0.00    -0.550 OA
ENDBRANCH  11  12
ENDBRANCH  10  11
ENDBRANCH   9  10
ENDBRANCH   8   9
ENDBRANCH   7   8
ENDBRANCH   6   7
ENDBRANCH   5   6
ENDBRANCH   4   5
ENDBRANCH   3   4
ENDBRANCH   2   3
ENDBRANCH   1   2
BRANCH   1  15
ATOM     15  C   UNL     1     -24.699 -31.188  24.363  1.00  0.00     0.000 C 
BRANCH  15  16
ATOM     16  C   UNL     1     -24.667 -31.658  22.898  1.00  0.00     0.000 C 
BRANCH  16  17
ATOM     17  C   UNL     1     -24.631 -30.491  21.897  1.00  0.00     0.000 C 
BRANCH  17  18
ATOM     18  C   UNL     1     -23.208 -29.960  21.664  1.00  0.00    -0.000 C 
BRANCH  18  19
ATOM     19  C   UNL     1     -23.025 -28.513  22.152  1.00  0.00    -0.000 C 
BRANCH  19  20
ATOM     20  C   UNL     1     -22.010 -28.412  23.310  1.00  0.00    -0.000 C 
BRANCH  20  21
ATOM     21  C   UNL     1     -21.037 -29.602  23.384  1.00  0.00    -0.000 C 
BRANCH  21  22
ATOM     22  C   UNL     1     -20.503 -29.849  24.805  1.00  0.00    -0.000 C 
BRANCH  22  23
ATOM     23  C   UNL     1     -18.977 -30.033  24.842  1.00  0.00    -0.000 C 
BRANCH  23  24
ATOM     24  C   UNL     1     -18.448 -30.807  23.621  1.00  0.00    -0.000 C 
BRANCH  24  25
ATOM     25  C   UNL     1     -16.931 -31.041  23.687  1.00  0.00    -0.003 C 
ATOM     26  C   UNL     1     -16.194 -30.502  22.461  1.00  0.00     0.004 C 
ENDBRANCH  24  25
ENDBRANCH  23  24
ENDBRANCH  22  23
ENDBRANCH  21  22
ENDBRANCH  20  21
ENDBRANCH  19  20
ENDBRANCH  18  19
ENDBRANCH  17  18
ENDBRANCH  16  17
ENDBRANCH  15  16
ENDBRANCH   1  15
TORSDOF 22
ENDMDL
MODEL 6
REMARK VINA RESULT:    -5.761      2.510      7.999
REMARK INTER + INTRA:         -16.137
REMARK INTER:                 -12.360
REMARK INTRA:                  -3.777
REMARK UNBOUND:                -2.967
REMARK SMILES CCCCCCCCCCCCCCCCCCCCCCCC(=O)[O-]
REMARK SMILES IDX 13 1 14 2 15 3 16 4 17 5 18 6 19 7 20 8 21 9 22 10 23 11
REMARK SMILES IDX 24 12 25 13 26 14 12 15 11 16 10 17 9 18 8 19 7 20 6 21 5 22
REMARK SMILES IDX 4 23 3 24 2 25 1 26
REMARK H PARENT
REMARK Flexibility Score: inf
ROOT
ATOM      1  C   UNL     1     -27.597 -32.446  24.841  1.00  0.00     0.000 C 
ENDROOT
BRANCH   1   2
ATOM      2  C   UNL     1     -26.932 -32.943  26.143  1.00  0.00     0.000 C 
BRANCH   2   3
ATOM      3  C   UNL     1     -25.396 -32.931  26.055  1.00  0.00     0.000 C 
BRANCH   3   4
ATOM      4  C   UNL     1     -24.852 -31.658  25.370  1.00  0.00     0.000 C 
BRANCH   4   5
ATOM      5  C   UNL     1     -23.606 -31.911  24.500  1.00  0.00     0.000 C 
BRANCH   5   6
ATOM      6  C   UNL     1     -22.784 -30.653  24.168  1.00  0.00     0.000 C 
BRANCH   6   7
ATOM      7  C   UNL     1     -21.579 -30.888  23.232  1.00  0.00     0.000 C 
BRANCH   7   8
ATOM      8  C   UNL     1     -20.278 -31.312  23.936  1.00  0.00     0.000 C 
BRANCH   8   9
ATOM      9  C   UNL     1     -19.033 -30.627  23.353  1.00  0.00     0.000 C 
BRANCH   9  10
ATOM     10  C   UNL     1     -18.584 -29.454  24.237  1.00  0.00     0.006 C 
BRANCH  10  11
ATOM     11  C   UNL     1     -19.349 -29.403  25.567  1.00  0.00     0.053 C 
BRANCH  11  12
ATOM     12  C   UNL     1     -20.116 -28.126  25.719  1.00  0.00     0.041 C 
ATOM     13  O   UNL     1     -21.299 -28.144  26.147  1.00  0.00    -0.550 OA
ATOM     14  O   UNL     1     -19.508 -26.910  25.428  1.00  0.00    -0.550 OA
ENDBRANCH  11  12
ENDBRANCH  10  11
ENDBRANCH   9  10
ENDBRANCH   8   9
ENDBRANCH   7   8
ENDBRANCH   6   7
ENDBRANCH   5   6
ENDBRANCH   4   5
ENDBRANCH   3   4
ENDBRANCH   2   3
ENDBRANCH   1   2
BRANCH   1  15
ATOM     15  C   UNL     1     -27.792 -33.545  23.778  1.00  0.00     0.000 C 
BRANCH  15  16
ATOM     16  C   UNL     1     -27.978 -33.036  22.338  1.00  0.00     0.000 C 
BRANCH  16  17
ATOM     17  C   UNL     1     -27.525 -31.577  22.157  1.00  0.00     0.000 C 
BRANCH  17  18
ATOM     18  C   UNL     1     -26.043 -31.466  21.765  1.00  0.00    -0.000 C 
BRANCH  18  19
ATOM     19  C   UNL     1     -25.524 -30.019  21.806  1.00  0.00    -0.000 C 
BRANCH  19  20
ATOM     20  C   UNL     1     -26.463 -29.085  22.598  1.00  0.00    -0.000 C 
BRANCH  20  21
ATOM     21  C   UNL     1     -25.836 -28.526  23.887  1.00  0.00    -0.000 C 
BRANCH  21  22
ATOM     22  C   UNL     1     -26.819 -28.508  25.070  1.00  0.00    -0.000 C 
BRANCH  22  23
ATOM     23  C   UNL     1     -28.269 -28.784  24.640  1.00  0.00    -0.000 C 
BRANCH  23  24
ATOM     24  C   UNL     1     -29.157 -29.232  25.815  1.00  0.00    -0.000 C 
BRANCH  24  25
ATOM     25  C   UNL     1     -30.434 -29.946  25.347  1.00  0.00    -0.003 C 
ATOM     26  C   UNL     1     -30.408 -30.289  23.858  1.00  0.00     0.004 C 
ENDBRANCH  24  25
ENDBRANCH  23  24
ENDBRANCH  22  23
ENDBRANCH  21  22
ENDBRANCH  20  21
ENDBRANCH  19  20
ENDBRANCH  18  19
ENDBRANCH  17  18
ENDBRANCH  16  17
ENDBRANCH  15  16
ENDBRANCH   1  15
TORSDOF 22
ENDMDL
MODEL 7
REMARK VINA RESULT:    -5.753      2.377      4.831
REMARK INTER + INTRA:         -16.119
REMARK INTER:                 -13.810
REMARK INTRA:                  -2.308
REMARK UNBOUND:                -2.967
REMARK SMILES CCCCCCCCCCCCCCCCCCCCCCCC(=O)[O-]
REMARK SMILES IDX 13 1 14 2 15 3 16 4 17 5 18 6 19 7 20 8 21 9 22 10 23 11
REMARK SMILES IDX 24 12 25 13 26 14 12 15 11 16 10 17 9 18 8 19 7 20 6 21 5 22
REMARK SMILES IDX 4 23 3 24 2 25 1 26
REMARK H PARENT
REMARK Flexibility Score: inf
ROOT
ATOM      1  C   UNL     1     -22.419 -31.620  23.629  1.00  0.00     0.000 C 
ENDROOT
BRANCH   1   2
ATOM      2  C   UNL     1     -23.153 -30.680  24.610  1.00  0.00     0.000 C 
BRANCH   2   3
ATOM      3  C   UNL     1     -24.505 -31.255  25.068  1.00  0.00     0.000 C 
BRANCH   3   4
ATOM      4  C   UNL     1     -24.359 -32.625  25.768  1.00  0.00     0.000 C 
BRANCH   4   5
ATOM      5  C   UNL     1     -25.702 -33.239  26.205  1.00  0.00     0.000 C 
BRANCH   5   6
ATOM      6  C   UNL     1     -26.875 -32.244  26.272  1.00  0.00     0.000 C 
BRANCH   6   7
ATOM      7  C   UNL     1     -27.927 -32.399  25.153  1.00  0.00     0.000 C 
BRANCH   7   8
ATOM      8  C   UNL     1     -27.500 -33.290  23.974  1.00  0.00     0.000 C 
BRANCH   8   9
ATOM      9  C   UNL     1     -27.833 -32.673  22.607  1.00  0.00     0.000 C 
BRANCH   9  10
ATOM     10  C   UNL     1     -26.685 -31.780  22.112  1.00  0.00     0.006 C 
BRANCH  10  11
ATOM     11  C   UNL     1     -27.012 -30.286  22.245  1.00  0.00     0.053 C 
BRANCH  11  12
ATOM     12  C   UNL     1     -25.963 -29.428  21.610  1.00  0.00     0.041 C 
ATOM     13  O   UNL     1     -24.756 -29.787  21.626  1.00  0.00    -0.550 OA
ATOM     14  O   UNL     1     -26.323 -28.254  20.961  1.00  0.00    -0.550 OA
ENDBRANCH  11  12
ENDBRANCH  10  11
ENDBRANCH   9  10
ENDBRANCH   8   9
ENDBRANCH   7   8
ENDBRANCH   6   7
ENDBRANCH   5   6
ENDBRANCH   4   5
ENDBRANCH   3   4
ENDBRANCH   2   3
ENDBRANCH   1   2
BRANCH   1  15
ATOM     15  C   UNL     1     -20.894 -31.410  23.584  1.00  0.00     0.000 C 
BRANCH  15  16
ATOM     16  C   UNL     1     -20.380 -30.178  24.349  1.00  0.00     0.000 C 
BRANCH  16  17
ATOM     17  C   UNL     1     -18.849 -30.161  24.495  1.00  0.00     0.000 C 
BRANCH  17  18
ATOM     18  C   UNL     1     -18.157 -31.163  23.557  1.00  0.00    -0.000 C 
BRANCH  18  19
ATOM     19  C   UNL     1     -16.624 -31.050  23.593  1.00  0.00    -0.000 C 
BRANCH  19  20
ATOM     20  C   UNL     1     -16.054 -30.450  22.290  1.00  0.00    -0.000 C 
BRANCH  20  21
ATOM     21  C   UNL     1     -16.813 -29.205  21.799  1.00  0.00    -0.000 C 
BRANCH  21  22
ATOM     22  C   UNL     1     -15.875 -28.081  21.325  1.00  0.00    -0.000 C 
BRANCH  22  23
ATOM     23  C   UNL     1     -16.532 -26.693  21.391  1.00  0.00    -0.000 C 
BRANCH  23  24
ATOM     24  C   UNL     1     -18.067 -26.771  21.471  1.00  0.00    -0.000 C 
BRANCH  24  25
ATOM     25  C   UNL     1     -18.645 -25.856  22.561  1.00  0.00    -0.003 C 
ATOM     26  C   UNL     1     -18.939 -26.600  23.864  1.00  0.00     0.004 C 
ENDBRANCH  24  25
ENDBRANCH  23  24
ENDBRANCH  22  23
ENDBRANCH  21  22
ENDBRANCH  20  21
ENDBRANCH  19  20
ENDBRANCH  18  19
ENDBRANCH  17  18
ENDBRANCH  16  17
ENDBRANCH  15  16
ENDBRANCH   1  15
TORSDOF 22
ENDMDL
MODEL 8
REMARK VINA RESULT:    -5.661      2.512      3.729
REMARK INTER + INTRA:         -15.908
REMARK INTER:                 -11.885
REMARK INTRA:                  -4.023
REMARK UNBOUND:                -2.967
REMARK SMILES CCCCCCCCCCCCCCCCCCCCCCCC(=O)[O-]
REMARK SMILES IDX 13 1 14 2 15 3 16 4 17 5 18 6 19 7 20 8 21 9 22 10 23 11
REMARK SMILES IDX 24 12 25 13 26 14 12 15 11 16 10 17 9 18 8 19 7 20 6 21 5 22
REMARK SMILES IDX 4 23 3 24 2 25 1 26
REMARK H PARENT
REMARK Flexibility Score: inf
ROOT
ATOM      1  C   UNL     1     -24.267 -32.832  25.772  1.00  0.00     0.000 C 
ENDROOT
BRANCH   1   2
ATOM      2  C   UNL     1     -25.725 -33.051  26.231  1.00  0.00     0.000 C 
BRANCH   2   3
ATOM      3  C   UNL     1     -26.632 -31.860  25.880  1.00  0.00     0.000 C 
BRANCH   3   4
ATOM      4  C   UNL     1     -27.879 -32.283  25.073  1.00  0.00     0.000 C 
BRANCH   4   5
ATOM      5  C   UNL     1     -27.560 -33.218  23.891  1.00  0.00     0.000 C 
BRANCH   5   6
ATOM      6  C   UNL     1     -27.558 -32.538  22.511  1.00  0.00     0.000 C 
BRANCH   6   7
ATOM      7  C   UNL     1     -26.197 -31.961  22.069  1.00  0.00     0.000 C 
BRANCH   7   8
ATOM      8  C   UNL     1     -26.211 -30.468  21.694  1.00  0.00     0.000 C 
BRANCH   8   9
ATOM      9  C   UNL     1     -26.432 -29.550  22.905  1.00  0.00     0.000 C 
BRANCH   9  10
ATOM     10  C   UNL     1     -25.269 -28.558  23.064  1.00  0.00     0.006 C 
BRANCH  10  11
ATOM     11  C   UNL     1     -24.470 -28.387  21.765  1.00  0.00     0.053 C 
BRANCH  11  12
ATOM     12  C   UNL     1     -24.790 -27.093  21.082  1.00  0.00     0.041 C 
ATOM     13  O   UNL     1     -25.043 -26.064  21.760  1.00  0.00    -0.550 OA
ATOM     14  O   UNL     1     -24.765 -27.014  19.695  1.00  0.00    -0.550 OA
ENDBRANCH  11  12
ENDBRANCH  10  11
ENDBRANCH   9  10
ENDBRANCH   8   9
ENDBRANCH   7   8
ENDBRANCH   6   7
ENDBRANCH   5   6
ENDBRANCH   4   5
ENDBRANCH   3   4
ENDBRANCH   2   3
ENDBRANCH   1   2
BRANCH   1  15
ATOM     15  C   UNL     1     -24.035 -31.497  25.039  1.00  0.00     0.000 C 
BRANCH  15  16
ATOM     16  C   UNL     1     -23.134 -31.582  23.795  1.00  0.00     0.000 C 
BRANCH  16  17
ATOM     17  C   UNL     1     -22.037 -30.504  23.777  1.00  0.00     0.000 C 
BRANCH  17  18
ATOM     18  C   UNL     1     -21.604 -30.082  25.189  1.00  0.00    -0.000 C 
BRANCH  18  19
ATOM     19  C   UNL     1     -21.274 -28.583  25.287  1.00  0.00    -0.000 C 
BRANCH  19  20
ATOM     20  C   UNL     1     -21.701 -27.809  24.022  1.00  0.00    -0.000 C 
BRANCH  20  21
ATOM     21  C   UNL     1     -20.523 -27.182  23.255  1.00  0.00    -0.000 C 
BRANCH  21  22
ATOM     22  C   UNL     1     -19.154 -27.629  23.794  1.00  0.00    -0.000 C 
BRANCH  22  23
ATOM     23  C   UNL     1     -18.124 -27.863  22.677  1.00  0.00    -0.000 C 
BRANCH  23  24
ATOM     24  C   UNL     1     -17.553 -29.292  22.691  1.00  0.00    -0.000 C 
BRANCH  24  25
ATOM     25  C   UNL     1     -18.167 -30.158  23.802  1.00  0.00    -0.003 C 
ATOM     26  C   UNL     1     -18.590 -31.542  23.310  1.00  0.00     0.004 C 
ENDBRANCH  24  25
ENDBRANCH  23  24
ENDBRANCH  22  23
ENDBRANCH  21  22
ENDBRANCH  20  21
ENDBRANCH  19  20
ENDBRANCH  18  19
ENDBRANCH  17  18
ENDBRANCH  16  17
ENDBRANCH  15  16
ENDBRANCH   1  15
TORSDOF 22
ENDMDL
MODEL 9
REMARK VINA RESULT:    -5.646      3.894      8.965
REMARK INTER + INTRA:         -15.873
REMARK INTER:                 -12.797
REMARK INTRA:                  -3.076
REMARK UNBOUND:                -2.967
REMARK SMILES CCCCCCCCCCCCCCCCCCCCCCCC(=O)[O-]
REMARK SMILES IDX 13 1 14 2 15 3 16 4 17 5 18 6 19 7 20 8 21 9 22 10 23 11
REMARK SMILES IDX 24 12 25 13 26 14 12 15 11 16 10 17 9 18 8 19 7 20 6 21 5 22
REMARK SMILES IDX 4 23 3 24 2 25 1 26
REMARK H PARENT
REMARK Flexibility Score: inf
ROOT
ATOM      1  C   UNL     1     -24.882 -31.695  22.799  1.00  0.00     0.000 C 
ENDROOT
BRANCH   1   2
ATOM      2  C   UNL     1     -25.069 -31.869  24.322  1.00  0.00     0.000 C 
BRANCH   2   3
ATOM      3  C   UNL     1     -23.751 -31.690  25.095  1.00  0.00     0.000 C 
BRANCH   3   4
ATOM      4  C   UNL     1     -22.570 -31.313  24.174  1.00  0.00     0.000 C 
BRANCH   4   5
ATOM      5  C   UNL     1     -21.651 -30.226  24.763  1.00  0.00     0.000 C 
BRANCH   5   6
ATOM      6  C   UNL     1     -20.473 -29.818  23.860  1.00  0.00     0.000 C 
BRANCH   6   7
ATOM      7  C   UNL     1     -19.074 -30.141  24.426  1.00  0.00     0.000 C 
BRANCH   7   8
ATOM      8  C   UNL     1     -18.323 -31.273  23.705  1.00  0.00     0.000 C 
BRANCH   8   9
ATOM      9  C   UNL     1     -16.829 -30.972  23.513  1.00  0.00     0.000 C 
BRANCH   9  10
ATOM     10  C   UNL     1     -16.495 -30.765  22.028  1.00  0.00     0.006 C 
BRANCH  10  11
ATOM     11  C   UNL     1     -16.156 -29.303  21.706  1.00  0.00     0.053 C 
BRANCH  11  12
ATOM     12  C   UNL     1     -16.415 -28.976  20.269  1.00  0.00     0.041 C 
ATOM     13  O   UNL     1     -16.185 -29.829  19.373  1.00  0.00    -0.550 OA
ATOM     14  O   UNL     1     -16.953 -27.742  19.921  1.00  0.00    -0.550 OA
ENDBRANCH  11  12
ENDBRANCH  10  11
ENDBRANCH   9  10
ENDBRANCH   8   9
ENDBRANCH   7   8
ENDBRANCH   6   7
ENDBRANCH   5   6
ENDBRANCH   4   5
ENDBRANCH   3   4
ENDBRANCH   2   3
ENDBRANCH   1   2
BRANCH   1  15
ATOM     15  C   UNL     1     -26.196 -31.757  21.996  1.00  0.00     0.000 C 
BRANCH  15  16
ATOM     16  C   UNL     1     -27.287 -32.660  22.598  1.00  0.00     0.000 C 
BRANCH  16  17
ATOM     17  C   UNL     1     -28.659 -32.463  21.931  1.00  0.00     0.000 C 
BRANCH  17  18
ATOM     18  C   UNL     1     -29.475 -31.337  22.586  1.00  0.00    -0.000 C 
BRANCH  18  19
ATOM     19  C   UNL     1     -29.129 -31.138  24.072  1.00  0.00    -0.000 C 
BRANCH  19  20
ATOM     20  C   UNL     1     -28.726 -29.682  24.387  1.00  0.00    -0.000 C 
BRANCH  20  21
ATOM     21  C   UNL     1     -27.595 -29.564  25.423  1.00  0.00    -0.000 C 
BRANCH  21  22
ATOM     22  C   UNL     1     -26.540 -28.513  25.039  1.00  0.00    -0.000 C 
BRANCH  22  23
ATOM     23  C   UNL     1     -26.438 -28.303  23.520  1.00  0.00    -0.000 C 
BRANCH  23  24
ATOM     24  C   UNL     1     -25.022 -27.894  23.075  1.00  0.00    -0.000 C 
BRANCH  24  25
ATOM     25  C   UNL     1     -24.700 -28.356  21.645  1.00  0.00    -0.003 C 
ATOM     26  C   UNL     1     -23.237 -28.763  21.470  1.00  0.00     0.004 C 
ENDBRANCH  24  25
ENDBRANCH  23  24
ENDBRANCH  22  23
ENDBRANCH  21  22
ENDBRANCH  20  21
ENDBRANCH  19  20
ENDBRANCH  18  19
ENDBRANCH  17  18
ENDBRANCH  16  17
ENDBRANCH  15  16
ENDBRANCH   1  15
TORSDOF 22
ENDMDL
