MODEL 1
REMARK VINA RESULT:    -6.063      0.000      0.000
REMARK INTER + INTRA:          -6.600
REMARK INTER:                  -6.418
REMARK INTRA:                  -0.182
REMARK UNBOUND:                -0.182
REMARK SMILES C=C(C)[C@@H]1CC[C@@]2(C)CCCC(=C)[C@H]2C1
REMARK SMILES IDX 4 1 5 2 6 3 7 4 9 5 10 6 11 7 12 8 13 9 14 10 15 11 8 12
REMARK SMILES IDX 2 13 3 14 1 15
REMARK H PARENT
REMARK Flexibility Score: inf
ROOT
ATOM      1  C   UNL     1      -1.902   4.344  11.488  1.00  0.00     0.015 C 
ATOM      2  C   UNL     1      -2.763   4.766  12.691  1.00  0.00     0.008 C 
ATOM      3  C   UNL     1      -2.887   3.623  13.711  1.00  0.00     0.008 C 
ATOM      4  C   UNL     1      -1.509   3.073  14.192  1.00  0.00    -0.026 C 
ATOM      5  C   UNL     1      -1.727   1.853  15.140  1.00  0.00     0.008 C 
ATOM      6  C   UNL     1      -2.240   0.596  14.433  1.00  0.00     0.005 C 
ATOM      7  C   UNL     1      -1.304   0.182  13.305  1.00  0.00     0.031 C 
ATOM      8  C   UNL     1      -1.086   1.330  12.350  1.00  0.00    -0.074 C 
ATOM      9  C   UNL     1      -1.123   1.074  11.026  1.00  0.00     0.008 C 
ATOM     10  C   UNL     1      -0.624   2.667  12.956  1.00  0.00     0.021 C 
ATOM     11  C   UNL     1      -0.516   3.842  11.944  1.00  0.00     0.016 C 
ATOM     12  C   UNL     1      -0.788   4.153  15.045  1.00  0.00     0.012 C 
ENDROOT
BRANCH   1  13
ATOM     13  C   UNL     1      -1.773   5.475  10.474  1.00  0.00    -0.077 C 
ATOM     14  C   UNL     1      -3.004   6.191   9.981  1.00  0.00     0.039 C 
ATOM     15  C   UNL     1      -0.575   5.852   9.995  1.00  0.00     0.008 C 
ENDBRANCH   1  13
TORSDOF 1
ENDMDL
MODEL 2
REMARK VINA RESULT:    -5.452      1.439      4.711
REMARK INTER + INTRA:          -5.953
REMARK INTER:                  -5.767
REMARK INTRA:                  -0.186
REMARK UNBOUND:                -0.182
REMARK SMILES C=C(C)[C@@H]1CC[C@@]2(C)CCCC(=C)[C@H]2C1
REMARK SMILES IDX 4 1 5 2 6 3 7 4 9 5 10 6 11 7 12 8 13 9 14 10 15 11 8 12
REMARK SMILES IDX 2 13 3 14 1 15
REMARK H PARENT
REMARK Flexibility Score: inf
ROOT
ATOM      1  C   UNL     1      -1.143   2.420  12.985  1.00  0.00     0.015 C 
ATOM      2  C   UNL     1       0.197   2.876  13.587  1.00  0.00     0.008 C 
ATOM      3  C   UNL     1       0.455   4.364  13.300  1.00  0.00     0.008 C 
ATOM      4  C   UNL     1      -0.702   5.294  13.777  1.00  0.00    -0.026 C 
ATOM      5  C   UNL     1      -0.406   6.767  13.355  1.00  0.00     0.008 C 
ATOM      6  C   UNL     1      -0.516   7.020  11.848  1.00  0.00     0.005 C 
ATOM      7  C   UNL     1      -1.893   6.624  11.327  1.00  0.00     0.031 C 
ATOM      8  C   UNL     1      -2.207   5.194  11.695  1.00  0.00    -0.074 C 
ATOM      9  C   UNL     1      -2.760   4.401  10.754  1.00  0.00     0.008 C 
ATOM     10  C   UNL     1      -2.073   4.808  13.178  1.00  0.00     0.021 C 
ATOM     11  C   UNL     1      -2.307   3.302  13.486  1.00  0.00     0.016 C 
ATOM     12  C   UNL     1      -0.758   5.298  15.330  1.00  0.00     0.012 C 
ENDROOT
BRANCH   1  13
ATOM     13  C   UNL     1      -1.407   0.946  13.269  1.00  0.00    -0.077 C 
ATOM     14  C   UNL     1      -1.283  -0.070  12.163  1.00  0.00     0.039 C 
ATOM     15  C   UNL     1      -1.757   0.522  14.496  1.00  0.00     0.008 C 
ENDBRANCH   1  13
TORSDOF 1
ENDMDL
MODEL 3
REMARK VINA RESULT:    -5.260      1.016      1.450
REMARK INTER + INTRA:          -5.750
REMARK INTER:                  -5.581
REMARK INTRA:                  -0.169
REMARK UNBOUND:                -0.182
REMARK SMILES C=C(C)[C@@H]1CC[C@@]2(C)CCCC(=C)[C@H]2C1
REMARK SMILES IDX 4 1 5 2 6 3 7 4 9 5 10 6 11 7 12 8 13 9 14 10 15 11 8 12
REMARK SMILES IDX 2 13 3 14 1 15
REMARK H PARENT
REMARK Flexibility Score: inf
ROOT
ATOM      1  C   UNL     1      -2.178   5.032  11.195  1.00  0.00     0.015 C 
ATOM      2  C   UNL     1      -2.572   5.523  12.599  1.00  0.00     0.008 C 
ATOM      3  C   UNL     1      -2.254   4.462  13.665  1.00  0.00     0.008 C 
ATOM      4  C   UNL     1      -0.766   3.997  13.648  1.00  0.00    -0.026 C 
ATOM      5  C   UNL     1      -0.557   2.851  14.686  1.00  0.00     0.008 C 
ATOM      6  C   UNL     1      -1.216   1.525  14.296  1.00  0.00     0.005 C 
ATOM      7  C   UNL     1      -0.725   1.051  12.933  1.00  0.00     0.031 C 
ATOM      8  C   UNL     1      -0.932   2.125  11.893  1.00  0.00    -0.074 C 
ATOM      9  C   UNL     1      -1.428   1.761  10.693  1.00  0.00     0.008 C 
ATOM     10  C   UNL     1      -0.362   3.520  12.204  1.00  0.00     0.021 C 
ATOM     11  C   UNL     1      -0.693   4.612  11.148  1.00  0.00     0.016 C 
ATOM     12  C   UNL     1       0.149   5.164  14.110  1.00  0.00     0.012 C 
ENDROOT
BRANCH   1  13
ATOM     13  C   UNL     1      -2.488   6.081  10.133  1.00  0.00    -0.077 C 
ATOM     14  C   UNL     1      -1.365   6.795   9.426  1.00  0.00     0.039 C 
ATOM     15  C   UNL     1      -3.755   6.394   9.809  1.00  0.00     0.008 C 
ENDBRANCH   1  13
TORSDOF 1
ENDMDL
MODEL 4
REMARK VINA RESULT:    -5.224      1.050      1.616
REMARK INTER + INTRA:          -5.712
REMARK INTER:                  -5.542
REMARK INTRA:                  -0.170
REMARK UNBOUND:                -0.182
REMARK SMILES C=C(C)[C@@H]1CC[C@@]2(C)CCCC(=C)[C@H]2C1
REMARK SMILES IDX 4 1 5 2 6 3 7 4 9 5 10 6 11 7 12 8 13 9 14 10 15 11 8 12
REMARK SMILES IDX 2 13 3 14 1 15
REMARK H PARENT
REMARK Flexibility Score: inf
ROOT
ATOM      1  C   UNL     1      -3.096   4.685  11.223  1.00  0.00     0.015 C 
ATOM      2  C   UNL     1      -3.687   4.993  12.609  1.00  0.00     0.008 C 
ATOM      3  C   UNL     1      -3.143   4.024  13.672  1.00  0.00     0.008 C 
ATOM      4  C   UNL     1      -1.586   3.993  13.738  1.00  0.00    -0.026 C 
ATOM      5  C   UNL     1      -1.120   2.914  14.763  1.00  0.00     0.008 C 
ATOM      6  C   UNL     1      -1.358   1.472  14.305  1.00  0.00     0.005 C 
ATOM      7  C   UNL     1      -0.680   1.205  12.967  1.00  0.00     0.031 C 
ATOM      8  C   UNL     1      -1.124   2.216  11.938  1.00  0.00    -0.074 C 
ATOM      9  C   UNL     1      -1.431   1.774  10.701  1.00  0.00     0.008 C 
ATOM     10  C   UNL     1      -0.986   3.703  12.312  1.00  0.00     0.021 C 
ATOM     11  C   UNL     1      -1.553   4.698  11.261  1.00  0.00     0.016 C 
ATOM     12  C   UNL     1      -1.062   5.352  14.280  1.00  0.00     0.012 C 
ENDROOT
BRANCH   1  13
ATOM     13  C   UNL     1      -3.630   5.644  10.165  1.00  0.00    -0.077 C 
ATOM     14  C   UNL     1      -2.719   6.676   9.553  1.00  0.00     0.039 C 
ATOM     15  C   UNL     1      -4.912   5.597   9.763  1.00  0.00     0.008 C 
ENDBRANCH   1  13
TORSDOF 1
ENDMDL
MODEL 5
REMARK VINA RESULT:    -5.145      1.850      3.459
REMARK INTER + INTRA:          -5.627
REMARK INTER:                  -5.443
REMARK INTRA:                  -0.184
REMARK UNBOUND:                -0.182
REMARK SMILES C=C(C)[C@@H]1CC[C@@]2(C)CCCC(=C)[C@H]2C1
REMARK SMILES IDX 4 1 5 2 6 3 7 4 9 5 10 6 11 7 12 8 13 9 14 10 15 11 8 12
REMARK SMILES IDX 2 13 3 14 1 15
REMARK H PARENT
REMARK Flexibility Score: inf
ROOT
ATOM      1  C   UNL     1      -0.778   4.479  13.898  1.00  0.00     0.015 C 
ATOM      2  C   UNL     1       0.354   3.980  12.982  1.00  0.00     0.008 C 
ATOM      3  C   UNL     1       0.231   2.471  12.721  1.00  0.00     0.008 C 
ATOM      4  C   UNL     1      -1.158   2.055  12.147  1.00  0.00    -0.026 C 
ATOM      5  C   UNL     1      -1.232   0.502  12.011  1.00  0.00     0.008 C 
ATOM      6  C   UNL     1      -1.306  -0.240  13.349  1.00  0.00     0.005 C 
ATOM      7  C   UNL     1      -2.493   0.240  14.175  1.00  0.00     0.031 C 
ATOM      8  C   UNL     1      -2.445   1.738  14.350  1.00  0.00    -0.074 C 
ATOM      9  C   UNL     1      -2.708   2.245  15.572  1.00  0.00     0.008 C 
ATOM     10  C   UNL     1      -2.312   2.589  13.075  1.00  0.00     0.021 C 
ATOM     11  C   UNL     1      -2.162   4.116  13.319  1.00  0.00     0.016 C 
ATOM     12  C   UNL     1      -1.314   2.618  10.708  1.00  0.00     0.012 C 
ENDROOT
BRANCH   1  13
ATOM     13  C   UNL     1      -0.663   5.976  14.159  1.00  0.00    -0.077 C 
ATOM     14  C   UNL     1       0.669   6.579  14.523  1.00  0.00     0.039 C 
ATOM     15  C   UNL     1      -1.734   6.784  14.077  1.00  0.00     0.008 C 
ENDBRANCH   1  13
TORSDOF 1
ENDMDL
MODEL 6
REMARK VINA RESULT:    -4.907      1.288      5.103
REMARK INTER + INTRA:          -5.376
REMARK INTER:                  -5.191
REMARK INTRA:                  -0.186
REMARK UNBOUND:                -0.182
REMARK SMILES C=C(C)[C@@H]1CC[C@@]2(C)CCCC(=C)[C@H]2C1
REMARK SMILES IDX 4 1 5 2 6 3 7 4 9 5 10 6 11 7 12 8 13 9 14 10 15 11 8 12
REMARK SMILES IDX 2 13 3 14 1 15
REMARK H PARENT
REMARK Flexibility Score: inf
ROOT
ATOM      1  C   UNL     1      -1.815   3.258  13.191  1.00  0.00     0.015 C 
ATOM      2  C   UNL     1      -0.730   3.119  12.109  1.00  0.00     0.008 C 
ATOM      3  C   UNL     1      -0.981   4.089  10.944  1.00  0.00     0.008 C 
ATOM      4  C   UNL     1      -1.112   5.576  11.397  1.00  0.00    -0.026 C 
ATOM      5  C   UNL     1      -1.467   6.474  10.171  1.00  0.00     0.008 C 
ATOM      6  C   UNL     1      -2.889   6.271   9.639  1.00  0.00     0.005 C 
ATOM      7  C   UNL     1      -3.921   6.503  10.736  1.00  0.00     0.031 C 
ATOM      8  C   UNL     1      -3.626   5.633  11.934  1.00  0.00    -0.074 C 
ATOM      9  C   UNL     1      -4.655   4.994  12.526  1.00  0.00     0.008 C 
ATOM     10  C   UNL     1      -2.205   5.708  12.520  1.00  0.00     0.021 C 
ATOM     11  C   UNL     1      -1.924   4.717  13.684  1.00  0.00     0.016 C 
ATOM     12  C   UNL     1       0.263   6.083  11.914  1.00  0.00     0.012 C 
ENDROOT
BRANCH   1  13
ATOM     13  C   UNL     1      -1.571   2.300  14.351  1.00  0.00    -0.077 C 
ATOM     14  C   UNL     1      -2.427   1.070  14.507  1.00  0.00     0.039 C 
ATOM     15  C   UNL     1      -0.602   2.529  15.254  1.00  0.00     0.008 C 
ENDBRANCH   1  13
TORSDOF 1
ENDMDL
MODEL 7
REMARK VINA RESULT:    -4.881      1.743      3.301
REMARK INTER + INTRA:          -5.348
REMARK INTER:                  -5.143
REMARK INTRA:                  -0.205
REMARK UNBOUND:                -0.182
REMARK SMILES C=C(C)[C@@H]1CC[C@@]2(C)CCCC(=C)[C@H]2C1
REMARK SMILES IDX 4 1 5 2 6 3 7 4 9 5 10 6 11 7 12 8 13 9 14 10 15 11 8 12
REMARK SMILES IDX 2 13 3 14 1 15
REMARK H PARENT
REMARK Flexibility Score: inf
ROOT
ATOM      1  C   UNL     1      -0.360   5.723  11.444  1.00  0.00     0.015 C 
ATOM      2  C   UNL     1      -1.175   4.576  10.822  1.00  0.00     0.008 C 
ATOM      3  C   UNL     1      -1.674   3.602  11.902  1.00  0.00     0.008 C 
ATOM      4  C   UNL     1      -2.491   4.301  13.032  1.00  0.00    -0.026 C 
ATOM      5  C   UNL     1      -2.867   3.261  14.133  1.00  0.00     0.008 C 
ATOM      6  C   UNL     1      -1.679   2.781  14.972  1.00  0.00     0.005 C 
ATOM      7  C   UNL     1      -0.963   3.956  15.627  1.00  0.00     0.031 C 
ATOM      8  C   UNL     1      -0.560   4.975  14.590  1.00  0.00    -0.074 C 
ATOM      9  C   UNL     1       0.676   5.509  14.668  1.00  0.00     0.008 C 
ATOM     10  C   UNL     1      -1.662   5.488  13.647  1.00  0.00     0.021 C 
ATOM     11  C   UNL     1      -1.173   6.456  12.533  1.00  0.00     0.016 C 
ATOM     12  C   UNL     1      -3.837   4.819  12.455  1.00  0.00     0.012 C 
ENDROOT
BRANCH   1  13
ATOM     13  C   UNL     1       0.136   6.694  10.378  1.00  0.00    -0.077 C 
ATOM     14  C   UNL     1       1.136   7.762  10.737  1.00  0.00     0.039 C 
ATOM     15  C   UNL     1      -0.306   6.625   9.111  1.00  0.00     0.008 C 
ENDBRANCH   1  13
TORSDOF 1
ENDMDL
MODEL 8
REMARK VINA RESULT:    -4.811      1.429      5.103
REMARK INTER + INTRA:          -5.274
REMARK INTER:                  -5.098
REMARK INTRA:                  -0.176
REMARK UNBOUND:                -0.182
REMARK SMILES C=C(C)[C@@H]1CC[C@@]2(C)CCCC(=C)[C@H]2C1
REMARK SMILES IDX 4 1 5 2 6 3 7 4 9 5 10 6 11 7 12 8 13 9 14 10 15 11 8 12
REMARK SMILES IDX 2 13 3 14 1 15
REMARK H PARENT
REMARK Flexibility Score: inf
ROOT
ATOM      1  C   UNL     1      -1.542   3.719  12.108  1.00  0.00     0.015 C 
ATOM      2  C   UNL     1      -2.459   4.206  13.243  1.00  0.00     0.008 C 
ATOM      3  C   UNL     1      -3.017   5.607  12.942  1.00  0.00     0.008 C 
ATOM      4  C   UNL     1      -3.752   5.696  11.570  1.00  0.00    -0.026 C 
ATOM      5  C   UNL     1      -4.193   7.168  11.299  1.00  0.00     0.008 C 
ATOM      6  C   UNL     1      -3.033   8.122  10.999  1.00  0.00     0.005 C 
ATOM      7  C   UNL     1      -2.211   7.628   9.815  1.00  0.00     0.031 C 
ATOM      8  C   UNL     1      -1.745   6.212  10.049  1.00  0.00    -0.074 C 
ATOM      9  C   UNL     1      -0.468   5.903   9.744  1.00  0.00     0.008 C 
ATOM     10  C   UNL     1      -2.818   5.173  10.417  1.00  0.00     0.021 C 
ATOM     11  C   UNL     1      -2.272   3.756  10.748  1.00  0.00     0.016 C 
ATOM     12  C   UNL     1      -5.062   4.862  11.628  1.00  0.00     0.012 C 
ENDROOT
BRANCH   1  13
ATOM     13  C   UNL     1      -0.988   2.329  12.400  1.00  0.00    -0.077 C 
ATOM     14  C   UNL     1      -1.089   1.243  11.360  1.00  0.00     0.039 C 
ATOM     15  C   UNL     1      -0.408   2.041  13.578  1.00  0.00     0.008 C 
ENDBRANCH   1  13
TORSDOF 1
ENDMDL
MODEL 9
REMARK VINA RESULT:    -4.703      1.984      5.018
REMARK INTER + INTRA:          -5.160
REMARK INTER:                  -4.985
REMARK INTRA:                  -0.175
REMARK UNBOUND:                -0.182
REMARK SMILES C=C(C)[C@@H]1CC[C@@]2(C)CCCC(=C)[C@H]2C1
REMARK SMILES IDX 4 1 5 2 6 3 7 4 9 5 10 6 11 7 12 8 13 9 14 10 15 11 8 12
REMARK SMILES IDX 2 13 3 14 1 15
REMARK H PARENT
REMARK Flexibility Score: inf
ROOT
ATOM      1  C   UNL     1      -1.153   3.166  13.526  1.00  0.00     0.015 C 
ATOM      2  C   UNL     1      -2.499   3.820  13.170  1.00  0.00     0.008 C 
ATOM      3  C   UNL     1      -2.351   5.343  13.014  1.00  0.00     0.008 C 
ATOM      4  C   UNL     1      -1.256   5.753  11.984  1.00  0.00    -0.026 C 
ATOM      5  C   UNL     1      -1.101   7.306  11.965  1.00  0.00     0.008 C 
ATOM      6  C   UNL     1      -0.455   7.885  13.228  1.00  0.00     0.005 C 
ATOM      7  C   UNL     1       0.909   7.256  13.481  1.00  0.00     0.031 C 
ATOM      8  C   UNL     1       0.798   5.752  13.530  1.00  0.00    -0.074 C 
ATOM      9  C   UNL     1       1.461   5.096  14.504  1.00  0.00     0.008 C 
ATOM     10  C   UNL     1       0.112   5.061  12.338  1.00  0.00     0.021 C 
ATOM     11  C   UNL     1      -0.068   3.525  12.488  1.00  0.00     0.016 C 
ATOM     12  C   UNL     1      -1.712   5.353  10.554  1.00  0.00     0.012 C 
ENDROOT
BRANCH   1  13
ATOM     13  C   UNL     1      -1.293   1.656  13.679  1.00  0.00    -0.077 C 
ATOM     14  C   UNL     1      -1.000   0.748  12.512  1.00  0.00     0.039 C 
ATOM     15  C   UNL     1      -1.682   1.104  14.841  1.00  0.00     0.008 C 
ENDBRANCH   1  13
TORSDOF 1
ENDMDL
