MODEL 1
REMARK VINA RESULT:    -5.386      0.000      0.000
REMARK INTER + INTRA:          -6.316
REMARK INTER:                  -6.173
REMARK INTRA:                  -0.143
REMARK UNBOUND:                -0.143
REMARK SMILES O=C([O-])C=Cc1ccc(O)cc1
REMARK SMILES IDX 6 1 7 2 12 3 8 4 11 5 9 6 5 7 4 8 2 9 1 10 3 11 10 12
REMARK H PARENT 10 13
REMARK Flexibility Score: inf
ROOT
ATOM      1  C   UNL     1     202.776 206.652 278.604  1.00  0.00    -0.025 A 
ATOM      2  C   UNL     1     202.845 208.031 278.865  1.00  0.00     0.012 A 
ATOM      3  C   UNL     1     202.354 205.786 279.634  1.00  0.00     0.012 A 
ATOM      4  C   UNL     1     202.477 208.538 280.115  1.00  0.00     0.047 A 
ATOM      5  C   UNL     1     201.988 206.298 280.882  1.00  0.00     0.047 A 
ATOM      6  C   UNL     1     202.046 207.675 281.125  1.00  0.00     0.115 A 
ENDROOT
BRANCH   1   7
ATOM      7  C   UNL     1     203.187 206.162 277.265  1.00  0.00     0.010 C 
ATOM      8  C   UNL     1     204.380 206.419 276.711  1.00  0.00     0.025 C 
BRANCH   8   9
ATOM      9  C   UNL     1     204.758 205.907 275.383  1.00  0.00     0.064 C 
ATOM     10  O   UNL     1     204.295 204.818 274.949  1.00  0.00    -0.545 OA
ATOM     11  O   UNL     1     205.638 206.636 274.594  1.00  0.00    -0.545 OA
ENDBRANCH   8   9
ENDBRANCH   1   7
BRANCH   6  12
ATOM     12  O   UNL     1     201.683 208.195 282.365  1.00  0.00    -0.508 OA
ATOM     13  H   UNL     1     202.348 208.690 282.947  1.00  0.00     0.293 HD
ENDBRANCH   6  12
TORSDOF 3
ENDMDL
MODEL 2
REMARK VINA RESULT:    -5.368      1.610      1.862
REMARK INTER + INTRA:          -6.295
REMARK INTER:                  -6.159
REMARK INTRA:                  -0.136
REMARK UNBOUND:                -0.143
REMARK SMILES O=C([O-])C=Cc1ccc(O)cc1
REMARK SMILES IDX 6 1 7 2 12 3 8 4 11 5 9 6 5 7 4 8 2 9 1 10 3 11 10 12
REMARK H PARENT 10 13
REMARK Flexibility Score: inf
ROOT
ATOM      1  C   UNL     1     202.228 206.602 278.455  1.00  0.00    -0.025 A 
ATOM      2  C   UNL     1     202.330 207.987 278.664  1.00  0.00     0.012 A 
ATOM      3  C   UNL     1     201.992 205.763 279.563  1.00  0.00     0.012 A 
ATOM      4  C   UNL     1     202.177 208.527 279.945  1.00  0.00     0.047 A 
ATOM      5  C   UNL     1     201.841 206.307 280.842  1.00  0.00     0.047 A 
ATOM      6  C   UNL     1     201.929 207.690 281.035  1.00  0.00     0.115 A 
ENDROOT
BRANCH   1   7
ATOM      7  C   UNL     1     202.408 206.077 277.078  1.00  0.00     0.010 C 
ATOM      8  C   UNL     1     201.485 206.186 276.112  1.00  0.00     0.025 C 
BRANCH   8   9
ATOM      9  C   UNL     1     201.703 205.662 274.754  1.00  0.00     0.064 C 
ATOM     10  O   UNL     1     200.762 205.138 274.099  1.00  0.00    -0.545 OA
ATOM     11  O   UNL     1     202.966 205.748 274.182  1.00  0.00    -0.545 OA
ENDBRANCH   8   9
ENDBRANCH   1   7
BRANCH   6  12
ATOM     12  O   UNL     1     201.779 208.242 282.306  1.00  0.00    -0.508 OA
ATOM     13  H   UNL     1     201.389 207.707 283.072  1.00  0.00     0.293 HD
ENDBRANCH   6  12
TORSDOF 3
ENDMDL
MODEL 3
REMARK VINA RESULT:    -5.251      1.599      5.840
REMARK INTER + INTRA:          -6.162
REMARK INTER:                  -6.010
REMARK INTRA:                  -0.151
REMARK UNBOUND:                -0.143
REMARK SMILES O=C([O-])C=Cc1ccc(O)cc1
REMARK SMILES IDX 6 1 7 2 12 3 8 4 11 5 9 6 5 7 4 8 2 9 1 10 3 11 10 12
REMARK H PARENT 10 13
REMARK Flexibility Score: inf
ROOT
ATOM      1  C   UNL     1     202.691 205.995 276.974  1.00  0.00    -0.025 A 
ATOM      2  C   UNL     1     204.056 205.690 276.840  1.00  0.00     0.012 A 
ATOM      3  C   UNL     1     201.930 206.232 275.811  1.00  0.00     0.012 A 
ATOM      4  C   UNL     1     204.644 205.600 275.575  1.00  0.00     0.047 A 
ATOM      5  C   UNL     1     202.523 206.143 274.548  1.00  0.00     0.047 A 
ATOM      6  C   UNL     1     203.880 205.823 274.427  1.00  0.00     0.115 A 
ENDROOT
BRANCH   1   7
ATOM      7  C   UNL     1     202.115 206.088 278.339  1.00  0.00     0.010 C 
ATOM      8  C   UNL     1     202.825 205.902 279.461  1.00  0.00     0.025 C 
BRANCH   8   9
ATOM      9  C   UNL     1     202.222 206.014 280.800  1.00  0.00     0.064 C 
ATOM     10  O   UNL     1     201.881 204.989 281.449  1.00  0.00    -0.545 OA
ATOM     11  O   UNL     1     202.027 207.270 281.359  1.00  0.00    -0.545 OA
ENDBRANCH   8   9
ENDBRANCH   1   7
BRANCH   6  12
ATOM     12  O   UNL     1     204.480 205.730 273.172  1.00  0.00    -0.508 OA
ATOM     13  H   UNL     1     203.928 205.683 272.324  1.00  0.00     0.293 HD
ENDBRANCH   6  12
TORSDOF 3
ENDMDL
MODEL 4
REMARK VINA RESULT:    -5.240     12.845     13.641
REMARK INTER + INTRA:          -6.148
REMARK INTER:                  -6.000
REMARK INTRA:                  -0.148
REMARK UNBOUND:                -0.143
REMARK SMILES O=C([O-])C=Cc1ccc(O)cc1
REMARK SMILES IDX 6 1 7 2 12 3 8 4 11 5 9 6 5 7 4 8 2 9 1 10 3 11 10 12
REMARK H PARENT 10 13
REMARK Flexibility Score: inf
ROOT
ATOM      1  C   UNL     1     212.983 203.832 285.664  1.00  0.00    -0.025 A 
ATOM      2  C   UNL     1     212.316 205.016 286.021  1.00  0.00     0.012 A 
ATOM      3  C   UNL     1     212.538 203.115 284.535  1.00  0.00     0.012 A 
ATOM      4  C   UNL     1     211.246 205.489 285.256  1.00  0.00     0.047 A 
ATOM      5  C   UNL     1     211.466 203.591 283.773  1.00  0.00     0.047 A 
ATOM      6  C   UNL     1     210.820 204.780 284.130  1.00  0.00     0.115 A 
ENDROOT
BRANCH   1   7
ATOM      7  C   UNL     1     214.108 203.367 286.514  1.00  0.00     0.010 C 
ATOM      8  C   UNL     1     214.115 203.453 287.852  1.00  0.00     0.025 C 
BRANCH   8   9
ATOM      9  C   UNL     1     215.244 202.971 288.664  1.00  0.00     0.064 C 
ATOM     10  O   UNL     1     216.110 202.193 288.181  1.00  0.00    -0.545 OA
ATOM     11  O   UNL     1     215.360 203.381 289.986  1.00  0.00    -0.545 OA
ENDBRANCH   8   9
ENDBRANCH   1   7
BRANCH   6  12
ATOM     12  O   UNL     1     209.751 205.263 283.377  1.00  0.00    -0.508 OA
ATOM     13  H   UNL     1     209.682 205.085 282.382  1.00  0.00     0.293 HD
ENDBRANCH   6  12
TORSDOF 3
ENDMDL
MODEL 5
REMARK VINA RESULT:    -5.217      1.615      5.851
REMARK INTER + INTRA:          -6.122
REMARK INTER:                  -5.984
REMARK INTRA:                  -0.138
REMARK UNBOUND:                -0.143
REMARK SMILES O=C([O-])C=Cc1ccc(O)cc1
REMARK SMILES IDX 6 1 7 2 12 3 8 4 11 5 9 6 5 7 4 8 2 9 1 10 3 11 10 12
REMARK H PARENT 10 13
REMARK Flexibility Score: inf
ROOT
ATOM      1  C   UNL     1     202.808 206.089 276.919  1.00  0.00    -0.025 A 
ATOM      2  C   UNL     1     201.958 206.243 275.811  1.00  0.00     0.012 A 
ATOM      3  C   UNL     1     204.149 205.716 276.700  1.00  0.00     0.012 A 
ATOM      4  C   UNL     1     202.441 206.056 274.513  1.00  0.00     0.047 A 
ATOM      5  C   UNL     1     204.627 205.528 275.400  1.00  0.00     0.047 A 
ATOM      6  C   UNL     1     203.775 205.701 274.303  1.00  0.00     0.115 A 
ENDROOT
BRANCH   1   7
ATOM      7  C   UNL     1     202.245 206.289 278.279  1.00  0.00     0.010 C 
ATOM      8  C   UNL     1     202.781 205.768 279.391  1.00  0.00     0.025 C 
BRANCH   8   9
ATOM      9  C   UNL     1     202.202 205.997 280.725  1.00  0.00     0.064 C 
ATOM     10  O   UNL     1     201.887 205.034 281.473  1.00  0.00    -0.545 OA
ATOM     11  O   UNL     1     201.999 207.298 281.168  1.00  0.00    -0.545 OA
ENDBRANCH   8   9
ENDBRANCH   1   7
BRANCH   6  12
ATOM     12  O   UNL     1     204.242 205.517 273.003  1.00  0.00    -0.508 OA
ATOM     13  H   UNL     1     203.670 205.077 272.293  1.00  0.00     0.293 HD
ENDBRANCH   6  12
TORSDOF 3
ENDMDL
MODEL 6
REMARK VINA RESULT:    -5.192      1.404      5.712
REMARK INTER + INTRA:          -6.094
REMARK INTER:                  -5.948
REMARK INTRA:                  -0.146
REMARK UNBOUND:                -0.143
REMARK SMILES O=C([O-])C=Cc1ccc(O)cc1
REMARK SMILES IDX 6 1 7 2 12 3 8 4 11 5 9 6 5 7 4 8 2 9 1 10 3 11 10 12
REMARK H PARENT 10 13
REMARK Flexibility Score: inf
ROOT
ATOM      1  C   UNL     1     203.798 206.663 277.309  1.00  0.00    -0.025 A 
ATOM      2  C   UNL     1     204.361 207.937 277.122  1.00  0.00     0.012 A 
ATOM      3  C   UNL     1     204.084 205.649 276.371  1.00  0.00     0.012 A 
ATOM      4  C   UNL     1     205.208 208.188 276.039  1.00  0.00     0.047 A 
ATOM      5  C   UNL     1     204.931 205.906 275.289  1.00  0.00     0.047 A 
ATOM      6  C   UNL     1     205.498 207.175 275.122  1.00  0.00     0.115 A 
ENDROOT
BRANCH   1   7
ATOM      7  C   UNL     1     202.897 206.448 278.468  1.00  0.00     0.010 C 
ATOM      8  C   UNL     1     203.044 207.064 279.650  1.00  0.00     0.025 C 
BRANCH   8   9
ATOM      9  C   UNL     1     202.123 206.835 280.776  1.00  0.00     0.064 C 
ATOM     10  O   UNL     1     201.517 207.792 281.327  1.00  0.00    -0.545 OA
ATOM     11  O   UNL     1     201.917 205.542 281.238  1.00  0.00    -0.545 OA
ENDBRANCH   8   9
ENDBRANCH   1   7
BRANCH   6  12
ATOM     12  O   UNL     1     206.344 207.440 274.047  1.00  0.00    -0.508 OA
ATOM     13  H   UNL     1     206.093 207.185 273.100  1.00  0.00     0.293 HD
ENDBRANCH   6  12
TORSDOF 3
ENDMDL
MODEL 7
REMARK VINA RESULT:    -5.069     14.272     14.696
REMARK INTER + INTRA:          -5.953
REMARK INTER:                  -5.815
REMARK INTRA:                  -0.138
REMARK UNBOUND:                -0.143
REMARK SMILES O=C([O-])C=Cc1ccc(O)cc1
REMARK SMILES IDX 6 1 7 2 12 3 8 4 11 5 9 6 5 7 4 8 2 9 1 10 3 11 10 12
REMARK H PARENT 10 13
REMARK Flexibility Score: inf
ROOT
ATOM      1  C   UNL     1     214.330 203.021 287.360  1.00  0.00    -0.025 A 
ATOM      2  C   UNL     1     215.674 202.670 287.577  1.00  0.00     0.012 A 
ATOM      3  C   UNL     1     213.440 203.004 288.453  1.00  0.00     0.012 A 
ATOM      4  C   UNL     1     216.125 202.334 288.856  1.00  0.00     0.047 A 
ATOM      5  C   UNL     1     213.895 202.666 289.731  1.00  0.00     0.047 A 
ATOM      6  C   UNL     1     215.239 202.334 289.936  1.00  0.00     0.115 A 
ENDROOT
BRANCH   1   7
ATOM      7  C   UNL     1     213.898 203.359 285.981  1.00  0.00     0.010 C 
ATOM      8  C   UNL     1     212.673 203.103 285.500  1.00  0.00     0.025 C 
BRANCH   8   9
ATOM      9  C   UNL     1     212.276 203.463 284.129  1.00  0.00     0.064 C 
ATOM     10  O   UNL     1     211.215 204.106 283.905  1.00  0.00    -0.545 OA
ATOM     11  O   UNL     1     213.084 203.090 283.063  1.00  0.00    -0.545 OA
ENDBRANCH   8   9
ENDBRANCH   1   7
BRANCH   6  12
ATOM     12  O   UNL     1     215.703 201.998 291.207  1.00  0.00    -0.508 OA
ATOM     13  H   UNL     1     216.182 202.672 291.791  1.00  0.00     0.293 HD
ENDBRANCH   6  12
TORSDOF 3
ENDMDL
MODEL 8
REMARK VINA RESULT:    -5.058     12.728     13.862
REMARK INTER + INTRA:          -5.940
REMARK INTER:                  -5.802
REMARK INTRA:                  -0.138
REMARK UNBOUND:                -0.143
REMARK SMILES O=C([O-])C=Cc1ccc(O)cc1
REMARK SMILES IDX 6 1 7 2 12 3 8 4 11 5 9 6 5 7 4 8 2 9 1 10 3 11 10 12
REMARK H PARENT 10 13
REMARK Flexibility Score: inf
ROOT
ATOM      1  C   UNL     1     212.682 203.664 286.154  1.00  0.00    -0.025 A 
ATOM      2  C   UNL     1     212.692 202.696 285.135  1.00  0.00     0.012 A 
ATOM      3  C   UNL     1     211.919 204.835 285.971  1.00  0.00     0.012 A 
ATOM      4  C   UNL     1     211.940 202.881 283.971  1.00  0.00     0.047 A 
ATOM      5  C   UNL     1     211.170 205.016 284.804  1.00  0.00     0.047 A 
ATOM      6  C   UNL     1     211.176 204.038 283.803  1.00  0.00     0.115 A 
ENDROOT
BRANCH   1   7
ATOM      7  C   UNL     1     213.505 203.426 287.366  1.00  0.00     0.010 C 
ATOM      8  C   UNL     1     213.464 204.202 288.458  1.00  0.00     0.025 C 
BRANCH   8   9
ATOM      9  C   UNL     1     214.287 203.930 289.648  1.00  0.00     0.064 C 
ATOM     10  O   UNL     1     213.847 203.232 290.600  1.00  0.00    -0.545 OA
ATOM     11  O   UNL     1     215.573 204.450 289.723  1.00  0.00    -0.545 OA
ENDBRANCH   8   9
ENDBRANCH   1   7
BRANCH   6  12
ATOM     12  O   UNL     1     210.431 204.208 282.638  1.00  0.00    -0.508 OA
ATOM     13  H   UNL     1     210.062 205.114 282.373  1.00  0.00     0.293 HD
ENDBRANCH   6  12
TORSDOF 3
ENDMDL
