MODEL 1
REMARK VINA RESULT:    -2.903      0.000      0.000
REMARK INTER + INTRA:          -4.155
REMARK INTER:                  -3.921
REMARK INTRA:                  -0.234
REMARK UNBOUND:                -0.234
REMARK SMILES CCCCCCCC=O
REMARK SMILES IDX 5 1 4 2 3 3 2 4 1 5 6 6 7 7 8 8 9 9
REMARK H PARENT
REMARK Flexibility Score: inf
ROOT
ATOM      1  C   UNL     1     150.700 151.975 145.111  1.00  0.00     0.000 C 
ENDROOT
BRANCH   1   2
ATOM      2  C   UNL     1     151.989 151.314 144.599  1.00  0.00     0.000 C 
BRANCH   2   3
ATOM      3  C   UNL     1     152.706 150.493 145.682  1.00  0.00    -0.000 C 
BRANCH   3   4
ATOM      4  C   UNL     1     151.921 149.219 146.014  1.00  0.00    -0.003 C 
ATOM      5  C   UNL     1     151.966 148.227 144.855  1.00  0.00     0.004 C 
ENDBRANCH   3   4
ENDBRANCH   2   3
ENDBRANCH   1   2
BRANCH   1   6
ATOM      6  C   UNL     1     149.452 151.110 144.864  1.00  0.00     0.008 C 
BRANCH   6   7
ATOM      7  C   UNL     1     148.587 150.973 146.125  1.00  0.00     0.072 C 
BRANCH   7   8
ATOM      8  C   UNL     1     147.725 149.745 146.088  1.00  0.00     0.224 C 
ATOM      9  O   UNL     1     148.044 148.783 145.407  1.00  0.00    -0.303 OA
ENDBRANCH   7   8
ENDBRANCH   6   7
ENDBRANCH   1   6
TORSDOF 6
ENDMDL
MODEL 2
REMARK VINA RESULT:    -2.838      2.414      4.228
REMARK INTER + INTRA:          -4.068
REMARK INTER:                  -3.763
REMARK INTRA:                  -0.305
REMARK UNBOUND:                -0.234
REMARK SMILES CCCCCCCC=O
REMARK SMILES IDX 5 1 4 2 3 3 2 4 1 5 6 6 7 7 8 8 9 9
REMARK H PARENT
REMARK Flexibility Score: inf
ROOT
ATOM      1  C   UNL     1     150.530 150.639 144.371  1.00  0.00     0.000 C 
ENDROOT
BRANCH   1   2
ATOM      2  C   UNL     1     150.083 151.718 145.369  1.00  0.00     0.000 C 
BRANCH   2   3
ATOM      3  C   UNL     1     148.801 151.334 146.124  1.00  0.00    -0.000 C 
BRANCH   3   4
ATOM      4  C   UNL     1     147.906 150.436 145.262  1.00  0.00    -0.003 C 
ATOM      5  C   UNL     1     147.873 149.009 145.803  1.00  0.00     0.004 C 
ENDBRANCH   3   4
ENDBRANCH   2   3
ENDBRANCH   1   2
BRANCH   1   6
ATOM      6  C   UNL     1     151.633 149.729 144.938  1.00  0.00     0.008 C 
BRANCH   6   7
ATOM      7  C   UNL     1     152.371 150.383 146.115  1.00  0.00     0.072 C 
BRANCH   7   8
ATOM      8  C   UNL     1     153.650 151.042 145.685  1.00  0.00     0.224 C 
ATOM      9  O   UNL     1     153.659 152.211 145.335  1.00  0.00    -0.303 OA
ENDBRANCH   7   8
ENDBRANCH   6   7
ENDBRANCH   1   6
TORSDOF 6
ENDMDL
MODEL 3
REMARK VINA RESULT:    -2.524      1.759      2.411
REMARK INTER + INTRA:          -3.644
REMARK INTER:                  -3.137
REMARK INTRA:                  -0.506
REMARK UNBOUND:                -0.234
REMARK SMILES CCCCCCCC=O
REMARK SMILES IDX 5 1 4 2 3 3 2 4 1 5 6 6 7 7 8 8 9 9
REMARK H PARENT
REMARK Flexibility Score: inf
ROOT
ATOM      1  C   UNL     1     150.315 151.200 145.778  1.00  0.00     0.000 C 
ENDROOT
BRANCH   1   2
ATOM      2  C   UNL     1     151.542 151.832 145.104  1.00  0.00     0.000 C 
BRANCH   2   3
ATOM      3  C   UNL     1     151.806 151.266 143.700  1.00  0.00    -0.000 C 
BRANCH   3   4
ATOM      4  C   UNL     1     150.556 151.382 142.819  1.00  0.00    -0.003 C 
ATOM      5  C   UNL     1     150.485 150.238 141.810  1.00  0.00     0.004 C 
ENDBRANCH   3   4
ENDBRANCH   2   3
ENDBRANCH   1   2
BRANCH   1   6
ATOM      6  C   UNL     1     150.530 149.716 146.125  1.00  0.00     0.008 C 
BRANCH   6   7
ATOM      7  C   UNL     1     149.455 148.816 145.497  1.00  0.00     0.072 C 
BRANCH   7   8
ATOM      8  C   UNL     1     148.147 149.532 145.326  1.00  0.00     0.224 C 
ATOM      9  O   UNL     1     147.239 149.366 146.125  1.00  0.00    -0.303 OA
ENDBRANCH   7   8
ENDBRANCH   6   7
ENDBRANCH   1   6
TORSDOF 6
ENDMDL
MODEL 4
REMARK VINA RESULT:    -2.496      7.815      9.475
REMARK INTER + INTRA:          -3.605
REMARK INTER:                  -2.963
REMARK INTRA:                  -0.642
REMARK UNBOUND:                -0.234
REMARK SMILES CCCCCCCC=O
REMARK SMILES IDX 5 1 4 2 3 3 2 4 1 5 6 6 7 7 8 8 9 9
REMARK H PARENT
REMARK Flexibility Score: inf
ROOT
ATOM      1  C   UNL     1     152.076 142.431 139.347  1.00  0.00     0.000 C 
ENDROOT
BRANCH   1   2
ATOM      2  C   UNL     1     153.578 142.373 139.029  1.00  0.00     0.000 C 
BRANCH   2   3
ATOM      3  C   UNL     1     154.409 143.316 139.912  1.00  0.00    -0.000 C 
BRANCH   3   4
ATOM      4  C   UNL     1     154.832 144.566 139.131  1.00  0.00    -0.003 C 
ATOM      5  C   UNL     1     154.822 144.305 137.627  1.00  0.00     0.004 C 
ENDBRANCH   3   4
ENDBRANCH   2   3
ENDBRANCH   1   2
BRANCH   1   6
ATOM      6  C   UNL     1     151.274 143.194 138.279  1.00  0.00     0.008 C 
BRANCH   6   7
ATOM      7  C   UNL     1     151.094 144.675 138.643  1.00  0.00     0.072 C 
BRANCH   7   8
ATOM      8  C   UNL     1     151.033 144.889 140.127  1.00  0.00     0.224 C 
ATOM      9  O   UNL     1     151.780 145.687 140.671  1.00  0.00    -0.303 OA
ENDBRANCH   7   8
ENDBRANCH   6   7
ENDBRANCH   1   6
TORSDOF 6
ENDMDL
MODEL 5
REMARK VINA RESULT:    -2.495      2.221      2.581
REMARK INTER + INTRA:          -3.605
REMARK INTER:                  -3.477
REMARK INTRA:                  -0.128
REMARK UNBOUND:                -0.234
REMARK SMILES CCCCCCCC=O
REMARK SMILES IDX 5 1 4 2 3 3 2 4 1 5 6 6 7 7 8 8 9 9
REMARK H PARENT
REMARK Flexibility Score: inf
ROOT
ATOM      1  C   UNL     1     150.391 150.827 144.229  1.00  0.00     0.000 C 
ENDROOT
BRANCH   1   2
ATOM      2  C   UNL     1     151.451 150.186 145.138  1.00  0.00     0.000 C 
BRANCH   2   3
ATOM      3  C   UNL     1     150.852 149.172 146.125  1.00  0.00    -0.000 C 
BRANCH   3   4
ATOM      4  C   UNL     1     151.235 147.738 145.737  1.00  0.00    -0.003 C 
ATOM      5  C   UNL     1     152.750 147.578 145.649  1.00  0.00     0.004 C 
ENDBRANCH   3   4
ENDBRANCH   2   3
ENDBRANCH   1   2
BRANCH   1   6
ATOM      6  C   UNL     1     148.989 150.826 144.863  1.00  0.00     0.008 C 
BRANCH   6   7
ATOM      7  C   UNL     1     148.859 151.877 145.975  1.00  0.00     0.072 C 
BRANCH   7   8
ATOM      8  C   UNL     1     149.111 153.268 145.471  1.00  0.00     0.224 C 
ATOM      9  O   UNL     1     150.150 153.848 145.741  1.00  0.00    -0.303 OA
ENDBRANCH   7   8
ENDBRANCH   6   7
ENDBRANCH   1   6
TORSDOF 6
ENDMDL
MODEL 6
REMARK VINA RESULT:    -2.487      8.090      9.588
REMARK INTER + INTRA:          -3.594
REMARK INTER:                  -3.050
REMARK INTRA:                  -0.543
REMARK UNBOUND:                -0.234
REMARK SMILES CCCCCCCC=O
REMARK SMILES IDX 5 1 4 2 3 3 2 4 1 5 6 6 7 7 8 8 9 9
REMARK H PARENT
REMARK Flexibility Score: inf
ROOT
ATOM      1  C   UNL     1     142.190 149.379 139.423  1.00  0.00     0.000 C 
ENDROOT
BRANCH   1   2
ATOM      2  C   UNL     1     142.146 147.901 139.008  1.00  0.00     0.000 C 
BRANCH   2   3
ATOM      3  C   UNL     1     143.016 147.006 139.904  1.00  0.00    -0.000 C 
BRANCH   3   4
ATOM      4  C   UNL     1     144.277 146.549 139.161  1.00  0.00    -0.003 C 
ATOM      5  C   UNL     1     144.049 146.525 137.652  1.00  0.00     0.004 C 
ENDBRANCH   3   4
ENDBRANCH   2   3
ENDBRANCH   1   2
BRANCH   1   6
ATOM      6  C   UNL     1     143.288 150.167 138.688  1.00  0.00     0.008 C 
BRANCH   6   7
ATOM      7  C   UNL     1     144.313 150.771 139.659  1.00  0.00     0.072 C 
BRANCH   7   8
ATOM      8  C   UNL     1     145.506 149.879 139.848  1.00  0.00     0.224 C 
ATOM      9  O   UNL     1     145.757 149.401 140.943  1.00  0.00    -0.303 OA
ENDBRANCH   7   8
ENDBRANCH   6   7
ENDBRANCH   1   6
TORSDOF 6
ENDMDL
MODEL 7
REMARK VINA RESULT:    -2.484      8.098      9.814
REMARK INTER + INTRA:          -3.589
REMARK INTER:                  -3.052
REMARK INTRA:                  -0.537
REMARK UNBOUND:                -0.234
REMARK SMILES CCCCCCCC=O
REMARK SMILES IDX 5 1 4 2 3 3 2 4 1 5 6 6 7 7 8 8 9 9
REMARK H PARENT
REMARK Flexibility Score: inf
ROOT
ATOM      1  C   UNL     1     158.250 152.278 138.585  1.00  0.00     0.000 C 
ENDROOT
BRANCH   1   2
ATOM      2  C   UNL     1     158.722 153.435 139.480  1.00  0.00     0.000 C 
BRANCH   2   3
ATOM      3  C   UNL     1     157.652 154.522 139.659  1.00  0.00    -0.000 C 
BRANCH   3   4
ATOM      4  C   UNL     1     156.900 154.773 138.346  1.00  0.00    -0.003 C 
ATOM      5  C   UNL     1     155.462 155.211 138.610  1.00  0.00     0.004 C 
ENDBRANCH   3   4
ENDBRANCH   2   3
ENDBRANCH   1   2
BRANCH   1   6
ATOM      6  C   UNL     1     157.875 151.022 139.390  1.00  0.00     0.008 C 
BRANCH   6   7
ATOM      7  C   UNL     1     156.423 150.590 139.142  1.00  0.00     0.072 C 
BRANCH   7   8
ATOM      8  C   UNL     1     155.437 151.566 139.716  1.00  0.00     0.224 C 
ATOM      9  O   UNL     1     155.478 151.867 140.898  1.00  0.00    -0.303 OA
ENDBRANCH   7   8
ENDBRANCH   6   7
ENDBRANCH   1   6
TORSDOF 6
ENDMDL
MODEL 8
REMARK VINA RESULT:    -2.480      8.774     10.290
REMARK INTER + INTRA:          -3.584
REMARK INTER:                  -2.957
REMARK INTRA:                  -0.627
REMARK UNBOUND:                -0.234
REMARK SMILES CCCCCCCC=O
REMARK SMILES IDX 5 1 4 2 3 3 2 4 1 5 6 6 7 7 8 8 9 9
REMARK H PARENT
REMARK Flexibility Score: inf
ROOT
ATOM      1  C   UNL     1     149.192 159.094 139.451  1.00  0.00     0.000 C 
ENDROOT
BRANCH   1   2
ATOM      2  C   UNL     1     147.730 158.922 139.011  1.00  0.00     0.000 C 
BRANCH   2   3
ATOM      3  C   UNL     1     146.932 158.001 139.948  1.00  0.00    -0.000 C 
BRANCH   3   4
ATOM      4  C   UNL     1     146.479 156.733 139.215  1.00  0.00    -0.003 C 
ATOM      5  C   UNL     1     146.538 156.921 137.701  1.00  0.00     0.004 C 
ENDBRANCH   3   4
ENDBRANCH   2   3
ENDBRANCH   1   2
BRANCH   1   6
ATOM      6  C   UNL     1     150.183 158.416 138.489  1.00  0.00     0.008 C 
BRANCH   6   7
ATOM      7  C   UNL     1     150.197 156.890 138.657  1.00  0.00     0.072 C 
BRANCH   7   8
ATOM      8  C   UNL     1     150.388 156.481 140.088  1.00  0.00     0.224 C 
ATOM      9  O   UNL     1     149.624 155.686 140.614  1.00  0.00    -0.303 OA
ENDBRANCH   7   8
ENDBRANCH   6   7
ENDBRANCH   1   6
TORSDOF 6
ENDMDL
