MODEL 1
REMARK VINA RESULT:    -3.241      0.000      0.000
REMARK INTER + INTRA:          -3.766
REMARK INTER:                  -3.714
REMARK INTRA:                  -0.052
REMARK UNBOUND:                -0.052
REMARK SMILES CC(C)[C@H]([NH3+])C(=O)[O-]
REMARK SMILES IDX 4 1 5 2 6 6 7 7 8 8 2 9 1 10 3 11
REMARK H PARENT 5 3 5 4 5 5
REMARK Flexibility Score: inf
ROOT
ATOM      1  C   UNL     1      13.023  26.598  24.735  1.00  0.00     0.230 C 
ENDROOT
BRANCH   1   2
ATOM      2  N   UNL     1      11.802  26.877  23.964  1.00  0.00    -0.350 N 
ATOM      3  H   UNL     1      11.778  26.289  23.100  1.00  0.00     0.345 HD
ATOM      4  H   UNL     1      11.753  27.889  23.702  1.00  0.00     0.345 HD
ATOM      5  H   UNL     1      10.956  26.630  24.528  1.00  0.00     0.345 HD
ENDBRANCH   1   2
BRANCH   1   6
ATOM      6  C   UNL     1      14.193  27.290  24.080  1.00  0.00     0.099 C 
ATOM      7  O   UNL     1      14.017  28.355  23.433  1.00  0.00    -0.544 OA
ATOM      8  O   UNL     1      15.472  26.759  24.192  1.00  0.00    -0.544 OA
ENDBRANCH   1   6
BRANCH   1   9
ATOM      9  C   UNL     1      13.291  25.067  24.866  1.00  0.00     0.047 C 
ATOM     10  C   UNL     1      12.146  24.232  24.266  1.00  0.00     0.014 C 
ATOM     11  C   UNL     1      13.494  24.660  26.336  1.00  0.00     0.014 C 
ENDBRANCH   1   9
TORSDOF 3
ENDMDL
MODEL 2
REMARK VINA RESULT:    -3.227      2.727      3.325
REMARK INTER + INTRA:          -3.751
REMARK INTER:                  -3.687
REMARK INTRA:                  -0.064
REMARK UNBOUND:                -0.052
REMARK SMILES CC(C)[C@H]([NH3+])C(=O)[O-]
REMARK SMILES IDX 4 1 5 2 6 6 7 7 8 8 2 9 1 10 3 11
REMARK H PARENT 5 3 5 4 5 5
REMARK Flexibility Score: inf
ROOT
ATOM      1  C   UNL     1      15.163  25.851  24.817  1.00  0.00     0.230 C 
ENDROOT
BRANCH   1   2
ATOM      2  N   UNL     1      16.005  26.151  23.649  1.00  0.00    -0.350 N 
ATOM      3  H   UNL     1      15.861  27.140  23.344  1.00  0.00     0.345 HD
ATOM      4  H   UNL     1      15.784  25.503  22.857  1.00  0.00     0.345 HD
ATOM      5  H   UNL     1      17.017  26.050  23.898  1.00  0.00     0.345 HD
ENDBRANCH   1   2
BRANCH   1   6
ATOM      6  C   UNL     1      13.711  25.901  24.408  1.00  0.00     0.099 C 
ATOM      7  O   UNL     1      13.128  27.008  24.275  1.00  0.00    -0.544 OA
ATOM      8  O   UNL     1      13.011  24.724  24.173  1.00  0.00    -0.544 OA
ENDBRANCH   1   6
BRANCH   1   9
ATOM      9  C   UNL     1      15.438  26.832  25.998  1.00  0.00     0.047 C 
ATOM     10  C   UNL     1      16.943  27.058  26.217  1.00  0.00     0.014 C 
ATOM     11  C   UNL     1      14.810  26.319  27.306  1.00  0.00     0.014 C 
ENDBRANCH   1   9
TORSDOF 3
ENDMDL
MODEL 3
REMARK VINA RESULT:    -3.222      0.154      1.155
REMARK INTER + INTRA:          -3.744
REMARK INTER:                  -3.691
REMARK INTRA:                  -0.053
REMARK UNBOUND:                -0.052
REMARK SMILES CC(C)[C@H]([NH3+])C(=O)[O-]
REMARK SMILES IDX 4 1 5 2 6 6 7 7 8 8 2 9 1 10 3 11
REMARK H PARENT 5 3 5 4 5 5
REMARK Flexibility Score: inf
ROOT
ATOM      1  C   UNL     1      13.007  26.661  24.751  1.00  0.00     0.230 C 
ENDROOT
BRANCH   1   2
ATOM      2  N   UNL     1      11.752  26.930  24.032  1.00  0.00    -0.350 N 
ATOM      3  H   UNL     1      11.738  27.916  23.688  1.00  0.00     0.345 HD
ATOM      4  H   UNL     1      10.926  26.762  24.653  1.00  0.00     0.345 HD
ATOM      5  H   UNL     1      11.678  26.309  23.193  1.00  0.00     0.345 HD
ENDBRANCH   1   2
BRANCH   1   6
ATOM      6  C   UNL     1      14.136  27.401  24.076  1.00  0.00     0.099 C 
ATOM      7  O   UNL     1      15.313  26.962  24.147  1.00  0.00    -0.544 OA
ATOM      8  O   UNL     1      13.881  28.570  23.369  1.00  0.00    -0.544 OA
ENDBRANCH   1   6
BRANCH   1   9
ATOM      9  C   UNL     1      13.317  25.134  24.829  1.00  0.00     0.047 C 
ATOM     10  C   UNL     1      12.177  24.288  24.235  1.00  0.00     0.014 C 
ATOM     11  C   UNL     1      13.570  24.690  26.280  1.00  0.00     0.014 C 
ENDBRANCH   1   9
TORSDOF 3
ENDMDL
MODEL 4
REMARK VINA RESULT:    -3.218      9.549     10.169
REMARK INTER + INTRA:          -3.739
REMARK INTER:                  -3.661
REMARK INTRA:                  -0.079
REMARK UNBOUND:                -0.052
REMARK SMILES CC(C)[C@H]([NH3+])C(=O)[O-]
REMARK SMILES IDX 4 1 5 2 6 6 7 7 8 8 2 9 1 10 3 11
REMARK H PARENT 5 3 5 4 5 5
REMARK Flexibility Score: inf
ROOT
ATOM      1  C   UNL     1      18.748  28.757  32.666  1.00  0.00     0.230 C 
ENDROOT
BRANCH   1   2
ATOM      2  N   UNL     1      17.713  29.613  33.265  1.00  0.00    -0.350 N 
ATOM      3  H   UNL     1      17.588  30.480  32.695  1.00  0.00     0.345 HD
ATOM      4  H   UNL     1      17.969  29.872  34.247  1.00  0.00     0.345 HD
ATOM      5  H   UNL     1      16.794  29.114  33.274  1.00  0.00     0.345 HD
ENDBRANCH   1   2
BRANCH   1   6
ATOM      6  C   UNL     1      20.109  29.328  32.982  1.00  0.00     0.099 C 
ATOM      7  O   UNL     1      20.421  30.480  32.583  1.00  0.00    -0.544 OA
ATOM      8  O   UNL     1      21.025  28.586  33.719  1.00  0.00    -0.544 OA
ENDBRANCH   1   6
BRANCH   1   9
ATOM      9  C   UNL     1      18.557  28.607  31.125  1.00  0.00     0.047 C 
ATOM     10  C   UNL     1      17.144  28.117  30.769  1.00  0.00     0.014 C 
ATOM     11  C   UNL     1      19.592  27.636  30.528  1.00  0.00     0.014 C 
ENDBRANCH   1   9
TORSDOF 3
ENDMDL
MODEL 5
REMARK VINA RESULT:    -3.205      8.729      9.311
REMARK INTER + INTRA:          -3.725
REMARK INTER:                  -3.685
REMARK INTRA:                  -0.040
REMARK UNBOUND:                -0.052
REMARK SMILES CC(C)[C@H]([NH3+])C(=O)[O-]
REMARK SMILES IDX 4 1 5 2 6 6 7 7 8 8 2 9 1 10 3 11
REMARK H PARENT 5 3 5 4 5 5
REMARK Flexibility Score: inf
ROOT
ATOM      1  C   UNL     1      18.342  28.479  31.892  1.00  0.00     0.230 C 
ENDROOT
BRANCH   1   2
ATOM      2  N   UNL     1      17.127  29.140  32.392  1.00  0.00    -0.350 N 
ATOM      3  H   UNL     1      17.025  30.085  31.958  1.00  0.00     0.345 HD
ATOM      4  H   UNL     1      17.159  29.233  33.434  1.00  0.00     0.345 HD
ATOM      5  H   UNL     1      16.280  28.585  32.127  1.00  0.00     0.345 HD
ENDBRANCH   1   2
BRANCH   1   6
ATOM      6  C   UNL     1      19.547  29.314  32.252  1.00  0.00     0.099 C 
ATOM      7  O   UNL     1      19.607  30.521  31.902  1.00  0.00    -0.544 OA
ATOM      8  O   UNL     1      20.593  28.756  32.976  1.00  0.00    -0.544 OA
ENDBRANCH   1   6
BRANCH   1   9
ATOM      9  C   UNL     1      18.280  28.236  30.353  1.00  0.00     0.047 C 
ATOM     10  C   UNL     1      17.199  27.207  29.978  1.00  0.00     0.014 C 
ATOM     11  C   UNL     1      19.638  27.761  29.808  1.00  0.00     0.014 C 
ENDBRANCH   1   9
TORSDOF 3
ENDMDL
MODEL 6
REMARK VINA RESULT:    -3.188      7.154      7.993
REMARK INTER + INTRA:          -3.705
REMARK INTER:                  -3.674
REMARK INTRA:                  -0.031
REMARK UNBOUND:                -0.052
REMARK SMILES CC(C)[C@H]([NH3+])C(=O)[O-]
REMARK SMILES IDX 4 1 5 2 6 6 7 7 8 8 2 9 1 10 3 11
REMARK H PARENT 5 3 5 4 5 5
REMARK Flexibility Score: inf
ROOT
ATOM      1  C   UNL     1      17.018  28.357  30.546  1.00  0.00     0.230 C 
ENDROOT
BRANCH   1   2
ATOM      2  N   UNL     1      15.791  28.580  31.326  1.00  0.00    -0.350 N 
ATOM      3  H   UNL     1      15.910  29.402  31.960  1.00  0.00     0.345 HD
ATOM      4  H   UNL     1      15.552  27.731  31.891  1.00  0.00     0.345 HD
ATOM      5  H   UNL     1      14.992  28.797  30.686  1.00  0.00     0.345 HD
ENDBRANCH   1   2
BRANCH   1   6
ATOM      6  C   UNL     1      16.794  27.219  29.580  1.00  0.00     0.099 C 
ATOM      7  O   UNL     1      16.176  26.187  29.950  1.00  0.00    -0.544 OA
ATOM      8  O   UNL     1      17.264  27.307  28.275  1.00  0.00    -0.544 OA
ENDBRANCH   1   6
BRANCH   1   9
ATOM      9  C   UNL     1      18.245  28.067  31.464  1.00  0.00     0.047 C 
ATOM     10  C   UNL     1      18.325  29.054  32.641  1.00  0.00     0.014 C 
ATOM     11  C   UNL     1      19.562  28.123  30.670  1.00  0.00     0.014 C 
ENDBRANCH   1   9
TORSDOF 3
ENDMDL
MODEL 7
REMARK VINA RESULT:    -3.152      8.087      8.849
REMARK INTER + INTRA:          -3.665
REMARK INTER:                  -3.597
REMARK INTRA:                  -0.068
REMARK UNBOUND:                -0.052
REMARK SMILES CC(C)[C@H]([NH3+])C(=O)[O-]
REMARK SMILES IDX 4 1 5 2 6 6 7 7 8 8 2 9 1 10 3 11
REMARK H PARENT 5 3 5 4 5 5
REMARK Flexibility Score: inf
ROOT
ATOM      1  C   UNL     1      18.956  27.674  30.706  1.00  0.00     0.230 C 
ENDROOT
BRANCH   1   2
ATOM      2  N   UNL     1      20.067  27.753  29.745  1.00  0.00    -0.350 N 
ATOM      3  H   UNL     1      20.875  27.181  30.079  1.00  0.00     0.345 HD
ATOM      4  H   UNL     1      20.371  28.746  29.611  1.00  0.00     0.345 HD
ATOM      5  H   UNL     1      19.772  27.361  28.821  1.00  0.00     0.345 HD
ENDBRANCH   1   2
BRANCH   1   6
ATOM      6  C   UNL     1      17.653  27.570  29.952  1.00  0.00     0.099 C 
ATOM      7  O   UNL     1      17.655  27.365  28.711  1.00  0.00    -0.544 OA
ATOM      8  O   UNL     1      16.444  27.696  30.625  1.00  0.00    -0.544 OA
ENDBRANCH   1   6
BRANCH   1   9
ATOM      9  C   UNL     1      18.938  28.896  31.674  1.00  0.00     0.047 C 
ATOM     10  C   UNL     1      18.878  30.231  30.911  1.00  0.00     0.014 C 
ATOM     11  C   UNL     1      20.172  28.897  32.594  1.00  0.00     0.014 C 
ENDBRANCH   1   9
TORSDOF 3
ENDMDL
MODEL 8
REMARK VINA RESULT:    -3.123      3.795      4.406
REMARK INTER + INTRA:          -3.631
REMARK INTER:                  -3.569
REMARK INTRA:                  -0.062
REMARK UNBOUND:                -0.052
REMARK SMILES CC(C)[C@H]([NH3+])C(=O)[O-]
REMARK SMILES IDX 4 1 5 2 6 6 7 7 8 8 2 9 1 10 3 11
REMARK H PARENT 5 3 5 4 5 5
REMARK Flexibility Score: inf
ROOT
ATOM      1  C   UNL     1      16.716  28.223  23.858  1.00  0.00     0.230 C 
ENDROOT
BRANCH   1   2
ATOM      2  N   UNL     1      16.314  27.910  22.478  1.00  0.00    -0.350 N 
ATOM      3  H   UNL     1      15.540  27.207  22.479  1.00  0.00     0.345 HD
ATOM      4  H   UNL     1      17.125  27.538  21.932  1.00  0.00     0.345 HD
ATOM      5  H   UNL     1      15.950  28.769  22.005  1.00  0.00     0.345 HD
ENDBRANCH   1   2
BRANCH   1   6
ATOM      6  C   UNL     1      17.819  29.253  23.832  1.00  0.00     0.099 C 
ATOM      7  O   UNL     1      17.616  30.410  24.284  1.00  0.00    -0.544 OA
ATOM      8  O   UNL     1      19.067  28.928  23.314  1.00  0.00    -0.544 OA
ENDBRANCH   1   6
BRANCH   1   9
ATOM      9  C   UNL     1      17.168  26.949  24.635  1.00  0.00     0.047 C 
ATOM     10  C   UNL     1      16.035  25.914  24.747  1.00  0.00     0.014 C 
ATOM     11  C   UNL     1      17.666  27.305  26.047  1.00  0.00     0.014 C 
ENDBRANCH   1   9
TORSDOF 3
ENDMDL
MODEL 9
REMARK VINA RESULT:    -3.079      3.344      5.007
REMARK INTER + INTRA:          -3.580
REMARK INTER:                  -3.534
REMARK INTRA:                  -0.047
REMARK UNBOUND:                -0.052
REMARK SMILES CC(C)[C@H]([NH3+])C(=O)[O-]
REMARK SMILES IDX 4 1 5 2 6 6 7 7 8 8 2 9 1 10 3 11
REMARK H PARENT 5 3 5 4 5 5
REMARK Flexibility Score: inf
ROOT
ATOM      1  C   UNL     1      16.544  28.038  23.007  1.00  0.00     0.230 C 
ENDROOT
BRANCH   1   2
ATOM      2  N   UNL     1      15.450  28.466  22.122  1.00  0.00    -0.350 N 
ATOM      3  H   UNL     1      14.644  27.806  22.200  1.00  0.00     0.345 HD
ATOM      4  H   UNL     1      15.775  28.508  21.127  1.00  0.00     0.345 HD
ATOM      5  H   UNL     1      15.105  29.411  22.407  1.00  0.00     0.345 HD
ENDBRANCH   1   2
BRANCH   1   6
ATOM      6  C   UNL     1      15.993  27.119  24.070  1.00  0.00     0.099 C 
ATOM      7  O   UNL     1      14.749  26.968  24.193  1.00  0.00    -0.544 OA
ATOM      8  O   UNL     1      16.854  26.433  24.917  1.00  0.00    -0.544 OA
ENDBRANCH   1   6
BRANCH   1   9
ATOM      9  C   UNL     1      17.277  29.253  23.654  1.00  0.00     0.047 C 
ATOM     10  C   UNL     1      16.642  30.592  23.240  1.00  0.00     0.014 C 
ATOM     11  C   UNL     1      18.770  29.268  23.279  1.00  0.00     0.014 C 
ENDBRANCH   1   9
TORSDOF 3
ENDMDL
