MODEL 1
REMARK VINA RESULT:    -3.239      0.000      0.000
REMARK INTER + INTRA:          -3.921
REMARK INTER:                  -3.807
REMARK INTRA:                  -0.113
REMARK UNBOUND:                -0.113
REMARK SMILES CCCCC(=O)[O-]
REMARK SMILES IDX 4 1 5 2 6 3 7 4 3 5 2 6 1 7
REMARK H PARENT
REMARK Flexibility Score: inf
ROOT
ATOM      1  C   UNL     1      58.953  35.500  81.292  1.00  0.00     0.053 C 
ENDROOT
BRANCH   1   2
ATOM      2  C   UNL     1      58.466  36.606  80.410  1.00  0.00     0.041 C 
ATOM      3  O   UNL     1      59.121  36.936  79.387  1.00  0.00    -0.550 OA
ATOM      4  O   UNL     1      57.261  37.239  80.691  1.00  0.00    -0.550 OA
ENDBRANCH   1   2
BRANCH   1   5
ATOM      5  C   UNL     1      59.136  34.210  80.483  1.00  0.00     0.006 C 
BRANCH   5   6
ATOM      6  C   UNL     1      57.809  33.664  79.934  1.00  0.00    -0.003 C 
ATOM      7  C   UNL     1      57.953  33.055  78.539  1.00  0.00     0.004 C 
ENDBRANCH   5   6
ENDBRANCH   1   5
TORSDOF 3
ENDMDL
MODEL 2
REMARK VINA RESULT:    -3.213      0.843      1.518
REMARK INTER + INTRA:          -3.890
REMARK INTER:                  -3.777
REMARK INTRA:                  -0.113
REMARK UNBOUND:                -0.113
REMARK SMILES CCCCC(=O)[O-]
REMARK SMILES IDX 4 1 5 2 6 3 7 4 3 5 2 6 1 7
REMARK H PARENT
REMARK Flexibility Score: inf
ROOT
ATOM      1  C   UNL     1      58.730  34.748  80.815  1.00  0.00     0.053 C 
ENDROOT
BRANCH   1   2
ATOM      2  C   UNL     1      58.729  36.187  80.407  1.00  0.00     0.041 C 
ATOM      3  O   UNL     1      58.160  37.049  81.126  1.00  0.00    -0.550 OA
ATOM      4  O   UNL     1      59.401  36.583  79.257  1.00  0.00    -0.550 OA
ENDBRANCH   1   2
BRANCH   1   5
ATOM      5  C   UNL     1      59.148  33.857  79.638  1.00  0.00     0.006 C 
BRANCH   5   6
ATOM      6  C   UNL     1      57.946  33.283  78.875  1.00  0.00    -0.003 C 
ATOM      7  C   UNL     1      57.725  33.964  77.524  1.00  0.00     0.004 C 
ENDBRANCH   5   6
ENDBRANCH   1   5
TORSDOF 3
ENDMDL
MODEL 3
REMARK VINA RESULT:    -3.208      1.419      1.557
REMARK INTER + INTRA:          -3.884
REMARK INTER:                  -3.850
REMARK INTRA:                  -0.034
REMARK UNBOUND:                -0.113
REMARK SMILES CCCCC(=O)[O-]
REMARK SMILES IDX 4 1 5 2 6 3 7 4 3 5 2 6 1 7
REMARK H PARENT
REMARK Flexibility Score: inf
ROOT
ATOM      1  C   UNL     1      58.782  35.438  79.427  1.00  0.00     0.053 C 
ENDROOT
BRANCH   1   2
ATOM      2  C   UNL     1      58.640  36.045  80.786  1.00  0.00     0.041 C 
ATOM      3  O   UNL     1      59.078  35.440  81.799  1.00  0.00    -0.550 OA
ATOM      4  O   UNL     1      58.068  37.303  80.930  1.00  0.00    -0.550 OA
ENDBRANCH   1   2
BRANCH   1   5
ATOM      5  C   UNL     1      58.985  33.922  79.534  1.00  0.00     0.006 C 
BRANCH   5   6
ATOM      6  C   UNL     1      57.896  33.126  78.801  1.00  0.00    -0.003 C 
ATOM      7  C   UNL     1      58.446  32.310  77.632  1.00  0.00     0.004 C 
ENDBRANCH   5   6
ENDBRANCH   1   5
TORSDOF 3
ENDMDL
MODEL 4
REMARK VINA RESULT:    -2.954      2.293      3.175
REMARK INTER + INTRA:          -3.585
REMARK INTER:                  -3.480
REMARK INTRA:                  -0.105
REMARK UNBOUND:                -0.113
REMARK SMILES CCCCC(=O)[O-]
REMARK SMILES IDX 4 1 5 2 6 3 7 4 3 5 2 6 1 7
REMARK H PARENT
REMARK Flexibility Score: inf
ROOT
ATOM      1  C   UNL     1      58.282  37.170  80.480  1.00  0.00     0.053 C 
ENDROOT
BRANCH   1   2
ATOM      2  C   UNL     1      58.786  35.773  80.659  1.00  0.00     0.041 C 
ATOM      3  O   UNL     1      59.144  35.369  81.796  1.00  0.00    -0.550 OA
ATOM      4  O   UNL     1      58.813  34.901  79.578  1.00  0.00    -0.550 OA
ENDBRANCH   1   2
BRANCH   1   5
ATOM      5  C   UNL     1      56.847  37.158  79.940  1.00  0.00     0.006 C 
BRANCH   5   6
ATOM      6  C   UNL     1      56.760  37.633  78.483  1.00  0.00    -0.003 C 
ATOM      7  C   UNL     1      56.423  36.502  77.511  1.00  0.00     0.004 C 
ENDBRANCH   5   6
ENDBRANCH   1   5
TORSDOF 3
ENDMDL
MODEL 5
REMARK VINA RESULT:    -2.917      2.613      3.909
REMARK INTER + INTRA:          -3.542
REMARK INTER:                  -3.519
REMARK INTRA:                  -0.022
REMARK UNBOUND:                -0.113
REMARK SMILES CCCCC(=O)[O-]
REMARK SMILES IDX 4 1 5 2 6 3 7 4 3 5 2 6 1 7
REMARK H PARENT
REMARK Flexibility Score: inf
ROOT
ATOM      1  C   UNL     1      58.110  33.537  79.555  1.00  0.00     0.053 C 
ENDROOT
BRANCH   1   2
ATOM      2  C   UNL     1      57.880  33.127  78.135  1.00  0.00     0.041 C 
ATOM      3  O   UNL     1      57.508  33.975  77.283  1.00  0.00    -0.550 OA
ATOM      4  O   UNL     1      58.125  31.817  77.742  1.00  0.00    -0.550 OA
ENDBRANCH   1   2
BRANCH   1   5
ATOM      5  C   UNL     1      58.939  34.825  79.614  1.00  0.00     0.006 C 
BRANCH   5   6
ATOM      6  C   UNL     1      58.824  35.542  80.967  1.00  0.00    -0.003 C 
ATOM      7  C   UNL     1      58.168  36.918  80.853  1.00  0.00     0.004 C 
ENDBRANCH   5   6
ENDBRANCH   1   5
TORSDOF 3
ENDMDL
MODEL 6
REMARK VINA RESULT:    -2.873      2.271      3.021
REMARK INTER + INTRA:          -3.490
REMARK INTER:                  -3.382
REMARK INTRA:                  -0.108
REMARK UNBOUND:                -0.113
REMARK SMILES CCCCC(=O)[O-]
REMARK SMILES IDX 4 1 5 2 6 3 7 4 3 5 2 6 1 7
REMARK H PARENT
REMARK Flexibility Score: inf
ROOT
ATOM      1  C   UNL     1      58.820  36.233  79.189  1.00  0.00     0.053 C 
ENDROOT
BRANCH   1   2
ATOM      2  C   UNL     1      58.599  36.329  80.665  1.00  0.00     0.041 C 
ATOM      3  O   UNL     1      57.918  37.273  81.144  1.00  0.00    -0.550 OA
ATOM      4  O   UNL     1      59.103  35.348  81.509  1.00  0.00    -0.550 OA
ENDBRANCH   1   2
BRANCH   1   5
ATOM      5  C   UNL     1      57.629  35.546  78.511  1.00  0.00     0.006 C 
BRANCH   5   6
ATOM      6  C   UNL     1      56.650  36.546  77.879  1.00  0.00    -0.003 C 
ATOM      7  C   UNL     1      57.321  37.865  77.493  1.00  0.00     0.004 C 
ENDBRANCH   5   6
ENDBRANCH   1   5
TORSDOF 3
ENDMDL
MODEL 7
REMARK VINA RESULT:    -2.829      1.563      2.350
REMARK INTER + INTRA:          -3.438
REMARK INTER:                  -3.334
REMARK INTRA:                  -0.104
REMARK UNBOUND:                -0.113
REMARK SMILES CCCCC(=O)[O-]
REMARK SMILES IDX 4 1 5 2 6 3 7 4 3 5 2 6 1 7
REMARK H PARENT
REMARK Flexibility Score: inf
ROOT
ATOM      1  C   UNL     1      57.547  36.631  79.648  1.00  0.00     0.053 C 
ENDROOT
BRANCH   1   2
ATOM      2  C   UNL     1      58.161  37.615  78.704  1.00  0.00     0.041 C 
ATOM      3  O   UNL     1      59.385  37.542  78.420  1.00  0.00    -0.550 OA
ATOM      4  O   UNL     1      57.370  38.584  78.098  1.00  0.00    -0.550 OA
ENDBRANCH   1   2
BRANCH   1   5
ATOM      5  C   UNL     1      58.258  36.675  81.006  1.00  0.00     0.006 C 
BRANCH   5   6
ATOM      6  C   UNL     1      59.046  35.391  81.302  1.00  0.00    -0.003 C 
ATOM      7  C   UNL     1      58.693  34.248  80.351  1.00  0.00     0.004 C 
ENDBRANCH   5   6
ENDBRANCH   1   5
TORSDOF 3
ENDMDL
MODEL 8
REMARK VINA RESULT:    -2.772      1.899      2.893
REMARK INTER + INTRA:          -3.372
REMARK INTER:                  -3.339
REMARK INTRA:                  -0.033
REMARK UNBOUND:                -0.113
REMARK SMILES CCCCC(=O)[O-]
REMARK SMILES IDX 4 1 5 2 6 3 7 4 3 5 2 6 1 7
REMARK H PARENT
REMARK Flexibility Score: inf
ROOT
ATOM      1  C   UNL     1      58.046  33.274  78.944  1.00  0.00     0.053 C 
ENDROOT
BRANCH   1   2
ATOM      2  C   UNL     1      58.151  34.420  79.900  1.00  0.00     0.041 C 
ATOM      3  O   UNL     1      58.892  34.334  80.914  1.00  0.00    -0.550 OA
ATOM      4  O   UNL     1      57.469  35.603  79.644  1.00  0.00    -0.550 OA
ENDBRANCH   1   2
BRANCH   1   5
ATOM      5  C   UNL     1      57.754  33.783  77.527  1.00  0.00     0.006 C 
BRANCH   5   6
ATOM      6  C   UNL     1      58.010  32.716  76.452  1.00  0.00    -0.003 C 
ATOM      7  C   UNL     1      58.281  31.333  77.044  1.00  0.00     0.004 C 
ENDBRANCH   5   6
ENDBRANCH   1   5
TORSDOF 3
ENDMDL
