MODEL 1
REMARK VINA RESULT:    -3.850      0.000      0.000
REMARK INTER + INTRA:         -11.569
REMARK INTER:                  -8.352
REMARK INTRA:                  -3.217
REMARK UNBOUND:                -3.217
REMARK SMILES CCCCCCCCCCCCCCCCCCCCCC(=O)[O-]
REMARK SMILES IDX 12 1 11 2 10 3 9 4 8 5 7 6 6 7 5 8 4 9 3 10 2 11 1 12 13 13
REMARK SMILES IDX 14 14 15 15 16 16 17 17 18 18 19 19 20 20 21 21 22 22 23 23
REMARK SMILES IDX 24 24
REMARK H PARENT
REMARK Flexibility Score: inf
ROOT
ATOM      1  C   UNL     1     122.630 111.138 111.221  1.00  0.00     0.000 C 
ENDROOT
BRANCH   1   2
ATOM      2  C   UNL     1     122.928 112.634 111.053  1.00  0.00     0.000 C 
BRANCH   2   3
ATOM      3  C   UNL     1     121.666 113.405 110.646  1.00  0.00     0.000 C 
BRANCH   3   4
ATOM      4  C   UNL     1     121.369 114.538 111.640  1.00  0.00    -0.000 C 
BRANCH   4   5
ATOM      5  C   UNL     1     119.912 114.529 112.138  1.00  0.00    -0.000 C 
BRANCH   5   6
ATOM      6  C   UNL     1     119.749 114.463 113.668  1.00  0.00    -0.000 C 
BRANCH   6   7
ATOM      7  C   UNL     1     120.776 113.573 114.396  1.00  0.00    -0.000 C 
BRANCH   7   8
ATOM      8  C   UNL     1     120.278 113.034 115.755  1.00  0.00    -0.000 C 
BRANCH   8   9
ATOM      9  C   UNL     1     120.731 111.587 116.015  1.00  0.00    -0.000 C 
BRANCH   9  10
ATOM     10  C   UNL     1     120.396 111.108 117.437  1.00  0.00    -0.000 C 
BRANCH  10  11
ATOM     11  C   UNL     1     120.042 112.265 118.383  1.00  0.00    -0.003 C 
ATOM     12  C   UNL     1     121.005 112.324 119.566  1.00  0.00     0.004 C 
ENDBRANCH  10  11
ENDBRANCH   9  10
ENDBRANCH   8   9
ENDBRANCH   7   8
ENDBRANCH   6   7
ENDBRANCH   5   6
ENDBRANCH   4   5
ENDBRANCH   3   4
ENDBRANCH   2   3
ENDBRANCH   1   2
BRANCH   1  13
ATOM     13  C   UNL     1     122.154 110.781 112.638  1.00  0.00     0.000 C 
BRANCH  13  14
ATOM     14  C   UNL     1     120.842 109.978 112.641  1.00  0.00     0.000 C 
BRANCH  14  15
ATOM     15  C   UNL     1     119.624 110.843 112.249  1.00  0.00     0.000 C 
BRANCH  15  16
ATOM     16  C   UNL     1     118.823 110.275 111.062  1.00  0.00     0.000 C 
BRANCH  16  17
ATOM     17  C   UNL     1     119.232 110.832 109.685  1.00  0.00     0.000 C 
BRANCH  17  18
ATOM     18  C   UNL     1     120.044 109.860 108.803  1.00  0.00     0.000 C 
BRANCH  18  19
ATOM     19  C   UNL     1     120.789 110.513 107.624  1.00  0.00     0.000 C 
BRANCH  19  20
ATOM     20  C   UNL     1     120.579 112.032 107.549  1.00  0.00     0.006 C 
BRANCH  20  21
ATOM     21  C   UNL     1     121.405 112.646 106.413  1.00  0.00     0.053 C 
BRANCH  21  22
ATOM     22  C   UNL     1     121.149 114.116 106.308  1.00  0.00     0.041 C 
ATOM     23  O   UNL     1     120.281 114.551 105.505  1.00  0.00    -0.550 OA
ATOM     24  O   UNL     1     121.843 115.003 107.122  1.00  0.00    -0.550 OA
ENDBRANCH  21  22
ENDBRANCH  20  21
ENDBRANCH  19  20
ENDBRANCH  18  19
ENDBRANCH  17  18
ENDBRANCH  16  17
ENDBRANCH  15  16
ENDBRANCH  14  15
ENDBRANCH  13  14
ENDBRANCH   1  13
TORSDOF 20
ENDMDL
MODEL 2
REMARK VINA RESULT:    -3.846      3.977      8.770
REMARK INTER + INTRA:         -11.559
REMARK INTER:                  -9.096
REMARK INTRA:                  -2.463
REMARK UNBOUND:                -3.217
REMARK SMILES CCCCCCCCCCCCCCCCCCCCCC(=O)[O-]
REMARK SMILES IDX 12 1 11 2 10 3 9 4 8 5 7 6 6 7 5 8 4 9 3 10 2 11 1 12 13 13
REMARK SMILES IDX 14 14 15 15 16 16 17 17 18 18 19 19 20 20 21 21 22 22 23 23
REMARK SMILES IDX 24 24
REMARK H PARENT
REMARK Flexibility Score: inf
ROOT
ATOM      1  C   UNL     1     120.461 109.650 110.827  1.00  0.00     0.000 C 
ENDROOT
BRANCH   1   2
ATOM      2  C   UNL     1     119.560 110.080 109.660  1.00  0.00     0.000 C 
BRANCH   2   3
ATOM      3  C   UNL     1     119.921 111.489 109.176  1.00  0.00     0.000 C 
BRANCH   3   4
ATOM      4  C   UNL     1     119.937 111.557 107.641  1.00  0.00    -0.000 C 
BRANCH   4   5
ATOM      5  C   UNL     1     120.955 112.577 107.098  1.00  0.00    -0.000 C 
BRANCH   5   6
ATOM      6  C   UNL     1     122.161 111.963 106.365  1.00  0.00    -0.000 C 
BRANCH   6   7
ATOM      7  C   UNL     1     123.079 111.084 107.238  1.00  0.00    -0.000 C 
BRANCH   7   8
ATOM      8  C   UNL     1     123.090 109.596 106.826  1.00  0.00    -0.000 C 
BRANCH   8   9
ATOM      9  C   UNL     1     122.652 108.666 107.970  1.00  0.00    -0.000 C 
BRANCH   9  10
ATOM     10  C   UNL     1     121.578 107.656 107.534  1.00  0.00    -0.000 C 
BRANCH  10  11
ATOM     11  C   UNL     1     120.595 108.243 106.510  1.00  0.00    -0.003 C 
ATOM     12  C   UNL     1     120.243 107.219 105.434  1.00  0.00     0.004 C 
ENDBRANCH  10  11
ENDBRANCH   9  10
ENDBRANCH   8   9
ENDBRANCH   7   8
ENDBRANCH   6   7
ENDBRANCH   5   6
ENDBRANCH   4   5
ENDBRANCH   3   4
ENDBRANCH   2   3
ENDBRANCH   1   2
BRANCH   1  13
ATOM     13  C   UNL     1     120.055 110.293 112.162  1.00  0.00     0.000 C 
BRANCH  13  14
ATOM     14  C   UNL     1     121.167 110.216 113.222  1.00  0.00     0.000 C 
BRANCH  14  15
ATOM     15  C   UNL     1     121.266 111.507 114.063  1.00  0.00     0.000 C 
BRANCH  15  16
ATOM     16  C   UNL     1     120.250 112.589 113.653  1.00  0.00     0.000 C 
BRANCH  16  17
ATOM     17  C   UNL     1     120.382 113.920 114.415  1.00  0.00     0.000 C 
BRANCH  17  18
ATOM     18  C   UNL     1     120.523 113.784 115.946  1.00  0.00     0.000 C 
BRANCH  18  19
ATOM     19  C   UNL     1     119.255 113.313 116.682  1.00  0.00     0.000 C 
BRANCH  19  20
ATOM     20  C   UNL     1     119.562 112.494 117.944  1.00  0.00     0.006 C 
BRANCH  20  21
ATOM     21  C   UNL     1     120.173 111.135 117.582  1.00  0.00     0.053 C 
BRANCH  21  22
ATOM     22  C   UNL     1     121.475 110.936 118.292  1.00  0.00     0.041 C 
ATOM     23  O   UNL     1     122.303 111.881 118.374  1.00  0.00    -0.550 OA
ATOM     24  O   UNL     1     121.758 109.716 118.894  1.00  0.00    -0.550 OA
ENDBRANCH  21  22
ENDBRANCH  20  21
ENDBRANCH  19  20
ENDBRANCH  18  19
ENDBRANCH  17  18
ENDBRANCH  16  17
ENDBRANCH  15  16
ENDBRANCH  14  15
ENDBRANCH  13  14
ENDBRANCH   1  13
TORSDOF 20
ENDMDL
MODEL 3
REMARK VINA RESULT:    -3.773      3.563      8.380
REMARK INTER + INTRA:         -11.401
REMARK INTER:                  -9.215
REMARK INTRA:                  -2.185
REMARK UNBOUND:                -3.217
REMARK SMILES CCCCCCCCCCCCCCCCCCCCCC(=O)[O-]
REMARK SMILES IDX 12 1 11 2 10 3 9 4 8 5 7 6 6 7 5 8 4 9 3 10 2 11 1 12 13 13
REMARK SMILES IDX 14 14 15 15 16 16 17 17 18 18 19 19 20 20 21 21 22 22 23 23
REMARK SMILES IDX 24 24
REMARK H PARENT
REMARK Flexibility Score: inf
ROOT
ATOM      1  C   UNL     1     121.288 114.847 112.944  1.00  0.00     0.000 C 
ENDROOT
BRANCH   1   2
ATOM      2  C   UNL     1     120.222 113.945 112.304  1.00  0.00     0.000 C 
BRANCH   2   3
ATOM      3  C   UNL     1     119.981 112.691 113.154  1.00  0.00     0.000 C 
BRANCH   3   4
ATOM      4  C   UNL     1     121.304 111.978 113.472  1.00  0.00    -0.000 C 
BRANCH   4   5
ATOM      5  C   UNL     1     121.277 110.480 113.115  1.00  0.00    -0.000 C 
BRANCH   5   6
ATOM      6  C   UNL     1     120.071 110.037 112.266  1.00  0.00    -0.000 C 
BRANCH   6   7
ATOM      7  C   UNL     1     120.404 109.647 110.812  1.00  0.00    -0.000 C 
BRANCH   7   8
ATOM      8  C   UNL     1     119.579 110.417 109.758  1.00  0.00    -0.000 C 
BRANCH   8   9
ATOM      9  C   UNL     1     119.973 110.045 108.317  1.00  0.00    -0.000 C 
BRANCH   9  10
ATOM     10  C   UNL     1     120.435 111.261 107.497  1.00  0.00    -0.000 C 
BRANCH  10  11
ATOM     11  C   UNL     1     121.839 111.075 106.903  1.00  0.00    -0.003 C 
ATOM     12  C   UNL     1     122.229 109.600 106.860  1.00  0.00     0.004 C 
ENDBRANCH  10  11
ENDBRANCH   9  10
ENDBRANCH   8   9
ENDBRANCH   7   8
ENDBRANCH   6   7
ENDBRANCH   5   6
ENDBRANCH   4   5
ENDBRANCH   3   4
ENDBRANCH   2   3
ENDBRANCH   1   2
BRANCH   1  13
ATOM     13  C   UNL     1     120.777 115.577 114.195  1.00  0.00     0.000 C 
BRANCH  13  14
ATOM     14  C   UNL     1     119.456 116.327 113.949  1.00  0.00     0.000 C 
BRANCH  14  15
ATOM     15  C   UNL     1     118.398 116.023 115.032  1.00  0.00     0.000 C 
BRANCH  15  16
ATOM     16  C   UNL     1     118.397 114.554 115.495  1.00  0.00     0.000 C 
BRANCH  16  17
ATOM     17  C   UNL     1     117.793 114.321 116.892  1.00  0.00     0.000 C 
BRANCH  17  18
ATOM     18  C   UNL     1     118.448 113.184 117.705  1.00  0.00     0.000 C 
BRANCH  18  19
ATOM     19  C   UNL     1     119.800 112.686 117.162  1.00  0.00     0.000 C 
BRANCH  19  20
ATOM     20  C   UNL     1     120.000 111.174 117.347  1.00  0.00     0.006 C 
BRANCH  20  21
ATOM     21  C   UNL     1     121.196 110.886 118.261  1.00  0.00     0.053 C 
BRANCH  21  22
ATOM     22  C   UNL     1     122.448 111.474 117.694  1.00  0.00     0.041 C 
ATOM     23  O   UNL     1     122.876 111.091 116.572  1.00  0.00    -0.550 OA
ATOM     24  O   UNL     1     123.125 112.469 118.387  1.00  0.00    -0.550 OA
ENDBRANCH  21  22
ENDBRANCH  20  21
ENDBRANCH  19  20
ENDBRANCH  18  19
ENDBRANCH  17  18
ENDBRANCH  16  17
ENDBRANCH  15  16
ENDBRANCH  14  15
ENDBRANCH  13  14
ENDBRANCH   1  13
TORSDOF 20
ENDMDL
MODEL 4
REMARK VINA RESULT:    -3.769      4.303      8.584
REMARK INTER + INTRA:         -11.393
REMARK INTER:                  -8.646
REMARK INTRA:                  -2.747
REMARK UNBOUND:                -3.217
REMARK SMILES CCCCCCCCCCCCCCCCCCCCCC(=O)[O-]
REMARK SMILES IDX 12 1 11 2 10 3 9 4 8 5 7 6 6 7 5 8 4 9 3 10 2 11 1 12 13 13
REMARK SMILES IDX 14 14 15 15 16 16 17 17 18 18 19 19 20 20 21 21 22 22 23 23
REMARK SMILES IDX 24 24
REMARK H PARENT
REMARK Flexibility Score: inf
ROOT
ATOM      1  C   UNL     1     120.494 110.003 112.376  1.00  0.00     0.000 C 
ENDROOT
BRANCH   1   2
ATOM      2  C   UNL     1     119.364 110.419 111.424  1.00  0.00     0.000 C 
BRANCH   2   3
ATOM      3  C   UNL     1     119.621 109.898 110.004  1.00  0.00     0.000 C 
BRANCH   3   4
ATOM      4  C   UNL     1     120.252 110.988 109.124  1.00  0.00    -0.000 C 
BRANCH   4   5
ATOM      5  C   UNL     1     120.236 110.630 107.627  1.00  0.00    -0.000 C 
BRANCH   5   6
ATOM      6  C   UNL     1     119.609 109.264 107.292  1.00  0.00    -0.000 C 
BRANCH   6   7
ATOM      7  C   UNL     1     120.597 108.201 106.772  1.00  0.00    -0.000 C 
BRANCH   7   8
ATOM      8  C   UNL     1     122.041 108.723 106.607  1.00  0.00    -0.000 C 
BRANCH   8   9
ATOM      9  C   UNL     1     122.958 108.291 107.765  1.00  0.00    -0.000 C 
BRANCH   9  10
ATOM     10  C   UNL     1     123.647 109.482 108.451  1.00  0.00    -0.000 C 
BRANCH  10  11
ATOM     11  C   UNL     1     123.613 109.383 109.984  1.00  0.00    -0.003 C 
ATOM     12  C   UNL     1     123.709 110.763 110.628  1.00  0.00     0.004 C 
ENDBRANCH  10  11
ENDBRANCH   9  10
ENDBRANCH   8   9
ENDBRANCH   7   8
ENDBRANCH   6   7
ENDBRANCH   5   6
ENDBRANCH   4   5
ENDBRANCH   3   4
ENDBRANCH   2   3
ENDBRANCH   1   2
BRANCH   1  13
ATOM     13  C   UNL     1     120.747 111.034 113.487  1.00  0.00     0.000 C 
BRANCH  13  14
ATOM     14  C   UNL     1     121.344 112.348 112.955  1.00  0.00     0.000 C 
BRANCH  14  15
ATOM     15  C   UNL     1     121.102 113.534 113.913  1.00  0.00     0.000 C 
BRANCH  15  16
ATOM     16  C   UNL     1     119.611 113.860 114.124  1.00  0.00     0.000 C 
BRANCH  16  17
ATOM     17  C   UNL     1     119.215 114.149 115.583  1.00  0.00     0.000 C 
BRANCH  17  18
ATOM     18  C   UNL     1     120.097 113.462 116.647  1.00  0.00     0.000 C 
BRANCH  18  19
ATOM     19  C   UNL     1     119.371 112.434 117.535  1.00  0.00     0.000 C 
BRANCH  19  20
ATOM     20  C   UNL     1     119.998 111.034 117.468  1.00  0.00     0.006 C 
BRANCH  20  21
ATOM     21  C   UNL     1     121.528 111.114 117.506  1.00  0.00     0.053 C 
BRANCH  21  22
ATOM     22  C   UNL     1     122.050 110.636 118.823  1.00  0.00     0.041 C 
ATOM     23  O   UNL     1     121.660 111.176 119.893  1.00  0.00    -0.550 OA
ATOM     24  O   UNL     1     122.941 109.570 118.873  1.00  0.00    -0.550 OA
ENDBRANCH  21  22
ENDBRANCH  20  21
ENDBRANCH  19  20
ENDBRANCH  18  19
ENDBRANCH  17  18
ENDBRANCH  16  17
ENDBRANCH  15  16
ENDBRANCH  14  15
ENDBRANCH  13  14
ENDBRANCH   1  13
TORSDOF 20
ENDMDL
MODEL 5
REMARK VINA RESULT:    -3.732      3.841      8.787
REMARK INTER + INTRA:         -11.312
REMARK INTER:                  -8.743
REMARK INTRA:                  -2.568
REMARK UNBOUND:                -3.217
REMARK SMILES CCCCCCCCCCCCCCCCCCCCCC(=O)[O-]
REMARK SMILES IDX 12 1 11 2 10 3 9 4 8 5 7 6 6 7 5 8 4 9 3 10 2 11 1 12 13 13
REMARK SMILES IDX 14 14 15 15 16 16 17 17 18 18 19 19 20 20 21 21 22 22 23 23
REMARK SMILES IDX 24 24
REMARK H PARENT
REMARK Flexibility Score: inf
ROOT
ATOM      1  C   UNL     1     120.015 109.500 109.547  1.00  0.00     0.000 C 
ENDROOT
BRANCH   1   2
ATOM      2  C   UNL     1     120.047 109.671 108.022  1.00  0.00     0.000 C 
BRANCH   2   3
ATOM      3  C   UNL     1     121.482 109.875 107.520  1.00  0.00     0.000 C 
BRANCH   3   4
ATOM      4  C   UNL     1     122.466 109.974 108.696  1.00  0.00    -0.000 C 
BRANCH   4   5
ATOM      5  C   UNL     1     123.152 111.350 108.786  1.00  0.00    -0.000 C 
BRANCH   5   6
ATOM      6  C   UNL     1     122.456 112.362 109.714  1.00  0.00    -0.000 C 
BRANCH   6   7
ATOM      7  C   UNL     1     121.286 113.137 109.076  1.00  0.00    -0.000 C 
BRANCH   7   8
ATOM      8  C   UNL     1     121.665 113.874 107.773  1.00  0.00    -0.000 C 
BRANCH   8   9
ATOM      9  C   UNL     1     120.833 113.403 106.568  1.00  0.00    -0.000 C 
BRANCH   9  10
ATOM     10  C   UNL     1     120.344 114.570 105.693  1.00  0.00    -0.000 C 
BRANCH  10  11
ATOM     11  C   UNL     1     121.309 115.765 105.709  1.00  0.00    -0.003 C 
ATOM     12  C   UNL     1     121.857 116.049 104.313  1.00  0.00     0.004 C 
ENDBRANCH  10  11
ENDBRANCH   9  10
ENDBRANCH   8   9
ENDBRANCH   7   8
ENDBRANCH   6   7
ENDBRANCH   5   6
ENDBRANCH   4   5
ENDBRANCH   3   4
ENDBRANCH   2   3
ENDBRANCH   1   2
BRANCH   1  13
ATOM     13  C   UNL     1     118.969 110.397 110.226  1.00  0.00     0.000 C 
BRANCH  13  14
ATOM     14  C   UNL     1     119.273 110.646 111.713  1.00  0.00     0.000 C 
BRANCH  14  15
ATOM     15  C   UNL     1     120.612 110.016 112.152  1.00  0.00     0.000 C 
BRANCH  15  16
ATOM     16  C   UNL     1     121.483 110.955 113.008  1.00  0.00     0.000 C 
BRANCH  16  17
ATOM     17  C   UNL     1     121.064 111.054 114.486  1.00  0.00     0.000 C 
BRANCH  17  18
ATOM     18  C   UNL     1     120.997 112.488 115.051  1.00  0.00     0.000 C 
BRANCH  18  19
ATOM     19  C   UNL     1     120.290 112.623 116.412  1.00  0.00     0.000 C 
BRANCH  19  20
ATOM     20  C   UNL     1     120.158 111.286 117.156  1.00  0.00     0.006 C 
BRANCH  20  21
ATOM     21  C   UNL     1     120.839 111.351 118.528  1.00  0.00     0.053 C 
BRANCH  21  22
ATOM     22  C   UNL     1     122.094 110.537 118.533  1.00  0.00     0.041 C 
ATOM     23  O   UNL     1     122.313 109.717 119.464  1.00  0.00    -0.550 OA
ATOM     24  O   UNL     1     123.006 110.658 117.493  1.00  0.00    -0.550 OA
ENDBRANCH  21  22
ENDBRANCH  20  21
ENDBRANCH  19  20
ENDBRANCH  18  19
ENDBRANCH  17  18
ENDBRANCH  16  17
ENDBRANCH  15  16
ENDBRANCH  14  15
ENDBRANCH  13  14
ENDBRANCH   1  13
TORSDOF 20
ENDMDL
MODEL 6
REMARK VINA RESULT:    -3.722      1.426      2.343
REMARK INTER + INTRA:         -11.291
REMARK INTER:                  -8.401
REMARK INTRA:                  -2.889
REMARK UNBOUND:                -3.217
REMARK SMILES CCCCCCCCCCCCCCCCCCCCCC(=O)[O-]
REMARK SMILES IDX 12 1 11 2 10 3 9 4 8 5 7 6 6 7 5 8 4 9 3 10 2 11 1 12 13 13
REMARK SMILES IDX 14 14 15 15 16 16 17 17 18 18 19 19 20 20 21 21 22 22 23 23
REMARK SMILES IDX 24 24
REMARK H PARENT
REMARK Flexibility Score: inf
ROOT
ATOM      1  C   UNL     1     122.100 111.442 112.173  1.00  0.00     0.000 C 
ENDROOT
BRANCH   1   2
ATOM      2  C   UNL     1     121.372 110.543 113.183  1.00  0.00     0.000 C 
BRANCH   2   3
ATOM      3  C   UNL     1     121.408 111.153 114.590  1.00  0.00     0.000 C 
BRANCH   3   4
ATOM      4  C   UNL     1     121.454 112.687 114.523  1.00  0.00    -0.000 C 
BRANCH   4   5
ATOM      5  C   UNL     1     120.057 113.331 114.595  1.00  0.00    -0.000 C 
BRANCH   5   6
ATOM      6  C   UNL     1     119.799 114.183 115.851  1.00  0.00    -0.000 C 
BRANCH   6   7
ATOM      7  C   UNL     1     118.670 113.673 116.767  1.00  0.00    -0.000 C 
BRANCH   7   8
ATOM      8  C   UNL     1     119.175 112.920 118.017  1.00  0.00    -0.000 C 
BRANCH   8   9
ATOM      9  C   UNL     1     119.463 111.435 117.734  1.00  0.00    -0.000 C 
BRANCH   9  10
ATOM     10  C   UNL     1     120.895 111.026 118.115  1.00  0.00    -0.000 C 
BRANCH  10  11
ATOM     11  C   UNL     1     121.822 112.234 118.315  1.00  0.00    -0.003 C 
ATOM     12  C   UNL     1     123.220 111.952 117.772  1.00  0.00     0.004 C 
ENDBRANCH  10  11
ENDBRANCH   9  10
ENDBRANCH   8   9
ENDBRANCH   7   8
ENDBRANCH   6   7
ENDBRANCH   5   6
ENDBRANCH   4   5
ENDBRANCH   3   4
ENDBRANCH   2   3
ENDBRANCH   1   2
BRANCH   1  13
ATOM     13  C   UNL     1     121.241 111.772 110.943  1.00  0.00     0.000 C 
BRANCH  13  14
ATOM     14  C   UNL     1     119.748 111.471 111.160  1.00  0.00     0.000 C 
BRANCH  14  15
ATOM     15  C   UNL     1     119.169 110.549 110.065  1.00  0.00     0.000 C 
BRANCH  15  16
ATOM     16  C   UNL     1     120.198 109.559 109.487  1.00  0.00     0.000 C 
BRANCH  16  17
ATOM     17  C   UNL     1     120.192 109.447 107.952  1.00  0.00     0.000 C 
BRANCH  17  18
ATOM     18  C   UNL     1     121.512 109.853 107.262  1.00  0.00     0.000 C 
BRANCH  18  19
ATOM     19  C   UNL     1     121.869 111.348 107.361  1.00  0.00     0.000 C 
BRANCH  19  20
ATOM     20  C   UNL     1     120.655 112.269 107.174  1.00  0.00     0.006 C 
BRANCH  20  21
ATOM     21  C   UNL     1     121.076 113.743 107.183  1.00  0.00     0.053 C 
BRANCH  21  22
ATOM     22  C   UNL     1     120.688 114.411 105.902  1.00  0.00     0.041 C 
ATOM     23  O   UNL     1     120.816 113.803 104.806  1.00  0.00    -0.550 OA
ATOM     24  O   UNL     1     120.152 115.693 105.922  1.00  0.00    -0.550 OA
ENDBRANCH  21  22
ENDBRANCH  20  21
ENDBRANCH  19  20
ENDBRANCH  18  19
ENDBRANCH  17  18
ENDBRANCH  16  17
ENDBRANCH  15  16
ENDBRANCH  14  15
ENDBRANCH  13  14
ENDBRANCH   1  13
TORSDOF 20
ENDMDL
MODEL 7
REMARK VINA RESULT:    -3.711      3.585      7.129
REMARK INTER + INTRA:         -11.267
REMARK INTER:                  -7.883
REMARK INTRA:                  -3.384
REMARK UNBOUND:                -3.217
REMARK SMILES CCCCCCCCCCCCCCCCCCCCCC(=O)[O-]
REMARK SMILES IDX 12 1 11 2 10 3 9 4 8 5 7 6 6 7 5 8 4 9 3 10 2 11 1 12 13 13
REMARK SMILES IDX 14 14 15 15 16 16 17 17 18 18 19 19 20 20 21 21 22 22 23 23
REMARK SMILES IDX 24 24
REMARK H PARENT
REMARK Flexibility Score: inf
ROOT
ATOM      1  C   UNL     1     121.938 112.391 112.083  1.00  0.00     0.000 C 
ENDROOT
BRANCH   1   2
ATOM      2  C   UNL     1     123.025 111.352 111.774  1.00  0.00     0.000 C 
BRANCH   2   3
ATOM      3  C   UNL     1     123.186 111.158 110.261  1.00  0.00     0.000 C 
BRANCH   3   4
ATOM      4  C   UNL     1     123.218 112.510 109.533  1.00  0.00    -0.000 C 
BRANCH   4   5
ATOM      5  C   UNL     1     124.162 112.511 108.317  1.00  0.00    -0.000 C 
BRANCH   5   6
ATOM      6  C   UNL     1     123.893 111.401 107.284  1.00  0.00    -0.000 C 
BRANCH   6   7
ATOM      7  C   UNL     1     123.867 111.866 105.816  1.00  0.00    -0.000 C 
BRANCH   7   8
ATOM      8  C   UNL     1     122.520 112.486 105.384  1.00  0.00    -0.000 C 
BRANCH   8   9
ATOM      9  C   UNL     1     122.427 113.985 105.719  1.00  0.00    -0.000 C 
BRANCH   9  10
ATOM     10  C   UNL     1     121.195 114.327 106.571  1.00  0.00    -0.000 C 
BRANCH  10  11
ATOM     11  C   UNL     1     120.124 115.096 105.782  1.00  0.00    -0.003 C 
ATOM     12  C   UNL     1     120.709 116.349 105.136  1.00  0.00     0.004 C 
ENDBRANCH  10  11
ENDBRANCH   9  10
ENDBRANCH   8   9
ENDBRANCH   7   8
ENDBRANCH   6   7
ENDBRANCH   5   6
ENDBRANCH   4   5
ENDBRANCH   3   4
ENDBRANCH   2   3
ENDBRANCH   1   2
BRANCH   1  13
ATOM     13  C   UNL     1     120.820 111.836 112.980  1.00  0.00     0.000 C 
BRANCH  13  14
ATOM     14  C   UNL     1     120.383 110.418 112.577  1.00  0.00     0.000 C 
BRANCH  14  15
ATOM     15  C   UNL     1     119.182 110.427 111.607  1.00  0.00     0.000 C 
BRANCH  15  16
ATOM     16  C   UNL     1     119.557 110.055 110.160  1.00  0.00     0.000 C 
BRANCH  16  17
ATOM     17  C   UNL     1     119.596 111.241 109.179  1.00  0.00     0.000 C 
BRANCH  17  18
ATOM     18  C   UNL     1     120.235 110.934 107.809  1.00  0.00     0.000 C 
BRANCH  18  19
ATOM     19  C   UNL     1     119.958 109.523 107.258  1.00  0.00     0.000 C 
BRANCH  19  20
ATOM     20  C   UNL     1     121.237 108.773 106.857  1.00  0.00     0.006 C 
BRANCH  20  21
ATOM     21  C   UNL     1     121.993 108.276 108.095  1.00  0.00     0.053 C 
BRANCH  21  22
ATOM     22  C   UNL     1     122.415 106.852 107.920  1.00  0.00     0.041 C 
ATOM     23  O   UNL     1     122.082 106.216 106.884  1.00  0.00    -0.550 OA
ATOM     24  O   UNL     1     123.205 106.237 108.883  1.00  0.00    -0.550 OA
ENDBRANCH  21  22
ENDBRANCH  20  21
ENDBRANCH  19  20
ENDBRANCH  18  19
ENDBRANCH  17  18
ENDBRANCH  16  17
ENDBRANCH  15  16
ENDBRANCH  14  15
ENDBRANCH  13  14
ENDBRANCH   1  13
TORSDOF 20
ENDMDL
MODEL 8
REMARK VINA RESULT:    -3.702      1.423      2.255
REMARK INTER + INTRA:         -11.247
REMARK INTER:                  -9.011
REMARK INTRA:                  -2.237
REMARK UNBOUND:                -3.217
REMARK SMILES CCCCCCCCCCCCCCCCCCCCCC(=O)[O-]
REMARK SMILES IDX 12 1 11 2 10 3 9 4 8 5 7 6 6 7 5 8 4 9 3 10 2 11 1 12 13 13
REMARK SMILES IDX 14 14 15 15 16 16 17 17 18 18 19 19 20 20 21 21 22 22 23 23
REMARK SMILES IDX 24 24
REMARK H PARENT
REMARK Flexibility Score: inf
ROOT
ATOM      1  C   UNL     1     121.793 112.161 112.060  1.00  0.00     0.000 C 
ENDROOT
BRANCH   1   2
ATOM      2  C   UNL     1     121.402 113.629 112.278  1.00  0.00     0.000 C 
BRANCH   2   3
ATOM      3  C   UNL     1     120.905 113.860 113.711  1.00  0.00     0.000 C 
BRANCH   3   4
ATOM      4  C   UNL     1     119.518 114.521 113.712  1.00  0.00    -0.000 C 
BRANCH   4   5
ATOM      5  C   UNL     1     118.868 114.542 115.108  1.00  0.00    -0.000 C 
BRANCH   5   6
ATOM      6  C   UNL     1     119.613 113.730 116.184  1.00  0.00    -0.000 C 
BRANCH   6   7
ATOM      7  C   UNL     1     118.764 113.334 117.407  1.00  0.00    -0.000 C 
BRANCH   7   8
ATOM      8  C   UNL     1     119.209 112.011 118.070  1.00  0.00    -0.000 C 
BRANCH   8   9
ATOM      9  C   UNL     1     120.160 111.197 117.177  1.00  0.00    -0.000 C 
BRANCH   9  10
ATOM     10  C   UNL     1     121.607 111.196 117.698  1.00  0.00    -0.000 C 
BRANCH  10  11
ATOM     11  C   UNL     1     121.799 110.273 118.910  1.00  0.00    -0.003 C 
ATOM     12  C   UNL     1     123.174 109.611 118.886  1.00  0.00     0.004 C 
ENDBRANCH  10  11
ENDBRANCH   9  10
ENDBRANCH   8   9
ENDBRANCH   7   8
ENDBRANCH   6   7
ENDBRANCH   5   6
ENDBRANCH   4   5
ENDBRANCH   3   4
ENDBRANCH   2   3
ENDBRANCH   1   2
BRANCH   1  13
ATOM     13  C   UNL     1     121.199 111.222 113.121  1.00  0.00     0.000 C 
BRANCH  13  14
ATOM     14  C   UNL     1     120.503 109.995 112.508  1.00  0.00     0.000 C 
BRANCH  14  15
ATOM     15  C   UNL     1     119.222 110.372 111.733  1.00  0.00     0.000 C 
BRANCH  15  16
ATOM     16  C   UNL     1     119.294 110.046 110.229  1.00  0.00     0.000 C 
BRANCH  16  17
ATOM     17  C   UNL     1     120.627 109.428 109.767  1.00  0.00     0.000 C 
BRANCH  17  18
ATOM     18  C   UNL     1     121.121 109.901 108.384  1.00  0.00     0.000 C 
BRANCH  18  19
ATOM     19  C   UNL     1     120.148 110.817 107.619  1.00  0.00     0.000 C 
BRANCH  19  20
ATOM     20  C   UNL     1     120.771 112.169 107.238  1.00  0.00     0.006 C 
BRANCH  20  21
ATOM     21  C   UNL     1     121.226 112.935 108.484  1.00  0.00     0.053 C 
BRANCH  21  22
ATOM     22  C   UNL     1     122.083 114.101 108.104  1.00  0.00     0.041 C 
ATOM     23  O   UNL     1     122.732 114.724 108.985  1.00  0.00    -0.550 OA
ATOM     24  O   UNL     1     122.191 114.478 106.771  1.00  0.00    -0.550 OA
ENDBRANCH  21  22
ENDBRANCH  20  21
ENDBRANCH  19  20
ENDBRANCH  18  19
ENDBRANCH  17  18
ENDBRANCH  16  17
ENDBRANCH  15  16
ENDBRANCH  14  15
ENDBRANCH  13  14
ENDBRANCH   1  13
TORSDOF 20
ENDMDL
MODEL 9
REMARK VINA RESULT:    -3.672      3.201      7.232
REMARK INTER + INTRA:         -11.181
REMARK INTER:                  -7.305
REMARK INTRA:                  -3.876
REMARK UNBOUND:                -3.217
REMARK SMILES CCCCCCCCCCCCCCCCCCCCCC(=O)[O-]
REMARK SMILES IDX 12 1 11 2 10 3 9 4 8 5 7 6 6 7 5 8 4 9 3 10 2 11 1 12 13 13
REMARK SMILES IDX 14 14 15 15 16 16 17 17 18 18 19 19 20 20 21 21 22 22 23 23
REMARK SMILES IDX 24 24
REMARK H PARENT
REMARK Flexibility Score: inf
ROOT
ATOM      1  C   UNL     1     121.929 112.862 109.463  1.00  0.00     0.000 C 
ENDROOT
BRANCH   1   2
ATOM      2  C   UNL     1     123.326 113.487 109.334  1.00  0.00     0.000 C 
BRANCH   2   3
ATOM      3  C   UNL     1     124.409 112.405 109.265  1.00  0.00     0.000 C 
BRANCH   3   4
ATOM      4  C   UNL     1     123.796 111.032 108.949  1.00  0.00    -0.000 C 
BRANCH   4   5
ATOM      5  C   UNL     1     124.645 110.213 107.959  1.00  0.00    -0.000 C 
BRANCH   5   6
ATOM      6  C   UNL     1     124.102 110.170 106.518  1.00  0.00    -0.000 C 
BRANCH   6   7
ATOM      7  C   UNL     1     123.083 111.273 106.171  1.00  0.00    -0.000 C 
BRANCH   7   8
ATOM      8  C   UNL     1     123.711 112.508 105.489  1.00  0.00    -0.000 C 
BRANCH   8   9
ATOM      9  C   UNL     1     122.732 113.691 105.400  1.00  0.00    -0.000 C 
BRANCH   9  10
ATOM     10  C   UNL     1     121.332 113.344 105.931  1.00  0.00    -0.000 C 
BRANCH  10  11
ATOM     11  C   UNL     1     120.357 114.529 105.849  1.00  0.00    -0.003 C 
ATOM     12  C   UNL     1     121.076 115.805 105.421  1.00  0.00     0.004 C 
ENDBRANCH  10  11
ENDBRANCH   9  10
ENDBRANCH   8   9
ENDBRANCH   7   8
ENDBRANCH   6   7
ENDBRANCH   5   6
ENDBRANCH   4   5
ENDBRANCH   3   4
ENDBRANCH   2   3
ENDBRANCH   1   2
BRANCH   1  13
ATOM     13  C   UNL     1     121.107 113.472 110.609  1.00  0.00     0.000 C 
BRANCH  13  14
ATOM     14  C   UNL     1     121.764 113.272 111.985  1.00  0.00     0.000 C 
BRANCH  14  15
ATOM     15  C   UNL     1     122.194 111.808 112.224  1.00  0.00     0.000 C 
BRANCH  15  16
ATOM     16  C   UNL     1     121.229 111.023 113.131  1.00  0.00     0.000 C 
BRANCH  16  17
ATOM     17  C   UNL     1     120.383 109.962 112.404  1.00  0.00     0.000 C 
BRANCH  17  18
ATOM     18  C   UNL     1     119.098 110.496 111.736  1.00  0.00     0.000 C 
BRANCH  18  19
ATOM     19  C   UNL     1     119.049 110.355 110.204  1.00  0.00     0.000 C 
BRANCH  19  20
ATOM     20  C   UNL     1     120.225 109.546 109.638  1.00  0.00     0.006 C 
BRANCH  20  21
ATOM     21  C   UNL     1     120.350 109.744 108.123  1.00  0.00     0.053 C 
BRANCH  21  22
ATOM     22  C   UNL     1     120.893 108.511 107.472  1.00  0.00     0.041 C 
ATOM     23  O   UNL     1     121.865 107.898 107.990  1.00  0.00    -0.550 OA
ATOM     24  O   UNL     1     120.306 108.019 106.314  1.00  0.00    -0.550 OA
ENDBRANCH  21  22
ENDBRANCH  20  21
ENDBRANCH  19  20
ENDBRANCH  18  19
ENDBRANCH  17  18
ENDBRANCH  16  17
ENDBRANCH  15  16
ENDBRANCH  14  15
ENDBRANCH  13  14
ENDBRANCH   1  13
TORSDOF 20
ENDMDL
