MODEL 1
REMARK VINA RESULT:    -6.013      0.000      0.000
REMARK INTER + INTRA:          -8.858
REMARK INTER:                  -8.473
REMARK INTRA:                  -0.385
REMARK UNBOUND:                -0.385
REMARK SMILES CCCCCCCCC(=O)[O-]
REMARK SMILES IDX 6 1 7 2 8 3 9 4 10 5 11 6 5 7 4 8 3 9 2 10 1 11
REMARK H PARENT
REMARK Flexibility Score: inf
ROOT
ATOM      1  C   UNL     1      29.176  -0.649  40.993  1.00  0.00     0.000 C 
ENDROOT
BRANCH   1   2
ATOM      2  C   UNL     1      30.682  -0.630  41.304  1.00  0.00     0.006 C 
BRANCH   2   3
ATOM      3  C   UNL     1      31.535  -0.550  40.031  1.00  0.00     0.053 C 
BRANCH   3   4
ATOM      4  C   UNL     1      31.360   0.761  39.326  1.00  0.00     0.041 C 
ATOM      5  O   UNL     1      30.983   0.789  38.125  1.00  0.00    -0.550 OA
ATOM      6  O   UNL     1      31.639   1.949  39.988  1.00  0.00    -0.550 OA
ENDBRANCH   3   4
ENDBRANCH   2   3
ENDBRANCH   1   2
BRANCH   1   7
ATOM      7  C   UNL     1      28.369  -1.507  41.986  1.00  0.00     0.000 C 
BRANCH   7   8
ATOM      8  C   UNL     1      28.188  -0.886  43.383  1.00  0.00    -0.000 C 
BRANCH   8   9
ATOM      9  C   UNL     1      28.877  -1.699  44.492  1.00  0.00    -0.000 C 
BRANCH   9  10
ATOM     10  C   UNL     1      30.229  -1.100  44.907  1.00  0.00    -0.003 C 
ATOM     11  C   UNL     1      30.577  -1.387  46.367  1.00  0.00     0.004 C 
ENDBRANCH   9  10
ENDBRANCH   8   9
ENDBRANCH   7   8
ENDBRANCH   1   7
TORSDOF 7
ENDMDL
MODEL 2
REMARK VINA RESULT:    -5.819      2.931      5.549
REMARK INTER + INTRA:          -8.585
REMARK INTER:                  -8.312
REMARK INTRA:                  -0.274
REMARK UNBOUND:                -0.385
REMARK SMILES CCCCCCCCC(=O)[O-]
REMARK SMILES IDX 6 1 7 2 8 3 9 4 10 5 11 6 5 7 4 8 3 9 2 10 1 11
REMARK H PARENT
REMARK Flexibility Score: inf
ROOT
ATOM      1  C   UNL     1      28.436  -1.404  42.027  1.00  0.00     0.000 C 
ENDROOT
BRANCH   1   2
ATOM      2  C   UNL     1      28.217  -0.846  43.443  1.00  0.00     0.006 C 
BRANCH   2   3
ATOM      3  C   UNL     1      28.615  -1.853  44.531  1.00  0.00     0.053 C 
BRANCH   3   4
ATOM      4  C   UNL     1      29.905  -1.474  45.194  1.00  0.00     0.041 C 
ATOM      5  O   UNL     1      30.116  -1.786  46.395  1.00  0.00    -0.550 OA
ATOM      6  O   UNL     1      30.862  -0.752  44.491  1.00  0.00    -0.550 OA
ENDBRANCH   3   4
ENDBRANCH   2   3
ENDBRANCH   1   2
BRANCH   1   7
ATOM      7  C   UNL     1      29.377  -0.530  41.176  1.00  0.00     0.000 C 
BRANCH   7   8
ATOM      8  C   UNL     1      29.061  -0.513  39.669  1.00  0.00    -0.000 C 
BRANCH   8   9
ATOM      9  C   UNL     1      29.444   0.815  38.994  1.00  0.00    -0.000 C 
BRANCH   9  10
ATOM     10  C   UNL     1      30.960   1.067  39.008  1.00  0.00    -0.003 C 
ATOM     11  C   UNL     1      31.353   2.245  39.898  1.00  0.00     0.004 C 
ENDBRANCH   9  10
ENDBRANCH   8   9
ENDBRANCH   7   8
ENDBRANCH   1   7
TORSDOF 7
ENDMDL
MODEL 3
REMARK VINA RESULT:    -5.736      3.150      5.399
REMARK INTER + INTRA:          -8.468
REMARK INTER:                  -8.037
REMARK INTRA:                  -0.432
REMARK UNBOUND:                -0.385
REMARK SMILES CCCCCCCCC(=O)[O-]
REMARK SMILES IDX 6 1 7 2 8 3 9 4 10 5 11 6 5 7 4 8 3 9 2 10 1 11
REMARK H PARENT
REMARK Flexibility Score: inf
ROOT
ATOM      1  C   UNL     1      29.986  -1.040  40.459  1.00  0.00     0.000 C 
ENDROOT
BRANCH   1   2
ATOM      2  C   UNL     1      29.439  -1.368  41.858  1.00  0.00     0.006 C 
BRANCH   2   3
ATOM      3  C   UNL     1      30.364  -0.864  42.974  1.00  0.00     0.053 C 
BRANCH   3   4
ATOM      4  C   UNL     1      29.850  -1.234  44.332  1.00  0.00     0.041 C 
ATOM      5  O   UNL     1      28.703  -1.736  44.461  1.00  0.00    -0.550 OA
ATOM      6  O   UNL     1      30.629  -0.999  45.458  1.00  0.00    -0.550 OA
ENDBRANCH   3   4
ENDBRANCH   2   3
ENDBRANCH   1   2
BRANCH   1   7
ATOM      7  C   UNL     1      28.951  -0.340  39.558  1.00  0.00     0.000 C 
BRANCH   7   8
ATOM      8  C   UNL     1      29.516   0.792  38.679  1.00  0.00    -0.000 C 
BRANCH   8   9
ATOM      9  C   UNL     1      30.993   0.578  38.307  1.00  0.00    -0.000 C 
BRANCH   9  10
ATOM     10  C   UNL     1      31.901   1.699  38.836  1.00  0.00    -0.003 C 
ATOM     11  C   UNL     1      31.318   2.399  40.063  1.00  0.00     0.004 C 
ENDBRANCH   9  10
ENDBRANCH   8   9
ENDBRANCH   7   8
ENDBRANCH   1   7
TORSDOF 7
ENDMDL
MODEL 4
REMARK VINA RESULT:    -5.289      2.961      5.739
REMARK INTER + INTRA:          -7.839
REMARK INTER:                  -7.363
REMARK INTRA:                  -0.476
REMARK UNBOUND:                -0.385
REMARK SMILES CCCCCCCCC(=O)[O-]
REMARK SMILES IDX 6 1 7 2 8 3 9 4 10 5 11 6 5 7 4 8 3 9 2 10 1 11
REMARK H PARENT
REMARK Flexibility Score: inf
ROOT
ATOM      1  C   UNL     1      31.348  -0.667  41.537  1.00  0.00     0.000 C 
ENDROOT
BRANCH   1   2
ATOM      2  C   UNL     1      29.950  -1.277  41.736  1.00  0.00     0.006 C 
BRANCH   2   3
ATOM      3  C   UNL     1      29.182  -0.605  42.881  1.00  0.00     0.053 C 
BRANCH   3   4
ATOM      4  C   UNL     1      29.542  -1.191  44.213  1.00  0.00     0.041 C 
ATOM      5  O   UNL     1      30.640  -0.903  44.756  1.00  0.00    -0.550 OA
ATOM      6  O   UNL     1      28.675  -2.077  44.840  1.00  0.00    -0.550 OA
ENDBRANCH   3   4
ENDBRANCH   2   3
ENDBRANCH   1   2
BRANCH   1   7
ATOM      7  C   UNL     1      31.824  -0.719  40.074  1.00  0.00     0.000 C 
BRANCH   7   8
ATOM      8  C   UNL     1      32.088   0.654  39.428  1.00  0.00    -0.000 C 
BRANCH   8   9
ATOM      9  C   UNL     1      31.327   0.848  38.105  1.00  0.00    -0.000 C 
BRANCH   9  10
ATOM     10  C   UNL     1      29.914   0.246  38.145  1.00  0.00    -0.003 C 
ATOM     11  C   UNL     1      28.908   1.151  38.855  1.00  0.00     0.004 C 
ENDBRANCH   9  10
ENDBRANCH   8   9
ENDBRANCH   7   8
ENDBRANCH   1   7
TORSDOF 7
ENDMDL
MODEL 5
REMARK VINA RESULT:    -4.277      1.291      1.752
REMARK INTER + INTRA:          -6.412
REMARK INTER:                  -6.645
REMARK INTRA:                   0.233
REMARK UNBOUND:                -0.385
REMARK SMILES CCCCCCCCC(=O)[O-]
REMARK SMILES IDX 6 1 7 2 8 3 9 4 10 5 11 6 5 7 4 8 3 9 2 10 1 11
REMARK H PARENT
REMARK Flexibility Score: inf
ROOT
ATOM      1  C   UNL     1      28.069  -1.041  41.873  1.00  0.00     0.000 C 
ENDROOT
BRANCH   1   2
ATOM      2  C   UNL     1      29.214  -0.467  41.020  1.00  0.00     0.006 C 
BRANCH   2   3
ATOM      3  C   UNL     1      28.944  -0.611  39.517  1.00  0.00     0.053 C 
BRANCH   3   4
ATOM      4  C   UNL     1      29.904   0.199  38.699  1.00  0.00     0.041 C 
ATOM      5  O   UNL     1      29.530   0.724  37.618  1.00  0.00    -0.550 OA
ATOM      6  O   UNL     1      31.219   0.351  39.120  1.00  0.00    -0.550 OA
ENDBRANCH   3   4
ENDBRANCH   2   3
ENDBRANCH   1   2
BRANCH   1   7
ATOM      7  C   UNL     1      28.187  -0.672  43.363  1.00  0.00     0.000 C 
BRANCH   7   8
ATOM      8  C   UNL     1      28.202  -1.871  44.330  1.00  0.00    -0.000 C 
BRANCH   8   9
ATOM      9  C   UNL     1      29.514  -1.980  45.126  1.00  0.00    -0.000 C 
BRANCH   9  10
ATOM     10  C   UNL     1      30.413  -0.746  44.951  1.00  0.00    -0.003 C 
ATOM     11  C   UNL     1      31.225  -0.787  43.658  1.00  0.00     0.004 C 
ENDBRANCH   9  10
ENDBRANCH   8   9
ENDBRANCH   7   8
ENDBRANCH   1   7
TORSDOF 7
ENDMDL
MODEL 6
REMARK VINA RESULT:    -4.043      2.903      5.305
REMARK INTER + INTRA:          -6.083
REMARK INTER:                  -5.588
REMARK INTRA:                  -0.495
REMARK UNBOUND:                -0.385
REMARK SMILES CCCCCCCCC(=O)[O-]
REMARK SMILES IDX 6 1 7 2 8 3 9 4 10 5 11 6 5 7 4 8 3 9 2 10 1 11
REMARK H PARENT
REMARK Flexibility Score: inf
ROOT
ATOM      1  C   UNL     1      30.908   0.147  42.278  1.00  0.00     0.000 C 
ENDROOT
BRANCH   1   2
ATOM      2  C   UNL     1      30.508  -1.221  42.857  1.00  0.00     0.006 C 
BRANCH   2   3
ATOM      3  C   UNL     1      29.266  -1.129  43.754  1.00  0.00     0.053 C 
BRANCH   3   4
ATOM      4  C   UNL     1      28.000  -1.149  42.954  1.00  0.00     0.041 C 
ATOM      5  O   UNL     1      27.775  -2.087  42.145  1.00  0.00    -0.550 OA
ATOM      6  O   UNL     1      27.080  -0.116  43.083  1.00  0.00    -0.550 OA
ENDBRANCH   3   4
ENDBRANCH   2   3
ENDBRANCH   1   2
BRANCH   1   7
ATOM      7  C   UNL     1      30.922   0.166  40.738  1.00  0.00     0.000 C 
BRANCH   7   8
ATOM      8  C   UNL     1      30.227  -1.033  40.067  1.00  0.00    -0.000 C 
BRANCH   8   9
ATOM      9  C   UNL     1      28.978  -0.628  39.267  1.00  0.00    -0.000 C 
BRANCH   9  10
ATOM     10  C   UNL     1      29.089   0.787  38.679  1.00  0.00    -0.003 C 
ATOM     11  C   UNL     1      29.855   0.818  37.358  1.00  0.00     0.004 C 
ENDBRANCH   9  10
ENDBRANCH   8   9
ENDBRANCH   7   8
ENDBRANCH   1   7
TORSDOF 7
ENDMDL
MODEL 7
REMARK VINA RESULT:    -3.649      2.882      5.153
REMARK INTER + INTRA:          -5.527
REMARK INTER:                  -4.909
REMARK INTRA:                  -0.618
REMARK UNBOUND:                -0.385
REMARK SMILES CCCCCCCCC(=O)[O-]
REMARK SMILES IDX 6 1 7 2 8 3 9 4 10 5 11 6 5 7 4 8 3 9 2 10 1 11
REMARK H PARENT
REMARK Flexibility Score: inf
ROOT
ATOM      1  C   UNL     1      29.017  -0.287  37.918  1.00  0.00     0.000 C 
ENDROOT
BRANCH   1   2
ATOM      2  C   UNL     1      28.345  -0.178  39.298  1.00  0.00     0.006 C 
BRANCH   2   3
ATOM      3  C   UNL     1      28.613  -1.411  40.171  1.00  0.00     0.053 C 
BRANCH   3   4
ATOM      4  C   UNL     1      29.158  -1.033  41.515  1.00  0.00     0.041 C 
ATOM      5  O   UNL     1      30.391  -1.131  41.749  1.00  0.00    -0.550 OA
ATOM      6  O   UNL     1      28.300  -0.598  42.516  1.00  0.00    -0.550 OA
ENDBRANCH   3   4
ENDBRANCH   2   3
ENDBRANCH   1   2
BRANCH   1   7
ATOM      7  C   UNL     1      30.006   0.861  37.639  1.00  0.00     0.000 C 
BRANCH   7   8
ATOM      8  C   UNL     1      31.493   0.474  37.737  1.00  0.00    -0.000 C 
BRANCH   8   9
ATOM      9  C   UNL     1      32.120   0.848  39.091  1.00  0.00    -0.000 C 
BRANCH   9  10
ATOM     10  C   UNL     1      31.914   2.329  39.446  1.00  0.00    -0.003 C 
ATOM     11  C   UNL     1      31.161   2.520  40.762  1.00  0.00     0.004 C 
ENDBRANCH   9  10
ENDBRANCH   8   9
ENDBRANCH   7   8
ENDBRANCH   1   7
TORSDOF 7
ENDMDL
MODEL 8
REMARK VINA RESULT:    -3.178     15.603     16.441
REMARK INTER + INTRA:          -4.863
REMARK INTER:                  -4.223
REMARK INTRA:                  -0.640
REMARK UNBOUND:                -0.385
REMARK SMILES CCCCCCCCC(=O)[O-]
REMARK SMILES IDX 6 1 7 2 8 3 9 4 10 5 11 6 5 7 4 8 3 9 2 10 1 11
REMARK H PARENT
REMARK Flexibility Score: inf
ROOT
ATOM      1  C   UNL     1      29.500  12.495  48.509  1.00  0.00     0.000 C 
ENDROOT
BRANCH   1   2
ATOM      2  C   UNL     1      28.293  13.259  47.938  1.00  0.00     0.006 C 
BRANCH   2   3
ATOM      3  C   UNL     1      27.410  13.855  49.042  1.00  0.00     0.053 C 
BRANCH   3   4
ATOM      4  C   UNL     1      25.952  13.667  48.751  1.00  0.00     0.041 C 
ATOM      5  O   UNL     1      25.450  12.512  48.745  1.00  0.00    -0.550 OA
ATOM      6  O   UNL     1      25.154  14.766  48.459  1.00  0.00    -0.550 OA
ENDBRANCH   3   4
ENDBRANCH   2   3
ENDBRANCH   1   2
BRANCH   1   7
ATOM      7  C   UNL     1      30.689  12.435  47.532  1.00  0.00     0.000 C 
BRANCH   7   8
ATOM      8  C   UNL     1      31.932  13.229  47.974  1.00  0.00    -0.000 C 
BRANCH   8   9
ATOM      9  C   UNL     1      31.697  14.039  49.260  1.00  0.00    -0.000 C 
BRANCH   9  10
ATOM     10  C   UNL     1      31.820  15.553  49.033  1.00  0.00    -0.003 C 
ATOM     11  C   UNL     1      30.557  16.161  48.424  1.00  0.00     0.004 C 
ENDBRANCH   9  10
ENDBRANCH   8   9
ENDBRANCH   7   8
ENDBRANCH   1   7
TORSDOF 7
ENDMDL
MODEL 9
REMARK VINA RESULT:    -3.083     15.838     16.679
REMARK INTER + INTRA:          -4.730
REMARK INTER:                  -3.969
REMARK INTRA:                  -0.761
REMARK UNBOUND:                -0.385
REMARK SMILES CCCCCCCCC(=O)[O-]
REMARK SMILES IDX 6 1 7 2 8 3 9 4 10 5 11 6 5 7 4 8 3 9 2 10 1 11
REMARK H PARENT
REMARK Flexibility Score: inf
ROOT
ATOM      1  C   UNL     1      32.124  13.617  48.220  1.00  0.00     0.000 C 
ENDROOT
BRANCH   1   2
ATOM      2  C   UNL     1      31.142  12.508  47.804  1.00  0.00     0.006 C 
BRANCH   2   3
ATOM      3  C   UNL     1      29.858  12.526  48.644  1.00  0.00     0.053 C 
BRANCH   3   4
ATOM      4  C   UNL     1      28.693  13.056  47.866  1.00  0.00     0.041 C 
ATOM      5  O   UNL     1      28.814  13.317  46.641  1.00  0.00    -0.550 OA
ATOM      6  O   UNL     1      27.480  13.288  48.503  1.00  0.00    -0.550 OA
ENDBRANCH   3   4
ENDBRANCH   2   3
ENDBRANCH   1   2
BRANCH   1   7
ATOM      7  C   UNL     1      31.848  14.165  49.633  1.00  0.00     0.000 C 
BRANCH   7   8
ATOM      8  C   UNL     1      31.878  15.700  49.751  1.00  0.00    -0.000 C 
BRANCH   8   9
ATOM      9  C   UNL     1      31.305  16.406  48.511  1.00  0.00    -0.000 C 
BRANCH   9  10
ATOM     10  C   UNL     1      29.770  16.459  48.520  1.00  0.00    -0.003 C 
ATOM     11  C   UNL     1      29.182  16.761  47.142  1.00  0.00     0.004 C 
ENDBRANCH   9  10
ENDBRANCH   8   9
ENDBRANCH   7   8
ENDBRANCH   1   7
TORSDOF 7
ENDMDL
