MODEL 1
REMARK VINA RESULT:    -4.416      0.000      0.000
REMARK INTER + INTRA:          -4.957
REMARK INTER:                  -4.804
REMARK INTRA:                  -0.153
REMARK UNBOUND:                -0.153
REMARK SMILES CC1=CC[C@H](C(C)(C)O)CC1
REMARK SMILES IDX 6 1 7 2 8 3 5 4 1 5 2 6 3 7 11 8 4 9 10 10 9 11
REMARK H PARENT 9 12
REMARK Flexibility Score: inf
ROOT
ATOM      1  C   UNL     1     -36.861  21.088   7.363  1.00  0.00     0.062 C 
ATOM      2  C   UNL     1     -35.544  20.977   8.169  1.00  0.00     0.042 C 
ATOM      3  C   UNL     1     -38.042  21.015   8.362  1.00  0.00     0.042 C 
ENDROOT
BRANCH   1   4
ATOM      4  C   UNL     1     -36.900  22.436   6.558  1.00  0.00     0.024 C 
ATOM      5  C   UNL     1     -38.125  25.783   3.956  1.00  0.00     0.039 C 
ATOM      6  C   UNL     1     -37.830  24.592   4.827  1.00  0.00    -0.077 C 
ATOM      7  C   UNL     1     -37.367  23.462   4.259  1.00  0.00    -0.028 C 
ATOM      8  C   UNL     1     -37.938  24.735   6.327  1.00  0.00     0.031 C 
ATOM      9  C   UNL     1     -37.085  22.201   5.037  1.00  0.00     0.034 C 
ATOM     10  C   UNL     1     -38.016  23.385   7.048  1.00  0.00     0.011 C 
ENDBRANCH   1   4
BRANCH   1  11
ATOM     11  O   UNL     1     -36.946  20.011   6.460  1.00  0.00    -0.390 OA
ATOM     12  H   UNL     1     -37.228  19.204   6.966  1.00  0.00     0.211 HD
ENDBRANCH   1  11
TORSDOF 2
ENDMDL
MODEL 2
REMARK VINA RESULT:    -4.234      1.094      2.077
REMARK INTER + INTRA:          -4.759
REMARK INTER:                  -4.592
REMARK INTRA:                  -0.166
REMARK UNBOUND:                -0.153
REMARK SMILES CC1=CC[C@H](C(C)(C)O)CC1
REMARK SMILES IDX 6 1 7 2 8 3 5 4 1 5 2 6 3 7 11 8 4 9 10 10 9 11
REMARK H PARENT 9 12
REMARK Flexibility Score: inf
ROOT
ATOM      1  C   UNL     1     -37.341  21.401   7.557  1.00  0.00     0.062 C 
ATOM      2  C   UNL     1     -37.512  19.975   6.982  1.00  0.00     0.042 C 
ATOM      3  C   UNL     1     -35.842  21.610   7.883  1.00  0.00     0.042 C 
ENDROOT
BRANCH   1   4
ATOM      4  C   UNL     1     -37.837  22.475   6.523  1.00  0.00     0.024 C 
ATOM      5  C   UNL     1     -38.123  25.995   3.878  1.00  0.00     0.039 C 
ATOM      6  C   UNL     1     -37.899  24.831   4.804  1.00  0.00    -0.077 C 
ATOM      7  C   UNL     1     -38.125  24.987   6.122  1.00  0.00    -0.028 C 
ATOM      8  C   UNL     1     -37.551  23.482   4.216  1.00  0.00     0.031 C 
ATOM      9  C   UNL     1     -37.888  23.897   7.137  1.00  0.00     0.034 C 
ATOM     10  C   UNL     1     -36.961  22.519   5.250  1.00  0.00     0.011 C 
ENDBRANCH   1   4
BRANCH   1  11
ATOM     11  O   UNL     1     -38.097  21.521   8.740  1.00  0.00    -0.390 OA
ATOM     12  H   UNL     1     -39.039  21.283   8.530  1.00  0.00     0.211 HD
ENDBRANCH   1  11
TORSDOF 2
ENDMDL
MODEL 3
REMARK VINA RESULT:    -1.707      1.136      1.313
REMARK INTER + INTRA:          -2.010
REMARK INTER:                  -1.835
REMARK INTRA:                  -0.175
REMARK UNBOUND:                -0.153
REMARK SMILES CC1=CC[C@H](C(C)(C)O)CC1
REMARK SMILES IDX 6 1 7 2 8 3 5 4 1 5 2 6 3 7 11 8 4 9 10 10 9 11
REMARK H PARENT 9 12
REMARK Flexibility Score: inf
ROOT
ATOM      1  C   UNL     1     -36.340  20.461   8.040  1.00  0.00     0.062 C 
ATOM      2  C   UNL     1     -35.349  21.009   9.094  1.00  0.00     0.042 C 
ATOM      3  C   UNL     1     -37.699  20.217   8.740  1.00  0.00     0.042 C 
ENDROOT
BRANCH   1   4
ATOM      4  C   UNL     1     -36.503  21.480   6.856  1.00  0.00     0.024 C 
ATOM      5  C   UNL     1     -38.113  24.426   3.992  1.00  0.00     0.039 C 
ATOM      6  C   UNL     1     -37.679  23.434   5.035  1.00  0.00    -0.077 C 
ATOM      7  C   UNL     1     -37.986  22.132   4.873  1.00  0.00    -0.028 C 
ATOM      8  C   UNL     1     -36.800  23.902   6.172  1.00  0.00     0.031 C 
ATOM      9  C   UNL     1     -37.636  21.067   5.882  1.00  0.00     0.034 C 
ATOM     10  C   UNL     1     -36.776  22.920   7.348  1.00  0.00     0.011 C 
ENDBRANCH   1   4
BRANCH   1  11
ATOM     11  O   UNL     1     -35.852  19.242   7.531  1.00  0.00    -0.390 OA
ATOM     12  H   UNL     1     -35.750  18.608   8.290  1.00  0.00     0.211 HD
ENDBRANCH   1  11
TORSDOF 2
ENDMDL
