MODEL 1
REMARK VINA RESULT:    -5.300      0.000      0.000
REMARK INTER + INTRA:          -5.860
REMARK INTER:                  -5.765
REMARK INTRA:                  -0.095
REMARK UNBOUND:                -0.095
REMARK SMILES C=C(C)[C@H]1CC=C(C)[C@H](O)C1
REMARK SMILES IDX 8 1 7 2 6 3 5 4 4 5 11 6 9 7 10 8 2 10 1 11 3 12
REMARK H PARENT 10 9
REMARK Flexibility Score: inf
ROOT
ATOM      1  C   UNL     1      -5.039  21.797  47.724  1.00  0.00     0.042 C 
ATOM      2  C   UNL     1      -4.239  20.541  47.504  1.00  0.00    -0.049 C 
ATOM      3  C   UNL     1      -4.642  19.398  48.100  1.00  0.00    -0.025 C 
ATOM      4  C   UNL     1      -3.876  18.102  48.000  1.00  0.00     0.035 C 
ATOM      5  C   UNL     1      -2.959  18.060  46.766  1.00  0.00     0.021 C 
ATOM      6  C   UNL     1      -2.144  19.361  46.678  1.00  0.00     0.044 C 
ATOM      7  C   UNL     1      -3.079  20.575  46.524  1.00  0.00     0.140 C 
ENDROOT
BRANCH   7   8
ATOM      8  O   UNL     1      -3.596  20.622  45.219  1.00  0.00    -0.389 OA
ATOM      9  H   UNL     1      -4.420  20.068  45.216  1.00  0.00     0.211 HD
ENDBRANCH   7   8
BRANCH   5  10
ATOM     10  C   UNL     1      -2.061  16.830  46.776  1.00  0.00    -0.077 C 
ATOM     11  C   UNL     1      -2.037  15.990  47.825  1.00  0.00     0.008 C 
ATOM     12  C   UNL     1      -1.169  16.537  45.598  1.00  0.00     0.039 C 
ENDBRANCH   5  10
TORSDOF 2
ENDMDL
MODEL 2
REMARK VINA RESULT:    -5.205      1.962      4.741
REMARK INTER + INTRA:          -5.756
REMARK INTER:                  -5.669
REMARK INTRA:                  -0.087
REMARK UNBOUND:                -0.095
REMARK SMILES C=C(C)[C@H]1CC=C(C)[C@H](O)C1
REMARK SMILES IDX 8 1 7 2 6 3 5 4 4 5 11 6 9 7 10 8 2 10 1 11 3 12
REMARK H PARENT 10 9
REMARK Flexibility Score: inf
ROOT
ATOM      1  C   UNL     1      -1.610  16.394  47.029  1.00  0.00     0.042 C 
ATOM      2  C   UNL     1      -2.292  17.691  47.374  1.00  0.00    -0.049 C 
ATOM      3  C   UNL     1      -2.668  18.515  46.371  1.00  0.00    -0.025 C 
ATOM      4  C   UNL     1      -3.296  19.867  46.608  1.00  0.00     0.035 C 
ATOM      5  C   UNL     1      -3.952  19.970  47.995  1.00  0.00     0.021 C 
ATOM      6  C   UNL     1      -2.982  19.454  49.070  1.00  0.00     0.044 C 
ATOM      7  C   UNL     1      -2.641  17.972  48.824  1.00  0.00     0.140 C 
ENDROOT
BRANCH   7   8
ATOM      8  O   UNL     1      -3.729  17.161  49.188  1.00  0.00    -0.389 OA
ATOM      9  H   UNL     1      -3.835  17.247  50.172  1.00  0.00     0.211 HD
ENDBRANCH   7   8
BRANCH   5  10
ATOM     10  C   UNL     1      -4.418  21.390  48.291  1.00  0.00    -0.077 C 
ATOM     11  C   UNL     1      -5.471  21.928  47.651  1.00  0.00     0.008 C 
ATOM     12  C   UNL     1      -3.693  22.226  49.314  1.00  0.00     0.039 C 
ENDBRANCH   5  10
TORSDOF 2
ENDMDL
MODEL 3
REMARK VINA RESULT:    -5.199      1.408      4.398
REMARK INTER + INTRA:          -5.749
REMARK INTER:                  -5.659
REMARK INTRA:                  -0.091
REMARK UNBOUND:                -0.095
REMARK SMILES C=C(C)[C@H]1CC=C(C)[C@H](O)C1
REMARK SMILES IDX 8 1 7 2 6 3 5 4 4 5 11 6 9 7 10 8 2 10 1 11 3 12
REMARK H PARENT 10 9
REMARK Flexibility Score: inf
ROOT
ATOM      1  C   UNL     1      -1.857  16.255  47.169  1.00  0.00     0.042 C 
ATOM      2  C   UNL     1      -2.520  17.583  47.418  1.00  0.00    -0.049 C 
ATOM      3  C   UNL     1      -3.245  17.748  48.546  1.00  0.00    -0.025 C 
ATOM      4  C   UNL     1      -4.005  19.013  48.860  1.00  0.00     0.035 C 
ATOM      5  C   UNL     1      -3.450  20.231  48.099  1.00  0.00     0.021 C 
ATOM      6  C   UNL     1      -3.265  19.877  46.614  1.00  0.00     0.044 C 
ATOM      7  C   UNL     1      -2.254  18.726  46.454  1.00  0.00     0.140 C 
ENDROOT
BRANCH   7   8
ATOM      8  O   UNL     1      -0.949  19.199  46.670  1.00  0.00    -0.389 OA
ATOM      9  H   UNL     1      -0.876  19.412  47.637  1.00  0.00     0.211 HD
ENDBRANCH   7   8
BRANCH   5  10
ATOM     10  C   UNL     1      -4.336  21.457  48.282  1.00  0.00    -0.077 C 
ATOM     11  C   UNL     1      -5.400  21.675  47.491  1.00  0.00     0.008 C 
ATOM     12  C   UNL     1      -4.024  22.459  49.363  1.00  0.00     0.039 C 
ENDBRANCH   5  10
TORSDOF 2
ENDMDL
MODEL 4
REMARK VINA RESULT:    -5.071      1.710      2.348
REMARK INTER + INTRA:          -5.611
REMARK INTER:                  -5.520
REMARK INTRA:                  -0.091
REMARK UNBOUND:                -0.095
REMARK SMILES C=C(C)[C@H]1CC=C(C)[C@H](O)C1
REMARK SMILES IDX 8 1 7 2 6 3 5 4 4 5 11 6 9 7 10 8 2 10 1 11 3 12
REMARK H PARENT 10 9
REMARK Flexibility Score: inf
ROOT
ATOM      1  C   UNL     1      -4.413  21.785  48.570  1.00  0.00     0.042 C 
ATOM      2  C   UNL     1      -3.927  20.584  47.803  1.00  0.00    -0.049 C 
ATOM      3  C   UNL     1      -3.375  20.769  46.584  1.00  0.00    -0.025 C 
ATOM      4  C   UNL     1      -2.919  19.631  45.705  1.00  0.00     0.035 C 
ATOM      5  C   UNL     1      -2.631  18.352  46.510  1.00  0.00     0.021 C 
ATOM      6  C   UNL     1      -3.797  18.068  47.471  1.00  0.00     0.044 C 
ATOM      7  C   UNL     1      -3.964  19.223  48.475  1.00  0.00     0.140 C 
ENDROOT
BRANCH   7   8
ATOM      8  O   UNL     1      -2.946  19.172  49.441  1.00  0.00    -0.389 OA
ATOM      9  H   UNL     1      -2.475  20.046  49.409  1.00  0.00     0.211 HD
ENDBRANCH   7   8
BRANCH   5  10
ATOM     10  C   UNL     1      -2.350  17.166  45.596  1.00  0.00    -0.077 C 
ATOM     11  C   UNL     1      -3.297  16.674  44.778  1.00  0.00     0.008 C 
ATOM     12  C   UNL     1      -0.991  16.515  45.599  1.00  0.00     0.039 C 
ENDBRANCH   5  10
TORSDOF 2
ENDMDL
MODEL 5
REMARK VINA RESULT:    -4.959      4.417      6.534
REMARK INTER + INTRA:          -5.488
REMARK INTER:                  -5.392
REMARK INTRA:                  -0.096
REMARK UNBOUND:                -0.095
REMARK SMILES C=C(C)[C@H]1CC=C(C)[C@H](O)C1
REMARK SMILES IDX 8 1 7 2 6 3 5 4 4 5 11 6 9 7 10 8 2 10 1 11 3 12
REMARK H PARENT 10 9
REMARK Flexibility Score: inf
ROOT
ATOM      1  C   UNL     1      -4.024  26.978  51.994  1.00  0.00     0.042 C 
ATOM      2  C   UNL     1      -4.137  25.767  51.107  1.00  0.00    -0.049 C 
ATOM      3  C   UNL     1      -3.402  24.672  51.402  1.00  0.00    -0.025 C 
ATOM      4  C   UNL     1      -3.389  23.433  50.542  1.00  0.00     0.035 C 
ATOM      5  C   UNL     1      -4.647  23.319  49.663  1.00  0.00     0.021 C 
ATOM      6  C   UNL     1      -4.910  24.658  48.954  1.00  0.00     0.044 C 
ATOM      7  C   UNL     1      -5.159  25.775  49.984  1.00  0.00     0.140 C 
ENDROOT
BRANCH   7   8
ATOM      8  O   UNL     1      -6.440  25.637  50.544  1.00  0.00    -0.389 OA
ATOM      9  H   UNL     1      -6.501  24.712  50.898  1.00  0.00     0.211 HD
ENDBRANCH   7   8
BRANCH   5  10
ATOM     10  C   UNL     1      -4.537  22.167  48.673  1.00  0.00    -0.077 C 
ATOM     11  C   UNL     1      -5.374  22.062  47.626  1.00  0.00     0.008 C 
ATOM     12  C   UNL     1      -3.477  21.112  48.857  1.00  0.00     0.039 C 
ENDBRANCH   5  10
TORSDOF 2
ENDMDL
MODEL 6
REMARK VINA RESULT:    -4.955      2.754      5.777
REMARK INTER + INTRA:          -5.484
REMARK INTER:                  -5.389
REMARK INTRA:                  -0.096
REMARK UNBOUND:                -0.095
REMARK SMILES C=C(C)[C@H]1CC=C(C)[C@H](O)C1
REMARK SMILES IDX 8 1 7 2 6 3 5 4 4 5 11 6 9 7 10 8 2 10 1 11 3 12
REMARK H PARENT 10 9
REMARK Flexibility Score: inf
ROOT
ATOM      1  C   UNL     1      -3.236  19.640  46.476  1.00  0.00     0.042 C 
ATOM      2  C   UNL     1      -3.562  20.754  47.434  1.00  0.00    -0.049 C 
ATOM      3  C   UNL     1      -4.732  21.415  47.290  1.00  0.00    -0.025 C 
ATOM      4  C   UNL     1      -5.126  22.590  48.151  1.00  0.00     0.035 C 
ATOM      5  C   UNL     1      -4.377  22.605  49.495  1.00  0.00     0.021 C 
ATOM      6  C   UNL     1      -2.874  22.387  49.256  1.00  0.00     0.044 C 
ATOM      7  C   UNL     1      -2.624  21.018  48.598  1.00  0.00     0.140 C 
ENDROOT
BRANCH   7   8
ATOM      8  O   UNL     1      -2.785  19.992  49.544  1.00  0.00    -0.389 OA
ATOM      9  H   UNL     1      -2.414  20.330  50.401  1.00  0.00     0.211 HD
ENDBRANCH   7   8
BRANCH   5  10
ATOM     10  C   UNL     1      -4.646  23.887  50.272  1.00  0.00    -0.077 C 
ATOM     11  C   UNL     1      -3.926  24.209  51.360  1.00  0.00     0.008 C 
ATOM     12  C   UNL     1      -5.742  24.823  49.829  1.00  0.00     0.039 C 
ENDBRANCH   5  10
TORSDOF 2
ENDMDL
MODEL 7
REMARK VINA RESULT:    -4.912      5.322      7.137
REMARK INTER + INTRA:          -5.437
REMARK INTER:                  -5.347
REMARK INTRA:                  -0.090
REMARK UNBOUND:                -0.095
REMARK SMILES C=C(C)[C@H]1CC=C(C)[C@H](O)C1
REMARK SMILES IDX 8 1 7 2 6 3 5 4 4 5 11 6 9 7 10 8 2 10 1 11 3 12
REMARK H PARENT 10 9
REMARK Flexibility Score: inf
ROOT
ATOM      1  C   UNL     1      -3.661  26.128  52.928  1.00  0.00     0.042 C 
ATOM      2  C   UNL     1      -3.996  25.482  51.611  1.00  0.00    -0.049 C 
ATOM      3  C   UNL     1      -3.898  24.139  51.502  1.00  0.00    -0.025 C 
ATOM      4  C   UNL     1      -4.144  23.397  50.211  1.00  0.00     0.035 C 
ATOM      5  C   UNL     1      -5.020  24.202  49.234  1.00  0.00     0.021 C 
ATOM      6  C   UNL     1      -4.489  25.641  49.123  1.00  0.00     0.044 C 
ATOM      7  C   UNL     1      -4.546  26.345  50.491  1.00  0.00     0.140 C 
ENDROOT
BRANCH   7   8
ATOM      8  O   UNL     1      -5.873  26.688  50.800  1.00  0.00    -0.389 OA
ATOM      9  H   UNL     1      -6.324  25.855  51.097  1.00  0.00     0.211 HD
ENDBRANCH   7   8
BRANCH   5  10
ATOM     10  C   UNL     1      -5.108  23.525  47.872  1.00  0.00    -0.077 C 
ATOM     11  C   UNL     1      -5.494  22.243  47.752  1.00  0.00     0.008 C 
ATOM     12  C   UNL     1      -4.752  24.291  46.624  1.00  0.00     0.039 C 
ENDBRANCH   5  10
TORSDOF 2
ENDMDL
MODEL 8
REMARK VINA RESULT:    -4.790      4.830      7.057
REMARK INTER + INTRA:          -5.305
REMARK INTER:                  -5.210
REMARK INTRA:                  -0.094
REMARK UNBOUND:                -0.095
REMARK SMILES C=C(C)[C@H]1CC=C(C)[C@H](O)C1
REMARK SMILES IDX 8 1 7 2 6 3 5 4 4 5 11 6 9 7 10 8 2 10 1 11 3 12
REMARK H PARENT 10 9
REMARK Flexibility Score: inf
ROOT
ATOM      1  C   UNL     1      -5.318  22.406  47.577  1.00  0.00     0.042 C 
ATOM      2  C   UNL     1      -4.683  23.096  48.754  1.00  0.00    -0.049 C 
ATOM      3  C   UNL     1      -5.450  23.885  49.538  1.00  0.00    -0.025 C 
ATOM      4  C   UNL     1      -4.901  24.675  50.701  1.00  0.00     0.035 C 
ATOM      5  C   UNL     1      -3.580  24.090  51.231  1.00  0.00     0.021 C 
ATOM      6  C   UNL     1      -2.623  23.818  50.058  1.00  0.00     0.044 C 
ATOM      7  C   UNL     1      -3.235  22.788  49.090  1.00  0.00     0.140 C 
ENDROOT
BRANCH   7   8
ATOM      8  O   UNL     1      -3.169  21.502  49.651  1.00  0.00    -0.389 OA
ATOM      9  H   UNL     1      -3.791  21.494  50.425  1.00  0.00     0.211 HD
ENDBRANCH   7   8
BRANCH   5  10
ATOM     10  C   UNL     1      -2.945  24.997  52.278  1.00  0.00    -0.077 C 
ATOM     11  C   UNL     1      -3.631  26.012  52.832  1.00  0.00     0.008 C 
ATOM     12  C   UNL     1      -1.519  24.771  52.708  1.00  0.00     0.039 C 
ENDBRANCH   5  10
TORSDOF 2
ENDMDL
MODEL 9
REMARK VINA RESULT:    -4.624      2.131      3.480
REMARK INTER + INTRA:          -5.124
REMARK INTER:                  -5.038
REMARK INTRA:                  -0.086
REMARK UNBOUND:                -0.095
REMARK SMILES C=C(C)[C@H]1CC=C(C)[C@H](O)C1
REMARK SMILES IDX 8 1 7 2 6 3 5 4 4 5 11 6 9 7 10 8 2 10 1 11 3 12
REMARK H PARENT 10 9
REMARK Flexibility Score: inf
ROOT
ATOM      1  C   UNL     1      -5.326  24.623  49.064  1.00  0.00     0.042 C 
ATOM      2  C   UNL     1      -4.863  23.235  48.714  1.00  0.00    -0.049 C 
ATOM      3  C   UNL     1      -5.546  22.536  47.781  1.00  0.00    -0.025 C 
ATOM      4  C   UNL     1      -5.208  21.114  47.405  1.00  0.00     0.035 C 
ATOM      5  C   UNL     1      -3.752  20.751  47.746  1.00  0.00     0.021 C 
ATOM      6  C   UNL     1      -3.430  21.189  49.185  1.00  0.00     0.044 C 
ATOM      7  C   UNL     1      -3.577  22.715  49.332  1.00  0.00     0.140 C 
ENDROOT
BRANCH   7   8
ATOM      8  O   UNL     1      -2.492  23.364  48.720  1.00  0.00    -0.389 OA
ATOM      9  H   UNL     1      -1.723  23.290  49.344  1.00  0.00     0.211 HD
ENDBRANCH   7   8
BRANCH   5  10
ATOM     10  C   UNL     1      -3.479  19.268  47.533  1.00  0.00    -0.077 C 
ATOM     11  C   UNL     1      -2.728  18.836  46.506  1.00  0.00     0.008 C 
ATOM     12  C   UNL     1      -4.061  18.249  48.479  1.00  0.00     0.039 C 
ENDBRANCH   5  10
TORSDOF 2
ENDMDL
