MODEL 1
REMARK VINA RESULT:    -4.661      0.000      0.000
REMARK INTER + INTRA:          -5.942
REMARK INTER:                  -5.751
REMARK INTRA:                  -0.191
REMARK UNBOUND:                -0.191
REMARK SMILES COC(=O)c1ccccc1C(=O)OC
REMARK SMILES IDX 5 1 6 2 7 3 8 4 9 5 10 6 3 7 4 8 2 9 1 10 11 11 12 12 13 13
REMARK SMILES IDX 14 14
REMARK H PARENT
REMARK Flexibility Score: inf
ROOT
ATOM      1  C   UNL     1      10.211  15.996  -2.634  1.00  0.00     0.074 A 
ATOM      2  C   UNL     1       9.012  15.396  -3.064  1.00  0.00     0.016 A 
ATOM      3  C   UNL     1       8.744  15.231  -4.423  1.00  0.00     0.001 A 
ATOM      4  C   UNL     1       9.667  15.662  -5.374  1.00  0.00     0.001 A 
ATOM      5  C   UNL     1      10.871  16.239  -4.969  1.00  0.00     0.016 A 
ATOM      6  C   UNL     1      11.171  16.395  -3.604  1.00  0.00     0.074 A 
ENDROOT
BRANCH   1   7
ATOM      7  C   UNL     1      10.386  16.251  -1.186  1.00  0.00     0.338 C 
ATOM      8  O   UNL     1      10.506  15.281  -0.388  1.00  0.00    -0.246 OA
BRANCH   7   9
ATOM      9  O   UNL     1      10.363  17.562  -0.698  1.00  0.00    -0.465 OA
ATOM     10  C   UNL     1       9.405  18.523  -1.126  1.00  0.00     0.282 C 
ENDBRANCH   7   9
ENDBRANCH   1   7
BRANCH   6  11
ATOM     11  C   UNL     1      12.512  16.909  -3.245  1.00  0.00     0.338 C 
ATOM     12  O   UNL     1      12.642  18.067  -2.761  1.00  0.00    -0.246 OA
BRANCH  11  13
ATOM     13  O   UNL     1      13.630  16.080  -3.392  1.00  0.00    -0.465 OA
ATOM     14  C   UNL     1      14.702  16.388  -4.275  1.00  0.00     0.282 C 
ENDBRANCH  11  13
ENDBRANCH   6  11
TORSDOF 4
ENDMDL
MODEL 2
REMARK VINA RESULT:    -4.598      0.854      3.474
REMARK INTER + INTRA:          -5.864
REMARK INTER:                  -5.538
REMARK INTRA:                  -0.326
REMARK UNBOUND:                -0.191
REMARK SMILES COC(=O)c1ccccc1C(=O)OC
REMARK SMILES IDX 5 1 6 2 7 3 8 4 9 5 10 6 3 7 4 8 2 9 1 10 11 11 12 12 13 13
REMARK SMILES IDX 14 14
REMARK H PARENT
REMARK Flexibility Score: inf
ROOT
ATOM      1  C   UNL     1      11.122  16.375  -3.710  1.00  0.00     0.074 A 
ATOM      2  C   UNL     1      10.881  16.161  -5.081  1.00  0.00     0.016 A 
ATOM      3  C   UNL     1       9.701  15.553  -5.511  1.00  0.00     0.001 A 
ATOM      4  C   UNL     1       8.744  15.149  -4.582  1.00  0.00     0.001 A 
ATOM      5  C   UNL     1       8.954  15.372  -3.221  1.00  0.00     0.016 A 
ATOM      6  C   UNL     1      10.126  16.002  -2.766  1.00  0.00     0.074 A 
ENDROOT
BRANCH   1   7
ATOM      7  C   UNL     1      12.441  16.915  -3.307  1.00  0.00     0.338 C 
ATOM      8  O   UNL     1      13.456  16.165  -3.322  1.00  0.00    -0.246 OA
BRANCH   7   9
ATOM      9  O   UNL     1      12.550  18.235  -2.859  1.00  0.00    -0.465 OA
ATOM     10  C   UNL     1      13.795  18.827  -2.511  1.00  0.00     0.282 C 
ENDBRANCH   7   9
ENDBRANCH   1   7
BRANCH   6  11
ATOM     11  C   UNL     1      10.231  16.310  -1.322  1.00  0.00     0.338 C 
ATOM     12  O   UNL     1      10.643  15.433  -0.512  1.00  0.00    -0.246 OA
BRANCH  11  13
ATOM     13  O   UNL     1       9.925  17.596  -0.867  1.00  0.00    -0.465 OA
ATOM     14  C   UNL     1      10.680  18.253   0.145  1.00  0.00     0.282 C 
ENDBRANCH  11  13
ENDBRANCH   6  11
TORSDOF 4
ENDMDL
MODEL 3
REMARK VINA RESULT:    -4.481      2.162      4.085
REMARK INTER + INTRA:          -5.720
REMARK INTER:                  -5.444
REMARK INTRA:                  -0.275
REMARK UNBOUND:                -0.191
REMARK SMILES COC(=O)c1ccccc1C(=O)OC
REMARK SMILES IDX 5 1 6 2 7 3 8 4 9 5 10 6 3 7 4 8 2 9 1 10 11 11 12 12 13 13
REMARK SMILES IDX 14 14
REMARK H PARENT
REMARK Flexibility Score: inf
ROOT
ATOM      1  C   UNL     1      11.213  17.236  -2.976  1.00  0.00     0.074 A 
ATOM      2  C   UNL     1      11.719  18.418  -2.402  1.00  0.00     0.016 A 
ATOM      3  C   UNL     1      10.959  19.589  -2.396  1.00  0.00     0.001 A 
ATOM      4  C   UNL     1       9.686  19.599  -2.962  1.00  0.00     0.001 A 
ATOM      5  C   UNL     1       9.157  18.432  -3.516  1.00  0.00     0.016 A 
ATOM      6  C   UNL     1       9.896  17.235  -3.514  1.00  0.00     0.074 A 
ENDROOT
BRANCH   1   7
ATOM      7  C   UNL     1      12.109  16.060  -3.059  1.00  0.00     0.338 C 
ATOM      8  O   UNL     1      12.043  15.157  -2.179  1.00  0.00    -0.246 OA
BRANCH   7   9
ATOM      9  O   UNL     1      13.065  15.978  -4.078  1.00  0.00    -0.465 OA
ATOM     10  C   UNL     1      14.402  16.434  -3.914  1.00  0.00     0.282 C 
ENDBRANCH   7   9
ENDBRANCH   1   7
BRANCH   6  11
ATOM     11  C   UNL     1       9.233  16.011  -4.013  1.00  0.00     0.338 C 
ATOM     12  O   UNL     1       8.253  15.516  -3.389  1.00  0.00    -0.246 OA
BRANCH  11  13
ATOM     13  O   UNL     1       9.661  15.435  -5.214  1.00  0.00    -0.465 OA
ATOM     14  C   UNL     1      10.209  16.203  -6.280  1.00  0.00     0.282 C 
ENDBRANCH  11  13
ENDBRANCH   6  11
TORSDOF 4
ENDMDL
MODEL 4
REMARK VINA RESULT:    -4.390     10.871     12.091
REMARK INTER + INTRA:          -5.608
REMARK INTER:                  -5.182
REMARK INTRA:                  -0.426
REMARK UNBOUND:                -0.191
REMARK SMILES COC(=O)c1ccccc1C(=O)OC
REMARK SMILES IDX 5 1 6 2 7 3 8 4 9 5 10 6 3 7 4 8 2 9 1 10 11 11 12 12 13 13
REMARK SMILES IDX 14 14
REMARK H PARENT
REMARK Flexibility Score: inf
ROOT
ATOM      1  C   UNL     1      12.259   5.531   2.855  1.00  0.00     0.074 A 
ATOM      2  C   UNL     1      11.161   4.651   2.786  1.00  0.00     0.016 A 
ATOM      3  C   UNL     1       9.952   5.062   2.224  1.00  0.00     0.001 A 
ATOM      4  C   UNL     1       9.818   6.356   1.724  1.00  0.00     0.001 A 
ATOM      5  C   UNL     1      10.900   7.237   1.763  1.00  0.00     0.016 A 
ATOM      6  C   UNL     1      12.134   6.836   2.305  1.00  0.00     0.074 A 
ENDROOT
BRANCH   1   7
ATOM      7  C   UNL     1      13.475   5.077   3.568  1.00  0.00     0.338 C 
ATOM      8  O   UNL     1      13.527   5.148   4.827  1.00  0.00    -0.246 OA
BRANCH   7   9
ATOM      9  O   UNL     1      14.582   4.624   2.844  1.00  0.00    -0.465 OA
ATOM     10  C   UNL     1      14.464   4.001   1.571  1.00  0.00     0.282 C 
ENDBRANCH   7   9
ENDBRANCH   1   7
BRANCH   6  11
ATOM     11  C   UNL     1      13.270   7.780   2.211  1.00  0.00     0.338 C 
ATOM     12  O   UNL     1      14.177   7.603   1.351  1.00  0.00    -0.246 OA
BRANCH  11  13
ATOM     13  O   UNL     1      13.304   8.903   3.044  1.00  0.00    -0.465 OA
ATOM     14  C   UNL     1      13.252   8.808   4.463  1.00  0.00     0.282 C 
ENDBRANCH  11  13
ENDBRANCH   6  11
TORSDOF 4
ENDMDL
MODEL 5
REMARK VINA RESULT:    -4.361     10.900     12.053
REMARK INTER + INTRA:          -5.572
REMARK INTER:                  -5.216
REMARK INTRA:                  -0.356
REMARK UNBOUND:                -0.191
REMARK SMILES COC(=O)c1ccccc1C(=O)OC
REMARK SMILES IDX 5 1 6 2 7 3 8 4 9 5 10 6 3 7 4 8 2 9 1 10 11 11 12 12 13 13
REMARK SMILES IDX 14 14
REMARK H PARENT
REMARK Flexibility Score: inf
ROOT
ATOM      1  C   UNL     1      12.082   6.759   2.243  1.00  0.00     0.074 A 
ATOM      2  C   UNL     1      10.837   7.106   1.682  1.00  0.00     0.016 A 
ATOM      3  C   UNL     1       9.780   6.195   1.675  1.00  0.00     0.001 A 
ATOM      4  C   UNL     1       9.947   4.926   2.226  1.00  0.00     0.001 A 
ATOM      5  C   UNL     1      11.165   4.570   2.806  1.00  0.00     0.016 A 
ATOM      6  C   UNL     1      12.238   5.479   2.844  1.00  0.00     0.074 A 
ENDROOT
BRANCH   1   7
ATOM      7  C   UNL     1      13.199   7.722   2.114  1.00  0.00     0.338 C 
ATOM      8  O   UNL     1      14.136   7.491   1.300  1.00  0.00    -0.246 OA
BRANCH   7   9
ATOM      9  O   UNL     1      13.245   8.855   2.933  1.00  0.00    -0.465 OA
ATOM     10  C   UNL     1      13.051   8.794   4.340  1.00  0.00     0.282 C 
ENDBRANCH   7   9
ENDBRANCH   1   7
BRANCH   6  11
ATOM     11  C   UNL     1      13.460   5.078   3.575  1.00  0.00     0.338 C 
ATOM     12  O   UNL     1      13.548   5.263   4.820  1.00  0.00    -0.246 OA
BRANCH  11  13
ATOM     13  O   UNL     1      14.497   4.440   2.885  1.00  0.00    -0.465 OA
ATOM     14  C   UNL     1      14.379   4.034   1.526  1.00  0.00     0.282 C 
ENDBRANCH  11  13
ENDBRANCH   6  11
TORSDOF 4
ENDMDL
MODEL 6
REMARK VINA RESULT:    -4.257     11.927     13.847
REMARK INTER + INTRA:          -5.443
REMARK INTER:                  -5.140
REMARK INTRA:                  -0.303
REMARK UNBOUND:                -0.191
REMARK SMILES COC(=O)c1ccccc1C(=O)OC
REMARK SMILES IDX 5 1 6 2 7 3 8 4 9 5 10 6 3 7 4 8 2 9 1 10 11 11 12 12 13 13
REMARK SMILES IDX 14 14
REMARK H PARENT
REMARK Flexibility Score: inf
ROOT
ATOM      1  C   UNL     1      -0.452  10.140   3.218  1.00  0.00     0.074 A 
ATOM      2  C   UNL     1      -1.746   9.674   3.517  1.00  0.00     0.016 A 
ATOM      3  C   UNL     1      -2.864  10.210   2.875  1.00  0.00     0.001 A 
ATOM      4  C   UNL     1      -2.707  11.218   1.926  1.00  0.00     0.001 A 
ATOM      5  C   UNL     1      -1.431  11.679   1.598  1.00  0.00     0.016 A 
ATOM      6  C   UNL     1      -0.290  11.138   2.217  1.00  0.00     0.074 A 
ENDROOT
BRANCH   1   7
ATOM      7  C   UNL     1       0.681   9.618   4.016  1.00  0.00     0.338 C 
ATOM      8  O   UNL     1       1.062  10.240   5.046  1.00  0.00    -0.246 OA
BRANCH   7   9
ATOM      9  O   UNL     1       1.363   8.471   3.597  1.00  0.00    -0.465 OA
ATOM     10  C   UNL     1       1.103   7.182   4.140  1.00  0.00     0.282 C 
ENDBRANCH   7   9
ENDBRANCH   1   7
BRANCH   6  11
ATOM     11  C   UNL     1       1.036  11.591   1.741  1.00  0.00     0.338 C 
ATOM     12  O   UNL     1       1.716  10.865   0.963  1.00  0.00    -0.246 OA
BRANCH  11  13
ATOM     13  O   UNL     1       1.508  12.854   2.114  1.00  0.00    -0.465 OA
ATOM     14  C   UNL     1       2.526  13.537   1.391  1.00  0.00     0.282 C 
ENDBRANCH  11  13
ENDBRANCH   6  11
TORSDOF 4
ENDMDL
MODEL 7
REMARK VINA RESULT:    -4.215     11.942     14.022
REMARK INTER + INTRA:          -5.391
REMARK INTER:                  -5.107
REMARK INTRA:                  -0.284
REMARK UNBOUND:                -0.191
REMARK SMILES COC(=O)c1ccccc1C(=O)OC
REMARK SMILES IDX 5 1 6 2 7 3 8 4 9 5 10 6 3 7 4 8 2 9 1 10 11 11 12 12 13 13
REMARK SMILES IDX 14 14
REMARK H PARENT
REMARK Flexibility Score: inf
ROOT
ATOM      1  C   UNL     1      -0.308  11.159   2.196  1.00  0.00     0.074 A 
ATOM      2  C   UNL     1      -1.455  11.729   1.611  1.00  0.00     0.016 A 
ATOM      3  C   UNL     1      -2.731  11.297   1.976  1.00  0.00     0.001 A 
ATOM      4  C   UNL     1      -2.882  10.290   2.927  1.00  0.00     0.001 A 
ATOM      5  C   UNL     1      -1.759   9.727   3.535  1.00  0.00     0.016 A 
ATOM      6  C   UNL     1      -0.464  10.163   3.198  1.00  0.00     0.074 A 
ENDROOT
BRANCH   1   7
ATOM      7  C   UNL     1       1.018  11.574   1.683  1.00  0.00     0.338 C 
ATOM      8  O   UNL     1       1.670  10.799   0.930  1.00  0.00    -0.246 OA
BRANCH   7   9
ATOM      9  O   UNL     1       1.570  12.798   2.078  1.00  0.00    -0.465 OA
ATOM     10  C   UNL     1       2.580  13.461   1.329  1.00  0.00     0.282 C 
ENDBRANCH   7   9
ENDBRANCH   1   7
BRANCH   6  11
ATOM     11  C   UNL     1       0.674   9.605   3.962  1.00  0.00     0.338 C 
ATOM     12  O   UNL     1       1.089  10.186   5.003  1.00  0.00    -0.246 OA
BRANCH  11  13
ATOM     13  O   UNL     1       1.252   8.398   3.554  1.00  0.00    -0.465 OA
ATOM     14  C   UNL     1       0.880   7.142   4.110  1.00  0.00     0.282 C 
ENDBRANCH  11  13
ENDBRANCH   6  11
TORSDOF 4
ENDMDL
MODEL 8
REMARK VINA RESULT:    -4.176     10.755     11.881
REMARK INTER + INTRA:          -5.343
REMARK INTER:                  -4.983
REMARK INTRA:                  -0.360
REMARK UNBOUND:                -0.191
REMARK SMILES COC(=O)c1ccccc1C(=O)OC
REMARK SMILES IDX 5 1 6 2 7 3 8 4 9 5 10 6 3 7 4 8 2 9 1 10 11 11 12 12 13 13
REMARK SMILES IDX 14 14
REMARK H PARENT
REMARK Flexibility Score: inf
ROOT
ATOM      1  C   UNL     1      11.946   5.567   3.213  1.00  0.00     0.074 A 
ATOM      2  C   UNL     1      10.844   4.692   3.156  1.00  0.00     0.016 A 
ATOM      3  C   UNL     1       9.765   4.958   2.311  1.00  0.00     0.001 A 
ATOM      4  C   UNL     1       9.769   6.100   1.512  1.00  0.00     0.001 A 
ATOM      5  C   UNL     1      10.861   6.969   1.538  1.00  0.00     0.016 A 
ATOM      6  C   UNL     1      11.968   6.708   2.365  1.00  0.00     0.074 A 
ENDROOT
BRANCH   1   7
ATOM      7  C   UNL     1      13.004   5.295   4.213  1.00  0.00     0.338 C 
ATOM      8  O   UNL     1      14.058   4.695   3.863  1.00  0.00    -0.246 OA
BRANCH   7   9
ATOM      9  O   UNL     1      12.811   5.652   5.552  1.00  0.00    -0.465 OA
ATOM     10  C   UNL     1      12.553   6.990   5.959  1.00  0.00     0.282 C 
ENDBRANCH   7   9
ENDBRANCH   1   7
BRANCH   6  11
ATOM     11  C   UNL     1      13.139   7.608   2.258  1.00  0.00     0.338 C 
ATOM     12  O   UNL     1      14.104   7.310   1.502  1.00  0.00    -0.246 OA
BRANCH  11  13
ATOM     13  O   UNL     1      13.144   8.819   2.958  1.00  0.00    -0.465 OA
ATOM     14  C   UNL     1      14.295   9.650   3.046  1.00  0.00     0.282 C 
ENDBRANCH  11  13
ENDBRANCH   6  11
TORSDOF 4
ENDMDL
MODEL 9
REMARK VINA RESULT:    -4.131      2.253      4.098
REMARK INTER + INTRA:          -5.288
REMARK INTER:                  -4.917
REMARK INTRA:                  -0.371
REMARK UNBOUND:                -0.191
REMARK SMILES COC(=O)c1ccccc1C(=O)OC
REMARK SMILES IDX 5 1 6 2 7 3 8 4 9 5 10 6 3 7 4 8 2 9 1 10 11 11 12 12 13 13
REMARK SMILES IDX 14 14
REMARK H PARENT
REMARK Flexibility Score: inf
ROOT
ATOM      1  C   UNL     1      10.180  17.934  -1.332  1.00  0.00     0.074 A 
ATOM      2  C   UNL     1      10.274  18.092   0.064  1.00  0.00     0.016 A 
ATOM      3  C   UNL     1      10.425  16.983   0.898  1.00  0.00     0.001 A 
ATOM      4  C   UNL     1      10.483  15.702   0.354  1.00  0.00     0.001 A 
ATOM      5  C   UNL     1      10.414  15.526  -1.029  1.00  0.00     0.016 A 
ATOM      6  C   UNL     1      10.284  16.630  -1.890  1.00  0.00     0.074 A 
ENDROOT
BRANCH   1   7
ATOM      7  C   UNL     1       9.902  19.134  -2.155  1.00  0.00     0.338 C 
ATOM      8  O   UNL     1      10.850  19.727  -2.739  1.00  0.00    -0.246 OA
BRANCH   7   9
ATOM      9  O   UNL     1       8.601  19.640  -2.237  1.00  0.00    -0.465 OA
ATOM     10  C   UNL     1       7.703  19.284  -3.281  1.00  0.00     0.282 C 
ENDBRANCH   7   9
ENDBRANCH   1   7
BRANCH   6  11
ATOM     11  C   UNL     1      10.332  16.381  -3.348  1.00  0.00     0.338 C 
ATOM     12  O   UNL     1      11.437  16.376  -3.958  1.00  0.00    -0.246 OA
BRANCH  11  13
ATOM     13  O   UNL     1       9.149  16.095  -4.038  1.00  0.00    -0.465 OA
ATOM     14  C   UNL     1       8.651  14.771  -4.191  1.00  0.00     0.282 C 
ENDBRANCH  11  13
ENDBRANCH   6  11
TORSDOF 4
ENDMDL
