MODEL 1
REMARK VINA RESULT:    19.450      0.000      0.000
REMARK INTER + INTRA:          30.616
REMARK INTER:                  30.252
REMARK INTRA:                   0.364
REMARK UNBOUND:                 0.364
REMARK SMILES C=C(C)[C@H]1CC=C2C(=CC[C@@]3(C)[C@H]([C@H](CCC=C(C)C)C(=O)[O-])[C@@H](O)C[C@@]23C)[C@]1(C)CCC(=O)[O-]
REMARK SMILES IDX 29 1 8 2 4 3 30 4 7 5 9 6 5 7 27 8 6 9 10 10 11 11 26 12
REMARK SMILES IDX 28 13 13 14 12 15 24 16 31 17 32 18 33 19 34 20 35 21 2 22
REMARK SMILES IDX 1 23 3 24 14 25 21 26 22 27 23 28 15 29 16 30 17 31 18 32
REMARK SMILES IDX 19 33 20 34 25 35
REMARK H PARENT 25 36
REMARK Flexibility Score: inf
ROOT
ATOM      1  C   UNL     1      46.834 -56.251 315.083  1.00  0.00    -0.000 C 
ATOM      2  C   UNL     1      48.044 -56.314 316.052  1.00  0.00    -0.042 C 
ATOM      3  C   UNL     1      46.855 -54.793 314.472  1.00  0.00     0.028 C 
ATOM      4  C   UNL     1      45.578 -56.534 315.942  1.00  0.00     0.017 C 
ATOM      5  C   UNL     1      48.296 -55.170 316.979  1.00  0.00    -0.042 C 
ATOM      6  C   UNL     1      48.899 -57.351 316.109  1.00  0.00    -0.022 C 
ATOM      7  C   UNL     1      46.851 -53.691 315.554  1.00  0.00     0.036 C 
ATOM      8  C   UNL     1      49.055 -55.393 318.306  1.00  0.00     0.001 C 
ATOM      9  C   UNL     1      47.775 -53.961 316.703  1.00  0.00    -0.022 C 
ATOM     10  C   UNL     1      50.161 -57.239 316.896  1.00  0.00     0.035 C 
ATOM     11  C   UNL     1      49.885 -56.751 318.347  1.00  0.00    -0.014 C 
ATOM     12  C   UNL     1      50.134 -54.312 318.514  1.00  0.00     0.044 C 
ATOM     13  C   UNL     1      48.016 -55.275 319.459  1.00  0.00     0.017 C 
ATOM     14  C   UNL     1      51.279 -56.370 319.006  1.00  0.00     0.034 C 
ATOM     15  C   UNL     1      49.113 -57.897 319.072  1.00  0.00     0.013 C 
ATOM     16  C   UNL     1      51.133 -54.920 319.485  1.00  0.00     0.119 C 
ENDROOT
BRANCH   1  17
ATOM     17  C   UNL     1      46.963 -57.364 313.974  1.00  0.00     0.018 C 
BRANCH  17  18
ATOM     18  C   UNL     1      47.929 -57.124 312.796  1.00  0.00     0.053 C 
BRANCH  18  19
ATOM     19  C   UNL     1      48.900 -58.262 312.675  1.00  0.00     0.041 C 
ATOM     20  O   UNL     1      50.037 -58.189 313.218  1.00  0.00    -0.550 OA
ATOM     21  O   UNL     1      48.525 -59.427 312.016  1.00  0.00    -0.550 OA
ENDBRANCH  18  19
ENDBRANCH  17  18
ENDBRANCH   1  17
BRANCH   3  22
ATOM     22  C   UNL     1      45.798 -54.440 313.420  1.00  0.00    -0.076 C 
ATOM     23  C   UNL     1      45.541 -53.149 313.142  1.00  0.00     0.008 C 
ATOM     24  C   UNL     1      44.901 -55.479 312.786  1.00  0.00     0.039 C 
ENDBRANCH   3  22
BRANCH  14  25
ATOM     25  C   UNL     1      51.932 -57.385 320.020  1.00  0.00     0.042 C 
BRANCH  25  26
ATOM     26  C   UNL     1      51.785 -56.926 321.456  1.00  0.00     0.045 C 
ATOM     27  O   UNL     1      52.779 -56.465 322.073  1.00  0.00    -0.550 OA
ATOM     28  O   UNL     1      50.574 -57.060 322.124  1.00  0.00    -0.550 OA
ENDBRANCH  25  26
BRANCH  25  29
ATOM     29  C   UNL     1      51.541 -58.885 319.851  1.00  0.00     0.014 C 
BRANCH  29  30
ATOM     30  C   UNL     1      51.924 -59.519 318.498  1.00  0.00     0.028 C 
BRANCH  30  31
ATOM     31  C   UNL     1      53.248 -60.236 318.602  1.00  0.00    -0.028 C 
ATOM     32  C   UNL     1      53.688 -61.163 317.720  1.00  0.00    -0.080 C 
ATOM     33  C   UNL     1      55.030 -61.807 317.965  1.00  0.00     0.039 C 
ATOM     34  C   UNL     1      52.886 -61.555 316.501  1.00  0.00     0.039 C 
ENDBRANCH  30  31
ENDBRANCH  29  30
ENDBRANCH  25  29
ENDBRANCH  14  25
BRANCH  16  35
ATOM     35  O   UNL     1      52.359 -54.236 319.429  1.00  0.00    -0.393 OA
ATOM     36  H   UNL     1      53.064 -54.928 319.309  1.00  0.00     0.210 HD
ENDBRANCH  16  35
TORSDOF 10
ENDMDL
