MODEL 1
REMARK VINA RESULT:    -2.991      0.000      0.000
REMARK INTER + INTRA:          -3.699
REMARK INTER:                  -3.515
REMARK INTRA:                  -0.184
REMARK UNBOUND:                -0.184
REMARK SMILES O=C([O-])CCC(=O)[O-]
REMARK SMILES IDX 4 1 2 2 1 3 3 4 5 5 6 6 7 7 8 8
REMARK H PARENT
REMARK Flexibility Score: inf
ROOT
ATOM      1  C   UNL     1       7.935  43.756  11.041  1.00  0.00     0.059 C 
ENDROOT
BRANCH   1   2
ATOM      2  C   UNL     1       7.722  42.390  11.613  1.00  0.00     0.042 C 
ATOM      3  O   UNL     1       7.624  41.392  10.850  1.00  0.00    -0.550 OA
ATOM      4  O   UNL     1       7.681  42.212  12.989  1.00  0.00    -0.550 OA
ENDBRANCH   1   2
BRANCH   1   5
ATOM      5  C   UNL     1       6.877  44.727  11.567  1.00  0.00     0.059 C 
BRANCH   5   6
ATOM      6  C   UNL     1       5.509  44.286  11.152  1.00  0.00     0.042 C 
ATOM      7  O   UNL     1       5.203  44.228   9.933  1.00  0.00    -0.550 OA
ATOM      8  O   UNL     1       4.555  43.985  12.116  1.00  0.00    -0.550 OA
ENDBRANCH   5   6
ENDBRANCH   1   5
TORSDOF 3
ENDMDL
MODEL 2
REMARK VINA RESULT:    -2.989      0.318      3.325
REMARK INTER + INTRA:          -3.698
REMARK INTER:                  -3.530
REMARK INTRA:                  -0.167
REMARK UNBOUND:                -0.184
REMARK SMILES O=C([O-])CCC(=O)[O-]
REMARK SMILES IDX 4 1 2 2 1 3 3 4 5 5 6 6 7 7 8 8
REMARK H PARENT
REMARK Flexibility Score: inf
ROOT
ATOM      1  C   UNL     1       6.516  44.657  11.874  1.00  0.00     0.059 C 
ENDROOT
BRANCH   1   2
ATOM      2  C   UNL     1       5.248  44.124  11.285  1.00  0.00     0.042 C 
ATOM      3  O   UNL     1       4.246  43.915  12.019  1.00  0.00    -0.550 OA
ATOM      4  O   UNL     1       5.156  43.905   9.917  1.00  0.00    -0.550 OA
ENDBRANCH   1   2
BRANCH   1   5
ATOM      5  C   UNL     1       7.722  43.890  11.332  1.00  0.00     0.059 C 
BRANCH   5   6
ATOM      6  C   UNL     1       7.680  42.463  11.783  1.00  0.00     0.042 C 
ATOM      7  O   UNL     1       7.696  41.531  10.938  1.00  0.00    -0.550 OA
ATOM      8  O   UNL     1       7.573  42.166  13.135  1.00  0.00    -0.550 OA
ENDBRANCH   5   6
ENDBRANCH   1   5
TORSDOF 3
ENDMDL
MODEL 3
REMARK VINA RESULT:    -2.988      0.242      3.149
REMARK INTER + INTRA:          -3.697
REMARK INTER:                  -3.511
REMARK INTRA:                  -0.186
REMARK UNBOUND:                -0.184
REMARK SMILES O=C([O-])CCC(=O)[O-]
REMARK SMILES IDX 4 1 2 2 1 3 3 4 5 5 6 6 7 7 8 8
REMARK H PARENT
REMARK Flexibility Score: inf
ROOT
ATOM      1  C   UNL     1       6.619  44.778  11.756  1.00  0.00     0.059 C 
ENDROOT
BRANCH   1   2
ATOM      2  C   UNL     1       5.347  44.298  11.131  1.00  0.00     0.042 C 
ATOM      3  O   UNL     1       5.240  44.238   9.877  1.00  0.00    -0.550 OA
ATOM      4  O   UNL     1       4.298  43.870  11.932  1.00  0.00    -0.550 OA
ENDBRANCH   1   2
BRANCH   1   5
ATOM      5  C   UNL     1       7.803  43.942  11.268  1.00  0.00     0.059 C 
BRANCH   5   6
ATOM      6  C   UNL     1       7.677  42.529  11.743  1.00  0.00     0.042 C 
ATOM      7  O   UNL     1       7.655  41.580  10.916  1.00  0.00    -0.550 OA
ATOM      8  O   UNL     1       7.535  42.263  13.099  1.00  0.00    -0.550 OA
ENDBRANCH   5   6
ENDBRANCH   1   5
TORSDOF 3
ENDMDL
MODEL 4
REMARK VINA RESULT:    -2.968      0.290      1.633
REMARK INTER + INTRA:          -3.673
REMARK INTER:                  -3.533
REMARK INTRA:                  -0.141
REMARK UNBOUND:                -0.184
REMARK SMILES O=C([O-])CCC(=O)[O-]
REMARK SMILES IDX 4 1 2 2 1 3 3 4 5 5 6 6 7 7 8 8
REMARK H PARENT
REMARK Flexibility Score: inf
ROOT
ATOM      1  C   UNL     1       7.797  43.840  11.284  1.00  0.00     0.059 C 
ENDROOT
BRANCH   1   2
ATOM      2  C   UNL     1       7.707  42.446  11.820  1.00  0.00     0.042 C 
ATOM      3  O   UNL     1       7.624  42.249  13.061  1.00  0.00    -0.550 OA
ATOM      4  O   UNL     1       7.666  41.367  10.948  1.00  0.00    -0.550 OA
ENDBRANCH   1   2
BRANCH   1   5
ATOM      5  C   UNL     1       6.603  44.672  11.754  1.00  0.00     0.059 C 
BRANCH   5   6
ATOM      6  C   UNL     1       5.328  44.113  11.205  1.00  0.00     0.042 C 
ATOM      7  O   UNL     1       4.329  43.956  11.956  1.00  0.00    -0.550 OA
ATOM      8  O   UNL     1       5.258  43.720   9.875  1.00  0.00    -0.550 OA
ENDBRANCH   5   6
ENDBRANCH   1   5
TORSDOF 3
ENDMDL
MODEL 5
REMARK VINA RESULT:    -2.938      2.498      4.331
REMARK INTER + INTRA:          -3.638
REMARK INTER:                  -3.526
REMARK INTRA:                  -0.112
REMARK UNBOUND:                -0.184
REMARK SMILES O=C([O-])CCC(=O)[O-]
REMARK SMILES IDX 4 1 2 2 1 3 3 4 5 5 6 6 7 7 8 8
REMARK H PARENT
REMARK Flexibility Score: inf
ROOT
ATOM      1  C   UNL     1       3.745  43.908  10.541  1.00  0.00     0.059 C 
ENDROOT
BRANCH   1   2
ATOM      2  C   UNL     1       2.374  43.527  11.007  1.00  0.00     0.042 C 
ATOM      3  O   UNL     1       1.969  43.889  12.143  1.00  0.00    -0.550 OA
ATOM      4  O   UNL     1       1.528  42.816  10.167  1.00  0.00    -0.550 OA
ENDBRANCH   1   2
BRANCH   1   5
ATOM      5  C   UNL     1       4.299  45.054  11.388  1.00  0.00     0.059 C 
BRANCH   5   6
ATOM      6  C   UNL     1       5.556  44.632  12.082  1.00  0.00     0.042 C 
ATOM      7  O   UNL     1       6.663  45.125  11.743  1.00  0.00    -0.550 OA
ATOM      8  O   UNL     1       5.510  43.656  13.069  1.00  0.00    -0.550 OA
ENDBRANCH   5   6
ENDBRANCH   1   5
TORSDOF 3
ENDMDL
MODEL 6
REMARK VINA RESULT:    -2.899      2.593      3.840
REMARK INTER + INTRA:          -3.592
REMARK INTER:                  -3.515
REMARK INTRA:                  -0.077
REMARK UNBOUND:                -0.184
REMARK SMILES O=C([O-])CCC(=O)[O-]
REMARK SMILES IDX 4 1 2 2 1 3 3 4 5 5 6 6 7 7 8 8
REMARK H PARENT
REMARK Flexibility Score: inf
ROOT
ATOM      1  C   UNL     1       3.962  44.833  11.507  1.00  0.00     0.059 C 
ENDROOT
BRANCH   1   2
ATOM      2  C   UNL     1       5.328  44.496  12.018  1.00  0.00     0.042 C 
ATOM      3  O   UNL     1       5.461  43.788  13.051  1.00  0.00    -0.550 OA
ATOM      4  O   UNL     1       6.453  44.922  11.325  1.00  0.00    -0.550 OA
ENDBRANCH   1   2
BRANCH   1   5
ATOM      5  C   UNL     1       3.356  43.636  10.771  1.00  0.00     0.059 C 
BRANCH   5   6
ATOM      6  C   UNL     1       1.945  43.409  11.216  1.00  0.00     0.042 C 
ATOM      7  O   UNL     1       1.551  43.850  12.327  1.00  0.00    -0.550 OA
ATOM      8  O   UNL     1       1.079  42.666  10.423  1.00  0.00    -0.550 OA
ENDBRANCH   5   6
ENDBRANCH   1   5
TORSDOF 3
ENDMDL
MODEL 7
REMARK VINA RESULT:    -2.779      1.598      2.185
REMARK INTER + INTRA:          -3.451
REMARK INTER:                  -3.331
REMARK INTRA:                  -0.120
REMARK UNBOUND:                -0.184
REMARK SMILES O=C([O-])CCC(=O)[O-]
REMARK SMILES IDX 4 1 2 2 1 3 3 4 5 5 6 6 7 7 8 8
REMARK H PARENT
REMARK Flexibility Score: inf
ROOT
ATOM      1  C   UNL     1       5.693  43.739  12.936  1.00  0.00     0.059 C 
ENDROOT
BRANCH   1   2
ATOM      2  C   UNL     1       6.949  43.213  12.314  1.00  0.00     0.042 C 
ATOM      3  O   UNL     1       7.431  43.768  11.292  1.00  0.00    -0.550 OA
ATOM      4  O   UNL     1       7.613  42.140  12.893  1.00  0.00    -0.550 OA
ENDBRANCH   1   2
BRANCH   1   5
ATOM      5  C   UNL     1       4.949  44.645  11.953  1.00  0.00     0.059 C 
BRANCH   5   6
ATOM      6  C   UNL     1       3.836  43.896  11.290  1.00  0.00     0.042 C 
ATOM      7  O   UNL     1       2.723  43.774  11.865  1.00  0.00    -0.550 OA
ATOM      8  O   UNL     1       4.045  43.289  10.059  1.00  0.00    -0.550 OA
ENDBRANCH   5   6
ENDBRANCH   1   5
TORSDOF 3
ENDMDL
MODEL 8
REMARK VINA RESULT:    -2.601     11.431     13.001
REMARK INTER + INTRA:          -3.241
REMARK INTER:                  -3.143
REMARK INTRA:                  -0.098
REMARK UNBOUND:                -0.184
REMARK SMILES O=C([O-])CCC(=O)[O-]
REMARK SMILES IDX 4 1 2 2 1 3 3 4 5 5 6 6 7 7 8 8
REMARK H PARENT
REMARK Flexibility Score: inf
ROOT
ATOM      1  C   UNL     1       7.346  30.120  11.378  1.00  0.00     0.059 C 
ENDROOT
BRANCH   1   2
ATOM      2  C   UNL     1       8.353  29.038  11.137  1.00  0.00     0.042 C 
ATOM      3  O   UNL     1       9.124  28.673  12.063  1.00  0.00    -0.550 OA
ATOM      4  O   UNL     1       8.404  28.400   9.905  1.00  0.00    -0.550 OA
ENDBRANCH   1   2
BRANCH   1   5
ATOM      5  C   UNL     1       7.627  31.323  10.477  1.00  0.00     0.059 C 
BRANCH   5   6
ATOM      6  C   UNL     1       8.413  32.359  11.218  1.00  0.00     0.042 C 
ATOM      7  O   UNL     1       8.811  33.396  10.626  1.00  0.00    -0.550 OA
ATOM      8  O   UNL     1       8.748  32.154  12.550  1.00  0.00    -0.550 OA
ENDBRANCH   5   6
ENDBRANCH   1   5
TORSDOF 3
ENDMDL
