MODEL 1
REMARK VINA RESULT:    -7.329      0.000      0.000
REMARK INTER + INTRA:          -8.710
REMARK INTER:                  -8.400
REMARK INTRA:                  -0.309
REMARK UNBOUND:                -0.309
REMARK SMILES O=C1C[C@H](c2ccc(O)cc2)Oc2cc(O)cc(O)c21
REMARK SMILES IDX 3 1 4 2 12 3 13 4 14 5 15 6 17 7 18 8 20 9 2 10 1 11 5 12
REMARK SMILES IDX 6 13 11 14 7 15 10 16 8 17 9 18 19 20 16 22
REMARK H PARENT 9 19 19 21 16 23
REMARK Flexibility Score: inf
ROOT
ATOM      1  C   UNL     1     -13.887  38.903  -5.798  1.00  0.00     0.131 C 
ATOM      2  C   UNL     1     -12.521  38.510  -6.394  1.00  0.00     0.211 C 
ATOM      3  O   UNL     1     -11.998  39.565  -7.209  1.00  0.00    -0.484 OA
ATOM      4  C   UNL     1     -12.804  40.318  -8.071  1.00  0.00     0.138 A 
ATOM      5  C   UNL     1     -12.196  41.092  -9.065  1.00  0.00     0.093 A 
ATOM      6  C   UNL     1     -12.974  41.838  -9.957  1.00  0.00     0.123 A 
ATOM      7  C   UNL     1     -14.367  41.842  -9.823  1.00  0.00     0.093 A 
ATOM      8  C   UNL     1     -14.997  41.106  -8.804  1.00  0.00     0.133 A 
ATOM      9  C   UNL     1     -14.213  40.299  -7.938  1.00  0.00     0.102 A 
ATOM     10  C   UNL     1     -14.781  39.399  -6.899  1.00  0.00     0.174 C 
ATOM     11  O   UNL     1     -15.972  38.987  -6.959  1.00  0.00    -0.294 OA
ENDROOT
BRANCH   2  12
ATOM     12  C   UNL     1     -11.525  38.172  -5.310  1.00  0.00    -0.007 A 
ATOM     13  C   UNL     1     -11.667  36.992  -4.556  1.00  0.00     0.011 A 
ATOM     14  C   UNL     1     -10.464  39.051  -5.016  1.00  0.00     0.011 A 
ATOM     15  C   UNL     1     -10.744  36.678  -3.555  1.00  0.00     0.046 A 
ATOM     16  C   UNL     1      -9.549  38.741  -4.005  1.00  0.00     0.046 A 
ATOM     17  C   UNL     1      -9.684  37.551  -3.274  1.00  0.00     0.115 A 
BRANCH  17  18
ATOM     18  O   UNL     1      -8.775  37.230  -2.267  1.00  0.00    -0.508 OA
ATOM     19  H   UNL     1      -8.183  36.406  -2.331  1.00  0.00     0.293 HD
ENDBRANCH  17  18
ENDBRANCH   2  12
BRANCH   8  20
ATOM     20  O   UNL     1     -16.385  41.236  -8.675  1.00  0.00    -0.507 OA
ATOM     21  H   UNL     1     -17.037  40.456  -8.717  1.00  0.00     0.293 HD
ENDBRANCH   8  20
BRANCH   6  22
ATOM     22  O   UNL     1     -12.371  42.587 -10.982  1.00  0.00    -0.508 OA
ATOM     23  H   UNL     1     -12.702  43.520 -11.238  1.00  0.00     0.293 HD
ENDBRANCH   6  22
TORSDOF 4
ENDMDL
MODEL 2
REMARK VINA RESULT:    -7.281      7.616      9.225
REMARK INTER + INTRA:          -8.654
REMARK INTER:                  -8.339
REMARK INTRA:                  -0.315
REMARK UNBOUND:                -0.309
REMARK SMILES O=C1C[C@H](c2ccc(O)cc2)Oc2cc(O)cc(O)c21
REMARK SMILES IDX 3 1 4 2 12 3 13 4 14 5 15 6 17 7 18 8 20 9 2 10 1 11 5 12
REMARK SMILES IDX 6 13 11 14 7 15 10 16 8 17 9 18 19 20 16 22
REMARK H PARENT 9 19 19 21 16 23
REMARK Flexibility Score: inf
ROOT
ATOM      1  C   UNL     1     -15.802  37.309   2.633  1.00  0.00     0.131 C 
ATOM      2  C   UNL     1     -14.749  37.979   1.728  1.00  0.00     0.211 C 
ATOM      3  O   UNL     1     -15.378  38.792   0.732  1.00  0.00    -0.484 OA
ATOM      4  C   UNL     1     -16.541  38.395   0.061  1.00  0.00     0.138 A 
ATOM      5  C   UNL     1     -16.910  39.064  -1.110  1.00  0.00     0.093 A 
ATOM      6  C   UNL     1     -18.054  38.676  -1.817  1.00  0.00     0.123 A 
ATOM      7  C   UNL     1     -18.854  37.640  -1.322  1.00  0.00     0.093 A 
ATOM      8  C   UNL     1     -18.525  36.981  -0.124  1.00  0.00     0.133 A 
ATOM      9  C   UNL     1     -17.331  37.332   0.561  1.00  0.00     0.102 A 
ATOM     10  C   UNL     1     -16.831  36.631   1.774  1.00  0.00     0.174 C 
ATOM     11  O   UNL     1     -17.198  35.458   2.058  1.00  0.00    -0.294 OA
ENDROOT
BRANCH   2  12
ATOM     12  C   UNL     1     -13.789  38.822   2.533  1.00  0.00    -0.007 A 
ATOM     13  C   UNL     1     -13.340  40.060   2.035  1.00  0.00     0.011 A 
ATOM     14  C   UNL     1     -13.303  38.364   3.774  1.00  0.00     0.011 A 
ATOM     15  C   UNL     1     -12.454  40.841   2.782  1.00  0.00     0.046 A 
ATOM     16  C   UNL     1     -12.407  39.143   4.512  1.00  0.00     0.046 A 
ATOM     17  C   UNL     1     -11.983  40.386   4.020  1.00  0.00     0.115 A 
BRANCH  17  18
ATOM     18  O   UNL     1     -11.092  41.171   4.751  1.00  0.00    -0.508 OA
ATOM     19  H   UNL     1     -10.447  40.757   5.420  1.00  0.00     0.293 HD
ENDBRANCH  17  18
ENDBRANCH   2  12
BRANCH   8  20
ATOM     20  O   UNL     1     -19.424  36.023   0.356  1.00  0.00    -0.507 OA
ATOM     21  H   UNL     1     -19.549  35.802   1.342  1.00  0.00     0.293 HD
ENDBRANCH   8  20
BRANCH   6  22
ATOM     22  O   UNL     1     -18.411  39.319  -3.014  1.00  0.00    -0.508 OA
ATOM     23  H   UNL     1     -18.922  38.838  -3.757  1.00  0.00     0.293 HD
ENDBRANCH   6  22
TORSDOF 4
ENDMDL
MODEL 3
REMARK VINA RESULT:    -7.217      6.809      9.450
REMARK INTER + INTRA:          -8.581
REMARK INTER:                  -8.268
REMARK INTRA:                  -0.313
REMARK UNBOUND:                -0.309
REMARK SMILES O=C1C[C@H](c2ccc(O)cc2)Oc2cc(O)cc(O)c21
REMARK SMILES IDX 3 1 4 2 12 3 13 4 14 5 15 6 17 7 18 8 20 9 2 10 1 11 5 12
REMARK SMILES IDX 6 13 11 14 7 15 10 16 8 17 9 18 19 20 16 22
REMARK H PARENT 9 19 19 21 16 23
REMARK Flexibility Score: inf
ROOT
ATOM      1  C   UNL     1     -16.999  36.745  -2.153  1.00  0.00     0.131 C 
ATOM      2  C   UNL     1     -15.596  36.252  -1.748  1.00  0.00     0.211 C 
ATOM      3  O   UNL     1     -15.629  35.627  -0.460  1.00  0.00    -0.484 OA
ATOM      4  C   UNL     1     -16.388  36.134   0.602  1.00  0.00     0.138 A 
ATOM      5  C   UNL     1     -16.123  35.684   1.900  1.00  0.00     0.093 A 
ATOM      6  C   UNL     1     -16.847  36.187   2.986  1.00  0.00     0.123 A 
ATOM      7  C   UNL     1     -17.871  37.115   2.763  1.00  0.00     0.093 A 
ATOM      8  C   UNL     1     -18.183  37.550   1.462  1.00  0.00     0.133 A 
ATOM      9  C   UNL     1     -17.407  37.087   0.366  1.00  0.00     0.102 A 
ATOM     10  C   UNL     1     -17.578  37.561  -1.033  1.00  0.00     0.174 C 
ATOM     11  O   UNL     1     -18.134  38.664  -1.294  1.00  0.00    -0.294 OA
ENDROOT
BRANCH   2  12
ATOM     12  C   UNL     1     -15.040  35.282  -2.763  1.00  0.00    -0.007 A 
ATOM     13  C   UNL     1     -14.847  35.682  -4.099  1.00  0.00     0.011 A 
ATOM     14  C   UNL     1     -14.743  33.955  -2.395  1.00  0.00     0.011 A 
ATOM     15  C   UNL     1     -14.330  34.785  -5.037  1.00  0.00     0.046 A 
ATOM     16  C   UNL     1     -14.238  33.056  -3.339  1.00  0.00     0.046 A 
ATOM     17  C   UNL     1     -14.025  33.470  -4.662  1.00  0.00     0.115 A 
BRANCH  17  18
ATOM     18  O   UNL     1     -13.519  32.582  -5.610  1.00  0.00    -0.508 OA
ATOM     19  H   UNL     1     -13.049  32.914  -6.448  1.00  0.00     0.293 HD
ENDBRANCH  17  18
ENDBRANCH   2  12
BRANCH   8  20
ATOM     20  O   UNL     1     -19.281  38.404   1.311  1.00  0.00    -0.507 OA
ATOM     21  H   UNL     1     -20.235  38.083   1.156  1.00  0.00     0.293 HD
ENDBRANCH   8  20
BRANCH   6  22
ATOM     22  O   UNL     1     -16.562  35.767   4.296  1.00  0.00    -0.508 OA
ATOM     23  H   UNL     1     -15.974  36.318   4.926  1.00  0.00     0.293 HD
ENDBRANCH   6  22
TORSDOF 4
ENDMDL
MODEL 4
REMARK VINA RESULT:    -7.125      6.309      9.781
REMARK INTER + INTRA:          -8.476
REMARK INTER:                  -8.164
REMARK INTRA:                  -0.312
REMARK UNBOUND:                -0.309
REMARK SMILES O=C1C[C@H](c2ccc(O)cc2)Oc2cc(O)cc(O)c21
REMARK SMILES IDX 3 1 4 2 12 3 13 4 14 5 15 6 17 7 18 8 20 9 2 10 1 11 5 12
REMARK SMILES IDX 6 13 11 14 7 15 10 16 8 17 9 18 19 20 16 22
REMARK H PARENT 9 19 19 21 16 23
REMARK Flexibility Score: inf
ROOT
ATOM      1  C   UNL     1     -16.817  37.841   0.390  1.00  0.00     0.131 C 
ATOM      2  C   UNL     1     -16.191  39.022  -0.377  1.00  0.00     0.211 C 
ATOM      3  O   UNL     1     -14.779  39.087  -0.148  1.00  0.00    -0.484 OA
ATOM      4  C   UNL     1     -14.210  38.854   1.110  1.00  0.00     0.138 A 
ATOM      5  C   UNL     1     -12.889  39.251   1.341  1.00  0.00     0.093 A 
ATOM      6  C   UNL     1     -12.299  39.054   2.595  1.00  0.00     0.123 A 
ATOM      7  C   UNL     1     -13.024  38.416   3.607  1.00  0.00     0.093 A 
ATOM      8  C   UNL     1     -14.339  37.970   3.384  1.00  0.00     0.133 A 
ATOM      9  C   UNL     1     -14.961  38.225   2.133  1.00  0.00     0.102 A 
ATOM     10  C   UNL     1     -16.378  37.896   1.825  1.00  0.00     0.174 C 
ATOM     11  O   UNL     1     -17.232  37.733   2.739  1.00  0.00    -0.294 OA
ENDROOT
BRANCH   2  12
ATOM     12  C   UNL     1     -16.455  38.917  -1.860  1.00  0.00    -0.007 A 
ATOM     13  C   UNL     1     -15.399  39.047  -2.782  1.00  0.00     0.011 A 
ATOM     14  C   UNL     1     -17.765  38.724  -2.341  1.00  0.00     0.011 A 
ATOM     15  C   UNL     1     -15.643  38.947  -4.154  1.00  0.00     0.046 A 
ATOM     16  C   UNL     1     -18.008  38.637  -3.715  1.00  0.00     0.046 A 
ATOM     17  C   UNL     1     -16.947  38.743  -4.626  1.00  0.00     0.115 A 
BRANCH  17  18
ATOM     18  O   UNL     1     -17.178  38.654  -5.997  1.00  0.00    -0.508 OA
ATOM     19  H   UNL     1     -17.545  37.804  -6.418  1.00  0.00     0.293 HD
ENDBRANCH  17  18
ENDBRANCH   2  12
BRANCH   8  20
ATOM     20  O   UNL     1     -14.965  37.256   4.412  1.00  0.00    -0.507 OA
ATOM     21  H   UNL     1     -14.516  36.514   4.946  1.00  0.00     0.293 HD
ENDBRANCH   8  20
BRANCH   6  22
ATOM     22  O   UNL     1     -10.985  39.484   2.845  1.00  0.00    -0.508 OA
ATOM     23  H   UNL     1     -10.645  39.665   3.791  1.00  0.00     0.293 HD
ENDBRANCH   6  22
TORSDOF 4
ENDMDL
MODEL 5
REMARK VINA RESULT:    -7.076      7.161     10.487
REMARK INTER + INTRA:          -8.420
REMARK INTER:                  -8.104
REMARK INTRA:                  -0.315
REMARK UNBOUND:                -0.309
REMARK SMILES O=C1C[C@H](c2ccc(O)cc2)Oc2cc(O)cc(O)c21
REMARK SMILES IDX 3 1 4 2 12 3 13 4 14 5 15 6 17 7 18 8 20 9 2 10 1 11 5 12
REMARK SMILES IDX 6 13 11 14 7 15 10 16 8 17 9 18 19 20 16 22
REMARK H PARENT 9 19 19 21 16 23
REMARK Flexibility Score: inf
ROOT
ATOM      1  C   UNL     1     -15.626  35.969  -0.780  1.00  0.00     0.131 C 
ATOM      2  C   UNL     1     -17.040  36.379  -1.235  1.00  0.00     0.211 C 
ATOM      3  O   UNL     1     -17.651  37.251  -0.277  1.00  0.00    -0.484 OA
ATOM      4  C   UNL     1     -17.526  37.056   1.104  1.00  0.00     0.138 A 
ATOM      5  C   UNL     1     -18.399  37.728   1.965  1.00  0.00     0.093 A 
ATOM      6  C   UNL     1     -18.317  37.537   3.349  1.00  0.00     0.123 A 
ATOM      7  C   UNL     1     -17.326  36.700   3.873  1.00  0.00     0.093 A 
ATOM      8  C   UNL     1     -16.409  36.047   3.028  1.00  0.00     0.133 A 
ATOM      9  C   UNL     1     -16.532  36.191   1.621  1.00  0.00     0.102 A 
ATOM     10  C   UNL     1     -15.689  35.465   0.634  1.00  0.00     0.174 C 
ATOM     11  O   UNL     1     -15.085  34.399   0.937  1.00  0.00    -0.294 OA
ENDROOT
BRANCH   2  12
ATOM     12  C   UNL     1     -17.009  37.057  -2.584  1.00  0.00    -0.007 A 
ATOM     13  C   UNL     1     -17.839  38.165  -2.843  1.00  0.00     0.011 A 
ATOM     14  C   UNL     1     -16.178  36.567  -3.610  1.00  0.00     0.011 A 
ATOM     15  C   UNL     1     -17.807  38.794  -4.090  1.00  0.00     0.046 A 
ATOM     16  C   UNL     1     -16.159  37.191  -4.862  1.00  0.00     0.046 A 
ATOM     17  C   UNL     1     -16.970  38.309  -5.104  1.00  0.00     0.115 A 
BRANCH  17  18
ATOM     18  O   UNL     1     -16.955  38.940  -6.347  1.00  0.00    -0.508 OA
ATOM     19  H   UNL     1     -16.132  38.915  -6.944  1.00  0.00     0.293 HD
ENDBRANCH  17  18
ENDBRANCH   2  12
BRANCH   8  20
ATOM     20  O   UNL     1     -15.388  35.304   3.631  1.00  0.00    -0.507 OA
ATOM     21  H   UNL     1     -14.845  34.588   3.153  1.00  0.00     0.293 HD
ENDBRANCH   8  20
BRANCH   6  22
ATOM     22  O   UNL     1     -19.215  38.180   4.217  1.00  0.00    -0.508 OA
ATOM     23  H   UNL     1     -19.711  37.676   4.955  1.00  0.00     0.293 HD
ENDBRANCH   6  22
TORSDOF 4
ENDMDL
MODEL 6
REMARK VINA RESULT:    -7.036      3.579      7.355
REMARK INTER + INTRA:          -8.374
REMARK INTER:                  -8.088
REMARK INTRA:                  -0.285
REMARK UNBOUND:                -0.309
REMARK SMILES O=C1C[C@H](c2ccc(O)cc2)Oc2cc(O)cc(O)c21
REMARK SMILES IDX 3 1 4 2 12 3 13 4 14 5 15 6 17 7 18 8 20 9 2 10 1 11 5 12
REMARK SMILES IDX 6 13 11 14 7 15 10 16 8 17 9 18 19 20 16 22
REMARK H PARENT 9 19 19 21 16 23
REMARK Flexibility Score: inf
ROOT
ATOM      1  C   UNL     1     -14.561  37.557  -5.940  1.00  0.00     0.131 C 
ATOM      2  C   UNL     1     -15.716  38.493  -6.349  1.00  0.00     0.211 C 
ATOM      3  O   UNL     1     -16.397  38.995  -5.193  1.00  0.00    -0.484 OA
ATOM      4  C   UNL     1     -16.674  38.196  -4.077  1.00  0.00     0.138 A 
ATOM      5  C   UNL     1     -17.614  38.640  -3.142  1.00  0.00     0.093 A 
ATOM      6  C   UNL     1     -17.931  37.855  -2.027  1.00  0.00     0.123 A 
ATOM      7  C   UNL     1     -17.268  36.638  -1.830  1.00  0.00     0.093 A 
ATOM      8  C   UNL     1     -16.288  36.192  -2.735  1.00  0.00     0.133 A 
ATOM      9  C   UNL     1     -16.012  36.958  -3.898  1.00  0.00     0.102 A 
ATOM     10  C   UNL     1     -15.077  36.530  -4.973  1.00  0.00     0.174 C 
ATOM     11  O   UNL     1     -14.765  35.318  -5.134  1.00  0.00    -0.294 OA
ENDROOT
BRANCH   2  12
ATOM     12  C   UNL     1     -15.218  39.650  -7.181  1.00  0.00    -0.007 A 
ATOM     13  C   UNL     1     -14.248  40.531  -6.666  1.00  0.00     0.011 A 
ATOM     14  C   UNL     1     -15.744  39.884  -8.467  1.00  0.00     0.011 A 
ATOM     15  C   UNL     1     -13.786  41.601  -7.438  1.00  0.00     0.046 A 
ATOM     16  C   UNL     1     -15.288  40.963  -9.231  1.00  0.00     0.046 A 
ATOM     17  C   UNL     1     -14.304  41.821  -8.720  1.00  0.00     0.115 A 
BRANCH  17  18
ATOM     18  O   UNL     1     -13.840  42.897  -9.476  1.00  0.00    -0.508 OA
ATOM     19  H   UNL     1     -14.422  43.336 -10.186  1.00  0.00     0.293 HD
ENDBRANCH  17  18
ENDBRANCH   2  12
BRANCH   8  20
ATOM     20  O   UNL     1     -15.603  35.014  -2.418  1.00  0.00    -0.507 OA
ATOM     21  H   UNL     1     -15.050  34.886  -1.573  1.00  0.00     0.293 HD
ENDBRANCH   8  20
BRANCH   6  22
ATOM     22  O   UNL     1     -18.901  38.278  -1.104  1.00  0.00    -0.508 OA
ATOM     23  H   UNL     1     -19.104  39.267  -0.945  1.00  0.00     0.293 HD
ENDBRANCH   6  22
TORSDOF 4
ENDMDL
MODEL 7
REMARK VINA RESULT:    -6.952      1.524      3.001
REMARK INTER + INTRA:          -8.277
REMARK INTER:                  -7.985
REMARK INTRA:                  -0.292
REMARK UNBOUND:                -0.309
REMARK SMILES O=C1C[C@H](c2ccc(O)cc2)Oc2cc(O)cc(O)c21
REMARK SMILES IDX 3 1 4 2 12 3 13 4 14 5 15 6 17 7 18 8 20 9 2 10 1 11 5 12
REMARK SMILES IDX 6 13 11 14 7 15 10 16 8 17 9 18 19 20 16 22
REMARK H PARENT 9 19 19 21 16 23
REMARK Flexibility Score: inf
ROOT
ATOM      1  C   UNL     1     -10.515  39.302  -7.924  1.00  0.00     0.131 C 
ATOM      2  C   UNL     1     -11.129  39.777  -6.593  1.00  0.00     0.211 C 
ATOM      3  O   UNL     1     -12.545  39.561  -6.580  1.00  0.00    -0.484 OA
ATOM      4  C   UNL     1     -13.351  39.796  -7.701  1.00  0.00     0.138 A 
ATOM      5  C   UNL     1     -14.737  39.885  -7.532  1.00  0.00     0.093 A 
ATOM      6  C   UNL     1     -15.569  40.142  -8.628  1.00  0.00     0.123 A 
ATOM      7  C   UNL     1     -15.010  40.266  -9.905  1.00  0.00     0.093 A 
ATOM      8  C   UNL     1     -13.624  40.137 -10.104  1.00  0.00     0.133 A 
ATOM      9  C   UNL     1     -12.773  39.939  -8.985  1.00  0.00     0.102 A 
ATOM     10  C   UNL     1     -11.289  39.896  -9.066  1.00  0.00     0.174 C 
ATOM     11  O   UNL     1     -10.664  40.410 -10.035  1.00  0.00    -0.294 OA
ENDROOT
BRANCH   2  12
ATOM     12  C   UNL     1     -10.503  39.071  -5.414  1.00  0.00    -0.007 A 
ATOM     13  C   UNL     1     -10.877  39.410  -4.100  1.00  0.00     0.011 A 
ATOM     14  C   UNL     1      -9.509  38.092  -5.614  1.00  0.00     0.011 A 
ATOM     15  C   UNL     1     -10.299  38.755  -3.010  1.00  0.00     0.046 A 
ATOM     16  C   UNL     1      -8.923  37.447  -4.520  1.00  0.00     0.046 A 
ATOM     17  C   UNL     1      -9.320  37.774  -3.215  1.00  0.00     0.115 A 
BRANCH  17  18
ATOM     18  O   UNL     1      -8.745  37.134  -2.119  1.00  0.00    -0.508 OA
ATOM     19  H   UNL     1      -9.289  36.518  -1.519  1.00  0.00     0.293 HD
ENDBRANCH  17  18
ENDBRANCH   2  12
BRANCH   8  20
ATOM     20  O   UNL     1     -13.153  40.177 -11.421  1.00  0.00    -0.507 OA
ATOM     21  H   UNL     1     -12.797  39.367 -11.924  1.00  0.00     0.293 HD
ENDBRANCH   8  20
BRANCH   6  22
ATOM     22  O   UNL     1     -16.957  40.271  -8.460  1.00  0.00    -0.508 OA
ATOM     23  H   UNL     1     -17.393  41.160  -8.205  1.00  0.00     0.293 HD
ENDBRANCH   6  22
TORSDOF 4
ENDMDL
MODEL 8
REMARK VINA RESULT:    -6.924      5.159      9.366
REMARK INTER + INTRA:          -8.245
REMARK INTER:                  -7.952
REMARK INTRA:                  -0.293
REMARK UNBOUND:                -0.309
REMARK SMILES O=C1C[C@H](c2ccc(O)cc2)Oc2cc(O)cc(O)c21
REMARK SMILES IDX 3 1 4 2 12 3 13 4 14 5 15 6 17 7 18 8 20 9 2 10 1 11 5 12
REMARK SMILES IDX 6 13 11 14 7 15 10 16 8 17 9 18 19 20 16 22
REMARK H PARENT 9 19 19 21 16 23
REMARK Flexibility Score: inf
ROOT
ATOM      1  C   UNL     1     -12.621  38.806  -1.480  1.00  0.00     0.131 C 
ATOM      2  C   UNL     1     -13.804  37.819  -1.527  1.00  0.00     0.211 C 
ATOM      3  O   UNL     1     -14.607  37.931  -0.346  1.00  0.00    -0.484 OA
ATOM      4  C   UNL     1     -14.051  38.101   0.928  1.00  0.00     0.138 A 
ATOM      5  C   UNL     1     -14.851  37.873   2.052  1.00  0.00     0.093 A 
ATOM      6  C   UNL     1     -14.320  38.012   3.340  1.00  0.00     0.123 A 
ATOM      7  C   UNL     1     -12.992  38.423   3.498  1.00  0.00     0.093 A 
ATOM      8  C   UNL     1     -12.182  38.699   2.382  1.00  0.00     0.133 A 
ATOM      9  C   UNL     1     -12.701  38.499   1.075  1.00  0.00     0.102 A 
ATOM     10  C   UNL     1     -11.903  38.655  -0.170  1.00  0.00     0.174 C 
ATOM     11  O   UNL     1     -10.643  38.593  -0.160  1.00  0.00    -0.294 OA
ENDROOT
BRANCH   2  12
ATOM     12  C   UNL     1     -14.666  38.050  -2.745  1.00  0.00    -0.007 A 
ATOM     13  C   UNL     1     -15.781  37.227  -2.994  1.00  0.00     0.011 A 
ATOM     14  C   UNL     1     -14.343  39.066  -3.666  1.00  0.00     0.011 A 
ATOM     15  C   UNL     1     -16.580  37.444  -4.120  1.00  0.00     0.046 A 
ATOM     16  C   UNL     1     -15.137  39.272  -4.798  1.00  0.00     0.046 A 
ATOM     17  C   UNL     1     -16.261  38.463  -5.026  1.00  0.00     0.115 A 
BRANCH  17  18
ATOM     18  O   UNL     1     -17.061  38.662  -6.150  1.00  0.00    -0.508 OA
ATOM     19  H   UNL     1     -16.706  39.140  -6.975  1.00  0.00     0.293 HD
ENDBRANCH  17  18
ENDBRANCH   2  12
BRANCH   8  20
ATOM     20  O   UNL     1     -10.897  39.198   2.622  1.00  0.00    -0.507 OA
ATOM     21  H   UNL     1     -10.112  38.627   2.928  1.00  0.00     0.293 HD
ENDBRANCH   8  20
BRANCH   6  22
ATOM     22  O   UNL     1     -15.107  37.748   4.473  1.00  0.00    -0.508 OA
ATOM     23  H   UNL     1     -16.063  37.391   4.399  1.00  0.00     0.293 HD
ENDBRANCH   6  22
TORSDOF 4
ENDMDL
MODEL 9
REMARK VINA RESULT:    -6.806      5.040      7.728
REMARK INTER + INTRA:          -8.110
REMARK INTER:                  -7.795
REMARK INTRA:                  -0.315
REMARK UNBOUND:                -0.309
REMARK SMILES O=C1C[C@H](c2ccc(O)cc2)Oc2cc(O)cc(O)c21
REMARK SMILES IDX 3 1 4 2 12 3 13 4 14 5 15 6 17 7 18 8 20 9 2 10 1 11 5 12
REMARK SMILES IDX 6 13 11 14 7 15 10 16 8 17 9 18 19 20 16 22
REMARK H PARENT 9 19 19 21 16 23
REMARK Flexibility Score: inf
ROOT
ATOM      1  C   UNL     1     -15.305  36.397  -3.214  1.00  0.00     0.131 C 
ATOM      2  C   UNL     1     -15.004  36.252  -1.710  1.00  0.00     0.211 C 
ATOM      3  O   UNL     1     -13.775  36.906  -1.371  1.00  0.00    -0.484 OA
ATOM      4  C   UNL     1     -12.642  36.848  -2.192  1.00  0.00     0.138 A 
ATOM      5  C   UNL     1     -11.402  37.216  -1.661  1.00  0.00     0.093 A 
ATOM      6  C   UNL     1     -10.245  37.147  -2.447  1.00  0.00     0.123 A 
ATOM      7  C   UNL     1     -10.343  36.747  -3.784  1.00  0.00     0.093 A 
ATOM      8  C   UNL     1     -11.586  36.414  -4.351  1.00  0.00     0.133 A 
ATOM      9  C   UNL     1     -12.750  36.424  -3.538  1.00  0.00     0.102 A 
ATOM     10  C   UNL     1     -14.094  35.987  -4.002  1.00  0.00     0.174 C 
ATOM     11  O   UNL     1     -14.233  35.224  -4.997  1.00  0.00    -0.294 OA
ENDROOT
BRANCH   2  12
ATOM     12  C   UNL     1     -16.123  36.818  -0.868  1.00  0.00    -0.007 A 
ATOM     13  C   UNL     1     -17.446  36.812  -1.347  1.00  0.00     0.011 A 
ATOM     14  C   UNL     1     -15.850  37.392   0.389  1.00  0.00     0.011 A 
ATOM     15  C   UNL     1     -18.482  37.333  -0.566  1.00  0.00     0.046 A 
ATOM     16  C   UNL     1     -16.887  37.925   1.162  1.00  0.00     0.046 A 
ATOM     17  C   UNL     1     -18.206  37.892   0.688  1.00  0.00     0.115 A 
BRANCH  17  18
ATOM     18  O   UNL     1     -19.247  38.417   1.453  1.00  0.00    -0.508 OA
ATOM     19  H   UNL     1     -20.215  38.155   1.281  1.00  0.00     0.293 HD
ENDBRANCH  17  18
ENDBRANCH   2  12
BRANCH   8  20
ATOM     20  O   UNL     1     -11.616  36.118  -5.718  1.00  0.00    -0.507 OA
ATOM     21  H   UNL     1     -12.209  35.402  -6.134  1.00  0.00     0.293 HD
ENDBRANCH   8  20
BRANCH   6  22
ATOM     22  O   UNL     1      -8.991  37.479  -1.909  1.00  0.00    -0.508 OA
ATOM     23  H   UNL     1      -8.831  38.356  -1.408  1.00  0.00     0.293 HD
ENDBRANCH   6  22
TORSDOF 4
ENDMDL
