MODEL 1
REMARK VINA RESULT:    -4.194      0.000      0.000
REMARK INTER + INTRA:          -4.194
REMARK INTER:                  -4.194
REMARK INTRA:                   0.000
REMARK UNBOUND:                 0.000
REMARK SMILES CC(C)=C1CC[C@@H](C)CC1=O
REMARK SMILES IDX 8 1 7 2 6 3 5 4 4 5 2 6 1 7 3 8 10 9 11 10 9 11
REMARK H PARENT
REMARK Flexibility Score: inf
ROOT
ATOM      1  C   UNL     1      75.073  76.125  71.436  1.00  0.00     0.008 C 
ATOM      2  C   UNL     1      75.329  74.642  71.744  1.00  0.00    -0.006 C 
ATOM      3  C   UNL     1      74.028  73.873  72.034  1.00  0.00     0.008 C 
ATOM      4  C   UNL     1      73.341  74.320  73.334  1.00  0.00     0.039 C 
ATOM      5  C   UNL     1      74.294  74.374  74.521  1.00  0.00    -0.006 C 
ATOM      6  C   UNL     1      73.851  74.149  75.793  1.00  0.00    -0.070 C 
ATOM      7  C   UNL     1      74.794  74.144  76.975  1.00  0.00     0.039 C 
ATOM      8  C   UNL     1      72.395  73.855  76.076  1.00  0.00     0.039 C 
ATOM      9  C   UNL     1      75.694  74.800  74.226  1.00  0.00     0.159 C 
ATOM     10  O   UNL     1      76.370  75.454  75.066  1.00  0.00    -0.295 OA
ATOM     11  C   UNL     1      76.321  74.463  72.905  1.00  0.00     0.084 C 
ENDROOT
TORSDOF 0
ENDMDL
MODEL 2
REMARK VINA RESULT:    -3.802      1.567      2.715
REMARK INTER + INTRA:          -3.802
REMARK INTER:                  -3.802
REMARK INTRA:                   0.000
REMARK UNBOUND:                 0.000
REMARK SMILES CC(C)=C1CC[C@@H](C)CC1=O
REMARK SMILES IDX 8 1 7 2 6 3 5 4 4 5 2 6 1 7 3 8 10 9 11 10 9 11
REMARK H PARENT
REMARK Flexibility Score: inf
ROOT
ATOM      1  C   UNL     1      74.335  73.456  71.495  1.00  0.00     0.008 C 
ATOM      2  C   UNL     1      74.039  74.872  72.013  1.00  0.00    -0.006 C 
ATOM      3  C   UNL     1      75.323  75.661  72.324  1.00  0.00     0.008 C 
ATOM      4  C   UNL     1      76.112  75.083  73.509  1.00  0.00     0.039 C 
ATOM      5  C   UNL     1      75.242  74.828  74.733  1.00  0.00    -0.006 C 
ATOM      6  C   UNL     1      75.758  74.907  75.995  1.00  0.00    -0.070 C 
ATOM      7  C   UNL     1      74.895  74.711  77.222  1.00  0.00     0.039 C 
ATOM      8  C   UNL     1      77.216  75.234  76.227  1.00  0.00     0.039 C 
ATOM      9  C   UNL     1      73.844  74.374  74.468  1.00  0.00     0.159 C 
ATOM     10  O   UNL     1      73.253  73.583  75.252  1.00  0.00    -0.295 OA
ATOM     11  C   UNL     1      73.119  74.848  73.244  1.00  0.00     0.084 C 
ENDROOT
TORSDOF 0
ENDMDL
MODEL 3
REMARK VINA RESULT:    -3.423      9.751     10.441
REMARK INTER + INTRA:          -3.423
REMARK INTER:                  -3.423
REMARK INTRA:                   0.000
REMARK UNBOUND:                 0.000
REMARK SMILES CC(C)=C1CC[C@@H](C)CC1=O
REMARK SMILES IDX 8 1 7 2 6 3 5 4 4 5 2 6 1 7 3 8 10 9 11 10 9 11
REMARK H PARENT
REMARK Flexibility Score: inf
ROOT
ATOM      1  C   UNL     1      72.811  69.392  84.125  1.00  0.00     0.008 C 
ATOM      2  C   UNL     1      72.991  70.087  82.766  1.00  0.00    -0.006 C 
ATOM      3  C   UNL     1      74.451  70.498  82.509  1.00  0.00     0.008 C 
ATOM      4  C   UNL     1      74.943  71.600  83.459  1.00  0.00     0.039 C 
ATOM      5  C   UNL     1      73.985  72.781  83.546  1.00  0.00    -0.006 C 
ATOM      6  C   UNL     1      74.439  74.043  83.800  1.00  0.00    -0.070 C 
ATOM      7  C   UNL     1      73.508  75.233  83.834  1.00  0.00     0.039 C 
ATOM      8  C   UNL     1      75.910  74.316  84.023  1.00  0.00     0.039 C 
ATOM      9  C   UNL     1      72.529  72.459  83.458  1.00  0.00     0.159 C 
ATOM     10  O   UNL     1      71.670  73.134  84.086  1.00  0.00    -0.295 OA
ATOM     11  C   UNL     1      72.063  71.304  82.620  1.00  0.00     0.084 C 
ENDROOT
TORSDOF 0
ENDMDL
MODEL 4
REMARK VINA RESULT:    -3.327      9.791     10.164
REMARK INTER + INTRA:          -3.327
REMARK INTER:                  -3.327
REMARK INTRA:                   0.000
REMARK UNBOUND:                 0.000
REMARK SMILES CC(C)=C1CC[C@@H](C)CC1=O
REMARK SMILES IDX 8 1 7 2 6 3 5 4 4 5 2 6 1 7 3 8 10 9 11 10 9 11
REMARK H PARENT
REMARK Flexibility Score: inf
ROOT
ATOM      1  C   UNL     1      76.705  80.215  84.125  1.00  0.00     0.008 C 
ATOM      2  C   UNL     1      76.387  79.579  82.763  1.00  0.00    -0.006 C 
ATOM      3  C   UNL     1      74.899  79.212  82.623  1.00  0.00     0.008 C 
ATOM      4  C   UNL     1      74.465  78.084  83.572  1.00  0.00     0.039 C 
ATOM      5  C   UNL     1      75.396  76.879  83.528  1.00  0.00    -0.006 C 
ATOM      6  C   UNL     1      74.933  75.618  83.775  1.00  0.00    -0.070 C 
ATOM      7  C   UNL     1      75.833  74.407  83.681  1.00  0.00     0.039 C 
ATOM      8  C   UNL     1      73.482  75.370  84.119  1.00  0.00     0.039 C 
ATOM      9  C   UNL     1      76.846  77.172  83.321  1.00  0.00     0.159 C 
ATOM     10  O   UNL     1      77.740  76.452  83.843  1.00  0.00    -0.295 OA
ATOM     11  C   UNL     1      77.265  78.347  82.488  1.00  0.00     0.084 C 
ENDROOT
TORSDOF 0
ENDMDL
MODEL 5
REMARK VINA RESULT:    -3.105      9.799     10.576
REMARK INTER + INTRA:          -3.105
REMARK INTER:                  -3.105
REMARK INTRA:                   0.000
REMARK UNBOUND:                 0.000
REMARK SMILES CC(C)=C1CC[C@@H](C)CC1=O
REMARK SMILES IDX 8 1 7 2 6 3 5 4 4 5 2 6 1 7 3 8 10 9 11 10 9 11
REMARK H PARENT
REMARK Flexibility Score: inf
ROOT
ATOM      1  C   UNL     1      72.018  68.915  82.181  1.00  0.00     0.008 C 
ATOM      2  C   UNL     1      72.133  69.307  83.663  1.00  0.00    -0.006 C 
ATOM      3  C   UNL     1      71.346  70.587  83.991  1.00  0.00     0.008 C 
ATOM      4  C   UNL     1      71.928  71.841  83.320  1.00  0.00     0.039 C 
ATOM      5  C   UNL     1      73.431  71.981  83.524  1.00  0.00    -0.006 C 
ATOM      6  C   UNL     1      74.027  73.208  83.567  1.00  0.00    -0.070 C 
ATOM      7  C   UNL     1      75.509  73.365  83.825  1.00  0.00     0.039 C 
ATOM      8  C   UNL     1      73.222  74.477  83.396  1.00  0.00     0.039 C 
ATOM      9  C   UNL     1      74.215  70.710  83.552  1.00  0.00     0.159 C 
ATOM     10  O   UNL     1      75.395  70.659  83.111  1.00  0.00    -0.295 OA
ATOM     11  C   UNL     1      73.598  69.457  84.101  1.00  0.00     0.084 C 
ENDROOT
TORSDOF 0
ENDMDL
MODEL 6
REMARK VINA RESULT:    -2.906      8.720     10.656
REMARK INTER + INTRA:          -2.906
REMARK INTER:                  -2.906
REMARK INTRA:                   0.000
REMARK UNBOUND:                 0.000
REMARK SMILES CC(C)=C1CC[C@@H](C)CC1=O
REMARK SMILES IDX 8 1 7 2 6 3 5 4 4 5 2 6 1 7 3 8 10 9 11 10 9 11
REMARK H PARENT
REMARK Flexibility Score: inf
ROOT
ATOM      1  C   UNL     1      74.947  76.083  84.052  1.00  0.00     0.008 C 
ATOM      2  C   UNL     1      75.952  75.981  82.894  1.00  0.00    -0.006 C 
ATOM      3  C   UNL     1      77.410  75.956  83.386  1.00  0.00     0.008 C 
ATOM      4  C   UNL     1      77.851  77.280  84.029  1.00  0.00     0.039 C 
ATOM      5  C   UNL     1      77.517  78.497  83.176  1.00  0.00    -0.006 C 
ATOM      6  C   UNL     1      78.288  79.623  83.217  1.00  0.00    -0.070 C 
ATOM      7  C   UNL     1      78.002  80.817  82.335  1.00  0.00     0.039 C 
ATOM      8  C   UNL     1      79.494  79.713  84.125  1.00  0.00     0.039 C 
ATOM      9  C   UNL     1      76.245  78.427  82.395  1.00  0.00     0.159 C 
ATOM     10  O   UNL     1      75.557  79.459  82.172  1.00  0.00    -0.295 OA
ATOM     11  C   UNL     1      75.757  77.110  81.868  1.00  0.00     0.084 C 
ENDROOT
TORSDOF 0
ENDMDL
MODEL 7
REMARK VINA RESULT:    -2.856      1.281      1.960
REMARK INTER + INTRA:          -2.856
REMARK INTER:                  -2.856
REMARK INTRA:                   0.000
REMARK UNBOUND:                 0.000
REMARK SMILES CC(C)=C1CC[C@@H](C)CC1=O
REMARK SMILES IDX 8 1 7 2 6 3 5 4 4 5 2 6 1 7 3 8 10 9 11 10 9 11
REMARK H PARENT
REMARK Flexibility Score: inf
ROOT
ATOM      1  C   UNL     1      72.980  75.085  72.054  1.00  0.00     0.008 C 
ATOM      2  C   UNL     1      73.898  73.882  72.322  1.00  0.00    -0.006 C 
ATOM      3  C   UNL     1      73.522  73.137  73.616  1.00  0.00     0.008 C 
ATOM      4  C   UNL     1      73.769  73.971  74.883  1.00  0.00     0.039 C 
ATOM      5  C   UNL     1      75.157  74.598  74.921  1.00  0.00    -0.006 C 
ATOM      6  C   UNL     1      75.792  74.837  76.106  1.00  0.00    -0.070 C 
ATOM      7  C   UNL     1      77.192  75.406  76.159  1.00  0.00     0.039 C 
ATOM      8  C   UNL     1      75.136  74.505  77.428  1.00  0.00     0.039 C 
ATOM      9  C   UNL     1      75.720  75.039  73.610  1.00  0.00     0.159 C 
ATOM     10  O   UNL     1      76.476  76.044  73.527  1.00  0.00    -0.295 OA
ATOM     11  C   UNL     1      75.379  74.289  72.355  1.00  0.00     0.084 C 
ENDROOT
TORSDOF 0
ENDMDL
MODEL 8
REMARK VINA RESULT:    -2.373     12.108     14.043
REMARK INTER + INTRA:          -2.373
REMARK INTER:                  -2.373
REMARK INTRA:                   0.000
REMARK UNBOUND:                 0.000
REMARK SMILES CC(C)=C1CC[C@@H](C)CC1=O
REMARK SMILES IDX 8 1 7 2 6 3 5 4 4 5 2 6 1 7 3 8 10 9 11 10 9 11
REMARK H PARENT
REMARK Flexibility Score: inf
ROOT
ATOM      1  C   UNL     1      64.924  66.383  84.096  1.00  0.00     0.008 C 
ATOM      2  C   UNL     1      65.491  66.599  82.684  1.00  0.00    -0.006 C 
ATOM      3  C   UNL     1      66.655  65.642  82.371  1.00  0.00     0.008 C 
ATOM      4  C   UNL     1      67.904  65.914  83.224  1.00  0.00     0.039 C 
ATOM      5  C   UNL     1      68.309  67.382  83.236  1.00  0.00    -0.006 C 
ATOM      6  C   UNL     1      69.614  67.754  83.384  1.00  0.00    -0.070 C 
ATOM      7  C   UNL     1      70.038  69.205  83.342  1.00  0.00     0.039 C 
ATOM      8  C   UNL     1      70.707  66.725  83.560  1.00  0.00     0.039 C 
ATOM      9  C   UNL     1      67.194  68.375  83.199  1.00  0.00     0.159 C 
ATOM     10  O   UNL     1      67.287  69.486  83.787  1.00  0.00    -0.295 OA
ATOM     11  C   UNL     1      65.927  68.056  82.461  1.00  0.00     0.084 C 
ENDROOT
TORSDOF 0
ENDMDL
