MODEL 1
REMARK VINA RESULT:    -6.285      0.000      0.000
REMARK INTER + INTRA:          -9.134
REMARK INTER:                  -8.490
REMARK INTRA:                  -0.645
REMARK UNBOUND:                -0.645
REMARK SMILES COc1ccc(-c2cc(=O)c3c(OC)c(OC)c(OC)c(OC)c3o2)cc1
REMARK SMILES IDX 7 1 8 2 9 3 10 4 11 5 24 6 25 7 21 8 18 9 15 10 12 11 6 12
REMARK SMILES IDX 3 13 4 14 27 15 5 16 26 17 2 18 1 19 22 20 23 21 13 22 14 23
REMARK SMILES IDX 19 24 20 25 16 26 17 27
REMARK H PARENT
REMARK Flexibility Score: inf
ROOT
ATOM      1  C   UNL     1     136.561 136.228 141.760  1.00  0.00     0.138 A 
ATOM      2  C   UNL     1     135.779 135.111 142.066  1.00  0.00     0.100 A 
ATOM      3  C   UNL     1     134.397 135.249 142.143  1.00  0.00     0.197 A 
ATOM      4  O   UNL     1     133.710 134.230 142.424  1.00  0.00    -0.289 OA
ATOM      5  C   UNL     1     133.797 136.512 141.908  1.00  0.00     0.115 A 
ATOM      6  C   UNL     1     134.654 137.598 141.614  1.00  0.00     0.188 A 
ATOM      7  O   UNL     1     135.971 137.402 141.560  1.00  0.00    -0.452 OA
ATOM      8  C   UNL     1     134.122 138.883 141.360  1.00  0.00     0.209 A 
ATOM      9  C   UNL     1     132.718 139.080 141.397  1.00  0.00     0.211 A 
ATOM     10  C   UNL     1     131.855 137.993 141.701  1.00  0.00     0.208 A 
ATOM     11  C   UNL     1     132.397 136.707 141.961  1.00  0.00     0.179 A 
ENDROOT
BRANCH   1  12
ATOM     12  C   UNL     1     138.037 136.134 141.660  1.00  0.00     0.018 A 
ATOM     13  C   UNL     1     140.852 135.940 141.521  1.00  0.00     0.118 A 
ATOM     14  C   UNL     1     140.120 135.073 142.337  1.00  0.00     0.047 A 
ATOM     15  C   UNL     1     140.167 136.917 140.774  1.00  0.00     0.047 A 
ATOM     16  C   UNL     1     138.728 135.169 142.410  1.00  0.00     0.016 A 
ATOM     17  C   UNL     1     138.774 137.014 140.845  1.00  0.00     0.016 A 
BRANCH  13  18
ATOM     18  O   UNL     1     142.246 135.801 141.480  1.00  0.00    -0.497 OA
ATOM     19  C   UNL     1     143.079 136.338 140.456  1.00  0.00     0.278 C 
ENDBRANCH  13  18
ENDBRANCH   1  12
BRANCH   8  20
ATOM     20  O   UNL     1     134.943 139.985 141.050  1.00  0.00    -0.490 OA
ATOM     21  C   UNL     1     135.612 140.851 141.960  1.00  0.00     0.278 C 
ENDBRANCH   8  20
BRANCH  11  22
ATOM     22  O   UNL     1     131.592 135.590 142.277  1.00  0.00    -0.492 OA
ATOM     23  C   UNL     1     130.662 134.914 141.435  1.00  0.00     0.278 C 
ENDBRANCH  11  22
BRANCH   9  24
ATOM     24  O   UNL     1     132.129 140.334 141.134  1.00  0.00    -0.490 OA
ATOM     25  C   UNL     1     131.708 140.860 139.881  1.00  0.00     0.279 C 
ENDBRANCH   9  24
BRANCH  10  26
ATOM     26  O   UNL     1     130.454 138.135 141.753  1.00  0.00    -0.490 OA
ATOM     27  C   UNL     1     129.639 138.425 142.885  1.00  0.00     0.278 C 
ENDBRANCH  10  26
TORSDOF 6
ENDMDL
MODEL 2
REMARK VINA RESULT:    -6.217      2.621      8.032
REMARK INTER + INTRA:          -9.042
REMARK INTER:                  -8.407
REMARK INTRA:                  -0.635
REMARK UNBOUND:                -0.645
REMARK SMILES COc1ccc(-c2cc(=O)c3c(OC)c(OC)c(OC)c(OC)c3o2)cc1
REMARK SMILES IDX 7 1 8 2 9 3 10 4 11 5 24 6 25 7 21 8 18 9 15 10 12 11 6 12
REMARK SMILES IDX 3 13 4 14 27 15 5 16 26 17 2 18 1 19 22 20 23 21 13 22 14 23
REMARK SMILES IDX 19 24 20 25 16 26 17 27
REMARK H PARENT
REMARK Flexibility Score: inf
ROOT
ATOM      1  C   UNL     1     137.637 136.419 142.177  1.00  0.00     0.138 A 
ATOM      2  C   UNL     1     138.609 135.416 142.204  1.00  0.00     0.100 A 
ATOM      3  C   UNL     1     139.943 135.757 142.007  1.00  0.00     0.197 A 
ATOM      4  O   UNL     1     140.804 134.836 142.031  1.00  0.00    -0.289 OA
ATOM      5  C   UNL     1     140.303 137.110 141.787  1.00  0.00     0.115 A 
ATOM      6  C   UNL     1     139.263 138.068 141.764  1.00  0.00     0.188 A 
ATOM      7  O   UNL     1     138.003 137.677 141.954  1.00  0.00    -0.452 OA
ATOM      8  C   UNL     1     139.552 139.437 141.558  1.00  0.00     0.209 A 
ATOM      9  C   UNL     1     140.896 139.849 141.379  1.00  0.00     0.211 A 
ATOM     10  C   UNL     1     141.943 138.889 141.393  1.00  0.00     0.208 A 
ATOM     11  C   UNL     1     141.644 137.515 141.593  1.00  0.00     0.179 A 
ENDROOT
BRANCH   1  12
ATOM     12  C   UNL     1     136.202 136.110 142.387  1.00  0.00     0.018 A 
ATOM     13  C   UNL     1     133.472 135.541 142.839  1.00  0.00     0.118 A 
ATOM     14  C   UNL     1     134.092 136.609 143.493  1.00  0.00     0.047 A 
ATOM     15  C   UNL     1     134.229 134.747 141.957  1.00  0.00     0.047 A 
ATOM     16  C   UNL     1     135.443 136.891 143.274  1.00  0.00     0.016 A 
ATOM     17  C   UNL     1     135.581 135.029 141.735  1.00  0.00     0.016 A 
BRANCH  13  18
ATOM     18  O   UNL     1     132.114 135.301 143.092  1.00  0.00    -0.497 OA
ATOM     19  C   UNL     1     131.594 134.072 143.592  1.00  0.00     0.278 C 
ENDBRANCH  13  18
ENDBRANCH   1  12
BRANCH   8  20
ATOM     20  O   UNL     1     138.543 140.420 141.543  1.00  0.00    -0.490 OA
ATOM     21  C   UNL     1     138.050 141.174 142.644  1.00  0.00     0.278 C 
ENDBRANCH   8  20
BRANCH  11  22
ATOM     22  O   UNL     1     142.640 136.513 141.608  1.00  0.00    -0.492 OA
ATOM     23  C   UNL     1     143.512 136.127 140.550  1.00  0.00     0.278 C 
ENDBRANCH  11  22
BRANCH   9  24
ATOM     24  O   UNL     1     141.248 141.201 141.189  1.00  0.00    -0.490 OA
ATOM     25  C   UNL     1     141.432 141.896 139.960  1.00  0.00     0.279 C 
ENDBRANCH   9  24
BRANCH  10  26
ATOM     26  O   UNL     1     143.295 139.244 141.217  1.00  0.00    -0.490 OA
ATOM     27  C   UNL     1     144.266 139.544 142.216  1.00  0.00     0.278 C 
ENDBRANCH  10  26
TORSDOF 6
ENDMDL
MODEL 3
REMARK VINA RESULT:    -5.980      2.784      5.854
REMARK INTER + INTRA:          -8.722
REMARK INTER:                  -8.045
REMARK INTRA:                  -0.678
REMARK UNBOUND:                -0.645
REMARK SMILES COc1ccc(-c2cc(=O)c3c(OC)c(OC)c(OC)c(OC)c3o2)cc1
REMARK SMILES IDX 7 1 8 2 9 3 10 4 11 5 24 6 25 7 21 8 18 9 15 10 12 11 6 12
REMARK SMILES IDX 3 13 4 14 27 15 5 16 26 17 2 18 1 19 22 20 23 21 13 22 14 23
REMARK SMILES IDX 19 24 20 25 16 26 17 27
REMARK H PARENT
REMARK Flexibility Score: inf
ROOT
ATOM      1  C   UNL     1     141.029 138.678 141.456  1.00  0.00     0.138 A 
ATOM      2  C   UNL     1     141.213 139.983 140.990  1.00  0.00     0.100 A 
ATOM      3  C   UNL     1     140.131 140.856 140.971  1.00  0.00     0.197 A 
ATOM      4  O   UNL     1     140.317 142.028 140.542  1.00  0.00    -0.289 OA
ATOM      5  C   UNL     1     138.861 140.421 141.426  1.00  0.00     0.115 A 
ATOM      6  C   UNL     1     138.750 139.084 141.874  1.00  0.00     0.188 A 
ATOM      7  O   UNL     1     139.823 138.295 141.863  1.00  0.00    -0.452 OA
ATOM      8  C   UNL     1     137.515 138.587 142.350  1.00  0.00     0.209 A 
ATOM      9  C   UNL     1     136.382 139.439 142.381  1.00  0.00     0.211 A 
ATOM     10  C   UNL     1     136.488 140.780 141.923  1.00  0.00     0.208 A 
ATOM     11  C   UNL     1     137.730 141.270 141.440  1.00  0.00     0.179 A 
ENDROOT
BRANCH   1  12
ATOM     12  C   UNL     1     142.150 137.709 141.504  1.00  0.00     0.018 A 
ATOM     13  C   UNL     1     144.252 135.825 141.616  1.00  0.00     0.118 A 
ATOM     14  C   UNL     1     142.933 135.406 141.419  1.00  0.00     0.047 A 
ATOM     15  C   UNL     1     144.518 137.199 141.765  1.00  0.00     0.047 A 
ATOM     16  C   UNL     1     141.891 136.336 141.367  1.00  0.00     0.016 A 
ATOM     17  C   UNL     1     143.477 138.131 141.711  1.00  0.00     0.016 A 
BRANCH  13  18
ATOM     18  O   UNL     1     145.262 134.853 141.659  1.00  0.00    -0.497 OA
ATOM     19  C   UNL     1     145.348 133.826 142.642  1.00  0.00     0.278 C 
ENDBRANCH  13  18
ENDBRANCH   1  12
BRANCH   8  20
ATOM     20  O   UNL     1     137.370 137.266 142.817  1.00  0.00    -0.490 OA
ATOM     21  C   UNL     1     137.075 136.103 142.052  1.00  0.00     0.278 C 
ENDBRANCH   8  20
BRANCH  11  22
ATOM     22  O   UNL     1     137.896 142.590 140.964  1.00  0.00    -0.492 OA
ATOM     23  C   UNL     1     137.678 143.809 141.668  1.00  0.00     0.278 C 
ENDBRANCH  11  22
BRANCH   9  24
ATOM     24  O   UNL     1     135.130 139.006 142.861  1.00  0.00    -0.490 OA
ATOM     25  C   UNL     1     134.074 138.389 142.131  1.00  0.00     0.279 C 
ENDBRANCH   9  24
BRANCH  10  26
ATOM     26  O   UNL     1     135.393 141.668 141.929  1.00  0.00    -0.490 OA
ATOM     27  C   UNL     1     134.449 141.911 140.890  1.00  0.00     0.278 C 
ENDBRANCH  10  26
TORSDOF 6
ENDMDL
MODEL 4
REMARK VINA RESULT:    -5.807      3.733      8.608
REMARK INTER + INTRA:          -8.488
REMARK INTER:                  -7.805
REMARK INTRA:                  -0.683
REMARK UNBOUND:                -0.645
REMARK SMILES COc1ccc(-c2cc(=O)c3c(OC)c(OC)c(OC)c(OC)c3o2)cc1
REMARK SMILES IDX 7 1 8 2 9 3 10 4 11 5 24 6 25 7 21 8 18 9 15 10 12 11 6 12
REMARK SMILES IDX 3 13 4 14 27 15 5 16 26 17 2 18 1 19 22 20 23 21 13 22 14 23
REMARK SMILES IDX 19 24 20 25 16 26 17 27
REMARK H PARENT
REMARK Flexibility Score: inf
ROOT
ATOM      1  C   UNL     1     132.020 140.322 140.590  1.00  0.00     0.138 A 
ATOM      2  C   UNL     1     131.915 141.692 140.335  1.00  0.00     0.100 A 
ATOM      3  C   UNL     1     132.983 142.526 140.648  1.00  0.00     0.197 A 
ATOM      4  O   UNL     1     132.866 143.759 140.413  1.00  0.00    -0.289 OA
ATOM      5  C   UNL     1     134.163 141.983 141.216  1.00  0.00     0.115 A 
ATOM      6  C   UNL     1     134.192 140.589 141.455  1.00  0.00     0.188 A 
ATOM      7  O   UNL     1     133.134 139.845 141.137  1.00  0.00    -0.452 OA
ATOM      8  C   UNL     1     135.341 139.980 142.010  1.00  0.00     0.209 A 
ATOM      9  C   UNL     1     136.472 140.775 142.325  1.00  0.00     0.211 A 
ATOM     10  C   UNL     1     136.443 142.177 142.094  1.00  0.00     0.208 A 
ATOM     11  C   UNL     1     135.283 142.782 141.542  1.00  0.00     0.179 A 
ENDROOT
BRANCH   1  12
ATOM     12  C   UNL     1     130.914 139.388 140.270  1.00  0.00     0.018 A 
ATOM     13  C   UNL     1     128.844 137.572 139.643  1.00  0.00     0.118 A 
ATOM     14  C   UNL     1     130.092 137.107 140.067  1.00  0.00     0.047 A 
ATOM     15  C   UNL     1     128.635 138.959 139.525  1.00  0.00     0.047 A 
ATOM     16  C   UNL     1     131.118 138.003 140.375  1.00  0.00     0.016 A 
ATOM     17  C   UNL     1     129.661 139.857 139.834  1.00  0.00     0.016 A 
BRANCH  13  18
ATOM     18  O   UNL     1     127.845 136.632 139.348  1.00  0.00    -0.497 OA
ATOM     19  C   UNL     1     127.219 136.497 138.076  1.00  0.00     0.278 C 
ENDBRANCH  13  18
ENDBRANCH   1  12
BRANCH   8  20
ATOM     20  O   UNL     1     135.412 138.594 142.248  1.00  0.00    -0.490 OA
ATOM     21  C   UNL     1     135.047 137.899 143.435  1.00  0.00     0.278 C 
ENDBRANCH   8  20
BRANCH  11  22
ATOM     22  O   UNL     1     135.190 144.171 141.298  1.00  0.00    -0.492 OA
ATOM     23  C   UNL     1     135.964 144.956 140.395  1.00  0.00     0.278 C 
ENDBRANCH  11  22
BRANCH   9  24
ATOM     24  O   UNL     1     137.652 140.223 142.862  1.00  0.00    -0.490 OA
ATOM     25  C   UNL     1     138.011 140.084 144.233  1.00  0.00     0.279 C 
ENDBRANCH   9  24
BRANCH  10  26
ATOM     26  O   UNL     1     137.538 143.013 142.391  1.00  0.00    -0.490 OA
ATOM     27  C   UNL     1     137.761 143.791 143.564  1.00  0.00     0.278 C 
ENDBRANCH  10  26
TORSDOF 6
ENDMDL
MODEL 5
REMARK VINA RESULT:    -5.706      1.211      3.586
REMARK INTER + INTRA:          -8.352
REMARK INTER:                  -7.671
REMARK INTRA:                  -0.681
REMARK UNBOUND:                -0.645
REMARK SMILES COc1ccc(-c2cc(=O)c3c(OC)c(OC)c(OC)c(OC)c3o2)cc1
REMARK SMILES IDX 7 1 8 2 9 3 10 4 11 5 24 6 25 7 21 8 18 9 15 10 12 11 6 12
REMARK SMILES IDX 3 13 4 14 27 15 5 16 26 17 2 18 1 19 22 20 23 21 13 22 14 23
REMARK SMILES IDX 19 24 20 25 16 26 17 27
REMARK H PARENT
REMARK Flexibility Score: inf
ROOT
ATOM      1  C   UNL     1     137.087 137.777 141.514  1.00  0.00     0.138 A 
ATOM      2  C   UNL     1     137.026 139.173 141.519  1.00  0.00     0.100 A 
ATOM      3  C   UNL     1     135.785 139.799 141.468  1.00  0.00     0.197 A 
ATOM      4  O   UNL     1     135.752 141.059 141.468  1.00  0.00    -0.289 OA
ATOM      5  C   UNL     1     134.600 139.022 141.416  1.00  0.00     0.115 A 
ATOM      6  C   UNL     1     134.742 137.614 141.405  1.00  0.00     0.188 A 
ATOM      7  O   UNL     1     135.960 137.075 141.451  1.00  0.00    -0.452 OA
ATOM      8  C   UNL     1     133.602 136.779 141.364  1.00  0.00     0.209 A 
ATOM      9  C   UNL     1     132.309 137.359 141.338  1.00  0.00     0.211 A 
ATOM     10  C   UNL     1     132.163 138.773 141.341  1.00  0.00     0.208 A 
ATOM     11  C   UNL     1     133.313 139.605 141.375  1.00  0.00     0.179 A 
ENDROOT
BRANCH   1  12
ATOM     12  C   UNL     1     138.383 137.059 141.574  1.00  0.00     0.018 A 
ATOM     13  C   UNL     1     140.862 135.706 141.635  1.00  0.00     0.118 A 
ATOM     14  C   UNL     1     140.705 136.866 140.871  1.00  0.00     0.047 A 
ATOM     15  C   UNL     1     139.765 135.217 142.369  1.00  0.00     0.047 A 
ATOM     16  C   UNL     1     139.478 137.535 140.836  1.00  0.00     0.016 A 
ATOM     17  C   UNL     1     138.538 135.886 142.337  1.00  0.00     0.016 A 
BRANCH  13  18
ATOM     18  O   UNL     1     142.113 135.073 141.639  1.00  0.00    -0.497 OA
ATOM     19  C   UNL     1     143.332 135.698 141.248  1.00  0.00     0.278 C 
ENDBRANCH  13  18
ENDBRANCH   1  12
BRANCH   8  20
ATOM     20  O   UNL     1     133.704 135.374 141.366  1.00  0.00    -0.490 OA
ATOM     21  C   UNL     1     133.938 134.520 140.252  1.00  0.00     0.278 C 
ENDBRANCH   8  20
BRANCH  11  22
ATOM     22  O   UNL     1     133.233 141.016 141.370  1.00  0.00    -0.492 OA
ATOM     23  C   UNL     1     132.748 141.863 140.332  1.00  0.00     0.278 C 
ENDBRANCH  11  22
BRANCH   9  24
ATOM     24  O   UNL     1     131.136 136.578 141.316  1.00  0.00    -0.490 OA
ATOM     25  C   UNL     1     130.428 136.089 140.182  1.00  0.00     0.279 C 
ENDBRANCH   9  24
BRANCH  10  26
ATOM     26  O   UNL     1     130.902 139.401 141.313  1.00  0.00    -0.490 OA
ATOM     27  C   UNL     1     130.089 139.794 142.415  1.00  0.00     0.278 C 
ENDBRANCH  10  26
TORSDOF 6
ENDMDL
MODEL 6
REMARK VINA RESULT:    -5.694      3.826      7.101
REMARK INTER + INTRA:          -8.336
REMARK INTER:                  -7.670
REMARK INTRA:                  -0.665
REMARK UNBOUND:                -0.645
REMARK SMILES COc1ccc(-c2cc(=O)c3c(OC)c(OC)c(OC)c(OC)c3o2)cc1
REMARK SMILES IDX 7 1 8 2 9 3 10 4 11 5 24 6 25 7 21 8 18 9 15 10 12 11 6 12
REMARK SMILES IDX 3 13 4 14 27 15 5 16 26 17 2 18 1 19 22 20 23 21 13 22 14 23
REMARK SMILES IDX 19 24 20 25 16 26 17 27
REMARK H PARENT
REMARK Flexibility Score: inf
ROOT
ATOM      1  C   UNL     1     132.705 138.575 142.162  1.00  0.00     0.138 A 
ATOM      2  C   UNL     1     131.751 139.260 141.405  1.00  0.00     0.100 A 
ATOM      3  C   UNL     1     132.115 140.433 140.752  1.00  0.00     0.197 A 
ATOM      4  O   UNL     1     131.238 141.038 140.078  1.00  0.00    -0.289 OA
ATOM      5  C   UNL     1     133.442 140.919 140.857  1.00  0.00     0.115 A 
ATOM      6  C   UNL     1     134.350 140.177 141.648  1.00  0.00     0.188 A 
ATOM      7  O   UNL     1     133.938 139.063 142.253  1.00  0.00    -0.452 OA
ATOM      8  C   UNL     1     135.692 140.600 141.788  1.00  0.00     0.209 A 
ATOM      9  C   UNL     1     136.129 141.774 141.124  1.00  0.00     0.211 A 
ATOM     10  C   UNL     1     135.218 142.526 140.335  1.00  0.00     0.208 A 
ATOM     11  C   UNL     1     133.870 142.099 140.205  1.00  0.00     0.179 A 
ENDROOT
BRANCH   1  12
ATOM     12  C   UNL     1     132.372 137.317 142.872  1.00  0.00     0.018 A 
ATOM     13  C   UNL     1     131.748 134.944 144.272  1.00  0.00     0.118 A 
ATOM     14  C   UNL     1     131.493 136.194 144.844  1.00  0.00     0.047 A 
ATOM     15  C   UNL     1     132.328 134.884 142.991  1.00  0.00     0.047 A 
ATOM     16  C   UNL     1     131.804 137.369 144.154  1.00  0.00     0.016 A 
ATOM     17  C   UNL     1     132.638 136.059 142.299  1.00  0.00     0.016 A 
BRANCH  13  18
ATOM     18  O   UNL     1     131.416 133.795 145.003  1.00  0.00    -0.497 OA
ATOM     19  C   UNL     1     130.683 133.803 146.225  1.00  0.00     0.278 C 
ENDBRANCH  13  18
ENDBRANCH   1  12
BRANCH   8  20
ATOM     20  O   UNL     1     136.627 139.880 142.557  1.00  0.00    -0.490 OA
ATOM     21  C   UNL     1     136.950 140.068 143.930  1.00  0.00     0.278 C 
ENDBRANCH   8  20
BRANCH  11  22
ATOM     22  O   UNL     1     132.916 142.809 139.442  1.00  0.00    -0.492 OA
ATOM     23  C   UNL     1     132.897 143.013 138.032  1.00  0.00     0.278 C 
ENDBRANCH  11  22
BRANCH   9  24
ATOM     24  O   UNL     1     137.459 142.235 141.211  1.00  0.00    -0.490 OA
ATOM     25  C   UNL     1     138.009 143.159 142.143  1.00  0.00     0.279 C 
ENDBRANCH   9  24
BRANCH  10  26
ATOM     26  O   UNL     1     135.599 143.701 139.657  1.00  0.00    -0.490 OA
ATOM     27  C   UNL     1     135.487 145.051 140.099  1.00  0.00     0.278 C 
ENDBRANCH  10  26
TORSDOF 6
ENDMDL
MODEL 7
REMARK VINA RESULT:    -5.523      4.823      6.039
REMARK INTER + INTRA:          -8.104
REMARK INTER:                  -7.516
REMARK INTRA:                  -0.588
REMARK UNBOUND:                -0.645
REMARK SMILES COc1ccc(-c2cc(=O)c3c(OC)c(OC)c(OC)c(OC)c3o2)cc1
REMARK SMILES IDX 7 1 8 2 9 3 10 4 11 5 24 6 25 7 21 8 18 9 15 10 12 11 6 12
REMARK SMILES IDX 3 13 4 14 27 15 5 16 26 17 2 18 1 19 22 20 23 21 13 22 14 23
REMARK SMILES IDX 19 24 20 25 16 26 17 27
REMARK H PARENT
REMARK Flexibility Score: inf
ROOT
ATOM      1  C   UNL     1     139.841 141.033 140.126  1.00  0.00     0.138 A 
ATOM      2  C   UNL     1     139.365 140.117 139.184  1.00  0.00     0.100 A 
ATOM      3  C   UNL     1     138.014 140.118 138.857  1.00  0.00     0.197 A 
ATOM      4  O   UNL     1     137.604 139.280 138.008  1.00  0.00    -0.289 OA
ATOM      5  C   UNL     1     137.136 141.044 139.475  1.00  0.00     0.115 A 
ATOM      6  C   UNL     1     137.688 141.934 140.425  1.00  0.00     0.188 A 
ATOM      7  O   UNL     1     138.991 141.880 140.699  1.00  0.00    -0.452 OA
ATOM      8  C   UNL     1     136.871 142.890 141.072  1.00  0.00     0.209 A 
ATOM      9  C   UNL     1     135.490 142.957 140.760  1.00  0.00     0.211 A 
ATOM     10  C   UNL     1     134.930 142.059 139.812  1.00  0.00     0.208 A 
ATOM     11  C   UNL     1     135.755 141.097 139.172  1.00  0.00     0.179 A 
ENDROOT
BRANCH   1  12
ATOM     12  C   UNL     1     141.273 141.079 140.506  1.00  0.00     0.018 A 
ATOM     13  C   UNL     1     144.013 141.190 141.182  1.00  0.00     0.118 A 
ATOM     14  C   UNL     1     143.437 142.186 140.387  1.00  0.00     0.047 A 
ATOM     15  C   UNL     1     143.210 140.127 141.635  1.00  0.00     0.047 A 
ATOM     16  C   UNL     1     142.083 142.131 140.049  1.00  0.00     0.016 A 
ATOM     17  C   UNL     1     141.854 140.072 141.299  1.00  0.00     0.016 A 
BRANCH  13  18
ATOM     18  O   UNL     1     145.376 141.292 141.496  1.00  0.00    -0.497 OA
ATOM     19  C   UNL     1     146.021 142.497 141.898  1.00  0.00     0.278 C 
ENDBRANCH  13  18
ENDBRANCH   1  12
BRANCH   8  20
ATOM     20  O   UNL     1     137.389 143.801 142.013  1.00  0.00    -0.490 OA
ATOM     21  C   UNL     1     137.479 143.634 143.424  1.00  0.00     0.278 C 
ENDBRANCH   8  20
BRANCH  11  22
ATOM     22  O   UNL     1     135.256 140.172 138.227  1.00  0.00    -0.492 OA
ATOM     23  C   UNL     1     134.382 139.070 138.457  1.00  0.00     0.278 C 
ENDBRANCH  11  22
BRANCH   9  24
ATOM     24  O   UNL     1     134.630 143.901 141.358  1.00  0.00    -0.490 OA
ATOM     25  C   UNL     1     134.153 145.125 140.810  1.00  0.00     0.279 C 
ENDBRANCH   9  24
BRANCH  10  26
ATOM     26  O   UNL     1     133.564 142.081 139.467  1.00  0.00    -0.490 OA
ATOM     27  C   UNL     1     132.953 142.668 138.321  1.00  0.00     0.278 C 
ENDBRANCH  10  26
TORSDOF 6
ENDMDL
MODEL 8
REMARK VINA RESULT:    -5.511      2.736      7.754
REMARK INTER + INTRA:          -8.089
REMARK INTER:                  -7.395
REMARK INTRA:                  -0.693
REMARK UNBOUND:                -0.645
REMARK SMILES COc1ccc(-c2cc(=O)c3c(OC)c(OC)c(OC)c(OC)c3o2)cc1
REMARK SMILES IDX 7 1 8 2 9 3 10 4 11 5 24 6 25 7 21 8 18 9 15 10 12 11 6 12
REMARK SMILES IDX 3 13 4 14 27 15 5 16 26 17 2 18 1 19 22 20 23 21 13 22 14 23
REMARK SMILES IDX 19 24 20 25 16 26 17 27
REMARK H PARENT
REMARK Flexibility Score: inf
ROOT
ATOM      1  C   UNL     1     135.282 137.972 142.463  1.00  0.00     0.138 A 
ATOM      2  C   UNL     1     134.825 139.215 142.017  1.00  0.00     0.100 A 
ATOM      3  C   UNL     1     135.749 140.203 141.695  1.00  0.00     0.197 A 
ATOM      4  O   UNL     1     135.316 141.319 141.298  1.00  0.00    -0.289 OA
ATOM      5  C   UNL     1     137.137 139.943 141.817  1.00  0.00     0.115 A 
ATOM      6  C   UNL     1     137.524 138.664 142.284  1.00  0.00     0.188 A 
ATOM      7  O   UNL     1     136.589 137.762 142.581  1.00  0.00    -0.452 OA
ATOM      8  C   UNL     1     138.892 138.334 142.420  1.00  0.00     0.209 A 
ATOM      9  C   UNL     1     139.881 139.291 142.081  1.00  0.00     0.211 A 
ATOM     10  C   UNL     1     139.496 140.579 141.619  1.00  0.00     0.208 A 
ATOM     11  C   UNL     1     138.120 140.906 141.492  1.00  0.00     0.179 A 
ENDROOT
BRANCH   1  12
ATOM     12  C   UNL     1     134.341 136.882 142.814  1.00  0.00     0.018 A 
ATOM     13  C   UNL     1     132.551 134.819 143.535  1.00  0.00     0.118 A 
ATOM     14  C   UNL     1     132.597 136.007 144.270  1.00  0.00     0.047 A 
ATOM     15  C   UNL     1     133.414 134.661 142.435  1.00  0.00     0.047 A 
ATOM     16  C   UNL     1     133.484 137.028 143.917  1.00  0.00     0.016 A 
ATOM     17  C   UNL     1     134.301 135.682 142.079  1.00  0.00     0.016 A 
BRANCH  13  18
ATOM     18  O   UNL     1     131.642 133.826 143.928  1.00  0.00    -0.497 OA
ATOM     19  C   UNL     1     131.204 133.622 145.268  1.00  0.00     0.278 C 
ENDBRANCH  13  18
ENDBRANCH   1  12
BRANCH   8  20
ATOM     20  O   UNL     1     139.314 137.067 142.869  1.00  0.00    -0.490 OA
ATOM     21  C   UNL     1     139.537 135.899 142.087  1.00  0.00     0.278 C 
ENDBRANCH   8  20
BRANCH  11  22
ATOM     22  O   UNL     1     137.675 142.171 141.047  1.00  0.00    -0.492 OA
ATOM     23  C   UNL     1     137.808 143.428 141.704  1.00  0.00     0.278 C 
ENDBRANCH  11  22
BRANCH   9  24
ATOM     24  O   UNL     1     141.259 139.013 142.178  1.00  0.00    -0.490 OA
ATOM     25  C   UNL     1     142.121 138.484 141.175  1.00  0.00     0.279 C 
ENDBRANCH   9  24
BRANCH  10  26
ATOM     26  O   UNL     1     140.438 141.568 141.271  1.00  0.00    -0.490 OA
ATOM     27  C   UNL     1     141.001 141.837 139.990  1.00  0.00     0.278 C 
ENDBRANCH  10  26
TORSDOF 6
ENDMDL
MODEL 9
REMARK VINA RESULT:    -5.442      2.421      7.462
REMARK INTER + INTRA:          -7.996
REMARK INTER:                  -7.328
REMARK INTRA:                  -0.668
REMARK UNBOUND:                -0.645
REMARK SMILES COc1ccc(-c2cc(=O)c3c(OC)c(OC)c(OC)c(OC)c3o2)cc1
REMARK SMILES IDX 7 1 8 2 9 3 10 4 11 5 24 6 25 7 21 8 18 9 15 10 12 11 6 12
REMARK SMILES IDX 3 13 4 14 27 15 5 16 26 17 2 18 1 19 22 20 23 21 13 22 14 23
REMARK SMILES IDX 19 24 20 25 16 26 17 27
REMARK H PARENT
REMARK Flexibility Score: inf
ROOT
ATOM      1  C   UNL     1     133.439 137.181 141.271  1.00  0.00     0.138 A 
ATOM      2  C   UNL     1     134.077 135.953 141.462  1.00  0.00     0.100 A 
ATOM      3  C   UNL     1     135.384 135.933 141.938  1.00  0.00     0.197 A 
ATOM      4  O   UNL     1     135.943 134.814 142.100  1.00  0.00    -0.289 OA
ATOM      5  C   UNL     1     136.051 137.150 142.227  1.00  0.00     0.115 A 
ATOM      6  C   UNL     1     135.344 138.353 141.999  1.00  0.00     0.188 A 
ATOM      7  O   UNL     1     134.095 138.305 141.536  1.00  0.00    -0.452 OA
ATOM      8  C   UNL     1     135.946 139.603 142.274  1.00  0.00     0.209 A 
ATOM      9  C   UNL     1     137.267 139.646 142.787  1.00  0.00     0.211 A 
ATOM     10  C   UNL     1     137.984 138.439 143.009  1.00  0.00     0.208 A 
ATOM     11  C   UNL     1     137.375 137.188 142.724  1.00  0.00     0.179 A 
ENDROOT
BRANCH   1  12
ATOM     12  C   UNL     1     132.045 137.258 140.772  1.00  0.00     0.018 A 
ATOM     13  C   UNL     1     129.378 137.443 139.860  1.00  0.00     0.118 A 
ATOM     14  C   UNL     1     130.020 138.558 140.405  1.00  0.00     0.047 A 
ATOM     15  C   UNL     1     130.076 136.224 139.777  1.00  0.00     0.047 A 
ATOM     16  C   UNL     1     131.338 138.468 140.860  1.00  0.00     0.016 A 
ATOM     17  C   UNL     1     131.396 136.133 140.230  1.00  0.00     0.016 A 
BRANCH  13  18
ATOM     18  O   UNL     1     128.055 137.585 139.415  1.00  0.00    -0.497 OA
ATOM     19  C   UNL     1     127.364 136.621 138.626  1.00  0.00     0.278 C 
ENDBRANCH  13  18
ENDBRANCH   1  12
BRANCH   8  20
ATOM     20  O   UNL     1     135.268 140.820 142.072  1.00  0.00    -0.490 OA
ATOM     21  C   UNL     1     135.194 141.584 140.873  1.00  0.00     0.278 C 
ENDBRANCH   8  20
BRANCH  11  22
ATOM     22  O   UNL     1     138.038 135.956 142.916  1.00  0.00    -0.492 OA
ATOM     23  C   UNL     1     139.201 135.473 142.249  1.00  0.00     0.278 C 
ENDBRANCH  11  22
BRANCH   9  24
ATOM     24  O   UNL     1     137.913 140.860 143.098  1.00  0.00    -0.490 OA
ATOM     25  C   UNL     1     138.691 141.685 142.239  1.00  0.00     0.279 C 
ENDBRANCH   9  24
BRANCH  10  26
ATOM     26  O   UNL     1     139.299 138.425 143.515  1.00  0.00    -0.490 OA
ATOM     27  C   UNL     1     139.725 138.213 144.858  1.00  0.00     0.278 C 
ENDBRANCH  10  26
TORSDOF 6
ENDMDL
