MODEL 1
REMARK VINA RESULT:    -6.888      0.000      0.000
REMARK INTER + INTRA:          -7.238
REMARK INTER:                  -7.492
REMARK INTRA:                   0.253
REMARK UNBOUND:                 0.253
REMARK SMILES C[C@@H]1[C@H](C)CC[C@]2(C(=O)[O-])CC[C@@]3(C)C(=CC[C@@H]4[C@]5(C)CC[C@H](O)C(C)(C)[C@H]5CC[C@@]43C)[C@@H]12
REMARK SMILES IDX 7 1 6 2 11 3 33 4 5 5 12 6 15 7 2 8 3 9 13 10 16 11 1 12
REMARK SMILES IDX 4 13 14 14 31 15 17 16 18 17 30 18 32 19 19 20 29 21 28 22
REMARK SMILES IDX 21 23 20 24 25 25 22 26 23 27 26 28 27 29 8 30 9 31 10 32
REMARK SMILES IDX 24 33
REMARK H PARENT 24 34
REMARK Flexibility Score: inf
ROOT
ATOM      1  C   UNL     1       1.989   8.602 -24.727  1.00  0.00     0.017 C 
ATOM      2  C   UNL     1       1.606   9.696 -23.696  1.00  0.00     0.014 C 
ATOM      3  C   UNL     1       0.986   7.426 -24.712  1.00  0.00     0.014 C 
ATOM      4  C   UNL     1       3.349   7.984 -24.226  1.00  0.00     0.030 C 
ATOM      5  C   UNL     1       2.700  10.790 -23.598  1.00  0.00     0.004 C 
ATOM      6  C   UNL     1       1.373   6.307 -25.727  1.00  0.00     0.013 C 
ATOM      7  C   UNL     1       3.618   6.515 -24.664  1.00  0.00    -0.063 C 
ATOM      8  C   UNL     1       4.511   9.010 -24.242  1.00  0.00    -0.003 C 
ATOM      9  C   UNL     1       4.144  10.252 -23.345  1.00  0.00    -0.011 C 
ATOM     10  C   UNL     1       2.915   5.944 -25.897  1.00  0.00    -0.006 C 
ATOM     11  C   UNL     1       4.100   5.698 -23.713  1.00  0.00    -0.027 C 
ATOM     12  C   UNL     1       5.875   8.402 -23.866  1.00  0.00     0.008 C 
ATOM     13  C   UNL     1       4.357  10.019 -21.833  1.00  0.00     0.008 C 
ATOM     14  C   UNL     1       3.529   6.690 -27.125  1.00  0.00     0.017 C 
ATOM     15  C   UNL     1       3.116   4.338 -26.133  1.00  0.00    -0.020 C 
ATOM     16  C   UNL     1       4.052   4.213 -23.732  1.00  0.00     0.032 C 
ATOM     17  C   UNL     1       3.074   3.558 -24.752  1.00  0.00     0.006 C 
ATOM     18  C   UNL     1       4.487   3.980 -26.809  1.00  0.00     0.008 C 
ATOM     19  C   UNL     1       1.987   3.873 -27.125  1.00  0.00     0.012 C 
ATOM     20  C   UNL     1       3.336   1.971 -24.853  1.00  0.00    -0.025 C 
ATOM     21  C   UNL     1       4.775   2.467 -26.956  1.00  0.00     0.005 C 
ATOM     22  C   UNL     1       4.696   1.710 -25.613  1.00  0.00     0.003 C 
ATOM     23  C   UNL     1       3.467   1.326 -23.430  1.00  0.00     0.010 C 
ATOM     24  C   UNL     1       2.100   1.301 -25.535  1.00  0.00     0.012 C 
ATOM     25  C   UNL     1       5.189   0.205 -25.657  1.00  0.00    -0.006 C 
ATOM     26  C   UNL     1       3.896  -0.155 -23.444  1.00  0.00     0.033 C 
ATOM     27  C   UNL     1       5.217  -0.370 -24.200  1.00  0.00     0.120 C 
ATOM     28  C   UNL     1       4.328  -0.712 -26.566  1.00  0.00     0.014 C 
ATOM     29  C   UNL     1       6.635   0.135 -26.226  1.00  0.00     0.014 C 
ENDROOT
BRANCH   1  30
ATOM     30  C   UNL     1       1.918   9.287 -26.106  1.00  0.00     0.048 C 
ATOM     31  O   UNL     1       0.804   9.650 -26.573  1.00  0.00    -0.550 OA
ATOM     32  O   UNL     1       3.057   9.645 -26.816  1.00  0.00    -0.550 OA
ENDBRANCH   1  30
BRANCH  27  33
ATOM     33  O   UNL     1       6.251   0.227 -23.449  1.00  0.00    -0.393 OA
ATOM     34  H   UNL     1       5.829   0.725 -22.702  1.00  0.00     0.210 HD
ENDBRANCH  27  33
TORSDOF 2
ENDMDL
MODEL 2
REMARK VINA RESULT:    -6.270      2.125      4.182
REMARK INTER + INTRA:          -6.567
REMARK INTER:                  -6.932
REMARK INTRA:                   0.365
REMARK UNBOUND:                 0.253
REMARK SMILES C[C@@H]1[C@H](C)CC[C@]2(C(=O)[O-])CC[C@@]3(C)C(=CC[C@@H]4[C@]5(C)CC[C@H](O)C(C)(C)[C@H]5CC[C@@]43C)[C@@H]12
REMARK SMILES IDX 7 1 6 2 11 3 33 4 5 5 12 6 15 7 2 8 3 9 13 10 16 11 1 12
REMARK SMILES IDX 4 13 14 14 31 15 17 16 18 17 30 18 32 19 19 20 29 21 28 22
REMARK SMILES IDX 21 23 20 24 25 25 22 26 23 27 26 28 27 29 8 30 9 31 10 32
REMARK SMILES IDX 24 33
REMARK H PARENT 24 34
REMARK Flexibility Score: inf
ROOT
ATOM      1  C   UNL     1       4.201   8.671 -24.193  1.00  0.00     0.017 C 
ATOM      2  C   UNL     1       3.948   9.651 -25.371  1.00  0.00     0.014 C 
ATOM      3  C   UNL     1       5.551   7.935 -24.343  1.00  0.00     0.014 C 
ATOM      4  C   UNL     1       3.107   7.546 -24.317  1.00  0.00     0.030 C 
ATOM      5  C   UNL     1       2.525  10.262 -25.303  1.00  0.00     0.004 C 
ATOM      6  C   UNL     1       5.807   6.929 -23.178  1.00  0.00     0.013 C 
ATOM      7  C   UNL     1       3.495   6.166 -23.711  1.00  0.00    -0.063 C 
ATOM      8  C   UNL     1       1.668   8.088 -24.118  1.00  0.00    -0.003 C 
ATOM      9  C   UNL     1       1.370   9.220 -25.173  1.00  0.00    -0.011 C 
ATOM     10  C   UNL     1       4.574   6.082 -22.630  1.00  0.00    -0.006 C 
ATOM     11  C   UNL     1       3.189   5.090 -24.456  1.00  0.00    -0.027 C 
ATOM     12  C   UNL     1       0.589   6.990 -24.120  1.00  0.00     0.008 C 
ATOM     13  C   UNL     1       0.986   8.688 -26.572  1.00  0.00     0.008 C 
ATOM     14  C   UNL     1       3.961   6.753 -21.359  1.00  0.00     0.017 C 
ATOM     15  C   UNL     1       5.039   4.567 -22.224  1.00  0.00    -0.020 C 
ATOM     16  C   UNL     1       3.795   3.740 -24.328  1.00  0.00     0.032 C 
ATOM     17  C   UNL     1       5.117   3.641 -23.510  1.00  0.00     0.006 C 
ATOM     18  C   UNL     1       4.052   3.865 -21.225  1.00  0.00     0.008 C 
ATOM     19  C   UNL     1       6.421   4.691 -21.484  1.00  0.00     0.012 C 
ATOM     20  C   UNL     1       5.494   2.101 -23.223  1.00  0.00    -0.025 C 
ATOM     21  C   UNL     1       4.387   2.392 -20.893  1.00  0.00     0.005 C 
ATOM     22  C   UNL     1       4.496   1.505 -22.152  1.00  0.00     0.003 C 
ATOM     23  C   UNL     1       5.357   1.231 -24.521  1.00  0.00     0.010 C 
ATOM     24  C   UNL     1       6.994   2.023 -22.791  1.00  0.00     0.012 C 
ATOM     25  C   UNL     1       4.623  -0.049 -21.874  1.00  0.00    -0.006 C 
ATOM     26  C   UNL     1       5.526  -0.284 -24.288  1.00  0.00     0.033 C 
ATOM     27  C   UNL     1       4.546  -0.823 -23.234  1.00  0.00     0.120 C 
ATOM     28  C   UNL     1       5.916  -0.449 -21.116  1.00  0.00     0.014 C 
ATOM     29  C   UNL     1       3.441  -0.529 -20.985  1.00  0.00     0.014 C 
ENDROOT
BRANCH   1  30
ATOM     30  C   UNL     1       4.261   9.550 -22.929  1.00  0.00     0.048 C 
ATOM     31  O   UNL     1       5.368  10.000 -22.525  1.00  0.00    -0.550 OA
ATOM     32  O   UNL     1       3.116   9.982 -22.270  1.00  0.00    -0.550 OA
ENDBRANCH   1  30
BRANCH  27  33
ATOM     33  O   UNL     1       3.245  -0.754 -23.773  1.00  0.00    -0.393 OA
ATOM     34  H   UNL     1       3.026   0.205 -23.904  1.00  0.00     0.210 HD
ENDBRANCH  27  33
TORSDOF 2
ENDMDL
MODEL 3
REMARK VINA RESULT:    -6.031      1.718      7.856
REMARK INTER + INTRA:          -6.307
REMARK INTER:                  -6.695
REMARK INTRA:                   0.388
REMARK UNBOUND:                 0.253
REMARK SMILES C[C@@H]1[C@H](C)CC[C@]2(C(=O)[O-])CC[C@@]3(C)C(=CC[C@@H]4[C@]5(C)CC[C@H](O)C(C)(C)[C@H]5CC[C@@]43C)[C@@H]12
REMARK SMILES IDX 7 1 6 2 11 3 33 4 5 5 12 6 15 7 2 8 3 9 13 10 16 11 1 12
REMARK SMILES IDX 4 13 14 14 31 15 17 16 18 17 30 18 32 19 19 20 29 21 28 22
REMARK SMILES IDX 21 23 20 24 25 25 22 26 23 27 26 28 27 29 8 30 9 31 10 32
REMARK SMILES IDX 24 33
REMARK H PARENT 24 34
REMARK Flexibility Score: inf
ROOT
ATOM      1  C   UNL     1       4.524   0.724 -25.046  1.00  0.00     0.017 C 
ATOM      2  C   UNL     1       5.662  -0.283 -24.732  1.00  0.00     0.014 C 
ATOM      3  C   UNL     1       4.884   1.642 -26.235  1.00  0.00     0.014 C 
ATOM      4  C   UNL     1       4.434   1.685 -23.801  1.00  0.00     0.030 C 
ATOM      5  C   UNL     1       5.368  -1.088 -23.440  1.00  0.00     0.004 C 
ATOM      6  C   UNL     1       3.758   2.676 -26.545  1.00  0.00     0.013 C 
ATOM      7  C   UNL     1       3.872   3.107 -24.093  1.00  0.00    -0.063 C 
ATOM      8  C   UNL     1       4.005   0.946 -22.507  1.00  0.00    -0.003 C 
ATOM      9  C   UNL     1       5.020  -0.218 -22.192  1.00  0.00    -0.011 C 
ATOM     10  C   UNL     1       2.989   3.342 -25.319  1.00  0.00    -0.006 C 
ATOM     11  C   UNL     1       4.531   4.128 -23.519  1.00  0.00    -0.027 C 
ATOM     12  C   UNL     1       3.800   1.883 -21.302  1.00  0.00     0.008 C 
ATOM     13  C   UNL     1       6.321   0.253 -21.504  1.00  0.00     0.008 C 
ATOM     14  C   UNL     1       1.647   2.595 -25.032  1.00  0.00     0.017 C 
ATOM     15  C   UNL     1       2.635   4.908 -25.633  1.00  0.00    -0.020 C 
ATOM     16  C   UNL     1       4.477   5.550 -23.945  1.00  0.00     0.032 C 
ATOM     17  C   UNL     1       3.894   5.835 -25.360  1.00  0.00     0.006 C 
ATOM     18  C   UNL     1       1.467   5.467 -24.745  1.00  0.00     0.008 C 
ATOM     19  C   UNL     1       2.143   4.980 -27.125  1.00  0.00     0.012 C 
ATOM     20  C   UNL     1       3.641   7.413 -25.565  1.00  0.00    -0.025 C 
ATOM     21  C   UNL     1       1.164   6.974 -24.924  1.00  0.00     0.005 C 
ATOM     22  C   UNL     1       2.403   7.865 -24.692  1.00  0.00     0.003 C 
ATOM     23  C   UNL     1       4.877   8.252 -25.088  1.00  0.00     0.010 C 
ATOM     24  C   UNL     1       3.468   7.700 -27.091  1.00  0.00     0.012 C 
ATOM     25  C   UNL     1       2.116   9.422 -24.649  1.00  0.00    -0.006 C 
ATOM     26  C   UNL     1       4.642   9.777 -25.084  1.00  0.00     0.033 C 
ATOM     27  C   UNL     1       3.425  10.175 -24.233  1.00  0.00     0.120 C 
ATOM     28  C   UNL     1       1.580  10.000 -25.985  1.00  0.00     0.014 C 
ATOM     29  C   UNL     1       1.028   9.732 -23.582  1.00  0.00     0.014 C 
ENDROOT
BRANCH   1  30
ATOM     30  C   UNL     1       3.307  -0.136 -25.443  1.00  0.00     0.048 C 
ATOM     31  O   UNL     1       3.097  -0.410 -26.655  1.00  0.00    -0.550 OA
ATOM     32  O   UNL     1       2.486  -0.739 -24.499  1.00  0.00    -0.550 OA
ENDBRANCH   1  30
BRANCH  27  33
ATOM     33  O   UNL     1       3.737   9.923 -22.882  1.00  0.00    -0.393 OA
ATOM     34  H   UNL     1       4.476  10.533 -22.625  1.00  0.00     0.210 HD
ENDBRANCH  27  33
TORSDOF 2
ENDMDL
MODEL 4
REMARK VINA RESULT:    -5.773      2.033      3.215
REMARK INTER + INTRA:          -6.026
REMARK INTER:                  -6.337
REMARK INTRA:                   0.311
REMARK UNBOUND:                 0.253
REMARK SMILES C[C@@H]1[C@H](C)CC[C@]2(C(=O)[O-])CC[C@@]3(C)C(=CC[C@@H]4[C@]5(C)CC[C@H](O)C(C)(C)[C@H]5CC[C@@]43C)[C@@H]12
REMARK SMILES IDX 7 1 6 2 11 3 33 4 5 5 12 6 15 7 2 8 3 9 13 10 16 11 1 12
REMARK SMILES IDX 4 13 14 14 31 15 17 16 18 17 30 18 32 19 19 20 29 21 28 22
REMARK SMILES IDX 21 23 20 24 25 25 22 26 23 27 26 28 27 29 8 30 9 31 10 32
REMARK SMILES IDX 24 33
REMARK H PARENT 24 34
REMARK Flexibility Score: inf
ROOT
ATOM      1  C   UNL     1       2.837   5.742 -24.595  1.00  0.00     0.017 C 
ATOM      2  C   UNL     1       2.283   6.916 -23.746  1.00  0.00     0.014 C 
ATOM      3  C   UNL     1       1.750   4.682 -24.884  1.00  0.00     0.014 C 
ATOM      4  C   UNL     1       3.893   5.005 -23.688  1.00  0.00     0.030 C 
ATOM      5  C   UNL     1       3.411   7.889 -23.320  1.00  0.00     0.004 C 
ATOM      6  C   UNL     1       2.300   3.484 -25.718  1.00  0.00     0.013 C 
ATOM      7  C   UNL     1       4.113   3.497 -24.007  1.00  0.00    -0.063 C 
ATOM      8  C   UNL     1       5.114   5.898 -23.348  1.00  0.00    -0.003 C 
ATOM      9  C   UNL     1       4.633   7.212 -22.623  1.00  0.00    -0.011 C 
ATOM     10  C   UNL     1       3.766   2.951 -25.393  1.00  0.00    -0.006 C 
ATOM     11  C   UNL     1       4.178   2.676 -22.945  1.00  0.00    -0.027 C 
ATOM     12  C   UNL     1       6.213   5.165 -22.558  1.00  0.00     0.008 C 
ATOM     13  C   UNL     1       4.338   7.025 -21.118  1.00  0.00     0.008 C 
ATOM     14  C   UNL     1       4.813   3.571 -26.373  1.00  0.00     0.017 C 
ATOM     15  C   UNL     1       3.843   1.323 -25.539  1.00  0.00    -0.020 C 
ATOM     16  C   UNL     1       3.966   1.206 -22.965  1.00  0.00     0.032 C 
ATOM     17  C   UNL     1       3.284   0.615 -24.234  1.00  0.00     0.006 C 
ATOM     18  C   UNL     1       5.304   0.790 -25.748  1.00  0.00     0.008 C 
ATOM     19  C   UNL     1       3.032   0.938 -26.831  1.00  0.00     0.012 C 
ATOM     20  C   UNL     1       3.379  -0.994 -24.234  1.00  0.00    -0.025 C 
ATOM     21  C   UNL     1       5.446  -0.750 -25.784  1.00  0.00     0.005 C 
ATOM     22  C   UNL     1       4.868  -1.434 -24.527  1.00  0.00     0.003 C 
ATOM     23  C   UNL     1       2.986  -1.585 -22.835  1.00  0.00     0.010 C 
ATOM     24  C   UNL     1       2.346  -1.558 -25.263  1.00  0.00     0.012 C 
ATOM     25  C   UNL     1       5.172  -2.983 -24.401  1.00  0.00    -0.006 C 
ATOM     26  C   UNL     1       3.224  -3.103 -22.702  1.00  0.00     0.033 C 
ATOM     27  C   UNL     1       4.680  -3.492 -23.003  1.00  0.00     0.120 C 
ATOM     28  C   UNL     1       4.536  -3.842 -25.526  1.00  0.00     0.014 C 
ATOM     29  C   UNL     1       6.705  -3.233 -24.487  1.00  0.00     0.014 C 
ENDROOT
BRANCH   1  30
ATOM     30  C   UNL     1       3.277   6.369 -25.933  1.00  0.00     0.048 C 
ATOM     31  O   UNL     1       2.446   6.496 -26.873  1.00  0.00    -0.550 OA
ATOM     32  O   UNL     1       4.537   6.925 -26.112  1.00  0.00    -0.550 OA
ENDBRANCH   1  30
BRANCH  27  33
ATOM     33  O   UNL     1       5.492  -2.976 -21.972  1.00  0.00    -0.393 OA
ATOM     34  H   UNL     1       4.947  -2.956 -21.143  1.00  0.00     0.210 HD
ENDBRANCH  27  33
TORSDOF 2
ENDMDL
MODEL 5
REMARK VINA RESULT:    -5.664      1.855      8.444
REMARK INTER + INTRA:          -5.908
REMARK INTER:                  -6.145
REMARK INTRA:                   0.237
REMARK UNBOUND:                 0.253
REMARK SMILES C[C@@H]1[C@H](C)CC[C@]2(C(=O)[O-])CC[C@@]3(C)C(=CC[C@@H]4[C@]5(C)CC[C@H](O)C(C)(C)[C@H]5CC[C@@]43C)[C@@H]12
REMARK SMILES IDX 7 1 6 2 11 3 33 4 5 5 12 6 15 7 2 8 3 9 13 10 16 11 1 12
REMARK SMILES IDX 4 13 14 14 31 15 17 16 18 17 30 18 32 19 19 20 29 21 28 22
REMARK SMILES IDX 21 23 20 24 25 25 22 26 23 27 26 28 27 29 8 30 9 31 10 32
REMARK SMILES IDX 24 33
REMARK H PARENT 24 34
REMARK Flexibility Score: inf
ROOT
ATOM      1  C   UNL     1       3.486  -1.091 -23.649  1.00  0.00     0.017 C 
ATOM      2  C   UNL     1       2.554  -2.249 -23.203  1.00  0.00     0.014 C 
ATOM      3  C   UNL     1       3.743  -0.089 -22.500  1.00  0.00     0.014 C 
ATOM      4  C   UNL     1       2.683  -0.273 -24.730  1.00  0.00     0.030 C 
ATOM      5  C   UNL     1       2.167  -3.156 -24.398  1.00  0.00     0.004 C 
ATOM      6  C   UNL     1       4.659   1.093 -22.942  1.00  0.00     0.013 C 
ATOM      7  C   UNL     1       3.077   1.227 -24.863  1.00  0.00    -0.063 C 
ATOM      8  C   UNL     1       2.392  -1.102 -26.008  1.00  0.00    -0.003 C 
ATOM      9  C   UNL     1       1.583  -2.401 -25.633  1.00  0.00    -0.011 C 
ATOM     10  C   UNL     1       4.457   1.698 -24.402  1.00  0.00    -0.006 C 
ATOM     11  C   UNL     1       2.056   2.095 -24.963  1.00  0.00    -0.027 C 
ATOM     12  C   UNL     1       1.709  -0.291 -27.125  1.00  0.00     0.008 C 
ATOM     13  C   UNL     1       0.070  -2.161 -25.431  1.00  0.00     0.008 C 
ATOM     14  C   UNL     1       5.480   1.079 -25.407  1.00  0.00     0.017 C 
ATOM     15  C   UNL     1       4.674   3.320 -24.398  1.00  0.00    -0.020 C 
ATOM     16  C   UNL     1       2.120   3.553 -24.688  1.00  0.00     0.032 C 
ATOM     17  C   UNL     1       3.363   4.061 -23.898  1.00  0.00     0.006 C 
ATOM     18  C   UNL     1       5.003   3.902 -25.818  1.00  0.00     0.008 C 
ATOM     19  C   UNL     1       5.921   3.616 -23.487  1.00  0.00     0.012 C 
ATOM     20  C   UNL     1       3.434   5.671 -23.923  1.00  0.00    -0.025 C 
ATOM     21  C   UNL     1       5.111   5.443 -25.891  1.00  0.00     0.005 C 
ATOM     22  C   UNL     1       3.845   6.157 -25.369  1.00  0.00     0.003 C 
ATOM     23  C   UNL     1       2.037   6.305 -23.599  1.00  0.00     0.010 C 
ATOM     24  C   UNL     1       4.412   6.148 -22.801  1.00  0.00     0.012 C 
ATOM     25  C   UNL     1       3.804   7.721 -25.614  1.00  0.00    -0.006 C 
ATOM     26  C   UNL     1       1.981   7.836 -23.780  1.00  0.00     0.033 C 
ATOM     27  C   UNL     1       2.397   8.270 -25.195  1.00  0.00     0.120 C 
ATOM     28  C   UNL     1       4.916   8.504 -24.867  1.00  0.00     0.014 C 
ATOM     29  C   UNL     1       4.004   8.029 -27.125  1.00  0.00     0.014 C 
ENDROOT
BRANCH   1  30
ATOM     30  C   UNL     1       4.824  -1.756 -24.025  1.00  0.00     0.048 C 
ATOM     31  O   UNL     1       5.586  -2.196 -23.121  1.00  0.00    -0.550 OA
ATOM     32  O   UNL     1       5.180  -2.013 -25.343  1.00  0.00    -0.550 OA
ENDBRANCH   1  30
BRANCH  27  33
ATOM     33  O   UNL     1       1.404   7.832 -26.094  1.00  0.00    -0.393 OA
ATOM     34  H   UNL     1       1.413   6.840 -26.092  1.00  0.00     0.210 HD
ENDBRANCH  27  33
TORSDOF 2
ENDMDL
MODEL 6
REMARK VINA RESULT:    -5.474      2.119      8.787
REMARK INTER + INTRA:          -5.700
REMARK INTER:                  -7.131
REMARK INTRA:                   1.430
REMARK UNBOUND:                 0.253
REMARK SMILES C[C@@H]1[C@H](C)CC[C@]2(C(=O)[O-])CC[C@@]3(C)C(=CC[C@@H]4[C@]5(C)CC[C@H](O)C(C)(C)[C@H]5CC[C@@]43C)[C@@H]12
REMARK SMILES IDX 7 1 6 2 11 3 33 4 5 5 12 6 15 7 2 8 3 9 13 10 16 11 1 12
REMARK SMILES IDX 4 13 14 14 31 15 17 16 18 17 30 18 32 19 19 20 29 21 28 22
REMARK SMILES IDX 21 23 20 24 25 25 22 26 23 27 26 28 27 29 8 30 9 31 10 32
REMARK SMILES IDX 24 33
REMARK H PARENT 24 34
REMARK Flexibility Score: inf
ROOT
ATOM      1  C   UNL     1       4.362  -1.439 -23.182  1.00  0.00     0.017 C 
ATOM      2  C   UNL     1       3.689  -2.641 -23.897  1.00  0.00     0.014 C 
ATOM      3  C   UNL     1       3.360  -0.666 -22.296  1.00  0.00     0.014 C 
ATOM      4  C   UNL     1       4.769  -0.425 -24.317  1.00  0.00     0.030 C 
ATOM      5  C   UNL     1       4.654  -3.311 -24.909  1.00  0.00     0.004 C 
ATOM      6  C   UNL     1       4.017   0.559 -21.590  1.00  0.00     0.013 C 
ATOM      7  C   UNL     1       4.856   1.066 -23.881  1.00  0.00    -0.063 C 
ATOM      8  C   UNL     1       5.840  -1.004 -25.277  1.00  0.00    -0.003 C 
ATOM      9  C   UNL     1       5.309  -2.334 -25.935  1.00  0.00    -0.011 C 
ATOM     10  C   UNL     1       5.077   1.421 -22.410  1.00  0.00    -0.006 C 
ATOM     11  C   UNL     1       4.308   1.957 -24.725  1.00  0.00    -0.027 C 
ATOM     12  C   UNL     1       6.337   0.008 -26.326  1.00  0.00     0.008 C 
ATOM     13  C   UNL     1       4.351  -2.106 -27.125  1.00  0.00     0.008 C 
ATOM     14  C   UNL     1       6.536   0.974 -22.075  1.00  0.00     0.017 C 
ATOM     15  C   UNL     1       4.942   3.011 -22.049  1.00  0.00    -0.020 C 
ATOM     16  C   UNL     1       3.889   3.340 -24.381  1.00  0.00     0.032 C 
ATOM     17  C   UNL     1       3.755   3.674 -22.865  1.00  0.00     0.006 C 
ATOM     18  C   UNL     1       6.235   3.834 -22.390  1.00  0.00     0.008 C 
ATOM     19  C   UNL     1       4.738   3.115 -20.492  1.00  0.00     0.012 C 
ATOM     20  C   UNL     1       3.574   5.260 -22.645  1.00  0.00    -0.025 C 
ATOM     21  C   UNL     1       6.123   5.361 -22.169  1.00  0.00     0.005 C 
ATOM     22  C   UNL     1       4.944   5.992 -22.939  1.00  0.00     0.003 C 
ATOM     23  C   UNL     1       2.510   5.852 -23.634  1.00  0.00     0.010 C 
ATOM     24  C   UNL     1       3.029   5.509 -21.202  1.00  0.00     0.012 C 
ATOM     25  C   UNL     1       4.901   7.575 -22.929  1.00  0.00    -0.006 C 
ATOM     26  C   UNL     1       2.411   7.392 -23.609  1.00  0.00     0.033 C 
ATOM     27  C   UNL     1       3.764   8.065 -23.889  1.00  0.00     0.120 C 
ATOM     28  C   UNL     1       4.699   8.190 -21.519  1.00  0.00     0.014 C 
ATOM     29  C   UNL     1       6.248   8.146 -23.456  1.00  0.00     0.014 C 
ENDROOT
BRANCH   1  30
ATOM     30  C   UNL     1       5.446  -2.051 -22.273  1.00  0.00     0.048 C 
ATOM     31  O   UNL     1       5.579  -1.644 -21.087  1.00  0.00    -0.550 OA
ATOM     32  O   UNL     1       6.217  -3.139 -22.666  1.00  0.00    -0.550 OA
ENDBRANCH   1  30
BRANCH  27  33
ATOM     33  O   UNL     1       4.106   7.816 -25.233  1.00  0.00    -0.393 OA
ATOM     34  H   UNL     1       5.038   8.126 -25.368  1.00  0.00     0.210 HD
ENDBRANCH  27  33
TORSDOF 2
ENDMDL
MODEL 7
REMARK VINA RESULT:    -5.371      2.104      8.356
REMARK INTER + INTRA:          -5.589
REMARK INTER:                  -5.843
REMARK INTRA:                   0.254
REMARK UNBOUND:                 0.253
REMARK SMILES C[C@@H]1[C@H](C)CC[C@]2(C(=O)[O-])CC[C@@]3(C)C(=CC[C@@H]4[C@]5(C)CC[C@H](O)C(C)(C)[C@H]5CC[C@@]43C)[C@@H]12
REMARK SMILES IDX 7 1 6 2 11 3 33 4 5 5 12 6 15 7 2 8 3 9 13 10 16 11 1 12
REMARK SMILES IDX 4 13 14 14 31 15 17 16 18 17 30 18 32 19 19 20 29 21 28 22
REMARK SMILES IDX 21 23 20 24 25 25 22 26 23 27 26 28 27 29 8 30 9 31 10 32
REMARK SMILES IDX 24 33
REMARK H PARENT 24 34
REMARK Flexibility Score: inf
ROOT
ATOM      1  C   UNL     1       4.633  -1.350 -25.114  1.00  0.00     0.017 C 
ATOM      2  C   UNL     1       5.794  -2.327 -24.790  1.00  0.00     0.014 C 
ATOM      3  C   UNL     1       5.011  -0.369 -26.246  1.00  0.00     0.014 C 
ATOM      4  C   UNL     1       4.451  -0.446 -23.836  1.00  0.00     0.030 C 
ATOM      5  C   UNL     1       5.472  -3.196 -23.547  1.00  0.00     0.004 C 
ATOM      6  C   UNL     1       3.861   0.636 -26.566  1.00  0.00     0.013 C 
ATOM      7  C   UNL     1       3.849   0.965 -24.096  1.00  0.00    -0.063 C 
ATOM      8  C   UNL     1       3.993  -1.255 -22.595  1.00  0.00    -0.003 C 
ATOM      9  C   UNL     1       5.036  -2.394 -22.281  1.00  0.00    -0.011 C 
ATOM     10  C   UNL     1       3.013   1.221 -25.351  1.00  0.00    -0.006 C 
ATOM     11  C   UNL     1       4.442   1.984 -23.450  1.00  0.00    -0.027 C 
ATOM     12  C   UNL     1       3.698  -0.378 -21.363  1.00  0.00     0.008 C 
ATOM     13  C   UNL     1       6.286  -1.906 -21.515  1.00  0.00     0.008 C 
ATOM     14  C   UNL     1       1.690   0.414 -25.157  1.00  0.00     0.017 C 
ATOM     15  C   UNL     1       2.614   2.785 -25.616  1.00  0.00    -0.020 C 
ATOM     16  C   UNL     1       4.354   3.420 -23.819  1.00  0.00     0.032 C 
ATOM     17  C   UNL     1       3.824   3.744 -25.247  1.00  0.00     0.006 C 
ATOM     18  C   UNL     1       1.387   3.263 -24.761  1.00  0.00     0.008 C 
ATOM     19  C   UNL     1       2.187   2.903 -27.125  1.00  0.00     0.012 C 
ATOM     20  C   UNL     1       3.520   5.319 -25.398  1.00  0.00    -0.025 C 
ATOM     21  C   UNL     1       1.036   4.764 -24.892  1.00  0.00     0.005 C 
ATOM     22  C   UNL     1       2.228   5.688 -24.567  1.00  0.00     0.003 C 
ATOM     23  C   UNL     1       4.701   6.181 -24.830  1.00  0.00     0.010 C 
ATOM     24  C   UNL     1       3.405   5.665 -26.918  1.00  0.00     0.012 C 
ATOM     25  C   UNL     1       1.880   7.231 -24.473  1.00  0.00    -0.006 C 
ATOM     26  C   UNL     1       4.408   7.695 -24.775  1.00  0.00     0.033 C 
ATOM     27  C   UNL     1       3.140   8.012 -23.966  1.00  0.00     0.120 C 
ATOM     28  C   UNL     1       1.383   7.845 -25.808  1.00  0.00     0.014 C 
ATOM     29  C   UNL     1       0.735   7.456 -23.445  1.00  0.00     0.014 C 
ENDROOT
BRANCH   1  30
ATOM     30  C   UNL     1       3.469  -2.235 -25.602  1.00  0.00     0.048 C 
ATOM     31  O   UNL     1       3.445  -2.645 -26.794  1.00  0.00    -0.550 OA
ATOM     32  O   UNL     1       2.491  -2.716 -24.740  1.00  0.00    -0.550 OA
ENDBRANCH   1  30
BRANCH  27  33
ATOM     33  O   UNL     1       3.400   7.714 -22.613  1.00  0.00    -0.393 OA
ATOM     34  H   UNL     1       2.864   8.340 -22.060  1.00  0.00     0.210 HD
ENDBRANCH  27  33
TORSDOF 2
ENDMDL
