MODEL 1
REMARK VINA RESULT:    -4.705      0.000      0.000
REMARK INTER + INTRA:          -6.020
REMARK INTER:                  -6.630
REMARK INTRA:                   0.610
REMARK UNBOUND:                 0.610
REMARK SMILES CC1=CCC(=C(C)C)C(=O)CC(C)=CCC1
REMARK SMILES IDX 12 1 14 2 13 3 15 4 16 5 2 6 1 7 3 8 11 10 9 11 10 12 5 13
REMARK SMILES IDX 6 14 7 15 8 16 4 17
REMARK H PARENT
REMARK Flexibility Score: 60.00
ROOT
ATOM      1  C   UNL     1     143.433 141.027 113.411  1.00  0.00    -0.070 C 
ATOM      2  C   UNL     1     143.624 141.837 114.479  1.00  0.00    -0.027 C 
ATOM      3  C   UNL     1     144.626 140.255 112.902  1.00  0.00     0.039 C 
ENDROOT
BRANCH   2   4
ATOM      4  C   UNL     1     142.606 142.775 115.084  1.00  0.00     0.032 C 
BRANCH   4   5
ATOM      5  C   UNL     1     141.720 142.084 116.138  1.00  0.00     0.034 C 
BRANCH   5   6
ATOM      6  C   UNL     1     140.261 142.049 115.725  1.00  0.00    -0.077 C 
ATOM      7  C   UNL     1     139.458 143.321 115.825  1.00  0.00     0.039 C 
ATOM      8  C   UNL     1     139.643 140.945 115.247  1.00  0.00    -0.023 CG0
ATOM      9  G   UNL     1     140.285 139.594 115.041  1.00  0.00     0.000 G0
ENDBRANCH   5   6
ENDBRANCH   4   5
ENDBRANCH   2   4
BRANCH   1  10
ATOM     10  C   UNL     1     142.113 140.905 112.669  1.00  0.00     0.111 C 
BRANCH  10  11
ATOM     11  C   UNL     1     141.534 139.517 112.789  1.00  0.00     0.163 C 
ATOM     12  O   UNL     1     142.163 138.563 112.255  1.00  0.00    -0.294 OA
BRANCH  11  13
ATOM     13  C   UNL     1     140.281 139.245 113.561  1.00  0.00    -0.002 C 
ATOM     14  C   UNL     1     139.152 138.767 112.954  1.00  0.00    -0.069 C 
ATOM     15  C   UNL     1     139.085 138.555 111.458  1.00  0.00     0.039 C 
ATOM     16  C   UNL     1     137.901 138.459 113.748  1.00  0.00     0.039 C 
BRANCH  13  17
ATOM     17  C   UNL     1     140.291 139.596 115.037  1.00  0.00     0.066 CG0
ATOM     18  G   UNL     1     139.665 140.954 115.246  1.00  0.00     0.000 G0
ENDBRANCH  13  17
ENDBRANCH  11  13
ENDBRANCH  10  11
ENDBRANCH   1  10
TORSDOF 0
ENDMDL
MODEL 2
REMARK VINA RESULT:    -4.641      6.671      8.919
REMARK INTER + INTRA:          -5.931
REMARK INTER:                  -6.656
REMARK INTRA:                   0.725
REMARK UNBOUND:                 0.610
REMARK SMILES CC1=CCC(=C(C)C)C(=O)CC(C)=CCC1
REMARK SMILES IDX 12 1 14 2 13 3 15 4 16 5 2 6 1 7 3 8 11 10 9 11 10 12 5 13
REMARK SMILES IDX 6 14 7 15 8 16 4 17
REMARK H PARENT
REMARK Flexibility Score: 60.00
ROOT
ATOM      1  C   UNL     1     132.979 134.992 113.704  1.00  0.00    -0.070 C 
ATOM      2  C   UNL     1     133.747 134.719 112.623  1.00  0.00    -0.027 C 
ATOM      3  C   UNL     1     131.678 135.718 113.467  1.00  0.00     0.039 C 
ENDROOT
BRANCH   2   4
ATOM      4  C   UNL     1     135.125 134.101 112.638  1.00  0.00     0.032 C 
BRANCH   4   5
ATOM      5  C   UNL     1     136.185 135.003 111.980  1.00  0.00     0.034 C 
BRANCH   5   6
ATOM      6  C   UNL     1     136.314 136.341 112.683  1.00  0.00    -0.077 C 
ATOM      7  C   UNL     1     136.138 137.597 111.868  1.00  0.00     0.039 C 
ATOM      8  C   UNL     1     136.554 136.473 114.007  1.00  0.00    -0.023 CG0
ATOM      9  G   UNL     1     136.723 135.339 114.990  1.00  0.00     0.000 G0
ENDBRANCH   5   6
ENDBRANCH   4   5
ENDBRANCH   2   4
BRANCH   1  10
ATOM     10  C   UNL     1     133.385 134.667 115.132  1.00  0.00     0.111 C 
BRANCH  10  11
ATOM     11  C   UNL     1     134.285 135.730 115.710  1.00  0.00     0.163 C 
ATOM     12  O   UNL     1     133.804 136.882 115.891  1.00  0.00    -0.294 OA
BRANCH  11  13
ATOM     13  C   UNL     1     135.695 135.439 116.117  1.00  0.00    -0.002 C 
ATOM     14  C   UNL     1     136.058 135.340 117.432  1.00  0.00    -0.069 C 
ATOM     15  C   UNL     1     135.069 135.591 118.548  1.00  0.00     0.039 C 
ATOM     16  C   UNL     1     137.479 135.008 117.834  1.00  0.00     0.039 C 
BRANCH  13  17
ATOM     17  C   UNL     1     136.726 135.334 115.007  1.00  0.00     0.066 CG0
ATOM     18  G   UNL     1     136.543 136.469 114.029  1.00  0.00     0.000 G0
ENDBRANCH  13  17
ENDBRANCH  11  13
ENDBRANCH  10  11
ENDBRANCH   1  10
TORSDOF 0
ENDMDL
MODEL 3
REMARK VINA RESULT:    -4.631      5.278      8.155
REMARK INTER + INTRA:          -5.917
REMARK INTER:                  -6.575
REMARK INTRA:                   0.658
REMARK UNBOUND:                 0.610
REMARK SMILES CC1=CCC(=C(C)C)C(=O)CC(C)=CCC1
REMARK SMILES IDX 12 1 14 2 13 3 15 4 16 5 2 6 1 7 3 8 11 10 9 11 10 12 5 13
REMARK SMILES IDX 6 14 7 15 8 16 4 17
REMARK H PARENT
REMARK Flexibility Score: 60.00
ROOT
ATOM      1  C   UNL     1     133.513 136.337 112.478  1.00  0.00    -0.070 C 
ATOM      2  C   UNL     1     133.059 135.920 113.684  1.00  0.00    -0.027 C 
ATOM      3  C   UNL     1     133.124 137.726 112.032  1.00  0.00     0.039 C 
ENDROOT
BRANCH   2   4
ATOM      4  C   UNL     1     133.236 134.543 114.278  1.00  0.00     0.032 C 
BRANCH   4   5
ATOM      5  C   UNL     1     134.079 134.559 115.567  1.00  0.00     0.034 C 
BRANCH   5   6
ATOM      6  C   UNL     1     134.658 135.931 115.855  1.00  0.00    -0.077 C 
ATOM      7  C   UNL     1     133.904 136.844 116.789  1.00  0.00     0.039 C 
ATOM      8  C   UNL     1     135.827 136.374 115.342  1.00  0.00    -0.023 CG0
ATOM      9  G   UNL     1     136.738 135.598 114.422  1.00  0.00     0.000 G0
ENDBRANCH   5   6
ENDBRANCH   4   5
ENDBRANCH   2   4
BRANCH   1  10
ATOM     10  C   UNL     1     134.329 135.468 111.536  1.00  0.00     0.111 C 
BRANCH  10  11
ATOM     11  C   UNL     1     135.633 135.043 112.162  1.00  0.00     0.163 C 
ATOM     12  O   UNL     1     136.036 133.866 111.954  1.00  0.00    -0.294 OA
BRANCH  11  13
ATOM     13  C   UNL     1     136.472 135.987 112.964  1.00  0.00    -0.002 C 
ATOM     14  C   UNL     1     137.020 137.111 112.410  1.00  0.00    -0.069 C 
ATOM     15  C   UNL     1     136.868 137.423 110.938  1.00  0.00     0.039 C 
ATOM     16  C   UNL     1     137.836 138.080 113.238  1.00  0.00     0.039 C 
BRANCH  13  17
ATOM     17  C   UNL     1     136.755 135.604 114.406  1.00  0.00     0.066 CG0
ATOM     18  G   UNL     1     135.842 136.375 115.329  1.00  0.00     0.000 G0
ENDBRANCH  13  17
ENDBRANCH  11  13
ENDBRANCH  10  11
ENDBRANCH   1  10
TORSDOF 0
ENDMDL
MODEL 4
REMARK VINA RESULT:    -4.615      4.938      8.091
REMARK INTER + INTRA:          -5.894
REMARK INTER:                  -6.818
REMARK INTRA:                   0.924
REMARK UNBOUND:                 0.610
REMARK SMILES CC1=CCC(=C(C)C)C(=O)CC(C)=CCC1
REMARK SMILES IDX 12 1 14 2 13 3 15 4 16 5 2 6 1 7 3 8 11 10 9 11 10 12 5 13
REMARK SMILES IDX 6 14 7 15 8 16 4 17
REMARK H PARENT
REMARK Flexibility Score: 60.00
ROOT
ATOM      1  C   UNL     1     134.629 134.603 112.568  1.00  0.00    -0.070 C 
ATOM      2  C   UNL     1     134.496 133.675 113.545  1.00  0.00    -0.027 C 
ATOM      3  C   UNL     1     135.596 134.301 111.450  1.00  0.00     0.039 C 
ENDROOT
BRANCH   2   4
ATOM      4  C   UNL     1     133.671 133.814 114.803  1.00  0.00     0.032 C 
BRANCH   4   5
ATOM      5  C   UNL     1     134.192 134.926 115.732  1.00  0.00     0.034 C 
BRANCH   5   6
ATOM      6  C   UNL     1     135.707 135.010 115.731  1.00  0.00    -0.077 C 
ATOM      7  C   UNL     1     136.489 133.830 116.248  1.00  0.00     0.039 C 
ATOM      8  C   UNL     1     136.399 136.075 115.267  1.00  0.00    -0.023 CG0
ATOM      9  G   UNL     1     135.799 137.330 114.680  1.00  0.00     0.000 G0
ENDBRANCH   5   6
ENDBRANCH   4   5
ENDBRANCH   2   4
BRANCH   1  10
ATOM     10  C   UNL     1     133.914 135.944 112.573  1.00  0.00     0.111 C 
BRANCH  10  11
ATOM     11  C   UNL     1     134.862 137.081 112.285  1.00  0.00     0.163 C 
ATOM     12  O   UNL     1     134.616 137.824 111.295  1.00  0.00    -0.294 OA
BRANCH  11  13
ATOM     13  C   UNL     1     136.037 137.375 113.164  1.00  0.00    -0.002 C 
ATOM     14  C   UNL     1     137.283 137.602 112.648  1.00  0.00    -0.069 C 
ATOM     15  C   UNL     1     137.556 137.497 111.164  1.00  0.00     0.039 C 
ATOM     16  C   UNL     1     138.457 137.935 113.541  1.00  0.00     0.039 C 
BRANCH  13  17
ATOM     17  C   UNL     1     135.804 137.335 114.663  1.00  0.00     0.066 CG0
ATOM     18  G   UNL     1     136.403 136.075 115.242  1.00  0.00     0.000 G0
ENDBRANCH  13  17
ENDBRANCH  11  13
ENDBRANCH  10  11
ENDBRANCH   1  10
TORSDOF 0
ENDMDL
MODEL 5
REMARK VINA RESULT:    -4.549      1.844      4.556
REMARK INTER + INTRA:          -5.801
REMARK INTER:                  -6.318
REMARK INTRA:                   0.517
REMARK UNBOUND:                 0.610
REMARK SMILES CC1=CCC(=C(C)C)C(=O)CC(C)=CCC1
REMARK SMILES IDX 12 1 14 2 13 3 15 4 16 5 2 6 1 7 3 8 11 10 9 11 10 12 5 13
REMARK SMILES IDX 6 14 7 15 8 16 4 17
REMARK H PARENT
REMARK Flexibility Score: 60.00
ROOT
ATOM      1  C   UNL     1     140.226 138.983 112.724  1.00  0.00    -0.070 C 
ATOM      2  C   UNL     1     141.128 139.147 111.727  1.00  0.00    -0.027 C 
ATOM      3  C   UNL     1     138.790 138.742 112.329  1.00  0.00     0.039 C 
ENDROOT
BRANCH   2   4
ATOM      4  C   UNL     1     142.587 139.502 111.891  1.00  0.00     0.032 C 
BRANCH   4   5
ATOM      5  C   UNL     1     142.797 140.975 112.287  1.00  0.00     0.034 C 
BRANCH   5   6
ATOM      6  C   UNL     1     143.603 141.116 113.564  1.00  0.00    -0.077 C 
ATOM      7  C   UNL     1     145.030 140.630 113.565  1.00  0.00     0.039 C 
ATOM      8  C   UNL     1     143.123 141.676 114.697  1.00  0.00    -0.023 CG0
ATOM      9  G   UNL     1     141.738 142.249 114.879  1.00  0.00     0.000 G0
ENDBRANCH   5   6
ENDBRANCH   4   5
ENDBRANCH   2   4
BRANCH   1  10
ATOM     10  C   UNL     1     140.570 139.091 114.200  1.00  0.00     0.111 C 
BRANCH  10  11
ATOM     11  C   UNL     1     140.016 140.355 114.809  1.00  0.00     0.163 C 
ATOM     12  O   UNL     1     138.791 140.608 114.641  1.00  0.00    -0.294 OA
BRANCH  11  13
ATOM     13  C   UNL     1     140.859 141.271 115.638  1.00  0.00    -0.002 C 
ATOM     14  C   UNL     1     140.796 141.267 117.004  1.00  0.00    -0.069 C 
ATOM     15  C   UNL     1     139.817 140.387 117.750  1.00  0.00     0.039 C 
ATOM     16  C   UNL     1     141.680 142.170 117.837  1.00  0.00     0.039 C 
BRANCH  13  17
ATOM     17  C   UNL     1     141.736 142.262 114.896  1.00  0.00     0.066 CG0
ATOM     18  G   UNL     1     143.115 141.680 114.698  1.00  0.00     0.000 G0
ENDBRANCH  13  17
ENDBRANCH  11  13
ENDBRANCH  10  11
ENDBRANCH   1  10
TORSDOF 0
ENDMDL
MODEL 6
REMARK VINA RESULT:    -4.506      5.700      8.726
REMARK INTER + INTRA:          -5.741
REMARK INTER:                  -6.631
REMARK INTRA:                   0.890
REMARK UNBOUND:                 0.610
REMARK SMILES CC1=CCC(=C(C)C)C(=O)CC(C)=CCC1
REMARK SMILES IDX 12 1 14 2 13 3 15 4 16 5 2 6 1 7 3 8 11 10 9 11 10 12 5 13
REMARK SMILES IDX 6 14 7 15 8 16 4 17
REMARK H PARENT
REMARK Flexibility Score: 60.00
ROOT
ATOM      1  C   UNL     1     133.908 135.632 115.348  1.00  0.00    -0.070 C 
ATOM      2  C   UNL     1     132.744 136.118 114.852  1.00  0.00    -0.027 C 
ATOM      3  C   UNL     1     134.564 136.407 116.464  1.00  0.00     0.039 C 
ENDROOT
BRANCH   2   4
ATOM      4  C   UNL     1     131.976 135.567 113.673  1.00  0.00     0.032 C 
BRANCH   4   5
ATOM      5  C   UNL     1     132.895 135.175 112.501  1.00  0.00     0.034 C 
BRANCH   5   6
ATOM      6  C   UNL     1     133.585 136.379 111.887  1.00  0.00    -0.077 C 
ATOM      7  C   UNL     1     132.742 137.569 111.506  1.00  0.00     0.039 C 
ATOM      8  C   UNL     1     134.919 136.456 111.686  1.00  0.00    -0.023 CG0
ATOM      9  G   UNL     1     135.928 135.387 112.034  1.00  0.00     0.000 G0
ENDBRANCH   5   6
ENDBRANCH   4   5
ENDBRANCH   2   4
BRANCH   1  10
ATOM     10  C   UNL     1     134.610 134.400 114.802  1.00  0.00     0.111 C 
BRANCH  10  11
ATOM     11  C   UNL     1     136.063 134.675 114.506  1.00  0.00     0.163 C 
ATOM     12  O   UNL     1     136.933 134.040 115.164  1.00  0.00    -0.294 OA
BRANCH  11  13
ATOM     13  C   UNL     1     136.488 135.626 113.432  1.00  0.00    -0.002 C 
ATOM     14  C   UNL     1     137.283 136.705 113.700  1.00  0.00    -0.069 C 
ATOM     15  C   UNL     1     137.719 137.038 115.110  1.00  0.00     0.039 C 
ATOM     16  C   UNL     1     137.738 137.641 112.602  1.00  0.00     0.039 C 
BRANCH  13  17
ATOM     17  C   UNL     1     135.933 135.386 112.040  1.00  0.00     0.066 CG0
ATOM     18  G   UNL     1     134.925 136.456 111.698  1.00  0.00     0.000 G0
ENDBRANCH  13  17
ENDBRANCH  11  13
ENDBRANCH  10  11
ENDBRANCH   1  10
TORSDOF 0
ENDMDL
MODEL 7
REMARK VINA RESULT:    -4.441      6.604      8.942
REMARK INTER + INTRA:          -5.648
REMARK INTER:                  -6.482
REMARK INTRA:                   0.834
REMARK UNBOUND:                 0.610
REMARK SMILES CC1=CCC(=C(C)C)C(=O)CC(C)=CCC1
REMARK SMILES IDX 12 1 14 2 13 3 15 4 16 5 2 6 1 7 3 8 11 10 9 11 10 12 5 13
REMARK SMILES IDX 6 14 7 15 8 16 4 17
REMARK H PARENT
REMARK Flexibility Score: 60.00
ROOT
ATOM      1  C   UNL     1     135.229 137.251 113.895  1.00  0.00    -0.070 C 
ATOM      2  C   UNL     1     135.196 137.212 112.541  1.00  0.00    -0.027 C 
ATOM      3  C   UNL     1     136.516 137.697 114.545  1.00  0.00     0.039 C 
ENDROOT
BRANCH   2   4
ATOM      4  C   UNL     1     134.058 136.701 111.689  1.00  0.00     0.032 C 
BRANCH   4   5
ATOM      5  C   UNL     1     133.675 135.248 112.025  1.00  0.00     0.034 C 
BRANCH   5   6
ATOM      6  C   UNL     1     134.890 134.346 112.136  1.00  0.00    -0.077 C 
ATOM      7  C   UNL     1     135.801 134.224 110.941  1.00  0.00     0.039 C 
ATOM      8  C   UNL     1     135.218 133.664 113.255  1.00  0.00    -0.023 CG0
ATOM      9  G   UNL     1     134.455 133.686 114.558  1.00  0.00     0.000 G0
ENDBRANCH   5   6
ENDBRANCH   4   5
ENDBRANCH   2   4
BRANCH   1  10
ATOM     10  C   UNL     1     134.075 136.814 114.781  1.00  0.00     0.111 C 
BRANCH  10  11
ATOM     11  C   UNL     1     134.538 135.891 115.881  1.00  0.00     0.163 C 
ATOM     12  O   UNL     1     134.353 136.251 117.076  1.00  0.00    -0.294 OA
BRANCH  11  13
ATOM     13  C   UNL     1     135.150 134.557 115.591  1.00  0.00    -0.002 C 
ATOM     14  C   UNL     1     136.331 134.169 116.161  1.00  0.00    -0.069 C 
ATOM     15  C   UNL     1     137.119 135.095 117.060  1.00  0.00     0.039 C 
ATOM     16  C   UNL     1     136.925 132.804 115.891  1.00  0.00     0.039 C 
BRANCH  13  17
ATOM     17  C   UNL     1     134.444 133.680 114.573  1.00  0.00     0.066 CG0
ATOM     18  G   UNL     1     135.214 133.679 113.274  1.00  0.00     0.000 G0
ENDBRANCH  13  17
ENDBRANCH  11  13
ENDBRANCH  10  11
ENDBRANCH   1  10
TORSDOF 0
ENDMDL
MODEL 8
REMARK VINA RESULT:    -4.432      1.996      3.716
REMARK INTER + INTRA:          -5.637
REMARK INTER:                  -6.675
REMARK INTRA:                   1.038
REMARK UNBOUND:                 0.610
REMARK SMILES CC1=CCC(=C(C)C)C(=O)CC(C)=CCC1
REMARK SMILES IDX 12 1 14 2 13 3 15 4 16 5 2 6 1 7 3 8 11 10 9 11 10 12 5 13
REMARK SMILES IDX 6 14 7 15 8 16 4 17
REMARK H PARENT
REMARK Flexibility Score: 60.00
ROOT
ATOM      1  C   UNL     1     142.767 140.906 115.378  1.00  0.00    -0.070 C 
ATOM      2  C   UNL     1     143.562 140.784 114.289  1.00  0.00    -0.027 C 
ATOM      3  C   UNL     1     142.743 139.754 116.354  1.00  0.00     0.039 C 
ENDROOT
BRANCH   2   4
ATOM      4  C   UNL     1     143.660 141.759 113.140  1.00  0.00     0.032 C 
BRANCH   4   5
ATOM      5  C   UNL     1     142.877 141.290 111.899  1.00  0.00     0.034 C 
BRANCH   5   6
ATOM      6  C   UNL     1     142.301 139.898 112.078  1.00  0.00    -0.077 C 
ATOM      7  C   UNL     1     143.218 138.716 111.901  1.00  0.00     0.039 C 
ATOM      8  C   UNL     1     141.013 139.657 112.414  1.00  0.00    -0.023 CG0
ATOM      9  G   UNL     1     139.956 140.705 112.669  1.00  0.00     0.000 G0
ENDBRANCH   5   6
ENDBRANCH   4   5
ENDBRANCH   2   4
BRANCH   1  10
ATOM     10  C   UNL     1     141.860 142.098 115.633  1.00  0.00     0.111 C 
BRANCH  10  11
ATOM     11  C   UNL     1     140.805 142.232 114.563  1.00  0.00     0.163 C 
ATOM     12  O   UNL     1     140.689 143.345 113.979  1.00  0.00    -0.294 OA
BRANCH  11  13
ATOM     13  C   UNL     1     139.946 141.080 114.148  1.00  0.00    -0.002 C 
ATOM     14  C   UNL     1     139.236 140.347 115.060  1.00  0.00    -0.069 C 
ATOM     15  C   UNL     1     139.337 140.618 116.544  1.00  0.00     0.039 C 
ATOM     16  C   UNL     1     138.340 139.207 114.628  1.00  0.00     0.039 C 
BRANCH  13  17
ATOM     17  C   UNL     1     139.956 140.706 112.677  1.00  0.00     0.066 CG0
ATOM     18  G   UNL     1     141.002 139.647 112.424  1.00  0.00     0.000 G0
ENDBRANCH  13  17
ENDBRANCH  11  13
ENDBRANCH  10  11
ENDBRANCH   1  10
TORSDOF 0
ENDMDL
MODEL 9
REMARK VINA RESULT:    -4.394      2.060      4.218
REMARK INTER + INTRA:          -5.583
REMARK INTER:                  -6.357
REMARK INTRA:                   0.774
REMARK UNBOUND:                 0.610
REMARK SMILES CC1=CCC(=C(C)C)C(=O)CC(C)=CCC1
REMARK SMILES IDX 12 1 14 2 13 3 15 4 16 5 2 6 1 7 3 8 11 10 9 11 10 12 5 13
REMARK SMILES IDX 6 14 7 15 8 16 4 17
REMARK H PARENT
REMARK Flexibility Score: 60.00
ROOT
ATOM      1  C   UNL     1     141.639 142.904 113.992  1.00  0.00    -0.070 C 
ATOM      2  C   UNL     1     141.897 142.491 112.728  1.00  0.00    -0.027 C 
ATOM      3  C   UNL     1     142.794 143.458 114.791  1.00  0.00     0.039 C 
ENDROOT
BRANCH   2   4
ATOM      4  C   UNL     1     140.924 141.813 111.793  1.00  0.00     0.032 C 
BRANCH   4   5
ATOM      5  C   UNL     1     141.311 140.352 111.496  1.00  0.00     0.034 C 
BRANCH   5   6
ATOM      6  C   UNL     1     140.478 139.366 112.291  1.00  0.00    -0.077 C 
ATOM      7  C   UNL     1     139.358 138.644 111.586  1.00  0.00     0.039 C 
ATOM      8  C   UNL     1     140.698 139.076 113.593  1.00  0.00    -0.023 CG0
ATOM      9  G   UNL     1     141.787 139.666 114.457  1.00  0.00     0.000 G0
ENDBRANCH   5   6
ENDBRANCH   4   5
ENDBRANCH   2   4
BRANCH   1  10
ATOM     10  C   UNL     1     140.280 142.781 114.660  1.00  0.00     0.111 C 
BRANCH  10  11
ATOM     11  C   UNL     1     140.055 141.394 115.210  1.00  0.00     0.163 C 
ATOM     12  O   UNL     1     138.868 140.983 115.316  1.00  0.00    -0.294 OA
BRANCH  11  13
ATOM     13  C   UNL     1     141.192 140.493 115.575  1.00  0.00    -0.002 C 
ATOM     14  C   UNL     1     141.719 140.474 116.837  1.00  0.00    -0.069 C 
ATOM     15  C   UNL     1     141.228 141.415 117.915  1.00  0.00     0.039 C 
ATOM     16  C   UNL     1     142.844 139.532 117.208  1.00  0.00     0.039 C 
BRANCH  13  17
ATOM     17  C   UNL     1     141.791 139.652 114.462  1.00  0.00     0.066 CG0
ATOM     18  G   UNL     1     140.689 139.076 113.605  1.00  0.00     0.000 G0
ENDBRANCH  13  17
ENDBRANCH  11  13
ENDBRANCH  10  11
ENDBRANCH   1  10
TORSDOF 0
ENDMDL
