MODEL 1
REMARK VINA RESULT:    -6.151      0.000      0.000
REMARK INTER + INTRA:          -8.164
REMARK INTER:                  -7.769
REMARK INTRA:                  -0.395
REMARK UNBOUND:                -0.395
REMARK SMILES O[C@@H]1OC[C@H](Cc2ccc3c(c2)OCO3)[C@@H]1Cc1ccc2c(c1)OCO2
REMARK SMILES IDX 4 1 5 2 16 3 2 4 3 5 6 6 7 7 12 8 8 9 11 10 9 11 10 12 13 13
REMARK SMILES IDX 15 14 14 15 17 16 18 17 23 18 19 19 22 20 20 21 21 22 24 23
REMARK SMILES IDX 26 24 25 25 1 26
REMARK H PARENT 1 27
REMARK Flexibility Score: inf
ROOT
ATOM      1  C   UNL     1     -23.389 -16.428  -6.976  1.00  0.00     0.168 C 
ATOM      2  C   UNL     1     -22.958 -15.942  -8.358  1.00  0.00     0.028 C 
ATOM      3  C   UNL     1     -22.017 -14.806  -7.985  1.00  0.00     0.055 C 
ATOM      4  C   UNL     1     -21.493 -15.215  -6.600  1.00  0.00     0.250 C 
ATOM      5  O   UNL     1     -22.347 -16.202  -6.054  1.00  0.00    -0.352 OA
ENDROOT
BRANCH   2   6
ATOM      6  C   UNL     1     -22.319 -17.075  -9.204  1.00  0.00     0.042 C 
BRANCH   6   7
ATOM      7  C   UNL     1     -23.192 -17.471 -10.368  1.00  0.00    -0.044 A 
ATOM      8  C   UNL     1     -22.753 -17.239 -11.692  1.00  0.00     0.054 A 
ATOM      9  C   UNL     1     -24.460 -18.070 -10.146  1.00  0.00     0.008 A 
ATOM     10  C   UNL     1     -23.595 -17.611 -12.736  1.00  0.00     0.166 A 
ATOM     11  C   UNL     1     -25.280 -18.431 -11.231  1.00  0.00     0.051 A 
ATOM     12  C   UNL     1     -24.805 -18.182 -12.514  1.00  0.00     0.165 A 
ATOM     13  O   UNL     1     -23.387 -17.486 -14.095  1.00  0.00    -0.454 OA
ATOM     14  O   UNL     1     -25.420 -18.444 -13.724  1.00  0.00    -0.454 OA
ATOM     15  C   UNL     1     -24.539 -18.009 -14.770  1.00  0.00     0.468 C 
ENDBRANCH   6   7
ENDBRANCH   2   6
BRANCH   3  16
ATOM     16  C   UNL     1     -20.940 -14.434  -9.035  1.00  0.00     0.044 C 
BRANCH  16  17
ATOM     17  C   UNL     1     -21.541 -14.261 -10.406  1.00  0.00    -0.044 A 
ATOM     18  C   UNL     1     -20.721 -14.358 -11.554  1.00  0.00     0.054 A 
ATOM     19  C   UNL     1     -22.932 -14.018 -10.559  1.00  0.00     0.008 A 
ATOM     20  C   UNL     1     -21.321 -14.210 -12.802  1.00  0.00     0.166 A 
ATOM     21  C   UNL     1     -23.497 -13.875 -11.839  1.00  0.00     0.051 A 
ATOM     22  C   UNL     1     -22.650 -13.979 -12.937  1.00  0.00     0.165 A 
ATOM     23  O   UNL     1     -20.732 -14.265 -14.051  1.00  0.00    -0.454 OA
ATOM     24  O   UNL     1     -22.965 -13.877 -14.280  1.00  0.00    -0.454 OA
ATOM     25  C   UNL     1     -21.757 -14.055 -15.032  1.00  0.00     0.468 C 
ENDBRANCH  16  17
ENDBRANCH   3  16
BRANCH   4  26
ATOM     26  O   UNL     1     -20.173 -15.694  -6.639  1.00  0.00    -0.368 OA
ATOM     27  H   UNL     1     -20.102 -16.322  -7.402  1.00  0.00     0.213 HD
ENDBRANCH   4  26
TORSDOF 5
ENDMDL
MODEL 2
REMARK VINA RESULT:    -5.403      1.200      1.841
REMARK INTER + INTRA:          -7.219
REMARK INTER:                  -7.613
REMARK INTRA:                   0.395
REMARK UNBOUND:                -0.395
REMARK SMILES O[C@@H]1OC[C@H](Cc2ccc3c(c2)OCO3)[C@@H]1Cc1ccc2c(c1)OCO2
REMARK SMILES IDX 4 1 5 2 16 3 2 4 3 5 6 6 7 7 12 8 8 9 11 10 9 11 10 12 13 13
REMARK SMILES IDX 15 14 14 15 17 16 18 17 23 18 19 19 22 20 20 21 21 22 24 23
REMARK SMILES IDX 26 24 25 25 1 26
REMARK H PARENT 1 27
REMARK Flexibility Score: inf
ROOT
ATOM      1  C   UNL     1     -23.006 -15.012  -7.966  1.00  0.00     0.168 C 
ATOM      2  C   UNL     1     -22.606 -15.014  -9.440  1.00  0.00     0.028 C 
ATOM      3  C   UNL     1     -21.556 -13.912  -9.455  1.00  0.00     0.055 C 
ATOM      4  C   UNL     1     -21.000 -13.927  -8.023  1.00  0.00     0.250 C 
ATOM      5  O   UNL     1     -21.904 -14.616  -7.182  1.00  0.00    -0.352 OA
ENDROOT
BRANCH   2   6
ATOM      6  C   UNL     1     -22.105 -16.405  -9.910  1.00  0.00     0.042 C 
BRANCH   6   7
ATOM      7  C   UNL     1     -23.091 -17.076 -10.833  1.00  0.00    -0.044 A 
ATOM      8  C   UNL     1     -22.967 -16.921 -12.233  1.00  0.00     0.054 A 
ATOM      9  C   UNL     1     -24.153 -17.860 -10.308  1.00  0.00     0.008 A 
ATOM     10  C   UNL     1     -23.904 -17.550 -13.047  1.00  0.00     0.166 A 
ATOM     11  C   UNL     1     -25.079 -18.479 -11.167  1.00  0.00     0.051 A 
ATOM     12  C   UNL     1     -24.915 -18.295 -12.537  1.00  0.00     0.165 A 
ATOM     13  O   UNL     1     -23.988 -17.544 -14.426  1.00  0.00    -0.454 OA
ATOM     14  O   UNL     1     -25.686 -18.795 -13.568  1.00  0.00    -0.454 OA
ATOM     15  C   UNL     1     -25.123 -18.333 -14.805  1.00  0.00     0.468 C 
ENDBRANCH   6   7
ENDBRANCH   2   6
BRANCH   3  16
ATOM     16  C   UNL     1     -20.506 -13.981 -10.592  1.00  0.00     0.044 C 
BRANCH  16  17
ATOM     17  C   UNL     1     -21.159 -13.969 -11.950  1.00  0.00    -0.044 A 
ATOM     18  C   UNL     1     -22.568 -13.958 -12.056  1.00  0.00     0.054 A 
ATOM     19  C   UNL     1     -20.368 -13.951 -13.130  1.00  0.00     0.008 A 
ATOM     20  C   UNL     1     -23.130 -13.928 -13.329  1.00  0.00     0.166 A 
ATOM     21  C   UNL     1     -20.977 -13.922 -14.398  1.00  0.00     0.051 A 
ATOM     22  C   UNL     1     -22.367 -13.911 -14.451  1.00  0.00     0.165 A 
ATOM     23  O   UNL     1     -24.466 -13.911 -13.680  1.00  0.00    -0.454 OA
ATOM     24  O   UNL     1     -23.186 -13.882 -15.564  1.00  0.00    -0.454 OA
ATOM     25  C   UNL     1     -24.547 -13.882 -15.112  1.00  0.00     0.468 C 
ENDBRANCH  16  17
ENDBRANCH   3  16
BRANCH   4  26
ATOM     26  O   UNL     1     -19.728 -14.518  -7.941  1.00  0.00    -0.368 OA
ATOM     27  H   UNL     1     -19.143 -14.068  -8.604  1.00  0.00     0.213 HD
ENDBRANCH   4  26
TORSDOF 5
ENDMDL
MODEL 3
REMARK VINA RESULT:    -5.092      1.709      5.273
REMARK INTER + INTRA:          -6.826
REMARK INTER:                  -7.481
REMARK INTRA:                   0.655
REMARK UNBOUND:                -0.395
REMARK SMILES O[C@@H]1OC[C@H](Cc2ccc3c(c2)OCO3)[C@@H]1Cc1ccc2c(c1)OCO2
REMARK SMILES IDX 4 1 5 2 16 3 2 4 3 5 6 6 7 7 12 8 8 9 11 10 9 11 10 12 13 13
REMARK SMILES IDX 15 14 14 15 17 16 18 17 23 18 19 19 22 20 20 21 21 22 24 23
REMARK SMILES IDX 26 24 25 25 1 26
REMARK H PARENT 1 27
REMARK Flexibility Score: inf
ROOT
ATOM      1  C   UNL     1     -20.839 -13.985 -11.179  1.00  0.00     0.168 C 
ATOM      2  C   UNL     1     -21.826 -14.557 -12.194  1.00  0.00     0.028 C 
ATOM      3  C   UNL     1     -21.237 -14.033 -13.497  1.00  0.00     0.055 C 
ATOM      4  C   UNL     1     -19.742 -13.879 -13.177  1.00  0.00     0.250 C 
ATOM      5  O   UNL     1     -19.566 -13.875 -11.774  1.00  0.00    -0.352 OA
ENDROOT
BRANCH   2   6
ATOM      6  C   UNL     1     -21.937 -16.102 -12.097  1.00  0.00     0.042 C 
BRANCH   6   7
ATOM      7  C   UNL     1     -22.507 -16.544 -10.772  1.00  0.00    -0.044 A 
ATOM      8  C   UNL     1     -22.004 -16.000  -9.568  1.00  0.00     0.054 A 
ATOM      9  C   UNL     1     -23.545 -17.511 -10.722  1.00  0.00     0.008 A 
ATOM     10  C   UNL     1     -22.553 -16.442  -8.369  1.00  0.00     0.166 A 
ATOM     11  C   UNL     1     -24.073 -17.932  -9.488  1.00  0.00     0.051 A 
ATOM     12  C   UNL     1     -23.543 -17.368  -8.331  1.00  0.00     0.165 A 
ATOM     13  O   UNL     1     -22.229 -16.062  -7.082  1.00  0.00    -0.454 OA
ATOM     14  O   UNL     1     -23.891 -17.617  -7.017  1.00  0.00    -0.454 OA
ATOM     15  C   UNL     1     -23.067 -16.795  -6.178  1.00  0.00     0.468 C 
ENDBRANCH   6   7
ENDBRANCH   2   6
BRANCH   3  16
ATOM     16  C   UNL     1     -21.579 -14.837 -14.776  1.00  0.00     0.044 C 
BRANCH  16  17
ATOM     17  C   UNL     1     -23.037 -15.216 -14.819  1.00  0.00    -0.044 A 
ATOM     18  C   UNL     1     -23.432 -16.538 -14.510  1.00  0.00     0.054 A 
ATOM     19  C   UNL     1     -24.024 -14.250 -15.151  1.00  0.00     0.008 A 
ATOM     20  C   UNL     1     -24.791 -16.840 -14.544  1.00  0.00     0.166 A 
ATOM     21  C   UNL     1     -25.386 -14.599 -15.173  1.00  0.00     0.051 A 
ATOM     22  C   UNL     1     -25.726 -15.911 -14.861  1.00  0.00     0.165 A 
ATOM     23  O   UNL     1     -25.410 -18.047 -14.281  1.00  0.00    -0.454 OA
ATOM     24  O   UNL     1     -26.982 -16.487 -14.815  1.00  0.00    -0.454 OA
ATOM     25  C   UNL     1     -26.823 -17.864 -14.445  1.00  0.00     0.468 C 
ENDBRANCH  16  17
ENDBRANCH   3  16
BRANCH   4  26
ATOM     26  O   UNL     1     -18.957 -14.891 -13.755  1.00  0.00    -0.368 OA
ATOM     27  H   UNL     1     -18.176 -14.458 -14.184  1.00  0.00     0.213 HD
ENDBRANCH   4  26
TORSDOF 5
ENDMDL
MODEL 4
REMARK VINA RESULT:    -4.352      2.385      4.995
REMARK INTER + INTRA:          -5.892
REMARK INTER:                  -6.108
REMARK INTRA:                   0.216
REMARK UNBOUND:                -0.395
REMARK SMILES O[C@@H]1OC[C@H](Cc2ccc3c(c2)OCO3)[C@@H]1Cc1ccc2c(c1)OCO2
REMARK SMILES IDX 4 1 5 2 16 3 2 4 3 5 6 6 7 7 12 8 8 9 11 10 9 11 10 12 13 13
REMARK SMILES IDX 15 14 14 15 17 16 18 17 23 18 19 19 22 20 20 21 21 22 24 23
REMARK SMILES IDX 26 24 25 25 1 26
REMARK H PARENT 1 27
REMARK Flexibility Score: inf
ROOT
ATOM      1  C   UNL     1     -20.646 -14.934  -8.752  1.00  0.00     0.168 C 
ATOM      2  C   UNL     1     -21.619 -13.882  -9.281  1.00  0.00     0.028 C 
ATOM      3  C   UNL     1     -21.729 -14.299 -10.741  1.00  0.00     0.055 C 
ATOM      4  C   UNL     1     -21.437 -15.807 -10.706  1.00  0.00     0.250 C 
ATOM      5  O   UNL     1     -20.805 -16.129  -9.482  1.00  0.00    -0.352 OA
ENDROOT
BRANCH   2   6
ATOM      6  C   UNL     1     -22.957 -13.876  -8.496  1.00  0.00     0.042 C 
BRANCH   6   7
ATOM      7  C   UNL     1     -23.152 -15.144  -7.703  1.00  0.00    -0.044 A 
ATOM      8  C   UNL     1     -22.321 -15.419  -6.593  1.00  0.00     0.054 A 
ATOM      9  C   UNL     1     -24.162 -16.073  -8.068  1.00  0.00     0.008 A 
ATOM     10  C   UNL     1     -22.529 -16.605  -5.897  1.00  0.00     0.166 A 
ATOM     11  C   UNL     1     -24.339 -17.262  -7.336  1.00  0.00     0.051 A 
ATOM     12  C   UNL     1     -23.496 -17.488  -6.253  1.00  0.00     0.165 A 
ATOM     13  O   UNL     1     -21.851 -17.085  -4.793  1.00  0.00    -0.454 OA
ATOM     14  O   UNL     1     -23.474 -18.567  -5.391  1.00  0.00    -0.454 OA
ATOM     15  C   UNL     1     -22.427 -18.349  -4.434  1.00  0.00     0.468 C 
ENDBRANCH   6   7
ENDBRANCH   2   6
BRANCH   3  16
ATOM     16  C   UNL     1     -23.023 -13.875 -11.480  1.00  0.00     0.044 C 
BRANCH  16  17
ATOM     17  C   UNL     1     -22.913 -14.107 -12.965  1.00  0.00    -0.044 A 
ATOM     18  C   UNL     1     -24.044 -14.532 -13.698  1.00  0.00     0.054 A 
ATOM     19  C   UNL     1     -21.683 -13.887 -13.640  1.00  0.00     0.008 A 
ATOM     20  C   UNL     1     -23.904 -14.717 -15.071  1.00  0.00     0.166 A 
ATOM     21  C   UNL     1     -21.585 -14.085 -15.030  1.00  0.00     0.051 A 
ATOM     22  C   UNL     1     -22.725 -14.503 -15.708  1.00  0.00     0.165 A 
ATOM     23  O   UNL     1     -24.856 -15.121 -15.987  1.00  0.00    -0.454 OA
ATOM     24  O   UNL     1     -22.878 -14.762 -17.057  1.00  0.00    -0.454 OA
ATOM     25  C   UNL     1     -24.237 -15.163 -17.279  1.00  0.00     0.468 C 
ENDBRANCH  16  17
ENDBRANCH   3  16
BRANCH   4  26
ATOM     26  O   UNL     1     -22.595 -16.587 -10.864  1.00  0.00    -0.368 OA
ATOM     27  H   UNL     1     -22.696 -16.784 -11.830  1.00  0.00     0.213 HD
ENDBRANCH   4  26
TORSDOF 5
ENDMDL
MODEL 5
REMARK VINA RESULT:    -3.233      1.811      4.962
REMARK INTER + INTRA:          -4.479
REMARK INTER:                  -5.453
REMARK INTRA:                   0.975
REMARK UNBOUND:                -0.395
REMARK SMILES O[C@@H]1OC[C@H](Cc2ccc3c(c2)OCO3)[C@@H]1Cc1ccc2c(c1)OCO2
REMARK SMILES IDX 4 1 5 2 16 3 2 4 3 5 6 6 7 7 12 8 8 9 11 10 9 11 10 12 13 13
REMARK SMILES IDX 15 14 14 15 17 16 18 17 23 18 19 19 22 20 20 21 21 22 24 23
REMARK SMILES IDX 26 24 25 25 1 26
REMARK H PARENT 1 27
REMARK Flexibility Score: inf
ROOT
ATOM      1  C   UNL     1     -22.042 -13.994  -9.387  1.00  0.00     0.168 C 
ATOM      2  C   UNL     1     -22.553 -14.579 -10.702  1.00  0.00     0.028 C 
ATOM      3  C   UNL     1     -21.508 -14.054 -11.677  1.00  0.00     0.055 C 
ATOM      4  C   UNL     1     -20.256 -13.885 -10.802  1.00  0.00     0.250 C 
ATOM      5  O   UNL     1     -20.639 -13.875  -9.441  1.00  0.00    -0.352 OA
ENDROOT
BRANCH   2   6
ATOM      6  C   UNL     1     -22.682 -16.124 -10.646  1.00  0.00     0.042 C 
BRANCH   6   7
ATOM      7  C   UNL     1     -22.963 -16.615  -9.247  1.00  0.00    -0.044 A 
ATOM      8  C   UNL     1     -22.000 -16.435  -8.228  1.00  0.00     0.054 A 
ATOM      9  C   UNL     1     -24.188 -17.267  -8.945  1.00  0.00     0.008 A 
ATOM     10  C   UNL     1     -22.297 -16.912  -6.955  1.00  0.00     0.166 A 
ATOM     11  C   UNL     1     -24.448 -17.734  -7.644  1.00  0.00     0.051 A 
ATOM     12  C   UNL     1     -23.469 -17.534  -6.676  1.00  0.00     0.165 A 
ATOM     13  O   UNL     1     -21.523 -16.854  -5.812  1.00  0.00    -0.454 OA
ATOM     14  O   UNL     1     -23.491 -17.899  -5.343  1.00  0.00    -0.454 OA
ATOM     15  C   UNL     1     -22.254 -17.479  -4.749  1.00  0.00     0.468 C 
ENDBRANCH   6   7
ENDBRANCH   2   6
BRANCH   3  16
ATOM     16  C   UNL     1     -21.319 -14.865 -12.983  1.00  0.00     0.044 C 
BRANCH  16  17
ATOM     17  C   UNL     1     -22.643 -15.200 -13.622  1.00  0.00    -0.044 A 
ATOM     18  C   UNL     1     -23.173 -16.505 -13.505  1.00  0.00     0.054 A 
ATOM     19  C   UNL     1     -23.373 -14.208 -14.330  1.00  0.00     0.008 A 
ATOM     20  C   UNL     1     -24.407 -16.766 -14.096  1.00  0.00     0.166 A 
ATOM     21  C   UNL     1     -24.617 -14.515 -14.911  1.00  0.00     0.051 A 
ATOM     22  C   UNL     1     -25.098 -15.812 -14.769  1.00  0.00     0.165 A 
ATOM     23  O   UNL     1     -25.119 -17.950 -14.113  1.00  0.00    -0.454 OA
ATOM     24  O   UNL     1     -26.279 -16.349 -15.244  1.00  0.00    -0.454 OA
ATOM     25  C   UNL     1     -26.332 -17.725 -14.843  1.00  0.00     0.468 C 
ENDBRANCH  16  17
ENDBRANCH   3  16
BRANCH   4  26
ATOM     26  O   UNL     1     -19.301 -14.892 -11.023  1.00  0.00    -0.368 OA
ATOM     27  H   UNL     1     -19.572 -15.392 -11.834  1.00  0.00     0.213 HD
ENDBRANCH   4  26
TORSDOF 5
ENDMDL
