MODEL 1
REMARK VINA RESULT:    -4.672      0.000      0.000
REMARK INTER + INTRA:          -4.672
REMARK INTER:                  -4.672
REMARK INTRA:                   0.000
REMARK UNBOUND:                 0.000
REMARK SMILES CC(C)=C1CC[C@@H](C)CC1=O
REMARK SMILES IDX 8 1 7 2 6 3 5 4 4 5 2 6 1 7 3 8 10 9 11 10 9 11
REMARK H PARENT
REMARK Flexibility Score: inf
ROOT
ATOM      1  C   UNL     1      11.304   2.220   1.875  1.00  0.00     0.008 C 
ATOM      2  C   UNL     1      12.420   3.001   2.577  1.00  0.00    -0.006 C 
ATOM      3  C   UNL     1      12.286   4.506   2.295  1.00  0.00     0.008 C 
ATOM      4  C   UNL     1      13.334   5.315   3.073  1.00  0.00     0.039 C 
ATOM      5  C   UNL     1      14.750   4.801   2.850  1.00  0.00    -0.006 C 
ATOM      6  C   UNL     1      15.823   5.646   2.871  1.00  0.00    -0.070 C 
ATOM      7  C   UNL     1      17.226   5.158   2.595  1.00  0.00     0.039 C 
ATOM      8  C   UNL     1      15.650   7.125   3.135  1.00  0.00     0.039 C 
ATOM      9  C   UNL     1      14.899   3.321   2.726  1.00  0.00     0.159 C 
ATOM     10  O   UNL     1      15.937   2.731   3.130  1.00  0.00    -0.295 OA
ATOM     11  C   UNL     1      13.798   2.502   2.118  1.00  0.00     0.084 C 
ENDROOT
TORSDOF 0
ENDMDL
MODEL 2
REMARK VINA RESULT:    -4.597      1.558      4.599
REMARK INTER + INTRA:          -4.597
REMARK INTER:                  -4.597
REMARK INTRA:                   0.000
REMARK UNBOUND:                 0.000
REMARK SMILES CC(C)=C1CC[C@@H](C)CC1=O
REMARK SMILES IDX 8 1 7 2 6 3 5 4 4 5 2 6 1 7 3 8 10 9 11 10 9 11
REMARK H PARENT
REMARK Flexibility Score: inf
ROOT
ATOM      1  C   UNL     1      17.768   5.751   2.323  1.00  0.00     0.008 C 
ATOM      2  C   UNL     1      16.513   4.979   2.744  1.00  0.00    -0.006 C 
ATOM      3  C   UNL     1      16.335   3.722   1.877  1.00  0.00     0.008 C 
ATOM      4  C   UNL     1      15.142   2.881   2.351  1.00  0.00     0.039 C 
ATOM      5  C   UNL     1      13.862   3.698   2.466  1.00  0.00    -0.006 C 
ATOM      6  C   UNL     1      12.638   3.137   2.237  1.00  0.00    -0.070 C 
ATOM      7  C   UNL     1      11.366   3.950   2.292  1.00  0.00     0.039 C 
ATOM      8  C   UNL     1      12.502   1.675   1.876  1.00  0.00     0.039 C 
ATOM      9  C   UNL     1      14.020   5.100   2.954  1.00  0.00     0.159 C 
ATOM     10  O   UNL     1      13.124   5.661   3.641  1.00  0.00    -0.295 OA
ATOM     11  C   UNL     1      15.268   5.871   2.634  1.00  0.00     0.084 C 
ENDROOT
TORSDOF 0
ENDMDL
MODEL 3
REMARK VINA RESULT:    -3.565     18.615     19.628
REMARK INTER + INTRA:          -3.565
REMARK INTER:                  -3.565
REMARK INTRA:                   0.000
REMARK UNBOUND:                 0.000
REMARK SMILES CC(C)=C1CC[C@@H](C)CC1=O
REMARK SMILES IDX 8 1 7 2 6 3 5 4 4 5 2 6 1 7 3 8 10 9 11 10 9 11
REMARK H PARENT
REMARK Flexibility Score: inf
ROOT
ATOM      1  C   UNL     1      23.371 -11.972   3.657  1.00  0.00     0.008 C 
ATOM      2  C   UNL     1      23.760 -11.566   5.083  1.00  0.00    -0.006 C 
ATOM      3  C   UNL     1      24.875 -10.508   5.059  1.00  0.00     0.008 C 
ATOM      4  C   UNL     1      25.206 -10.014   6.474  1.00  0.00     0.039 C 
ATOM      5  C   UNL     1      25.504 -11.157   7.436  1.00  0.00    -0.006 C 
ATOM      6  C   UNL     1      26.390 -11.005   8.465  1.00  0.00    -0.070 C 
ATOM      7  C   UNL     1      26.737 -12.148   9.391  1.00  0.00     0.039 C 
ATOM      8  C   UNL     1      27.098  -9.691   8.702  1.00  0.00     0.039 C 
ATOM      9  C   UNL     1      24.691 -12.395   7.255  1.00  0.00     0.159 C 
ATOM     10  O   UNL     1      24.381 -13.125   8.235  1.00  0.00    -0.295 OA
ATOM     11  C   UNL     1      24.219 -12.792   5.886  1.00  0.00     0.084 C 
ENDROOT
TORSDOF 0
ENDMDL
MODEL 4
REMARK VINA RESULT:    -3.505      1.651      2.510
REMARK INTER + INTRA:          -3.505
REMARK INTER:                  -3.505
REMARK INTRA:                   0.000
REMARK UNBOUND:                 0.000
REMARK SMILES CC(C)=C1CC[C@@H](C)CC1=O
REMARK SMILES IDX 8 1 7 2 6 3 5 4 4 5 2 6 1 7 3 8 10 9 11 10 9 11
REMARK H PARENT
REMARK Flexibility Score: inf
ROOT
ATOM      1  C   UNL     1      11.682   2.721   2.255  1.00  0.00     0.008 C 
ATOM      2  C   UNL     1      12.952   3.490   1.875  1.00  0.00    -0.006 C 
ATOM      3  C   UNL     1      14.204   2.740   2.358  1.00  0.00     0.008 C 
ATOM      4  C   UNL     1      15.488   3.442   1.897  1.00  0.00     0.039 C 
ATOM      5  C   UNL     1      15.511   4.919   2.270  1.00  0.00    -0.006 C 
ATOM      6  C   UNL     1      16.683   5.561   2.555  1.00  0.00    -0.070 C 
ATOM      7  C   UNL     1      16.713   7.010   2.981  1.00  0.00     0.039 C 
ATOM      8  C   UNL     1      18.008   4.835   2.496  1.00  0.00     0.039 C 
ATOM      9  C   UNL     1      14.205   5.636   2.188  1.00  0.00     0.159 C 
ATOM     10  O   UNL     1      14.144   6.856   1.877  1.00  0.00    -0.295 OA
ATOM     11  C   UNL     1      12.925   4.904   2.474  1.00  0.00     0.084 C 
ENDROOT
TORSDOF 0
ENDMDL
MODEL 5
REMARK VINA RESULT:    -3.491     17.969     18.816
REMARK INTER + INTRA:          -3.491
REMARK INTER:                  -3.491
REMARK INTRA:                   0.000
REMARK UNBOUND:                 0.000
REMARK SMILES CC(C)=C1CC[C@@H](C)CC1=O
REMARK SMILES IDX 8 1 7 2 6 3 5 4 4 5 2 6 1 7 3 8 10 9 11 10 9 11
REMARK H PARENT
REMARK Flexibility Score: inf
ROOT
ATOM      1  C   UNL     1      26.007  -9.387   8.595  1.00  0.00     0.008 C 
ATOM      2  C   UNL     1      25.931 -10.117   7.249  1.00  0.00    -0.006 C 
ATOM      3  C   UNL     1      26.780  -9.393   6.192  1.00  0.00     0.008 C 
ATOM      4  C   UNL     1      26.799 -10.165   4.866  1.00  0.00     0.039 C 
ATOM      5  C   UNL     1      25.399 -10.497   4.365  1.00  0.00    -0.006 C 
ATOM      6  C   UNL     1      25.123 -10.572   3.029  1.00  0.00    -0.070 C 
ATOM      7  C   UNL     1      23.727 -10.844   2.519  1.00  0.00     0.039 C 
ATOM      8  C   UNL     1      26.200 -10.345   1.993  1.00  0.00     0.039 C 
ATOM      9  C   UNL     1      24.394 -10.846   5.411  1.00  0.00     0.159 C 
ATOM     10  O   UNL     1      23.468 -11.670   5.182  1.00  0.00    -0.295 OA
ATOM     11  C   UNL     1      24.474 -10.217   6.772  1.00  0.00     0.084 C 
ENDROOT
TORSDOF 0
ENDMDL
MODEL 6
REMARK VINA RESULT:    -3.424     18.552     19.764
REMARK INTER + INTRA:          -3.424
REMARK INTER:                  -3.424
REMARK INTRA:                   0.000
REMARK UNBOUND:                 0.000
REMARK SMILES CC(C)=C1CC[C@@H](C)CC1=O
REMARK SMILES IDX 8 1 7 2 6 3 5 4 4 5 2 6 1 7 3 8 10 9 11 10 9 11
REMARK H PARENT
REMARK Flexibility Score: inf
ROOT
ATOM      1  C   UNL     1      23.390 -12.178   3.846  1.00  0.00     0.008 C 
ATOM      2  C   UNL     1      24.568 -11.920   4.792  1.00  0.00    -0.006 C 
ATOM      3  C   UNL     1      24.608 -12.977   5.906  1.00  0.00     0.008 C 
ATOM      4  C   UNL     1      25.841 -12.796   6.803  1.00  0.00     0.039 C 
ATOM      5  C   UNL     1      25.968 -11.376   7.339  1.00  0.00    -0.006 C 
ATOM      6  C   UNL     1      26.520 -11.126   8.563  1.00  0.00    -0.070 C 
ATOM      7  C   UNL     1      26.600  -9.728   9.130  1.00  0.00     0.039 C 
ATOM      8  C   UNL     1      27.044 -12.248   9.430  1.00  0.00     0.039 C 
ATOM      9  C   UNL     1      25.564 -10.284   6.405  1.00  0.00     0.159 C 
ATOM     10  O   UNL     1      26.130  -9.158   6.429  1.00  0.00    -0.295 OA
ATOM     11  C   UNL     1      24.468 -10.515   5.405  1.00  0.00     0.084 C 
ENDROOT
TORSDOF 0
ENDMDL
MODEL 7
REMARK VINA RESULT:    -3.242     18.210     19.141
REMARK INTER + INTRA:          -3.242
REMARK INTER:                  -3.242
REMARK INTRA:                   0.000
REMARK UNBOUND:                 0.000
REMARK SMILES CC(C)=C1CC[C@@H](C)CC1=O
REMARK SMILES IDX 8 1 7 2 6 3 5 4 4 5 2 6 1 7 3 8 10 9 11 10 9 11
REMARK H PARENT
REMARK Flexibility Score: inf
ROOT
ATOM      1  C   UNL     1      26.022  -9.371   8.588  1.00  0.00     0.008 C 
ATOM      2  C   UNL     1      25.597  -9.568   7.128  1.00  0.00    -0.006 C 
ATOM      3  C   UNL     1      24.419 -10.551   7.035  1.00  0.00     0.008 C 
ATOM      4  C   UNL     1      23.913 -10.680   5.592  1.00  0.00     0.039 C 
ATOM      5  C   UNL     1      25.030 -11.010   4.610  1.00  0.00    -0.006 C 
ATOM      6  C   UNL     1      24.795 -11.766   3.497  1.00  0.00    -0.070 C 
ATOM      7  C   UNL     1      25.905 -12.147   2.545  1.00  0.00     0.039 C 
ATOM      8  C   UNL     1      23.412 -12.291   3.184  1.00  0.00     0.039 C 
ATOM      9  C   UNL     1      26.349 -10.366   4.877  1.00  0.00     0.159 C 
ATOM     10  O   UNL     1      27.125 -10.045   3.936  1.00  0.00    -0.295 OA
ATOM     11  C   UNL     1      26.776 -10.081   6.288  1.00  0.00     0.084 C 
ENDROOT
TORSDOF 0
ENDMDL
