MODEL 1
REMARK VINA RESULT:     0.931      0.000      0.000
REMARK INTER + INTRA:           1.011
REMARK INTER:                   1.313
REMARK INTRA:                  -0.301
REMARK UNBOUND:                -0.301
REMARK SMILES C=C(CC[C@H](C(=O)[O-])[C@H]1[C@H](O)C[C@@]2(C)C3=C(CC[C@]12C)[C@@]1(C)CC[C@H](O)C(C)(C)[C@@H]1CC3)C(C)C
REMARK SMILES IDX 4 1 5 2 6 3 7 4 8 5 9 6 10 7 19 8 12 9 13 10 18 11 20 12
REMARK SMILES IDX 14 13 15 14 17 15 16 16 32 17 21 18 31 19 30 20 23 21 22 22
REMARK SMILES IDX 27 23 24 24 25 25 28 26 29 27 11 28 26 30 3 32 2 33 1 34
REMARK SMILES IDX 33 35 34 36 35 37
REMARK H PARENT 11 29 26 31
REMARK Flexibility Score: inf
ROOT
ATOM      1  C   UNL     1      14.023  12.882  32.886  1.00  0.00     0.014 C 
ENDROOT
BRANCH   1   2
ATOM      2  C   UNL     1      13.225  12.703  31.567  1.00  0.00     0.042 C 
BRANCH   2   3
ATOM      3  C   UNL     1      12.405  11.446  31.633  1.00  0.00     0.045 C 
ATOM      4  O   UNL     1      12.154  10.887  32.741  1.00  0.00    -0.550 OA
ATOM      5  O   UNL     1      11.911  10.878  30.465  1.00  0.00    -0.550 OA
ENDBRANCH   2   3
BRANCH   2   6
ATOM      6  C   UNL     1      14.104  12.890  30.275  1.00  0.00     0.033 C 
ATOM      7  C   UNL     1      14.332  11.677  29.324  1.00  0.00     0.119 C 
ATOM      8  C   UNL     1      13.799  14.052  29.281  1.00  0.00    -0.017 C 
ATOM      9  C   UNL     1      14.718  12.293  27.935  1.00  0.00     0.043 C 
ATOM     10  C   UNL     1      14.918  13.811  28.212  1.00  0.00    -0.003 C 
ATOM     11  C   UNL     1      13.923  15.492  29.803  1.00  0.00     0.012 C 
ATOM     12  C   UNL     1      12.354  13.877  28.657  1.00  0.00     0.013 C 
ATOM     13  C   UNL     1      16.406  14.005  28.708  1.00  0.00     0.017 C 
ATOM     14  C   UNL     1      14.736  14.765  27.042  1.00  0.00    -0.064 C 
ATOM     15  C   UNL     1      13.687  16.474  28.633  1.00  0.00     0.032 C 
ATOM     16  C   UNL     1      14.159  16.009  27.239  1.00  0.00    -0.064 C 
ATOM     17  C   UNL     1      15.372  14.392  25.703  1.00  0.00     0.032 C 
ATOM     18  C   UNL     1      13.971  16.904  26.003  1.00  0.00    -0.008 C 
ATOM     19  C   UNL     1      15.854  15.578  24.821  1.00  0.00     0.009 C 
ATOM     20  C   UNL     1      15.399  16.977  25.358  1.00  0.00     0.007 C 
ATOM     21  C   UNL     1      13.432  18.348  26.312  1.00  0.00     0.014 C 
ATOM     22  C   UNL     1      12.905  16.213  25.096  1.00  0.00     0.016 C 
ATOM     23  C   UNL     1      15.699  18.235  24.439  1.00  0.00    -0.006 C 
ATOM     24  C   UNL     1      14.542  19.377  26.497  1.00  0.00     0.033 C 
ATOM     25  C   UNL     1      15.324  19.588  25.186  1.00  0.00     0.120 C 
ATOM     26  C   UNL     1      17.219  18.285  24.116  1.00  0.00     0.014 C 
ATOM     27  C   UNL     1      14.966  18.148  23.073  1.00  0.00     0.014 C 
BRANCH   7  28
ATOM     28  O   UNL     1      15.381  10.875  29.799  1.00  0.00    -0.393 OA
ATOM     29  H   UNL     1      16.090  11.485  30.114  1.00  0.00     0.210 HD
ENDBRANCH   7  28
BRANCH  25  30
ATOM     30  O   UNL     1      14.560  20.434  24.354  1.00  0.00    -0.393 OA
ATOM     31  H   UNL     1      14.177  21.166  24.911  1.00  0.00     0.210 HD
ENDBRANCH  25  30
ENDBRANCH   2   6
ENDBRANCH   1   2
BRANCH   1  32
ATOM     32  C   UNL     1      13.320  13.818  33.887  1.00  0.00     0.031 C 
BRANCH  32  33
ATOM     33  C   UNL     1      13.744  13.703  35.355  1.00  0.00    -0.075 C 
ATOM     34  C   UNL     1      14.389  14.692  36.004  1.00  0.00     0.008 C 
BRANCH  33  35
ATOM     35  C   UNL     1      13.429  12.425  36.125  1.00  0.00     0.008 C 
ATOM     36  C   UNL     1      12.015  11.936  35.783  1.00  0.00     0.012 C 
ATOM     37  C   UNL     1      14.475  11.323  35.876  1.00  0.00     0.012 C 
ENDBRANCH  33  35
ENDBRANCH  32  33
ENDBRANCH   1  32
TORSDOF 8
ENDMDL
MODEL 2
REMARK VINA RESULT:     1.052      2.175      8.425
REMARK INTER + INTRA:           1.181
REMARK INTER:                  -1.934
REMARK INTRA:                   3.116
REMARK UNBOUND:                -0.301
REMARK SMILES C=C(CC[C@H](C(=O)[O-])[C@H]1[C@H](O)C[C@@]2(C)C3=C(CC[C@]12C)[C@@]1(C)CC[C@H](O)C(C)(C)[C@@H]1CC3)C(C)C
REMARK SMILES IDX 4 1 5 2 6 3 7 4 8 5 9 6 10 7 19 8 12 9 13 10 18 11 20 12
REMARK SMILES IDX 14 13 15 14 17 15 16 16 32 17 21 18 31 19 30 20 23 21 22 22
REMARK SMILES IDX 27 23 24 24 25 25 28 26 29 27 11 28 26 30 3 32 2 33 1 34
REMARK SMILES IDX 33 35 34 36 35 37
REMARK H PARENT 11 29 26 31
REMARK Flexibility Score: inf
ROOT
ATOM      1  C   UNL     1      15.335  15.698  24.887  1.00  0.00     0.014 C 
ENDROOT
BRANCH   1   2
ATOM      2  C   UNL     1      13.924  15.563  25.521  1.00  0.00     0.042 C 
BRANCH   2   3
ATOM      3  C   UNL     1      13.522  16.867  26.151  1.00  0.00     0.045 C 
ATOM      4  O   UNL     1      14.391  17.712  26.515  1.00  0.00    -0.550 OA
ATOM      5  O   UNL     1      12.177  17.159  26.341  1.00  0.00    -0.550 OA
ENDBRANCH   2   3
BRANCH   2   6
ATOM      6  C   UNL     1      13.763  14.282  26.420  1.00  0.00     0.033 C 
ATOM      7  C   UNL     1      14.550  12.988  26.053  1.00  0.00     0.119 C 
ATOM      8  C   UNL     1      13.961  14.376  27.963  1.00  0.00    -0.017 C 
ATOM      9  C   UNL     1      14.631  12.151  27.376  1.00  0.00     0.043 C 
ATOM     10  C   UNL     1      13.695  12.889  28.375  1.00  0.00    -0.003 C 
ATOM     11  C   UNL     1      13.003  15.282  28.754  1.00  0.00     0.012 C 
ATOM     12  C   UNL     1      15.445  14.814  28.302  1.00  0.00     0.013 C 
ATOM     13  C   UNL     1      12.229  12.351  28.129  1.00  0.00     0.017 C 
ATOM     14  C   UNL     1      13.969  12.701  29.859  1.00  0.00    -0.064 C 
ATOM     15  C   UNL     1      13.307  15.141  30.263  1.00  0.00     0.032 C 
ATOM     16  C   UNL     1      13.788  13.755  30.741  1.00  0.00    -0.064 C 
ATOM     17  C   UNL     1      14.258  11.288  30.365  1.00  0.00     0.032 C 
ATOM     18  C   UNL     1      14.123  13.502  32.220  1.00  0.00    -0.008 C 
ATOM     19  C   UNL     1      13.785  10.968  31.811  1.00  0.00     0.009 C 
ATOM     20  C   UNL     1      13.286  12.229  32.594  1.00  0.00     0.007 C 
ATOM     21  C   UNL     1      13.776  14.693  33.185  1.00  0.00     0.014 C 
ATOM     22  C   UNL     1      15.667  13.289  32.309  1.00  0.00     0.016 C 
ATOM     23  C   UNL     1      12.939  12.034  34.130  1.00  0.00    -0.006 C 
ATOM     24  C   UNL     1      12.388  14.578  33.807  1.00  0.00     0.033 C 
ATOM     25  C   UNL     1      12.301  13.356  34.741  1.00  0.00     0.120 C 
ATOM     26  C   UNL     1      11.891  10.895  34.280  1.00  0.00     0.014 C 
ATOM     27  C   UNL     1      14.179  11.596  34.957  1.00  0.00     0.014 C 
BRANCH   7  28
ATOM     28  O   UNL     1      13.862  12.261  25.069  1.00  0.00    -0.393 OA
ATOM     29  H   UNL     1      13.119  12.830  24.756  1.00  0.00     0.210 HD
ENDBRANCH   7  28
BRANCH  25  30
ATOM     30  O   UNL     1      12.915  13.699  35.965  1.00  0.00    -0.393 OA
ATOM     31  H   UNL     1      12.875  12.909  36.572  1.00  0.00     0.210 HD
ENDBRANCH  25  30
ENDBRANCH   2   6
ENDBRANCH   1   2
BRANCH   1  32
ATOM     32  C   UNL     1      16.066  16.980  25.326  1.00  0.00     0.031 C 
BRANCH  32  33
ATOM     33  C   UNL     1      17.590  16.894  25.463  1.00  0.00    -0.075 C 
ATOM     34  C   UNL     1      18.413  17.878  25.054  1.00  0.00     0.008 C 
BRANCH  33  35
ATOM     35  C   UNL     1      18.214  15.649  26.086  1.00  0.00     0.008 C 
ATOM     36  C   UNL     1      19.621  15.968  26.609  1.00  0.00     0.012 C 
ATOM     37  C   UNL     1      17.331  15.048  27.194  1.00  0.00     0.012 C 
ENDBRANCH  33  35
ENDBRANCH  32  33
ENDBRANCH   1  32
TORSDOF 8
ENDMDL
MODEL 3
REMARK VINA RESULT:     3.250      2.000      8.513
REMARK INTER + INTRA:           4.278
REMARK INTER:                   2.583
REMARK INTRA:                   1.695
REMARK UNBOUND:                -0.301
REMARK SMILES C=C(CC[C@H](C(=O)[O-])[C@H]1[C@H](O)C[C@@]2(C)C3=C(CC[C@]12C)[C@@]1(C)CC[C@H](O)C(C)(C)[C@@H]1CC3)C(C)C
REMARK SMILES IDX 4 1 5 2 6 3 7 4 8 5 9 6 10 7 19 8 12 9 13 10 18 11 20 12
REMARK SMILES IDX 14 13 15 14 17 15 16 16 32 17 21 18 31 19 30 20 23 21 22 22
REMARK SMILES IDX 27 23 24 24 25 25 28 26 29 27 11 28 26 30 3 32 2 33 1 34
REMARK SMILES IDX 33 35 34 36 35 37
REMARK H PARENT 11 29 26 31
REMARK Flexibility Score: inf
ROOT
ATOM      1  C   UNL     1      17.404  17.761  24.835  1.00  0.00     0.014 C 
ENDROOT
BRANCH   1   2
ATOM      2  C   UNL     1      15.988  17.177  24.583  1.00  0.00     0.042 C 
BRANCH   2   3
ATOM      3  C   UNL     1      15.454  17.682  23.273  1.00  0.00     0.045 C 
ATOM      4  O   UNL     1      14.224  17.589  22.990  1.00  0.00    -0.550 OA
ATOM      5  O   UNL     1      16.315  18.262  22.350  1.00  0.00    -0.550 OA
ENDBRANCH   2   3
BRANCH   2   6
ATOM      6  C   UNL     1      15.027  17.314  25.821  1.00  0.00     0.033 C 
ATOM      7  C   UNL     1      13.574  17.834  25.607  1.00  0.00     0.119 C 
ATOM      8  C   UNL     1      14.820  16.111  26.791  1.00  0.00    -0.017 C 
ATOM      9  C   UNL     1      12.754  17.326  26.842  1.00  0.00     0.043 C 
ATOM     10  C   UNL     1      13.818  16.741  27.816  1.00  0.00    -0.003 C 
ATOM     11  C   UNL     1      16.046  15.592  27.560  1.00  0.00     0.012 C 
ATOM     12  C   UNL     1      14.170  14.890  26.020  1.00  0.00     0.013 C 
ATOM     13  C   UNL     1      14.372  17.942  28.681  1.00  0.00     0.017 C 
ATOM     14  C   UNL     1      13.353  15.686  28.807  1.00  0.00    -0.064 C 
ATOM     15  C   UNL     1      15.594  14.480  28.534  1.00  0.00     0.032 C 
ATOM     16  C   UNL     1      14.184  14.629  29.142  1.00  0.00    -0.064 C 
ATOM     17  C   UNL     1      12.042  15.928  29.554  1.00  0.00     0.032 C 
ATOM     18  C   UNL     1      13.631  13.579  30.120  1.00  0.00    -0.008 C 
ATOM     19  C   UNL     1      11.959  15.351  30.996  1.00  0.00     0.009 C 
ATOM     20  C   UNL     1      13.162  14.417  31.360  1.00  0.00     0.007 C 
ATOM     21  C   UNL     1      14.666  12.479  30.558  1.00  0.00     0.014 C 
ATOM     22  C   UNL     1      12.471  12.836  29.386  1.00  0.00     0.016 C 
ATOM     23  C   UNL     1      13.084  13.649  32.747  1.00  0.00    -0.006 C 
ATOM     24  C   UNL     1      15.406  12.828  31.844  1.00  0.00     0.033 C 
ATOM     25  C   UNL     1      14.440  12.871  33.043  1.00  0.00     0.120 C 
ATOM     26  C   UNL     1      12.874  14.678  33.893  1.00  0.00     0.014 C 
ATOM     27  C   UNL     1      11.875  12.676  32.808  1.00  0.00     0.014 C 
BRANCH   7  28
ATOM     28  O   UNL     1      13.558  19.237  25.567  1.00  0.00    -0.393 OA
ATOM     29  H   UNL     1      12.695  19.505  25.172  1.00  0.00     0.210 HD
ENDBRANCH   7  28
BRANCH  25  30
ATOM     30  O   UNL     1      14.186  11.543  33.447  1.00  0.00    -0.393 OA
ATOM     31  H   UNL     1      13.229  11.470  33.715  1.00  0.00     0.210 HD
ENDBRANCH  25  30
ENDBRANCH   2   6
ENDBRANCH   1   2
BRANCH   1  32
ATOM     32  C   UNL     1      18.021  17.277  26.160  1.00  0.00     0.031 C 
BRANCH  32  33
ATOM     33  C   UNL     1      18.466  15.812  26.220  1.00  0.00    -0.075 C 
ATOM     34  C   UNL     1      17.753  14.812  25.666  1.00  0.00     0.008 C 
BRANCH  33  35
ATOM     35  C   UNL     1      19.768  15.456  26.931  1.00  0.00     0.008 C 
ATOM     36  C   UNL     1      20.584  16.726  27.207  1.00  0.00     0.012 C 
ATOM     37  C   UNL     1      19.525  14.658  28.225  1.00  0.00     0.012 C 
ENDBRANCH  33  35
ENDBRANCH  32  33
ENDBRANCH   1  32
TORSDOF 8
ENDMDL
MODEL 4
REMARK VINA RESULT:     3.348      1.699      2.619
REMARK INTER + INTRA:           4.416
REMARK INTER:                   0.600
REMARK INTRA:                   3.817
REMARK UNBOUND:                -0.301
REMARK SMILES C=C(CC[C@H](C(=O)[O-])[C@H]1[C@H](O)C[C@@]2(C)C3=C(CC[C@]12C)[C@@]1(C)CC[C@H](O)C(C)(C)[C@@H]1CC3)C(C)C
REMARK SMILES IDX 4 1 5 2 6 3 7 4 8 5 9 6 10 7 19 8 12 9 13 10 18 11 20 12
REMARK SMILES IDX 14 13 15 14 17 15 16 16 32 17 21 18 31 19 30 20 23 21 22 22
REMARK SMILES IDX 27 23 24 24 25 25 28 26 29 27 11 28 26 30 3 32 2 33 1 34
REMARK SMILES IDX 33 35 34 36 35 37
REMARK H PARENT 11 29 26 31
REMARK Flexibility Score: inf
ROOT
ATOM      1  C   UNL     1      12.793  11.151  32.011  1.00  0.00     0.014 C 
ENDROOT
BRANCH   1   2
ATOM      2  C   UNL     1      13.940  12.016  31.423  1.00  0.00     0.042 C 
BRANCH   2   3
ATOM      3  C   UNL     1      14.225  13.174  32.337  1.00  0.00     0.045 C 
ATOM      4  O   UNL     1      15.375  13.342  32.839  1.00  0.00    -0.550 OA
ATOM      5  O   UNL     1      13.218  14.081  32.642  1.00  0.00    -0.550 OA
ENDBRANCH   2   3
BRANCH   2   6
ATOM      6  C   UNL     1      13.742  12.366  29.902  1.00  0.00     0.033 C 
ATOM      7  C   UNL     1      12.301  12.409  29.310  1.00  0.00     0.119 C 
ATOM      8  C   UNL     1      14.397  13.646  29.300  1.00  0.00    -0.017 C 
ATOM      9  C   UNL     1      12.396  13.301  28.025  1.00  0.00     0.043 C 
ATOM     10  C   UNL     1      13.919  13.536  27.813  1.00  0.00    -0.003 C 
ATOM     11  C   UNL     1      15.931  13.740  29.316  1.00  0.00     0.012 C 
ATOM     12  C   UNL     1      13.817  14.942  30.001  1.00  0.00     0.013 C 
ATOM     13  C   UNL     1      14.474  12.304  26.993  1.00  0.00     0.017 C 
ATOM     14  C   UNL     1      14.334  14.778  27.039  1.00  0.00    -0.064 C 
ATOM     15  C   UNL     1      16.364  15.027  28.578  1.00  0.00     0.032 C 
ATOM     16  C   UNL     1      15.476  15.475  27.398  1.00  0.00    -0.064 C 
ATOM     17  C   UNL     1      13.572  15.116  25.757  1.00  0.00     0.032 C 
ATOM     18  C   UNL     1      15.811  16.743  26.595  1.00  0.00    -0.008 C 
ATOM     19  C   UNL     1      14.392  15.816  24.638  1.00  0.00     0.009 C 
ATOM     20  C   UNL     1      15.820  16.264  25.101  1.00  0.00     0.007 C 
ATOM     21  C   UNL     1      17.184  17.413  26.966  1.00  0.00     0.014 C 
ATOM     22  C   UNL     1      14.699  17.792  26.913  1.00  0.00     0.016 C 
ATOM     23  C   UNL     1      16.670  17.133  24.082  1.00  0.00    -0.006 C 
ATOM     24  C   UNL     1      18.340  16.937  26.094  1.00  0.00     0.033 C 
ATOM     25  C   UNL     1      18.144  17.373  24.630  1.00  0.00     0.120 C 
ATOM     26  C   UNL     1      16.790  16.371  22.732  1.00  0.00     0.014 C 
ATOM     27  C   UNL     1      15.983  18.488  23.758  1.00  0.00     0.014 C 
BRANCH   7  28
ATOM     28  O   UNL     1      11.877  11.116  28.964  1.00  0.00    -0.393 OA
ATOM     29  H   UNL     1      11.637  10.657  29.803  1.00  0.00     0.210 HD
ENDBRANCH   7  28
BRANCH  25  30
ATOM     30  O   UNL     1      18.510  18.731  24.526  1.00  0.00    -0.393 OA
ATOM     31  H   UNL     1      19.011  18.989  25.348  1.00  0.00     0.210 HD
ENDBRANCH  25  30
ENDBRANCH   2   6
ENDBRANCH   1   2
BRANCH   1  32
ATOM     32  C   UNL     1      12.946  10.906  33.524  1.00  0.00     0.031 C 
BRANCH  32  33
ATOM     33  C   UNL     1      12.694  12.103  34.446  1.00  0.00    -0.075 C 
ATOM     34  C   UNL     1      11.875  13.120  34.112  1.00  0.00     0.008 C 
BRANCH  33  35
ATOM     35  C   UNL     1      13.391  12.160  35.802  1.00  0.00     0.008 C 
ATOM     36  C   UNL     1      14.359  10.978  35.949  1.00  0.00     0.012 C 
ATOM     37  C   UNL     1      14.111  13.501  36.030  1.00  0.00     0.012 C 
ENDBRANCH  33  35
ENDBRANCH  32  33
ENDBRANCH   1  32
TORSDOF 8
ENDMDL
