MODEL 1
REMARK VINA RESULT:    -4.670      0.000      0.000
REMARK INTER + INTRA:          -4.954
REMARK INTER:                  -4.943
REMARK INTRA:                  -0.011
REMARK UNBOUND:                -0.011
REMARK SMILES O=Cc1ccccc1
REMARK SMILES IDX 6 1 5 2 4 3 3 4 8 5 7 6 2 7 1 8
REMARK H PARENT
REMARK Flexibility Score: inf
ROOT
ATOM      1  C   UNL     1     -12.859  -7.433  37.140  1.00  0.00     0.000 A 
ATOM      2  C   UNL     1     -12.680  -7.248  38.514  1.00  0.00     0.001 A 
ATOM      3  C   UNL     1     -13.590  -6.475  39.241  1.00  0.00     0.011 A 
ATOM      4  C   UNL     1     -14.689  -5.879  38.597  1.00  0.00     0.014 A 
ATOM      5  C   UNL     1     -14.861  -6.071  37.216  1.00  0.00     0.011 A 
ATOM      6  C   UNL     1     -13.949  -6.846  36.492  1.00  0.00     0.001 A 
ENDROOT
BRANCH   4   7
ATOM      7  C   UNL     1     -15.660  -5.060  39.344  1.00  0.00     0.260 C 
ATOM      8  O   UNL     1     -16.900  -5.256  39.233  1.00  0.00    -0.298 OA
ENDBRANCH   4   7
TORSDOF 1
ENDMDL
MODEL 2
REMARK VINA RESULT:    -4.652      0.071      1.715
REMARK INTER + INTRA:          -4.935
REMARK INTER:                  -4.925
REMARK INTRA:                  -0.010
REMARK UNBOUND:                -0.011
REMARK SMILES O=Cc1ccccc1
REMARK SMILES IDX 6 1 5 2 4 3 3 4 8 5 7 6 2 7 1 8
REMARK H PARENT
REMARK Flexibility Score: inf
ROOT
ATOM      1  C   UNL     1     -12.854  -7.468  37.077  1.00  0.00     0.000 A 
ATOM      2  C   UNL     1     -13.934  -6.860  36.431  1.00  0.00     0.001 A 
ATOM      3  C   UNL     1     -14.832  -6.072  37.158  1.00  0.00     0.011 A 
ATOM      4  C   UNL     1     -14.655  -5.887  38.541  1.00  0.00     0.014 A 
ATOM      5  C   UNL     1     -13.567  -6.502  39.181  1.00  0.00     0.011 A 
ATOM      6  C   UNL     1     -12.670  -7.289  38.451  1.00  0.00     0.001 A 
ENDROOT
BRANCH   4   7
ATOM      7  C   UNL     1     -15.589  -5.061  39.327  1.00  0.00     0.260 C 
ATOM      8  O   UNL     1     -16.833  -5.261  39.278  1.00  0.00    -0.298 OA
ENDBRANCH   4   7
TORSDOF 1
ENDMDL
MODEL 3
REMARK VINA RESULT:    -4.570      2.530      3.974
REMARK INTER + INTRA:          -4.849
REMARK INTER:                  -4.836
REMARK INTRA:                  -0.012
REMARK UNBOUND:                -0.011
REMARK SMILES O=Cc1ccccc1
REMARK SMILES IDX 6 1 5 2 4 3 3 4 8 5 7 6 2 7 1 8
REMARK H PARENT
REMARK Flexibility Score: inf
ROOT
ATOM      1  C   UNL     1     -14.748  -5.581  38.490  1.00  0.00     0.000 A 
ATOM      2  C   UNL     1     -14.766  -5.964  37.147  1.00  0.00     0.001 A 
ATOM      3  C   UNL     1     -13.822  -6.875  36.664  1.00  0.00     0.011 A 
ATOM      4  C   UNL     1     -12.847  -7.410  37.527  1.00  0.00     0.014 A 
ATOM      5  C   UNL     1     -12.837  -7.019  38.875  1.00  0.00     0.011 A 
ATOM      6  C   UNL     1     -13.784  -6.108  39.354  1.00  0.00     0.001 A 
ENDROOT
BRANCH   4   7
ATOM      7  C   UNL     1     -11.842  -8.371  37.039  1.00  0.00     0.260 C 
ATOM      8  O   UNL     1     -11.403  -9.287  37.785  1.00  0.00    -0.298 OA
ENDBRANCH   4   7
TORSDOF 1
ENDMDL
MODEL 4
REMARK VINA RESULT:    -4.528      1.862      2.832
REMARK INTER + INTRA:          -4.804
REMARK INTER:                  -4.790
REMARK INTRA:                  -0.013
REMARK UNBOUND:                -0.011
REMARK SMILES O=Cc1ccccc1
REMARK SMILES IDX 6 1 5 2 4 3 3 4 8 5 7 6 2 7 1 8
REMARK H PARENT
REMARK Flexibility Score: inf
ROOT
ATOM      1  C   UNL     1     -11.145  -8.579  39.223  1.00  0.00     0.000 A 
ATOM      2  C   UNL     1     -11.957  -7.574  39.754  1.00  0.00     0.001 A 
ATOM      3  C   UNL     1     -12.893  -6.926  38.942  1.00  0.00     0.011 A 
ATOM      4  C   UNL     1     -13.022  -7.282  37.587  1.00  0.00     0.014 A 
ATOM      5  C   UNL     1     -12.202  -8.293  37.062  1.00  0.00     0.011 A 
ATOM      6  C   UNL     1     -11.267  -8.939  37.878  1.00  0.00     0.001 A 
ENDROOT
BRANCH   4   7
ATOM      7  C   UNL     1     -14.002  -6.611  36.713  1.00  0.00     0.260 C 
ATOM      8  O   UNL     1     -14.729  -5.678  37.146  1.00  0.00    -0.298 OA
ENDBRANCH   4   7
TORSDOF 1
ENDMDL
MODEL 5
REMARK VINA RESULT:    -4.477      2.475      3.704
REMARK INTER + INTRA:          -4.750
REMARK INTER:                  -4.737
REMARK INTRA:                  -0.012
REMARK UNBOUND:                -0.011
REMARK SMILES O=Cc1ccccc1
REMARK SMILES IDX 6 1 5 2 4 3 3 4 8 5 7 6 2 7 1 8
REMARK H PARENT
REMARK Flexibility Score: inf
ROOT
ATOM      1  C   UNL     1     -15.002  -5.733  37.459  1.00  0.00     0.000 A 
ATOM      2  C   UNL     1     -14.229  -6.491  36.574  1.00  0.00     0.001 A 
ATOM      3  C   UNL     1     -13.141  -7.230  37.049  1.00  0.00     0.011 A 
ATOM      4  C   UNL     1     -12.817  -7.214  38.418  1.00  0.00     0.014 A 
ATOM      5  C   UNL     1     -13.599  -6.450  39.299  1.00  0.00     0.011 A 
ATOM      6  C   UNL     1     -14.687  -5.713  38.820  1.00  0.00     0.001 A 
ENDROOT
BRANCH   4   7
ATOM      7  C   UNL     1     -11.675  -7.985  38.940  1.00  0.00     0.260 C 
ATOM      8  O   UNL     1     -11.279  -9.033  38.363  1.00  0.00    -0.298 OA
ENDBRANCH   4   7
TORSDOF 1
ENDMDL
MODEL 6
REMARK VINA RESULT:    -4.461      2.292      3.331
REMARK INTER + INTRA:          -4.733
REMARK INTER:                  -4.720
REMARK INTRA:                  -0.012
REMARK UNBOUND:                -0.011
REMARK SMILES O=Cc1ccccc1
REMARK SMILES IDX 6 1 5 2 4 3 3 4 8 5 7 6 2 7 1 8
REMARK H PARENT
REMARK Flexibility Score: inf
ROOT
ATOM      1  C   UNL     1     -14.917  -5.750  37.453  1.00  0.00     0.000 A 
ATOM      2  C   UNL     1     -14.585  -5.676  38.808  1.00  0.00     0.001 A 
ATOM      3  C   UNL     1     -13.485  -6.385  39.300  1.00  0.00     0.011 A 
ATOM      4  C   UNL     1     -12.707  -7.176  38.435  1.00  0.00     0.014 A 
ATOM      5  C   UNL     1     -13.048  -7.244  37.075  1.00  0.00     0.011 A 
ATOM      6  C   UNL     1     -14.150  -6.533  36.587  1.00  0.00     0.001 A 
ENDROOT
BRANCH   4   7
ATOM      7  C   UNL     1     -11.543  -7.932  38.932  1.00  0.00     0.260 C 
ATOM      8  O   UNL     1     -11.424  -8.213  40.155  1.00  0.00    -0.298 OA
ENDBRANCH   4   7
TORSDOF 1
ENDMDL
MODEL 7
REMARK VINA RESULT:    -4.435      1.100      2.205
REMARK INTER + INTRA:          -4.705
REMARK INTER:                  -4.696
REMARK INTRA:                  -0.009
REMARK UNBOUND:                -0.011
REMARK SMILES O=Cc1ccccc1
REMARK SMILES IDX 6 1 5 2 4 3 3 4 8 5 7 6 2 7 1 8
REMARK H PARENT
REMARK Flexibility Score: inf
ROOT
ATOM      1  C   UNL     1     -11.604  -8.014  38.627  1.00  0.00     0.000 A 
ATOM      2  C   UNL     1     -12.132  -8.021  37.334  1.00  0.00     0.001 A 
ATOM      3  C   UNL     1     -13.282  -7.281  37.042  1.00  0.00     0.011 A 
ATOM      4  C   UNL     1     -13.914  -6.526  38.048  1.00  0.00     0.014 A 
ATOM      5  C   UNL     1     -13.375  -6.525  39.344  1.00  0.00     0.011 A 
ATOM      6  C   UNL     1     -12.224  -7.267  39.632  1.00  0.00     0.001 A 
ENDROOT
BRANCH   4   7
ATOM      7  C   UNL     1     -15.127  -5.739  37.762  1.00  0.00     0.260 C 
ATOM      8  O   UNL     1     -16.263  -6.136  38.137  1.00  0.00    -0.298 OA
ENDBRANCH   4   7
TORSDOF 1
ENDMDL
MODEL 8
REMARK VINA RESULT:    -4.345      1.271      2.205
REMARK INTER + INTRA:          -4.609
REMARK INTER:                  -4.598
REMARK INTRA:                  -0.011
REMARK UNBOUND:                -0.011
REMARK SMILES O=Cc1ccccc1
REMARK SMILES IDX 6 1 5 2 4 3 3 4 8 5 7 6 2 7 1 8
REMARK H PARENT
REMARK Flexibility Score: inf
ROOT
ATOM      1  C   UNL     1     -13.852  -6.803  36.667  1.00  0.00     0.000 A 
ATOM      2  C   UNL     1     -14.838  -5.947  37.165  1.00  0.00     0.001 A 
ATOM      3  C   UNL     1     -14.857  -5.615  38.523  1.00  0.00     0.011 A 
ATOM      4  C   UNL     1     -13.887  -6.139  39.396  1.00  0.00     0.014 A 
ATOM      5  C   UNL     1     -12.900  -6.998  38.886  1.00  0.00     0.011 A 
ATOM      6  C   UNL     1     -12.883  -7.329  37.527  1.00  0.00     0.001 A 
ENDROOT
BRANCH   4   7
ATOM      7  C   UNL     1     -13.889  -5.802  40.831  1.00  0.00     0.260 C 
ATOM      8  O   UNL     1     -14.964  -5.754  41.485  1.00  0.00    -0.298 OA
ENDBRANCH   4   7
TORSDOF 1
ENDMDL
MODEL 9
REMARK VINA RESULT:    -4.213      3.978      5.382
REMARK INTER + INTRA:          -4.470
REMARK INTER:                  -4.458
REMARK INTRA:                  -0.012
REMARK UNBOUND:                -0.011
REMARK SMILES O=Cc1ccccc1
REMARK SMILES IDX 6 1 5 2 4 3 3 4 8 5 7 6 2 7 1 8
REMARK H PARENT
REMARK Flexibility Score: inf
ROOT
ATOM      1  C   UNL     1     -12.467  -7.624  37.858  1.00  0.00     0.000 A 
ATOM      2  C   UNL     1     -11.857  -8.651  37.133  1.00  0.00     0.001 A 
ATOM      3  C   UNL     1     -10.948  -9.508  37.761  1.00  0.00     0.011 A 
ATOM      4  C   UNL     1     -10.642  -9.341  39.124  1.00  0.00     0.014 A 
ATOM      5  C   UNL     1     -11.260  -8.306  39.844  1.00  0.00     0.011 A 
ATOM      6  C   UNL     1     -12.169  -7.451  39.212  1.00  0.00     0.001 A 
ENDROOT
BRANCH   4   7
ATOM      7  C   UNL     1      -9.686 -10.233  39.806  1.00  0.00     0.260 C 
ATOM      8  O   UNL     1      -9.896 -10.633  40.982  1.00  0.00    -0.298 OA
ENDBRANCH   4   7
TORSDOF 1
ENDMDL
