MODEL 1
REMARK VINA RESULT:    -4.981      0.000      0.000
REMARK INTER + INTRA:          -7.021
REMARK INTER:                  -6.146
REMARK INTRA:                  -0.875
REMARK UNBOUND:                -0.875
REMARK SMILES CC(C)=CCC[C@H](C)c1ccc(C)cc1
REMARK SMILES IDX 6 1 7 2 8 3 9 4 13 5 12 6 11 7 14 8 10 9 15 10 5 11 4 12
REMARK SMILES IDX 2 13 1 14 3 15
REMARK H PARENT
REMARK Flexibility Score: inf
ROOT
ATOM      1  C   UNL     1     -13.889 -12.456  -0.030  1.00  0.00     0.012 C 
ENDROOT
BRANCH   1   2
ATOM      2  C   UNL     1     -14.909 -12.918   1.044  1.00  0.00     0.016 C 
ATOM      3  C   UNL     1     -16.123 -11.983   1.168  1.00  0.00     0.013 C 
BRANCH   2   4
ATOM      4  C   UNL     1     -14.249 -13.251   2.376  1.00  0.00    -0.045 A 
ATOM      5  C   UNL     1     -12.551 -14.164   6.244  1.00  0.00     0.044 C 
ATOM      6  C   UNL     1     -13.116 -13.835   4.894  1.00  0.00    -0.051 A 
ATOM      7  C   UNL     1     -12.997 -14.747   3.837  1.00  0.00     0.004 A 
ATOM      8  C   UNL     1     -13.833 -12.647   4.699  1.00  0.00     0.004 A 
ATOM      9  C   UNL     1     -13.556 -14.459   2.588  1.00  0.00     0.004 A 
ATOM     10  C   UNL     1     -14.394 -12.358   3.451  1.00  0.00     0.004 A 
ENDBRANCH   2   4
ENDBRANCH   1   2
BRANCH   1  11
ATOM     11  C   UNL     1     -14.241 -11.175  -0.812  1.00  0.00     0.028 C 
BRANCH  11  12
ATOM     12  C   UNL     1     -13.110 -10.179  -0.872  1.00  0.00    -0.028 C 
ATOM     13  C   UNL     1     -12.864  -9.232   0.060  1.00  0.00    -0.080 C 
ATOM     14  C   UNL     1     -11.681  -8.320  -0.141  1.00  0.00     0.039 C 
ATOM     15  C   UNL     1     -13.753  -9.038   1.266  1.00  0.00     0.039 C 
ENDBRANCH  11  12
ENDBRANCH   1  11
TORSDOF 4
ENDMDL
MODEL 2
REMARK VINA RESULT:    -4.693      2.197      4.618
REMARK INTER + INTRA:          -6.666
REMARK INTER:                  -5.449
REMARK INTRA:                  -1.217
REMARK UNBOUND:                -0.875
REMARK SMILES CC(C)=CCC[C@H](C)c1ccc(C)cc1
REMARK SMILES IDX 6 1 7 2 8 3 9 4 13 5 12 6 11 7 14 8 10 9 15 10 5 11 4 12
REMARK SMILES IDX 2 13 1 14 3 15
REMARK H PARENT
REMARK Flexibility Score: inf
ROOT
ATOM      1  C   UNL     1     -12.804 -14.694   4.294  1.00  0.00     0.012 C 
ENDROOT
BRANCH   1   2
ATOM      2  C   UNL     1     -13.604 -13.883   5.347  1.00  0.00     0.016 C 
ATOM      3  C   UNL     1     -15.093 -14.262   5.399  1.00  0.00     0.013 C 
BRANCH   2   4
ATOM      4  C   UNL     1     -13.351 -12.385   5.251  1.00  0.00    -0.045 A 
ATOM      5  C   UNL     1     -12.826  -8.101   5.021  1.00  0.00     0.044 C 
ATOM      6  C   UNL     1     -12.990  -9.591   5.079  1.00  0.00    -0.051 A 
ATOM      7  C   UNL     1     -12.170 -10.360   5.916  1.00  0.00     0.004 A 
ATOM      8  C   UNL     1     -14.014 -10.218   4.357  1.00  0.00     0.004 A 
ATOM      9  C   UNL     1     -12.346 -11.744   6.001  1.00  0.00     0.004 A 
ATOM     10  C   UNL     1     -14.192 -11.602   4.442  1.00  0.00     0.004 A 
ENDBRANCH   2   4
ENDBRANCH   1   2
BRANCH   1  11
ATOM     11  C   UNL     1     -13.578 -15.158   3.044  1.00  0.00     0.028 C 
BRANCH  11  12
ATOM     12  C   UNL     1     -13.528 -14.168   1.906  1.00  0.00    -0.028 C 
ATOM     13  C   UNL     1     -14.599 -13.516   1.402  1.00  0.00    -0.080 C 
ATOM     14  C   UNL     1     -14.377 -12.546   0.269  1.00  0.00     0.039 C 
ATOM     15  C   UNL     1     -16.001 -13.755   1.909  1.00  0.00     0.039 C 
ENDBRANCH  11  12
ENDBRANCH   1  11
TORSDOF 4
ENDMDL
MODEL 3
REMARK VINA RESULT:    -4.671      1.116      5.391
REMARK INTER + INTRA:          -6.639
REMARK INTER:                  -5.946
REMARK INTRA:                  -0.693
REMARK UNBOUND:                -0.875
REMARK SMILES CC(C)=CCC[C@H](C)c1ccc(C)cc1
REMARK SMILES IDX 6 1 7 2 8 3 9 4 13 5 12 6 11 7 14 8 10 9 15 10 5 11 4 12
REMARK SMILES IDX 2 13 1 14 3 15
REMARK H PARENT
REMARK Flexibility Score: inf
ROOT
ATOM      1  C   UNL     1     -14.973 -13.533   0.512  1.00  0.00     0.012 C 
ENDROOT
BRANCH   1   2
ATOM      2  C   UNL     1     -15.489 -12.280  -0.243  1.00  0.00     0.016 C 
ATOM      3  C   UNL     1     -15.995 -12.593  -1.661  1.00  0.00     0.013 C 
BRANCH   2   4
ATOM      4  C   UNL     1     -14.513 -11.113  -0.180  1.00  0.00    -0.045 A 
ATOM      5  C   UNL     1     -11.672  -7.875   0.168  1.00  0.00     0.044 C 
ATOM      6  C   UNL     1     -12.677  -8.981   0.037  1.00  0.00    -0.051 A 
ATOM      7  C   UNL     1     -12.736  -9.747  -1.135  1.00  0.00     0.004 A 
ATOM      8  C   UNL     1     -13.513  -9.307   1.113  1.00  0.00     0.004 A 
ATOM      9  C   UNL     1     -13.645 -10.802  -1.245  1.00  0.00     0.004 A 
ATOM     10  C   UNL     1     -14.423 -10.363   1.005  1.00  0.00     0.004 A 
ENDBRANCH   2   4
ENDBRANCH   1   2
BRANCH   1  11
ATOM     11  C   UNL     1     -15.637 -13.846   1.868  1.00  0.00     0.028 C 
BRANCH  11  12
ATOM     12  C   UNL     1     -14.863 -13.318   3.051  1.00  0.00    -0.028 C 
ATOM     13  C   UNL     1     -13.819 -13.947   3.634  1.00  0.00    -0.080 C 
ATOM     14  C   UNL     1     -13.142 -13.277   4.802  1.00  0.00     0.039 C 
ATOM     15  C   UNL     1     -13.340 -15.305   3.178  1.00  0.00     0.039 C 
ENDBRANCH  11  12
ENDBRANCH   1  11
TORSDOF 4
ENDMDL
MODEL 4
REMARK VINA RESULT:    -4.561      1.371      2.955
REMARK INTER + INTRA:          -6.503
REMARK INTER:                  -5.547
REMARK INTRA:                  -0.956
REMARK UNBOUND:                -0.875
REMARK SMILES CC(C)=CCC[C@H](C)c1ccc(C)cc1
REMARK SMILES IDX 6 1 7 2 8 3 9 4 13 5 12 6 11 7 14 8 10 9 15 10 5 11 4 12
REMARK SMILES IDX 2 13 1 14 3 15
REMARK H PARENT
REMARK Flexibility Score: inf
ROOT
ATOM      1  C   UNL     1     -15.198 -14.169   2.270  1.00  0.00     0.012 C 
ENDROOT
BRANCH   1   2
ATOM      2  C   UNL     1     -13.714 -13.865   2.603  1.00  0.00     0.016 C 
ATOM      3  C   UNL     1     -12.753 -14.984   2.166  1.00  0.00     0.013 C 
BRANCH   2   4
ATOM      4  C   UNL     1     -13.516 -13.411   4.043  1.00  0.00    -0.045 A 
ATOM      5  C   UNL     1     -12.771 -12.193   8.122  1.00  0.00     0.044 C 
ATOM      6  C   UNL     1     -13.056 -12.622   6.713  1.00  0.00    -0.051 A 
ATOM      7  C   UNL     1     -13.517 -11.693   5.771  1.00  0.00     0.004 A 
ATOM      8  C   UNL     1     -12.792 -13.937   6.308  1.00  0.00     0.004 A 
ATOM      9  C   UNL     1     -13.747 -12.081   4.448  1.00  0.00     0.004 A 
ATOM     10  C   UNL     1     -13.021 -14.327   4.986  1.00  0.00     0.004 A 
ENDBRANCH   2   4
ENDBRANCH   1   2
BRANCH   1  11
ATOM     11  C   UNL     1     -15.901 -13.198   1.300  1.00  0.00     0.028 C 
BRANCH  11  12
ATOM     12  C   UNL     1     -14.981 -12.633   0.246  1.00  0.00    -0.028 C 
ATOM     13  C   UNL     1     -14.480 -11.378   0.251  1.00  0.00    -0.080 C 
ATOM     14  C   UNL     1     -13.560 -10.971  -0.872  1.00  0.00     0.039 C 
ATOM     15  C   UNL     1     -14.840 -10.370   1.317  1.00  0.00     0.039 C 
ENDBRANCH  11  12
ENDBRANCH   1  11
TORSDOF 4
ENDMDL
MODEL 5
REMARK VINA RESULT:    -4.362      2.469      4.667
REMARK INTER + INTRA:          -6.257
REMARK INTER:                  -5.178
REMARK INTRA:                  -1.079
REMARK UNBOUND:                -0.875
REMARK SMILES CC(C)=CCC[C@H](C)c1ccc(C)cc1
REMARK SMILES IDX 6 1 7 2 8 3 9 4 13 5 12 6 11 7 14 8 10 9 15 10 5 11 4 12
REMARK SMILES IDX 2 13 1 14 3 15
REMARK H PARENT
REMARK Flexibility Score: inf
ROOT
ATOM      1  C   UNL     1     -16.112 -13.735   4.702  1.00  0.00     0.012 C 
ENDROOT
BRANCH   1   2
ATOM      2  C   UNL     1     -15.221 -14.209   5.879  1.00  0.00     0.016 C 
ATOM      3  C   UNL     1     -16.014 -14.482   7.168  1.00  0.00     0.013 C 
BRANCH   2   4
ATOM      4  C   UNL     1     -13.997 -13.326   6.083  1.00  0.00    -0.045 A 
ATOM      5  C   UNL     1     -10.646 -10.663   6.680  1.00  0.00     0.044 C 
ATOM      6  C   UNL     1     -11.794 -11.602   6.454  1.00  0.00    -0.051 A 
ATOM      7  C   UNL     1     -11.946 -12.738   7.260  1.00  0.00     0.004 A 
ATOM      8  C   UNL     1     -12.765 -11.311   5.487  1.00  0.00     0.004 A 
ATOM      9  C   UNL     1     -13.036 -13.594   7.077  1.00  0.00     0.004 A 
ATOM     10  C   UNL     1     -13.856 -12.166   5.303  1.00  0.00     0.004 A 
ENDBRANCH   2   4
ENDBRANCH   1   2
BRANCH   1  11
ATOM     11  C   UNL     1     -16.062 -14.580   3.413  1.00  0.00     0.028 C 
BRANCH  11  12
ATOM     12  C   UNL     1     -15.584 -13.808   2.208  1.00  0.00    -0.028 C 
ATOM     13  C   UNL     1     -14.305 -13.770   1.772  1.00  0.00    -0.080 C 
ATOM     14  C   UNL     1     -13.993 -12.960   0.540  1.00  0.00     0.039 C 
ATOM     15  C   UNL     1     -13.185 -14.479   2.497  1.00  0.00     0.039 C 
ENDBRANCH  11  12
ENDBRANCH   1  11
TORSDOF 4
ENDMDL
MODEL 6
REMARK VINA RESULT:    -4.302      1.629      5.578
REMARK INTER + INTRA:          -6.184
REMARK INTER:                  -5.020
REMARK INTRA:                  -1.163
REMARK UNBOUND:                -0.875
REMARK SMILES CC(C)=CCC[C@H](C)c1ccc(C)cc1
REMARK SMILES IDX 6 1 7 2 8 3 9 4 13 5 12 6 11 7 14 8 10 9 15 10 5 11 4 12
REMARK SMILES IDX 2 13 1 14 3 15
REMARK H PARENT
REMARK Flexibility Score: inf
ROOT
ATOM      1  C   UNL     1     -15.594 -14.275   4.102  1.00  0.00     0.012 C 
ENDROOT
BRANCH   1   2
ATOM      2  C   UNL     1     -14.596 -14.412   2.922  1.00  0.00     0.016 C 
ATOM      3  C   UNL     1     -13.249 -15.026   3.337  1.00  0.00     0.013 C 
BRANCH   2   4
ATOM      4  C   UNL     1     -14.465 -13.130   2.111  1.00  0.00    -0.045 A 
ATOM      5  C   UNL     1     -14.234  -9.558  -0.312  1.00  0.00     0.044 C 
ATOM      6  C   UNL     1     -14.286 -10.797   0.534  1.00  0.00    -0.051 A 
ATOM      7  C   UNL     1     -14.501 -10.701   1.915  1.00  0.00     0.004 A 
ATOM      8  C   UNL     1     -14.196 -12.062  -0.062  1.00  0.00     0.004 A 
ATOM      9  C   UNL     1     -14.589 -11.855   2.698  1.00  0.00     0.004 A 
ATOM     10  C   UNL     1     -14.284 -13.217   0.721  1.00  0.00     0.004 A 
ENDBRANCH   2   4
ENDBRANCH   1   2
BRANCH   1  11
ATOM     11  C   UNL     1     -14.989 -14.253   5.520  1.00  0.00     0.028 C 
BRANCH  11  12
ATOM     12  C   UNL     1     -15.096 -12.909   6.197  1.00  0.00    -0.028 C 
ATOM     13  C   UNL     1     -14.081 -12.026   6.325  1.00  0.00    -0.080 C 
ATOM     14  C   UNL     1     -14.357 -10.716   7.018  1.00  0.00     0.039 C 
ATOM     15  C   UNL     1     -12.685 -12.325   5.833  1.00  0.00     0.039 C 
ENDBRANCH  11  12
ENDBRANCH   1  11
TORSDOF 4
ENDMDL
MODEL 7
REMARK VINA RESULT:    -4.302     11.275     13.269
REMARK INTER + INTRA:          -6.183
REMARK INTER:                  -5.499
REMARK INTRA:                  -0.684
REMARK UNBOUND:                -0.875
REMARK SMILES CC(C)=CCC[C@H](C)c1ccc(C)cc1
REMARK SMILES IDX 6 1 7 2 8 3 9 4 13 5 12 6 11 7 14 8 10 9 15 10 5 11 4 12
REMARK SMILES IDX 2 13 1 14 3 15
REMARK H PARENT
REMARK Flexibility Score: inf
ROOT
ATOM      1  C   UNL     1      -1.859 -12.061   6.388  1.00  0.00     0.012 C 
ENDROOT
BRANCH   1   2
ATOM      2  C   UNL     1      -1.943 -10.515   6.471  1.00  0.00     0.016 C 
ATOM      3  C   UNL     1      -1.896  -9.982   7.913  1.00  0.00     0.013 C 
BRANCH   2   4
ATOM      4  C   UNL     1      -3.082  -9.942   5.639  1.00  0.00    -0.045 A 
ATOM      5  C   UNL     1      -6.184  -8.250   3.149  1.00  0.00     0.044 C 
ATOM      6  C   UNL     1      -5.122  -8.831   4.037  1.00  0.00    -0.051 A 
ATOM      7  C   UNL     1      -5.171 -10.181   4.406  1.00  0.00     0.004 A 
ATOM      8  C   UNL     1      -4.034  -8.046   4.441  1.00  0.00     0.004 A 
ATOM      9  C   UNL     1      -4.163 -10.734   5.201  1.00  0.00     0.004 A 
ATOM     10  C   UNL     1      -3.024  -8.598   5.235  1.00  0.00     0.004 A 
ENDBRANCH   2   4
ENDBRANCH   1   2
BRANCH   1  11
ATOM     11  C   UNL     1      -0.538 -12.654   5.858  1.00  0.00     0.028 C 
BRANCH  11  12
ATOM     12  C   UNL     1       0.378 -11.624   5.245  1.00  0.00    -0.028 C 
ATOM     13  C   UNL     1       1.710 -11.777   5.077  1.00  0.00    -0.080 C 
ATOM     14  C   UNL     1       2.484 -10.655   4.433  1.00  0.00     0.039 C 
ATOM     15  C   UNL     1       2.446 -13.011   5.545  1.00  0.00     0.039 C 
ENDBRANCH  11  12
ENDBRANCH   1  11
TORSDOF 4
ENDMDL
MODEL 8
REMARK VINA RESULT:    -4.289      1.488      5.562
REMARK INTER + INTRA:          -6.167
REMARK INTER:                  -5.361
REMARK INTRA:                  -0.805
REMARK UNBOUND:                -0.875
REMARK SMILES CC(C)=CCC[C@H](C)c1ccc(C)cc1
REMARK SMILES IDX 6 1 7 2 8 3 9 4 13 5 12 6 11 7 14 8 10 9 15 10 5 11 4 12
REMARK SMILES IDX 2 13 1 14 3 15
REMARK H PARENT
REMARK Flexibility Score: inf
ROOT
ATOM      1  C   UNL     1     -15.734 -14.288   4.056  1.00  0.00     0.012 C 
ENDROOT
BRANCH   1   2
ATOM      2  C   UNL     1     -14.773 -14.470   2.852  1.00  0.00     0.016 C 
ATOM      3  C   UNL     1     -13.441 -15.137   3.235  1.00  0.00     0.013 C 
BRANCH   2   4
ATOM      4  C   UNL     1     -14.612 -13.198   2.031  1.00  0.00    -0.045 A 
ATOM      5  C   UNL     1     -14.013  -9.530  -0.176  1.00  0.00     0.044 C 
ATOM      6  C   UNL     1     -14.249 -10.802   0.585  1.00  0.00    -0.051 A 
ATOM      7  C   UNL     1     -14.192 -12.039  -0.071  1.00  0.00     0.004 A 
ATOM      8  C   UNL     1     -14.453 -10.768   1.971  1.00  0.00     0.004 A 
ATOM      9  C   UNL     1     -14.373 -13.227   0.643  1.00  0.00     0.004 A 
ATOM     10  C   UNL     1     -14.633 -11.955   2.686  1.00  0.00     0.004 A 
ENDBRANCH   2   4
ENDBRANCH   1   2
BRANCH   1  11
ATOM     11  C   UNL     1     -15.102 -14.348   5.461  1.00  0.00     0.028 C 
BRANCH  11  12
ATOM     12  C   UNL     1     -14.482 -13.042   5.895  1.00  0.00    -0.028 C 
ATOM     13  C   UNL     1     -13.248 -12.914   6.431  1.00  0.00    -0.080 C 
ATOM     14  C   UNL     1     -12.769 -11.533   6.801  1.00  0.00     0.039 C 
ATOM     15  C   UNL     1     -12.358 -14.104   6.702  1.00  0.00     0.039 C 
ENDBRANCH  11  12
ENDBRANCH   1  11
TORSDOF 4
ENDMDL
MODEL 9
REMARK VINA RESULT:    -4.266      2.971      5.614
REMARK INTER + INTRA:          -6.138
REMARK INTER:                  -5.597
REMARK INTRA:                  -0.541
REMARK UNBOUND:                -0.875
REMARK SMILES CC(C)=CCC[C@H](C)c1ccc(C)cc1
REMARK SMILES IDX 6 1 7 2 8 3 9 4 13 5 12 6 11 7 14 8 10 9 15 10 5 11 4 12
REMARK SMILES IDX 2 13 1 14 3 15
REMARK H PARENT
REMARK Flexibility Score: inf
ROOT
ATOM      1  C   UNL     1     -13.078 -13.512   4.769  1.00  0.00     0.012 C 
ENDROOT
BRANCH   1   2
ATOM      2  C   UNL     1     -13.178 -13.975   6.245  1.00  0.00     0.016 C 
ATOM      3  C   UNL     1     -14.575 -13.762   6.854  1.00  0.00     0.013 C 
BRANCH   2   4
ATOM      4  C   UNL     1     -12.042 -13.442   7.107  1.00  0.00    -0.045 A 
ATOM      5  C   UNL     1      -8.695 -12.055   9.463  1.00  0.00     0.044 C 
ATOM      6  C   UNL     1      -9.874 -12.533   8.668  1.00  0.00    -0.051 A 
ATOM      7  C   UNL     1     -10.657 -11.622   7.948  1.00  0.00     0.004 A 
ATOM      8  C   UNL     1     -10.156 -13.903   8.578  1.00  0.00     0.004 A 
ATOM      9  C   UNL     1     -11.733 -12.069   7.175  1.00  0.00     0.004 A 
ATOM     10  C   UNL     1     -11.230 -14.352   7.805  1.00  0.00     0.004 A 
ENDBRANCH   2   4
ENDBRANCH   1   2
BRANCH   1  11
ATOM     11  C   UNL     1     -13.138 -14.614   3.692  1.00  0.00     0.028 C 
BRANCH  11  12
ATOM     12  C   UNL     1     -13.680 -14.131   2.369  1.00  0.00    -0.028 C 
ATOM     13  C   UNL     1     -14.992 -14.022   2.065  1.00  0.00    -0.080 C 
ATOM     14  C   UNL     1     -15.369 -13.508   0.699  1.00  0.00     0.039 C 
ATOM     15  C   UNL     1     -16.080 -14.431   3.029  1.00  0.00     0.039 C 
ENDBRANCH  11  12
ENDBRANCH   1  11
TORSDOF 4
ENDMDL
