MODEL 1
REMARK VINA RESULT:    -8.049      0.000      0.000
REMARK INTER + INTRA:          -8.759
REMARK INTER:                  -8.755
REMARK INTRA:                  -0.004
REMARK UNBOUND:                -0.004
REMARK SMILES C[C@@H]1[C@@H](C)CC[C@@]2(C(=O)[O-])CC[C@@]3(C)C(=CC[C@@H]4[C@]5(C)CC[C@H](O)C(C)(C)[C@@H]5CC[C@@]43C)[C@@H]12
REMARK SMILES IDX 7 1 6 2 11 3 33 4 5 5 12 6 15 7 2 8 3 9 13 10 16 11 1 12
REMARK SMILES IDX 4 13 14 14 31 15 17 16 18 17 30 18 32 19 19 20 29 21 28 22
REMARK SMILES IDX 21 23 20 24 25 25 22 26 23 27 26 28 27 29 8 30 9 31 10 32
REMARK SMILES IDX 24 33
REMARK H PARENT 24 34
REMARK Flexibility Score: inf
ROOT
ATOM      1  C   UNL     1      19.449  38.788  36.636  1.00  0.00     0.017 C 
ATOM      2  C   UNL     1      19.751  39.806  35.496  1.00  0.00     0.014 C 
ATOM      3  C   UNL     1      18.168  37.982  36.228  1.00  0.00     0.014 C 
ATOM      4  C   UNL     1      20.718  37.862  36.871  1.00  0.00     0.030 C 
ATOM      5  C   UNL     1      21.007  40.648  35.741  1.00  0.00     0.004 C 
ATOM      6  C   UNL     1      18.312  36.475  36.444  1.00  0.00     0.013 C 
ATOM      7  C   UNL     1      20.767  36.661  35.884  1.00  0.00    -0.063 C 
ATOM      8  C   UNL     1      22.049  38.700  37.043  1.00  0.00    -0.003 C 
ATOM      9  C   UNL     1      22.262  39.783  35.945  1.00  0.00    -0.011 C 
ATOM     10  C   UNL     1      19.477  35.867  35.593  1.00  0.00    -0.006 C 
ATOM     11  C   UNL     1      21.926  36.136  35.421  1.00  0.00    -0.027 C 
ATOM     12  C   UNL     1      22.167  39.335  38.446  1.00  0.00     0.008 C 
ATOM     13  C   UNL     1      22.765  39.203  34.614  1.00  0.00     0.008 C 
ATOM     14  C   UNL     1      19.097  36.096  34.088  1.00  0.00     0.017 C 
ATOM     15  C   UNL     1      19.707  34.295  35.925  1.00  0.00    -0.020 C 
ATOM     16  C   UNL     1      21.953  34.835  34.678  1.00  0.00     0.032 C 
ATOM     17  C   UNL     1      21.140  33.764  35.458  1.00  0.00     0.006 C 
ATOM     18  C   UNL     1      18.594  33.450  35.266  1.00  0.00     0.008 C 
ATOM     19  C   UNL     1      19.613  34.065  37.472  1.00  0.00     0.012 C 
ATOM     20  C   UNL     1      21.233  32.295  34.819  1.00  0.00    -0.025 C 
ATOM     21  C   UNL     1      18.705  31.956  35.534  1.00  0.00     0.005 C 
ATOM     22  C   UNL     1      20.131  31.317  35.422  1.00  0.00     0.003 C 
ATOM     23  C   UNL     1      21.091  32.328  33.263  1.00  0.00     0.010 C 
ATOM     24  C   UNL     1      22.673  31.768  35.177  1.00  0.00     0.012 C 
ATOM     25  C   UNL     1      20.066  29.875  34.736  1.00  0.00    -0.006 C 
ATOM     26  C   UNL     1      21.042  30.940  32.594  1.00  0.00     0.033 C 
ATOM     27  C   UNL     1      19.965  30.010  33.182  1.00  0.00     0.120 C 
ATOM     28  C   UNL     1      21.304  29.001  35.103  1.00  0.00     0.014 C 
ATOM     29  C   UNL     1      18.855  29.045  35.269  1.00  0.00     0.014 C 
ENDROOT
BRANCH   1  30
ATOM     30  C   UNL     1      19.087  39.516  37.929  1.00  0.00     0.048 C 
ATOM     31  O   UNL     1      18.932  40.767  37.948  1.00  0.00    -0.550 OA
ATOM     32  O   UNL     1      18.795  38.792  39.080  1.00  0.00    -0.550 OA
ENDBRANCH   1  30
BRANCH  27  33
ATOM     33  O   UNL     1      18.696  30.475  32.796  1.00  0.00    -0.393 OA
ATOM     34  H   UNL     1      18.220  30.749  33.623  1.00  0.00     0.210 HD
ENDBRANCH  27  33
TORSDOF 2
ENDMDL
MODEL 2
REMARK VINA RESULT:    -7.801      1.098      7.935
REMARK INTER + INTRA:          -8.488
REMARK INTER:                  -8.473
REMARK INTRA:                  -0.015
REMARK UNBOUND:                -0.004
REMARK SMILES C[C@@H]1[C@@H](C)CC[C@@]2(C(=O)[O-])CC[C@@]3(C)C(=CC[C@@H]4[C@]5(C)CC[C@H](O)C(C)(C)[C@@H]5CC[C@@]43C)[C@@H]12
REMARK SMILES IDX 7 1 6 2 11 3 33 4 5 5 12 6 15 7 2 8 3 9 13 10 16 11 1 12
REMARK SMILES IDX 4 13 14 14 31 15 17 16 18 17 30 18 32 19 19 20 29 21 28 22
REMARK SMILES IDX 21 23 20 24 25 25 22 26 23 27 26 28 27 29 8 30 9 31 10 32
REMARK SMILES IDX 24 33
REMARK H PARENT 24 34
REMARK Flexibility Score: inf
ROOT
ATOM      1  C   UNL     1      18.889  31.536  34.639  1.00  0.00     0.017 C 
ATOM      2  C   UNL     1      19.371  30.491  35.690  1.00  0.00     0.014 C 
ATOM      3  C   UNL     1      17.832  32.460  35.335  1.00  0.00     0.014 C 
ATOM      4  C   UNL     1      20.140  32.336  34.075  1.00  0.00     0.030 C 
ATOM      5  C   UNL     1      20.441  29.532  35.159  1.00  0.00     0.004 C 
ATOM      6  C   UNL     1      18.057  33.946  35.058  1.00  0.00     0.013 C 
ATOM      7  C   UNL     1      20.546  33.525  34.993  1.00  0.00    -0.063 C 
ATOM      8  C   UNL     1      21.302  31.375  33.595  1.00  0.00    -0.003 C 
ATOM      9  C   UNL     1      21.680  30.274  34.629  1.00  0.00    -0.011 C 
ATOM     10  C   UNL     1      19.449  34.438  35.579  1.00  0.00    -0.006 C 
ATOM     11  C   UNL     1      21.828  33.936  35.141  1.00  0.00    -0.027 C 
ATOM     12  C   UNL     1      21.006  30.734  32.222  1.00  0.00     0.008 C 
ATOM     13  C   UNL     1      22.552  30.800  35.780  1.00  0.00     0.008 C 
ATOM     14  C   UNL     1      19.438  34.244  37.135  1.00  0.00     0.017 C 
ATOM     15  C   UNL     1      19.735  35.981  35.165  1.00  0.00    -0.020 C 
ATOM     16  C   UNL     1      22.161  35.226  35.825  1.00  0.00     0.032 C 
ATOM     17  C   UNL     1      21.282  36.372  35.249  1.00  0.00     0.006 C 
ATOM     18  C   UNL     1      18.906  36.927  36.062  1.00  0.00     0.008 C 
ATOM     19  C   UNL     1      19.279  36.222  33.686  1.00  0.00     0.012 C 
ATOM     20  C   UNL     1      21.669  37.823  35.813  1.00  0.00    -0.025 C 
ATOM     21  C   UNL     1      19.085  38.405  35.742  1.00  0.00     0.005 C 
ATOM     22  C   UNL     1      20.548  38.904  35.481  1.00  0.00     0.003 C 
ATOM     23  C   UNL     1      21.917  37.801  37.356  1.00  0.00     0.010 C 
ATOM     24  C   UNL     1      23.016  38.211  35.096  1.00  0.00     0.012 C 
ATOM     25  C   UNL     1      20.791  40.344  36.131  1.00  0.00    -0.006 C 
ATOM     26  C   UNL     1      22.167  39.185  37.985  1.00  0.00     0.033 C 
ATOM     27  C   UNL     1      21.070  40.216  37.664  1.00  0.00     0.120 C 
ATOM     28  C   UNL     1      21.973  41.096  35.448  1.00  0.00     0.014 C 
ATOM     29  C   UNL     1      19.568  41.288  35.898  1.00  0.00     0.014 C 
ENDROOT
BRANCH   1  30
ATOM     30  C   UNL     1      18.149  30.849  33.494  1.00  0.00     0.048 C 
ATOM     31  O   UNL     1      17.836  29.629  33.561  1.00  0.00    -0.550 OA
ATOM     32  O   UNL     1      17.694  31.593  32.410  1.00  0.00    -0.550 OA
ENDBRANCH   1  30
BRANCH  27  33
ATOM     33  O   UNL     1      19.899  39.874  38.363  1.00  0.00    -0.393 OA
ATOM     34  H   UNL     1      19.985  38.922  38.632  1.00  0.00     0.210 HD
ENDBRANCH  27  33
TORSDOF 2
ENDMDL
MODEL 3
REMARK VINA RESULT:    -7.792      3.234      8.429
REMARK INTER + INTRA:          -8.479
REMARK INTER:                  -8.462
REMARK INTRA:                  -0.017
REMARK UNBOUND:                -0.004
REMARK SMILES C[C@@H]1[C@@H](C)CC[C@@]2(C(=O)[O-])CC[C@@]3(C)C(=CC[C@@H]4[C@]5(C)CC[C@H](O)C(C)(C)[C@@H]5CC[C@@]43C)[C@@H]12
REMARK SMILES IDX 7 1 6 2 11 3 33 4 5 5 12 6 15 7 2 8 3 9 13 10 16 11 1 12
REMARK SMILES IDX 4 13 14 14 31 15 17 16 18 17 30 18 32 19 19 20 29 21 28 22
REMARK SMILES IDX 21 23 20 24 25 25 22 26 23 27 26 28 27 29 8 30 9 31 10 32
REMARK SMILES IDX 24 33
REMARK H PARENT 24 34
REMARK Flexibility Score: inf
ROOT
ATOM      1  C   UNL     1      25.247  33.268  33.783  1.00  0.00     0.017 C 
ATOM      2  C   UNL     1      24.499  31.904  33.878  1.00  0.00     0.014 C 
ATOM      3  C   UNL     1      24.456  34.177  32.781  1.00  0.00     0.014 C 
ATOM      4  C   UNL     1      25.374  33.905  35.232  1.00  0.00     0.030 C 
ATOM      5  C   UNL     1      25.143  30.917  34.856  1.00  0.00     0.004 C 
ATOM      6  C   UNL     1      24.247  35.601  33.296  1.00  0.00     0.013 C 
ATOM      7  C   UNL     1      24.099  34.693  35.648  1.00  0.00    -0.063 C 
ATOM      8  C   UNL     1      25.958  32.882  36.290  1.00  0.00    -0.003 C 
ATOM      9  C   UNL     1      25.257  31.492  36.278  1.00  0.00    -0.011 C 
ATOM     10  C   UNL     1      23.421  35.630  34.627  1.00  0.00    -0.006 C 
ATOM     11  C   UNL     1      23.666  34.768  36.929  1.00  0.00    -0.027 C 
ATOM     12  C   UNL     1      27.487  32.707  36.157  1.00  0.00     0.008 C 
ATOM     13  C   UNL     1      23.896  31.496  36.992  1.00  0.00     0.008 C 
ATOM     14  C   UNL     1      22.009  35.036  34.289  1.00  0.00     0.017 C 
ATOM     15  C   UNL     1      23.316  37.130  35.236  1.00  0.00    -0.020 C 
ATOM     16  C   UNL     1      22.591  35.730  37.335  1.00  0.00     0.032 C 
ATOM     17  C   UNL     1      22.913  37.146  36.782  1.00  0.00     0.006 C 
ATOM     18  C   UNL     1      22.298  37.958  34.420  1.00  0.00     0.008 C 
ATOM     19  C   UNL     1      24.704  37.846  35.114  1.00  0.00     0.012 C 
ATOM     20  C   UNL     1      21.897  38.280  37.289  1.00  0.00    -0.025 C 
ATOM     21  C   UNL     1      22.137  39.394  34.898  1.00  0.00     0.005 C 
ATOM     22  C   UNL     1      22.040  39.622  36.445  1.00  0.00     0.003 C 
ATOM     23  C   UNL     1      20.412  37.797  37.234  1.00  0.00     0.010 C 
ATOM     24  C   UNL     1      22.279  38.549  38.793  1.00  0.00     0.012 C 
ATOM     25  C   UNL     1      20.965  40.753  36.796  1.00  0.00    -0.006 C 
ATOM     26  C   UNL     1      19.372  38.879  37.586  1.00  0.00     0.033 C 
ATOM     27  C   UNL     1      19.517  40.167  36.754  1.00  0.00     0.120 C 
ATOM     28  C   UNL     1      21.229  41.390  38.193  1.00  0.00     0.014 C 
ATOM     29  C   UNL     1      21.069  41.962  35.811  1.00  0.00     0.014 C 
ENDROOT
BRANCH   1  30
ATOM     30  C   UNL     1      26.633  33.083  33.170  1.00  0.00     0.048 C 
ATOM     31  O   UNL     1      26.946  32.012  32.582  1.00  0.00    -0.550 OA
ATOM     32  O   UNL     1      27.530  34.145  33.138  1.00  0.00    -0.550 OA
ENDBRANCH   1  30
BRANCH  27  33
ATOM     33  O   UNL     1      19.114  39.907  35.432  1.00  0.00    -0.393 OA
ATOM     34  H   UNL     1      18.222  40.328  35.309  1.00  0.00     0.210 HD
ENDBRANCH  27  33
TORSDOF 2
ENDMDL
MODEL 4
REMARK VINA RESULT:    -7.559      1.782      2.768
REMARK INTER + INTRA:          -8.226
REMARK INTER:                  -8.224
REMARK INTRA:                  -0.001
REMARK UNBOUND:                -0.004
REMARK SMILES C[C@@H]1[C@@H](C)CC[C@@]2(C(=O)[O-])CC[C@@]3(C)C(=CC[C@@H]4[C@]5(C)CC[C@H](O)C(C)(C)[C@@H]5CC[C@@]43C)[C@@H]12
REMARK SMILES IDX 7 1 6 2 11 3 33 4 5 5 12 6 15 7 2 8 3 9 13 10 16 11 1 12
REMARK SMILES IDX 4 13 14 14 31 15 17 16 18 17 30 18 32 19 19 20 29 21 28 22
REMARK SMILES IDX 21 23 20 24 25 25 22 26 23 27 26 28 27 29 8 30 9 31 10 32
REMARK SMILES IDX 24 33
REMARK H PARENT 24 34
REMARK Flexibility Score: inf
ROOT
ATOM      1  C   UNL     1      21.530  38.191  37.614  1.00  0.00     0.017 C 
ATOM      2  C   UNL     1      20.295  39.125  37.784  1.00  0.00     0.014 C 
ATOM      3  C   UNL     1      21.332  36.960  38.564  1.00  0.00     0.014 C 
ATOM      4  C   UNL     1      21.679  37.780  36.087  1.00  0.00     0.030 C 
ATOM      5  C   UNL     1      20.332  40.364  36.884  1.00  0.00     0.004 C 
ATOM      6  C   UNL     1      21.634  35.623  37.887  1.00  0.00     0.013 C 
ATOM      7  C   UNL     1      20.779  36.570  35.708  1.00  0.00    -0.063 C 
ATOM      8  C   UNL     1      21.636  39.033  35.121  1.00  0.00    -0.003 C 
ATOM      9  C   UNL     1      20.448  40.002  35.394  1.00  0.00    -0.011 C 
ATOM     10  C   UNL     1      20.696  35.359  36.661  1.00  0.00    -0.006 C 
ATOM     11  C   UNL     1      20.221  36.423  34.483  1.00  0.00    -0.027 C 
ATOM     12  C   UNL     1      22.968  39.815  35.112  1.00  0.00     0.008 C 
ATOM     13  C   UNL     1      19.111  39.490  34.836  1.00  0.00     0.008 C 
ATOM     14  C   UNL     1      19.234  35.286  37.224  1.00  0.00     0.017 C 
ATOM     15  C   UNL     1      21.108  34.003  35.870  1.00  0.00    -0.020 C 
ATOM     16  C   UNL     1      19.572  35.137  34.068  1.00  0.00     0.032 C 
ATOM     17  C   UNL     1      20.514  33.943  34.388  1.00  0.00     0.006 C 
ATOM     18  C   UNL     1      20.644  32.767  36.671  1.00  0.00     0.008 C 
ATOM     19  C   UNL     1      22.667  33.920  35.745  1.00  0.00     0.012 C 
ATOM     20  C   UNL     1      19.972  32.534  33.844  1.00  0.00    -0.025 C 
ATOM     21  C   UNL     1      21.000  31.436  36.025  1.00  0.00     0.005 C 
ATOM     22  C   UNL     1      20.766  31.310  34.480  1.00  0.00     0.003 C 
ATOM     23  C   UNL     1      18.445  32.352  34.122  1.00  0.00     0.010 C 
ATOM     24  C   UNL     1      20.195  32.567  32.285  1.00  0.00     0.012 C 
ATOM     25  C   UNL     1      20.194  29.867  34.098  1.00  0.00    -0.006 C 
ATOM     26  C   UNL     1      17.884  30.968  33.742  1.00  0.00     0.033 C 
ATOM     27  C   UNL     1      18.657  29.795  34.373  1.00  0.00     0.120 C 
ATOM     28  C   UNL     1      20.474  29.509  32.607  1.00  0.00     0.014 C 
ATOM     29  C   UNL     1      20.922  28.737  34.894  1.00  0.00     0.014 C 
ENDROOT
BRANCH   1  30
ATOM     30  C   UNL     1      22.803  38.885  38.095  1.00  0.00     0.048 C 
ATOM     31  O   UNL     1      22.748  39.881  38.866  1.00  0.00    -0.550 OA
ATOM     32  O   UNL     1      24.049  38.347  37.791  1.00  0.00    -0.550 OA
ENDBRANCH   1  30
BRANCH  27  33
ATOM     33  O   UNL     1      18.391  29.759  35.753  1.00  0.00    -0.393 OA
ATOM     34  H   UNL     1      18.010  30.642  36.002  1.00  0.00     0.210 HD
ENDBRANCH  27  33
TORSDOF 2
ENDMDL
MODEL 5
REMARK VINA RESULT:    -7.493      4.148      6.517
REMARK INTER + INTRA:          -8.153
REMARK INTER:                  -8.134
REMARK INTRA:                  -0.019
REMARK UNBOUND:                -0.004
REMARK SMILES C[C@@H]1[C@@H](C)CC[C@@]2(C(=O)[O-])CC[C@@]3(C)C(=CC[C@@H]4[C@]5(C)CC[C@H](O)C(C)(C)[C@@H]5CC[C@@]43C)[C@@H]12
REMARK SMILES IDX 7 1 6 2 11 3 33 4 5 5 12 6 15 7 2 8 3 9 13 10 16 11 1 12
REMARK SMILES IDX 4 13 14 14 31 15 17 16 18 17 30 18 32 19 19 20 29 21 28 22
REMARK SMILES IDX 21 23 20 24 25 25 22 26 23 27 26 28 27 29 8 30 9 31 10 32
REMARK SMILES IDX 24 33
REMARK H PARENT 24 34
REMARK Flexibility Score: inf
ROOT
ATOM      1  C   UNL     1      24.623  32.986  34.260  1.00  0.00     0.017 C 
ATOM      2  C   UNL     1      25.364  31.624  34.416  1.00  0.00     0.014 C 
ATOM      3  C   UNL     1      24.146  33.102  32.772  1.00  0.00     0.014 C 
ATOM      4  C   UNL     1      23.429  33.063  35.305  1.00  0.00     0.030 C 
ATOM      5  C   UNL     1      25.862  31.354  35.839  1.00  0.00     0.004 C 
ATOM      6  C   UNL     1      22.698  33.575  32.640  1.00  0.00     0.013 C 
ATOM      7  C   UNL     1      22.141  32.363  34.784  1.00  0.00    -0.063 C 
ATOM      8  C   UNL     1      23.892  32.705  36.775  1.00  0.00    -0.003 C 
ATOM      9  C   UNL     1      24.725  31.393  36.874  1.00  0.00    -0.011 C 
ATOM     10  C   UNL     1      21.692  32.590  33.326  1.00  0.00    -0.006 C 
ATOM     11  C   UNL     1      21.267  31.730  35.602  1.00  0.00    -0.027 C 
ATOM     12  C   UNL     1      24.650  33.868  37.452  1.00  0.00     0.008 C 
ATOM     13  C   UNL     1      23.862  30.123  36.807  1.00  0.00     0.008 C 
ATOM     14  C   UNL     1      21.816  31.224  32.564  1.00  0.00     0.017 C 
ATOM     15  C   UNL     1      20.174  33.163  33.296  1.00  0.00    -0.020 C 
ATOM     16  C   UNL     1      19.921  31.286  35.114  1.00  0.00     0.032 C 
ATOM     17  C   UNL     1      19.220  32.453  34.364  1.00  0.00     0.006 C 
ATOM     18  C   UNL     1      19.582  33.006  31.878  1.00  0.00     0.008 C 
ATOM     19  C   UNL     1      20.183  34.693  33.631  1.00  0.00     0.012 C 
ATOM     20  C   UNL     1      17.710  32.125  33.932  1.00  0.00    -0.025 C 
ATOM     21  C   UNL     1      18.161  33.533  31.734  1.00  0.00     0.005 C 
ATOM     22  C   UNL     1      17.153  33.183  32.881  1.00  0.00     0.003 C 
ATOM     23  C   UNL     1      17.576  30.689  33.332  1.00  0.00     0.010 C 
ATOM     24  C   UNL     1      16.866  32.193  35.260  1.00  0.00     0.012 C 
ATOM     25  C   UNL     1      15.704  32.847  32.294  1.00  0.00    -0.006 C 
ATOM     26  C   UNL     1      16.178  30.353  32.778  1.00  0.00     0.033 C 
ATOM     27  C   UNL     1      15.657  31.380  31.756  1.00  0.00     0.120 C 
ATOM     28  C   UNL     1      14.586  33.046  33.361  1.00  0.00     0.014 C 
ATOM     29  C   UNL     1      15.308  33.837  31.153  1.00  0.00     0.014 C 
ENDROOT
BRANCH   1  30
ATOM     30  C   UNL     1      25.585  34.152  34.479  1.00  0.00     0.048 C 
ATOM     31  O   UNL     1      26.831  33.968  34.521  1.00  0.00    -0.550 OA
ATOM     32  O   UNL     1      25.105  35.457  34.508  1.00  0.00    -0.550 OA
ENDBRANCH   1  30
BRANCH  27  33
ATOM     33  O   UNL     1      16.392  31.255  30.564  1.00  0.00    -0.393 OA
ATOM     34  H   UNL     1      15.737  31.213  29.818  1.00  0.00     0.210 HD
ENDBRANCH  27  33
TORSDOF 2
ENDMDL
MODEL 6
REMARK VINA RESULT:    -7.492      2.219      7.848
REMARK INTER + INTRA:          -8.153
REMARK INTER:                  -8.133
REMARK INTRA:                  -0.020
REMARK UNBOUND:                -0.004
REMARK SMILES C[C@@H]1[C@@H](C)CC[C@@]2(C(=O)[O-])CC[C@@]3(C)C(=CC[C@@H]4[C@]5(C)CC[C@H](O)C(C)(C)[C@@H]5CC[C@@]43C)[C@@H]12
REMARK SMILES IDX 7 1 6 2 11 3 33 4 5 5 12 6 15 7 2 8 3 9 13 10 16 11 1 12
REMARK SMILES IDX 4 13 14 14 31 15 17 16 18 17 30 18 32 19 19 20 29 21 28 22
REMARK SMILES IDX 21 23 20 24 25 25 22 26 23 27 26 28 27 29 8 30 9 31 10 32
REMARK SMILES IDX 24 33
REMARK H PARENT 24 34
REMARK Flexibility Score: inf
ROOT
ATOM      1  C   UNL     1      21.179  32.661  33.586  1.00  0.00     0.017 C 
ATOM      2  C   UNL     1      20.254  31.562  32.982  1.00  0.00     0.014 C 
ATOM      3  C   UNL     1      20.711  34.044  33.015  1.00  0.00     0.014 C 
ATOM      4  C   UNL     1      21.121  32.591  35.172  1.00  0.00     0.030 C 
ATOM      5  C   UNL     1      20.572  30.149  33.481  1.00  0.00     0.004 C 
ATOM      6  C   UNL     1      20.600  35.130  34.085  1.00  0.00     0.013 C 
ATOM      7  C   UNL     1      19.906  33.368  35.755  1.00  0.00    -0.063 C 
ATOM      8  C   UNL     1      21.361  31.125  35.718  1.00  0.00    -0.003 C 
ATOM      9  C   UNL     1      20.497  30.038  35.013  1.00  0.00    -0.011 C 
ATOM     10  C   UNL     1      19.555  34.761  35.192  1.00  0.00    -0.006 C 
ATOM     11  C   UNL     1      19.259  32.983  36.880  1.00  0.00    -0.027 C 
ATOM     12  C   UNL     1      22.852  30.723  35.686  1.00  0.00     0.008 C 
ATOM     13  C   UNL     1      19.041  30.013  35.503  1.00  0.00     0.008 C 
ATOM     14  C   UNL     1      18.164  34.657  34.476  1.00  0.00     0.017 C 
ATOM     15  C   UNL     1      19.538  35.854  36.391  1.00  0.00    -0.020 C 
ATOM     16  C   UNL     1      18.262  33.877  37.555  1.00  0.00     0.032 C 
ATOM     17  C   UNL     1      18.864  35.299  37.729  1.00  0.00     0.006 C 
ATOM     18  C   UNL     1      18.805  37.132  35.926  1.00  0.00     0.008 C 
ATOM     19  C   UNL     1      21.006  36.264  36.751  1.00  0.00     0.012 C 
ATOM     20  C   UNL     1      17.930  36.292  38.576  1.00  0.00    -0.025 C 
ATOM     21  C   UNL     1      18.749  38.235  36.972  1.00  0.00     0.005 C 
ATOM     22  C   UNL     1      18.400  37.807  38.439  1.00  0.00     0.003 C 
ATOM     23  C   UNL     1      16.430  36.182  38.152  1.00  0.00     0.010 C 
ATOM     24  C   UNL     1      18.062  35.823  40.074  1.00  0.00     0.012 C 
ATOM     25  C   UNL     1      17.437  38.874  39.139  1.00  0.00    -0.006 C 
ATOM     26  C   UNL     1      15.494  37.199  38.835  1.00  0.00     0.033 C 
ATOM     27  C   UNL     1      15.957  38.660  38.686  1.00  0.00     0.120 C 
ATOM     28  C   UNL     1      17.522  38.799  40.694  1.00  0.00     0.014 C 
ATOM     29  C   UNL     1      17.878  40.337  38.814  1.00  0.00     0.014 C 
ENDROOT
BRANCH   1  30
ATOM     30  C   UNL     1      22.617  32.480  33.107  1.00  0.00     0.048 C 
ATOM     31  O   UNL     1      22.892  31.700  32.155  1.00  0.00    -0.550 OA
ATOM     32  O   UNL     1      23.633  33.273  33.631  1.00  0.00    -0.550 OA
ENDBRANCH   1  30
BRANCH  27  33
ATOM     33  O   UNL     1      15.773  39.065  37.352  1.00  0.00    -0.393 OA
ATOM     34  H   UNL     1      14.937  38.639  37.028  1.00  0.00     0.210 HD
ENDBRANCH  27  33
TORSDOF 2
ENDMDL
MODEL 7
REMARK VINA RESULT:    -7.316      3.420      4.648
REMARK INTER + INTRA:          -7.962
REMARK INTER:                  -7.940
REMARK INTRA:                  -0.022
REMARK UNBOUND:                -0.004
REMARK SMILES C[C@@H]1[C@@H](C)CC[C@@]2(C(=O)[O-])CC[C@@]3(C)C(=CC[C@@H]4[C@]5(C)CC[C@H](O)C(C)(C)[C@@H]5CC[C@@]43C)[C@@H]12
REMARK SMILES IDX 7 1 6 2 11 3 33 4 5 5 12 6 15 7 2 8 3 9 13 10 16 11 1 12
REMARK SMILES IDX 4 13 14 14 31 15 17 16 18 17 30 18 32 19 19 20 29 21 28 22
REMARK SMILES IDX 21 23 20 24 25 25 22 26 23 27 26 28 27 29 8 30 9 31 10 32
REMARK SMILES IDX 24 33
REMARK H PARENT 24 34
REMARK Flexibility Score: inf
ROOT
ATOM      1  C   UNL     1      25.300  36.726  36.220  1.00  0.00     0.017 C 
ATOM      2  C   UNL     1      24.609  38.110  36.403  1.00  0.00     0.014 C 
ATOM      3  C   UNL     1      24.779  35.779  37.354  1.00  0.00     0.014 C 
ATOM      4  C   UNL     1      25.002  36.172  34.761  1.00  0.00     0.030 C 
ATOM      5  C   UNL     1      24.998  39.138  35.336  1.00  0.00     0.004 C 
ATOM      6  C   UNL     1      24.383  34.393  36.846  1.00  0.00     0.013 C 
ATOM      7  C   UNL     1      23.633  35.440  34.674  1.00  0.00    -0.063 C 
ATOM      8  C   UNL     1      25.314  37.242  33.637  1.00  0.00    -0.003 C 
ATOM      9  C   UNL     1      24.697  38.645  33.910  1.00  0.00    -0.011 C 
ATOM     10  C   UNL     1      23.224  34.461  35.794  1.00  0.00    -0.006 C 
ATOM     11  C   UNL     1      22.863  35.450  33.560  1.00  0.00    -0.027 C 
ATOM     12  C   UNL     1      26.826  37.373  33.353  1.00  0.00     0.008 C 
ATOM     13  C   UNL     1      23.193  38.714  33.599  1.00  0.00     0.008 C 
ATOM     14  C   UNL     1      21.982  35.067  36.537  1.00  0.00     0.017 C 
ATOM     15  C   UNL     1      22.899  33.002  35.163  1.00  0.00    -0.020 C 
ATOM     16  C   UNL     1      21.682  34.539  33.417  1.00  0.00     0.032 C 
ATOM     17  C   UNL     1      22.088  33.086  33.789  1.00  0.00     0.006 C 
ATOM     18  C   UNL     1      22.112  32.152  36.185  1.00  0.00     0.008 C 
ATOM     19  C   UNL     1      24.238  32.248  34.863  1.00  0.00     0.012 C 
ATOM     20  C   UNL     1      20.929  32.008  33.525  1.00  0.00    -0.025 C 
ATOM     21  C   UNL     1      21.771  30.750  35.700  1.00  0.00     0.005 C 
ATOM     22  C   UNL     1      21.245  30.615  34.230  1.00  0.00     0.003 C 
ATOM     23  C   UNL     1      19.535  32.522  34.010  1.00  0.00     0.010 C 
ATOM     24  C   UNL     1      20.875  31.818  31.962  1.00  0.00     0.012 C 
ATOM     25  C   UNL     1      20.073  29.532  34.132  1.00  0.00    -0.006 C 
ATOM     26  C   UNL     1      18.398  31.486  33.905  1.00  0.00     0.033 C 
ATOM     27  C   UNL     1      18.715  30.149  34.600  1.00  0.00     0.120 C 
ATOM     28  C   UNL     1      19.920  28.972  32.686  1.00  0.00     0.014 C 
ATOM     29  C   UNL     1      20.396  28.266  34.988  1.00  0.00     0.014 C 
ENDROOT
BRANCH   1  30
ATOM     30  C   UNL     1      26.808  36.843  36.436  1.00  0.00     0.048 C 
ATOM     31  O   UNL     1      27.313  37.880  36.945  1.00  0.00    -0.550 OA
ATOM     32  O   UNL     1      27.635  35.751  36.194  1.00  0.00    -0.550 OA
ENDBRANCH   1  30
BRANCH  27  33
ATOM     33  O   UNL     1      18.699  30.340  35.993  1.00  0.00    -0.393 OA
ATOM     34  H   UNL     1      17.770  30.581  36.245  1.00  0.00     0.210 HD
ENDBRANCH  27  33
TORSDOF 2
ENDMDL
MODEL 8
REMARK VINA RESULT:    -7.251      4.024      7.138
REMARK INTER + INTRA:          -7.890
REMARK INTER:                  -7.868
REMARK INTRA:                  -0.022
REMARK UNBOUND:                -0.004
REMARK SMILES C[C@@H]1[C@@H](C)CC[C@@]2(C(=O)[O-])CC[C@@]3(C)C(=CC[C@@H]4[C@]5(C)CC[C@H](O)C(C)(C)[C@@H]5CC[C@@]43C)[C@@H]12
REMARK SMILES IDX 7 1 6 2 11 3 33 4 5 5 12 6 15 7 2 8 3 9 13 10 16 11 1 12
REMARK SMILES IDX 4 13 14 14 31 15 17 16 18 17 30 18 32 19 19 20 29 21 28 22
REMARK SMILES IDX 21 23 20 24 25 25 22 26 23 27 26 28 27 29 8 30 9 31 10 32
REMARK SMILES IDX 24 33
REMARK H PARENT 24 34
REMARK Flexibility Score: inf
ROOT
ATOM      1  C   UNL     1      25.264  37.539  35.808  1.00  0.00     0.017 C 
ATOM      2  C   UNL     1      25.921  38.914  35.485  1.00  0.00     0.014 C 
ATOM      3  C   UNL     1      25.073  37.454  37.361  1.00  0.00     0.014 C 
ATOM      4  C   UNL     1      23.900  37.401  35.005  1.00  0.00     0.030 C 
ATOM      5  C   UNL     1      26.139  39.156  33.989  1.00  0.00     0.004 C 
ATOM      6  C   UNL     1      23.689  36.948  37.770  1.00  0.00     0.013 C 
ATOM      7  C   UNL     1      22.709  38.083  35.738  1.00  0.00    -0.063 C 
ATOM      8  C   UNL     1      24.073  37.728  33.466  1.00  0.00    -0.003 C 
ATOM      9  C   UNL     1      24.833  39.058  33.183  1.00  0.00    -0.011 C 
ATOM     10  C   UNL     1      22.545  37.888  37.260  1.00  0.00    -0.006 C 
ATOM     11  C   UNL     1      21.681  38.670  35.082  1.00  0.00    -0.027 C 
ATOM     12  C   UNL     1      24.728  36.566  32.688  1.00  0.00     0.008 C 
ATOM     13  C   UNL     1      23.959  40.306  33.380  1.00  0.00     0.008 C 
ATOM     14  C   UNL     1      22.766  39.278  37.952  1.00  0.00     0.017 C 
ATOM     15  C   UNL     1      21.077  37.277  37.584  1.00  0.00    -0.020 C 
ATOM     16  C   UNL     1      20.435  39.093  35.800  1.00  0.00     0.032 C 
ATOM     17  C   UNL     1      19.921  37.931  36.695  1.00  0.00     0.006 C 
ATOM     18  C   UNL     1      20.752  37.460  39.083  1.00  0.00     0.008 C 
ATOM     19  C   UNL     1      21.070  35.739  37.290  1.00  0.00     0.012 C 
ATOM     20  C   UNL     1      18.507  38.233  37.391  1.00  0.00    -0.025 C 
ATOM     21  C   UNL     1      19.399  36.901  39.501  1.00  0.00     0.005 C 
ATOM     22  C   UNL     1      18.186  37.192  38.552  1.00  0.00     0.003 C 
ATOM     23  C   UNL     1      18.443  39.683  37.971  1.00  0.00     0.010 C 
ATOM     24  C   UNL     1      17.435  38.106  36.245  1.00  0.00     0.012 C 
ATOM     25  C   UNL     1      16.861  37.509  39.389  1.00  0.00    -0.006 C 
ATOM     26  C   UNL     1      17.161  39.999  38.767  1.00  0.00     0.033 C 
ATOM     27  C   UNL     1      16.869  38.989  39.892  1.00  0.00     0.120 C 
ATOM     28  C   UNL     1      15.571  37.250  38.553  1.00  0.00     0.014 C 
ATOM     29  C   UNL     1      16.713  36.542  40.608  1.00  0.00     0.014 C 
ENDROOT
BRANCH   1  30
ATOM     30  C   UNL     1      26.203  36.392  35.442  1.00  0.00     0.048 C 
ATOM     31  O   UNL     1      27.416  36.605  35.174  1.00  0.00    -0.550 OA
ATOM     32  O   UNL     1      25.763  35.075  35.526  1.00  0.00    -0.550 OA
ENDBRANCH   1  30
BRANCH  27  33
ATOM     33  O   UNL     1      17.808  39.167  40.924  1.00  0.00    -0.393 OA
ATOM     34  H   UNL     1      17.999  38.270  41.305  1.00  0.00     0.210 HD
ENDBRANCH  27  33
TORSDOF 2
ENDMDL
MODEL 9
REMARK VINA RESULT:    -7.162      2.637      4.018
REMARK INTER + INTRA:          -7.794
REMARK INTER:                  -7.778
REMARK INTRA:                  -0.016
REMARK UNBOUND:                -0.004
REMARK SMILES C[C@@H]1[C@@H](C)CC[C@@]2(C(=O)[O-])CC[C@@]3(C)C(=CC[C@@H]4[C@]5(C)CC[C@H](O)C(C)(C)[C@@H]5CC[C@@]43C)[C@@H]12
REMARK SMILES IDX 7 1 6 2 11 3 33 4 5 5 12 6 15 7 2 8 3 9 13 10 16 11 1 12
REMARK SMILES IDX 4 13 14 14 31 15 17 16 18 17 30 18 32 19 19 20 29 21 28 22
REMARK SMILES IDX 21 23 20 24 25 25 22 26 23 27 26 28 27 29 8 30 9 31 10 32
REMARK SMILES IDX 24 33
REMARK H PARENT 24 34
REMARK Flexibility Score: inf
ROOT
ATOM      1  C   UNL     1      22.022  37.622  37.045  1.00  0.00     0.017 C 
ATOM      2  C   UNL     1      21.338  38.759  37.862  1.00  0.00     0.014 C 
ATOM      3  C   UNL     1      21.610  36.255  37.694  1.00  0.00     0.014 C 
ATOM      4  C   UNL     1      21.601  37.737  35.518  1.00  0.00     0.030 C 
ATOM      5  C   UNL     1      21.624  40.163  37.319  1.00  0.00     0.004 C 
ATOM      6  C   UNL     1      21.181  35.207  36.667  1.00  0.00     0.013 C 
ATOM      7  C   UNL     1      20.234  37.053  35.227  1.00  0.00    -0.063 C 
ATOM      8  C   UNL     1      21.803  39.200  34.948  1.00  0.00    -0.003 C 
ATOM      9  C   UNL     1      21.202  40.319  35.848  1.00  0.00    -0.011 C 
ATOM     10  C   UNL     1      19.934  35.670  35.840  1.00  0.00    -0.006 C 
ATOM     11  C   UNL     1      19.370  37.507  34.289  1.00  0.00    -0.027 C 
ATOM     12  C   UNL     1      23.284  39.509  34.634  1.00  0.00     0.008 C 
ATOM     13  C   UNL     1      19.676  40.447  35.714  1.00  0.00     0.008 C 
ATOM     14  C   UNL     1      18.758  35.840  36.864  1.00  0.00     0.017 C 
ATOM     15  C   UNL     1      19.565  34.612  34.666  1.00  0.00    -0.020 C 
ATOM     16  C   UNL     1      18.187  36.695  33.857  1.00  0.00     0.032 C 
ATOM     17  C   UNL     1      18.635  35.243  33.530  1.00  0.00     0.006 C 
ATOM     18  C   UNL     1      18.878  33.370  35.276  1.00  0.00     0.008 C 
ATOM     19  C   UNL     1      20.879  34.122  33.967  1.00  0.00     0.012 C 
ATOM     20  C   UNL     1      17.467  34.333  32.914  1.00  0.00    -0.025 C 
ATOM     21  C   UNL     1      18.507  32.301  34.258  1.00  0.00     0.005 C 
ATOM     22  C   UNL     1      17.854  32.788  32.919  1.00  0.00     0.003 C 
ATOM     23  C   UNL     1      16.117  34.524  33.679  1.00  0.00     0.010 C 
ATOM     24  C   UNL     1      17.276  34.833  31.433  1.00  0.00     0.012 C 
ATOM     25  C   UNL     1      16.687  31.802  32.452  1.00  0.00    -0.006 C 
ATOM     26  C   UNL     1      14.983  33.585  33.223  1.00  0.00     0.033 C 
ATOM     27  C   UNL     1      15.370  32.094  33.243  1.00  0.00     0.120 C 
ATOM     28  C   UNL     1      16.411  31.913  30.922  1.00  0.00     0.014 C 
ATOM     29  C   UNL     1      17.094  30.306  32.648  1.00  0.00     0.014 C 
ENDROOT
BRANCH   1  30
ATOM     30  C   UNL     1      23.541  37.701  37.175  1.00  0.00     0.048 C 
ATOM     31  O   UNL     1      24.081  38.394  38.081  1.00  0.00    -0.550 OA
ATOM     32  O   UNL     1      24.354  36.905  36.375  1.00  0.00    -0.550 OA
ENDBRANCH   1  30
BRANCH  27  33
ATOM     33  O   UNL     1      15.476  31.665  34.577  1.00  0.00    -0.393 OA
ATOM     34  H   UNL     1      15.646  32.471  35.132  1.00  0.00     0.210 HD
ENDBRANCH  27  33
TORSDOF 2
ENDMDL
