MODEL 1
REMARK VINA RESULT:    -4.855      0.000      0.000
REMARK INTER + INTRA:          -7.520
REMARK INTER:                  -5.990
REMARK INTRA:                  -1.530
REMARK UNBOUND:                -1.530
REMARK SMILES CC(C)=CCC[C@H](C)c1ccc(C)cc1
REMARK SMILES IDX 6 1 7 2 8 3 9 4 13 5 12 6 11 7 14 8 10 9 15 10 5 11 4 12
REMARK SMILES IDX 2 13 1 14 3 15
REMARK H PARENT
REMARK Flexibility Score: inf
ROOT
ATOM      1  C   UNL     1     159.876 161.259 187.577  1.00  0.00     0.012 C 
ENDROOT
BRANCH   1   2
ATOM      2  C   UNL     1     160.457 162.258 188.604  1.00  0.00     0.016 C 
ATOM      3  C   UNL     1     159.885 163.676 188.437  1.00  0.00     0.013 C 
BRANCH   2   4
ATOM      4  C   UNL     1     161.978 162.223 188.646  1.00  0.00    -0.045 A 
ATOM      5  C   UNL     1     166.296 162.041 188.606  1.00  0.00     0.044 C 
ATOM      6  C   UNL     1     164.798 162.101 188.648  1.00  0.00    -0.051 A 
ATOM      7  C   UNL     1     164.039 160.938 188.455  1.00  0.00     0.004 A 
ATOM      8  C   UNL     1     164.144 163.330 188.803  1.00  0.00     0.004 A 
ATOM      9  C   UNL     1     162.642 160.999 188.454  1.00  0.00     0.004 A 
ATOM     10  C   UNL     1     162.747 163.393 188.804  1.00  0.00     0.004 A 
ENDBRANCH   2   4
ENDBRANCH   1   2
BRANCH   1  11
ATOM     11  C   UNL     1     159.876 161.764 186.123  1.00  0.00     0.028 C 
BRANCH  11  12
ATOM     12  C   UNL     1     160.864 160.985 185.291  1.00  0.00    -0.028 C 
ATOM     13  C   UNL     1     162.023 161.492 184.815  1.00  0.00    -0.080 C 
ATOM     14  C   UNL     1     162.927 160.632 183.969  1.00  0.00     0.039 C 
ATOM     15  C   UNL     1     162.478 162.894 185.139  1.00  0.00     0.039 C 
ENDBRANCH  11  12
ENDBRANCH   1  11
TORSDOF 4
ENDMDL
MODEL 2
REMARK VINA RESULT:    -4.826      0.128      1.255
REMARK INTER + INTRA:          -7.485
REMARK INTER:                  -5.980
REMARK INTRA:                  -1.505
REMARK UNBOUND:                -1.530
REMARK SMILES CC(C)=CCC[C@H](C)c1ccc(C)cc1
REMARK SMILES IDX 6 1 7 2 8 3 9 4 13 5 12 6 11 7 14 8 10 9 15 10 5 11 4 12
REMARK SMILES IDX 2 13 1 14 3 15
REMARK H PARENT
REMARK Flexibility Score: inf
ROOT
ATOM      1  C   UNL     1     159.876 161.232 187.639  1.00  0.00     0.012 C 
ENDROOT
BRANCH   1   2
ATOM      2  C   UNL     1     160.487 162.173 188.702  1.00  0.00     0.016 C 
ATOM      3  C   UNL     1     159.875 163.584 188.664  1.00  0.00     0.013 C 
BRANCH   2   4
ATOM      4  C   UNL     1     162.008 162.176 188.665  1.00  0.00    -0.045 A 
ATOM      5  C   UNL     1     166.329 162.266 188.720  1.00  0.00     0.044 C 
ATOM      6  C   UNL     1     164.830 162.238 188.673  1.00  0.00    -0.051 A 
ATOM      7  C   UNL     1     164.096 163.416 188.871  1.00  0.00     0.004 A 
ATOM      8  C   UNL     1     164.151 161.024 188.508  1.00  0.00     0.004 A 
ATOM      9  C   UNL     1     162.698 163.385 188.866  1.00  0.00     0.004 A 
ATOM     10  C   UNL     1     162.753 160.991 188.502  1.00  0.00     0.004 A 
ENDBRANCH   2   4
ENDBRANCH   1   2
BRANCH   1  11
ATOM     11  C   UNL     1     159.913 161.781 186.202  1.00  0.00     0.028 C 
BRANCH  11  12
ATOM     12  C   UNL     1     160.889 160.998 185.359  1.00  0.00    -0.028 C 
ATOM     13  C   UNL     1     162.033 161.507 184.850  1.00  0.00    -0.080 C 
ATOM     14  C   UNL     1     162.925 160.642 183.997  1.00  0.00     0.039 C 
ATOM     15  C   UNL     1     162.484 162.917 185.144  1.00  0.00     0.039 C 
ENDBRANCH  11  12
ENDBRANCH   1  11
TORSDOF 4
ENDMDL
MODEL 3
REMARK VINA RESULT:    -4.467      2.021      5.612
REMARK INTER + INTRA:          -7.042
REMARK INTER:                  -5.890
REMARK INTRA:                  -1.152
REMARK UNBOUND:                -1.530
REMARK SMILES CC(C)=CCC[C@H](C)c1ccc(C)cc1
REMARK SMILES IDX 6 1 7 2 8 3 9 4 13 5 12 6 11 7 14 8 10 9 15 10 5 11 4 12
REMARK SMILES IDX 2 13 1 14 3 15
REMARK H PARENT
REMARK Flexibility Score: inf
ROOT
ATOM      1  C   UNL     1     164.969 160.010 189.636  1.00  0.00     0.012 C 
ENDROOT
BRANCH   1   2
ATOM      2  C   UNL     1     164.270 160.195 188.269  1.00  0.00     0.016 C 
ATOM      3  C   UNL     1     165.270 160.391 187.116  1.00  0.00     0.013 C 
BRANCH   2   4
ATOM      4  C   UNL     1     163.186 161.262 188.314  1.00  0.00    -0.045 A 
ATOM      5  C   UNL     1     160.205 164.392 188.327  1.00  0.00     0.044 C 
ATOM      6  C   UNL     1     161.234 163.300 188.350  1.00  0.00    -0.051 A 
ATOM      7  C   UNL     1     162.576 163.601 188.624  1.00  0.00     0.004 A 
ATOM      8  C   UNL     1     160.877 161.986 188.023  1.00  0.00     0.004 A 
ATOM      9  C   UNL     1     163.543 162.591 188.606  1.00  0.00     0.004 A 
ATOM     10  C   UNL     1     161.842 160.974 188.006  1.00  0.00     0.004 A 
ENDBRANCH   2   4
ENDBRANCH   1   2
BRANCH   1  11
ATOM     11  C   UNL     1     166.435 160.475 189.672  1.00  0.00     0.028 C 
BRANCH  11  12
ATOM     12  C   UNL     1     166.587 161.683 190.562  1.00  0.00    -0.028 C 
ATOM     13  C   UNL     1     166.963 162.907 190.125  1.00  0.00    -0.080 C 
ATOM     14  C   UNL     1     167.109 164.041 191.106  1.00  0.00     0.039 C 
ATOM     15  C   UNL     1     167.200 163.198 188.663  1.00  0.00     0.039 C 
ENDBRANCH  11  12
ENDBRANCH   1  11
TORSDOF 4
ENDMDL
MODEL 4
REMARK VINA RESULT:    -4.429      1.744      4.680
REMARK INTER + INTRA:          -6.995
REMARK INTER:                  -5.519
REMARK INTRA:                  -1.476
REMARK UNBOUND:                -1.530
REMARK SMILES CC(C)=CCC[C@H](C)c1ccc(C)cc1
REMARK SMILES IDX 6 1 7 2 8 3 9 4 13 5 12 6 11 7 14 8 10 9 15 10 5 11 4 12
REMARK SMILES IDX 2 13 1 14 3 15
REMARK H PARENT
REMARK Flexibility Score: inf
ROOT
ATOM      1  C   UNL     1     159.885 161.882 188.425  1.00  0.00     0.012 C 
ENDROOT
BRANCH   1   2
ATOM      2  C   UNL     1     161.060 161.141 187.747  1.00  0.00     0.016 C 
ATOM      3  C   UNL     1     162.387 161.320 188.505  1.00  0.00     0.013 C 
BRANCH   2   4
ATOM      4  C   UNL     1     161.166 161.461 186.264  1.00  0.00    -0.045 A 
ATOM      5  C   UNL     1     161.391 162.531 182.082  1.00  0.00     0.044 C 
ATOM      6  C   UNL     1     161.308 162.133 183.526  1.00  0.00    -0.051 A 
ATOM      7  C   UNL     1     160.091 162.226 184.215  1.00  0.00     0.004 A 
ATOM      8  C   UNL     1     162.461 161.739 184.217  1.00  0.00     0.004 A 
ATOM      9  C   UNL     1     160.020 161.893 185.571  1.00  0.00     0.004 A 
ATOM     10  C   UNL     1     162.393 161.404 185.573  1.00  0.00     0.004 A 
ENDBRANCH   2   4
ENDBRANCH   1   2
BRANCH   1  11
ATOM     11  C   UNL     1     160.267 163.218 189.087  1.00  0.00     0.028 C 
BRANCH  11  12
ATOM     12  C   UNL     1     159.880 164.377 188.202  1.00  0.00    -0.028 C 
ATOM     13  C   UNL     1     160.760 165.114 187.487  1.00  0.00    -0.080 C 
ATOM     14  C   UNL     1     160.267 166.270 186.655  1.00  0.00     0.039 C 
ATOM     15  C   UNL     1     162.234 164.792 187.452  1.00  0.00     0.039 C 
ENDBRANCH  11  12
ENDBRANCH   1  11
TORSDOF 4
ENDMDL
MODEL 5
REMARK VINA RESULT:    -4.407      1.324      4.228
REMARK INTER + INTRA:          -6.967
REMARK INTER:                  -5.433
REMARK INTRA:                  -1.534
REMARK UNBOUND:                -1.530
REMARK SMILES CC(C)=CCC[C@H](C)c1ccc(C)cc1
REMARK SMILES IDX 6 1 7 2 8 3 9 4 13 5 12 6 11 7 14 8 10 9 15 10 5 11 4 12
REMARK SMILES IDX 2 13 1 14 3 15
REMARK H PARENT
REMARK Flexibility Score: inf
ROOT
ATOM      1  C   UNL     1     166.261 160.638 187.407  1.00  0.00     0.012 C 
ENDROOT
BRANCH   1   2
ATOM      2  C   UNL     1     165.885 161.392 188.703  1.00  0.00     0.016 C 
ATOM      3  C   UNL     1     166.294 160.624 189.973  1.00  0.00     0.013 C 
BRANCH   2   4
ATOM      4  C   UNL     1     164.430 161.836 188.712  1.00  0.00    -0.045 A 
ATOM      5  C   UNL     1     160.336 163.220 188.607  1.00  0.00     0.044 C 
ATOM      6  C   UNL     1     161.755 162.735 188.671  1.00  0.00    -0.051 A 
ATOM      7  C   UNL     1     162.805 163.647 188.847  1.00  0.00     0.004 A 
ATOM      8  C   UNL     1     162.047 161.379 188.479  1.00  0.00     0.004 A 
ATOM      9  C   UNL     1     164.130 163.201 188.867  1.00  0.00     0.004 A 
ATOM     10  C   UNL     1     163.371 160.930 188.500  1.00  0.00     0.004 A 
ENDBRANCH   2   4
ENDBRANCH   1   2
BRANCH   1  11
ATOM     11  C   UNL     1     166.059 161.449 186.115  1.00  0.00     0.028 C 
BRANCH  11  12
ATOM     12  C   UNL     1     165.017 160.800 185.239  1.00  0.00    -0.028 C 
ATOM     13  C   UNL     1     163.867 161.399 184.854  1.00  0.00    -0.080 C 
ATOM     14  C   UNL     1     162.880 160.648 183.998  1.00  0.00     0.039 C 
ATOM     15  C   UNL     1     163.548 162.829 185.216  1.00  0.00     0.039 C 
ENDBRANCH  11  12
ENDBRANCH   1  11
TORSDOF 4
ENDMDL
MODEL 6
REMARK VINA RESULT:    -4.215      1.512      2.383
REMARK INTER + INTRA:          -6.731
REMARK INTER:                  -5.610
REMARK INTRA:                  -1.121
REMARK UNBOUND:                -1.530
REMARK SMILES CC(C)=CCC[C@H](C)c1ccc(C)cc1
REMARK SMILES IDX 6 1 7 2 8 3 9 4 13 5 12 6 11 7 14 8 10 9 15 10 5 11 4 12
REMARK SMILES IDX 2 13 1 14 3 15
REMARK H PARENT
REMARK Flexibility Score: inf
ROOT
ATOM      1  C   UNL     1     160.776 161.487 186.602  1.00  0.00     0.012 C 
ENDROOT
BRANCH   1   2
ATOM      2  C   UNL     1     161.080 161.379 188.114  1.00  0.00     0.016 C 
ATOM      3  C   UNL     1     160.084 162.175 188.975  1.00  0.00     0.013 C 
BRANCH   2   4
ATOM      4  C   UNL     1     162.535 161.689 188.435  1.00  0.00    -0.045 A 
ATOM      5  C   UNL     1     166.715 162.472 189.203  1.00  0.00     0.044 C 
ATOM      6  C   UNL     1     165.259 162.200 188.964  1.00  0.00    -0.051 A 
ATOM      7  C   UNL     1     164.802 160.883 188.818  1.00  0.00     0.004 A 
ATOM      8  C   UNL     1     164.359 163.262 188.809  1.00  0.00     0.004 A 
ATOM      9  C   UNL     1     163.452 160.630 188.556  1.00  0.00     0.004 A 
ATOM     10  C   UNL     1     163.008 163.012 188.548  1.00  0.00     0.004 A 
ENDBRANCH   2   4
ENDBRANCH   1   2
BRANCH   1  11
ATOM     11  C   UNL     1     159.875 162.673 186.214  1.00  0.00     0.028 C 
BRANCH  11  12
ATOM     12  C   UNL     1     160.694 163.786 185.611  1.00  0.00    -0.028 C 
ATOM     13  C   UNL     1     160.747 165.044 186.103  1.00  0.00    -0.080 C 
ATOM     14  C   UNL     1     161.578 166.089 185.405  1.00  0.00     0.039 C 
ATOM     15  C   UNL     1     160.030 165.440 187.371  1.00  0.00     0.039 C 
ENDBRANCH  11  12
ENDBRANCH   1  11
TORSDOF 4
ENDMDL
MODEL 7
REMARK VINA RESULT:    -4.196     12.722     14.661
REMARK INTER + INTRA:          -6.707
REMARK INTER:                  -5.602
REMARK INTRA:                  -1.105
REMARK UNBOUND:                -1.530
REMARK SMILES CC(C)=CCC[C@H](C)c1ccc(C)cc1
REMARK SMILES IDX 6 1 7 2 8 3 9 4 13 5 12 6 11 7 14 8 10 9 15 10 5 11 4 12
REMARK SMILES IDX 2 13 1 14 3 15
REMARK H PARENT
REMARK Flexibility Score: inf
ROOT
ATOM      1  C   UNL     1     176.935 161.392 188.824  1.00  0.00     0.012 C 
ENDROOT
BRANCH   1   2
ATOM      2  C   UNL     1     175.597 161.405 188.048  1.00  0.00     0.016 C 
ATOM      3  C   UNL     1     174.601 160.355 188.570  1.00  0.00     0.013 C 
BRANCH   2   4
ATOM      4  C   UNL     1     175.803 161.342 186.542  1.00  0.00    -0.045 A 
ATOM      5  C   UNL     1     176.565 161.182 182.290  1.00  0.00     0.044 C 
ATOM      6  C   UNL     1     176.276 161.252 183.761  1.00  0.00    -0.051 A 
ATOM      7  C   UNL     1     176.779 162.310 184.529  1.00  0.00     0.004 A 
ATOM      8  C   UNL     1     175.569 160.220 184.391  1.00  0.00     0.004 A 
ATOM      9  C   UNL     1     176.544 162.355 185.907  1.00  0.00     0.004 A 
ATOM     10  C   UNL     1     175.331 160.263 185.768  1.00  0.00     0.004 A 
ENDBRANCH   2   4
ENDBRANCH   1   2
BRANCH   1  11
ATOM     11  C   UNL     1     177.164 162.621 189.722  1.00  0.00     0.028 C 
BRANCH  11  12
ATOM     12  C   UNL     1     176.154 163.699 189.414  1.00  0.00    -0.028 C 
ATOM     13  C   UNL     1     176.438 164.836 188.740  1.00  0.00    -0.080 C 
ATOM     14  C   UNL     1     175.357 165.861 188.510  1.00  0.00     0.039 C 
ATOM     15  C   UNL     1     177.805 165.104 188.159  1.00  0.00     0.039 C 
ENDBRANCH  11  12
ENDBRANCH   1  11
TORSDOF 4
ENDMDL
MODEL 8
REMARK VINA RESULT:    -4.148      1.290      1.739
REMARK INTER + INTRA:          -6.649
REMARK INTER:                  -5.642
REMARK INTRA:                  -1.007
REMARK UNBOUND:                -1.530
REMARK SMILES CC(C)=CCC[C@H](C)c1ccc(C)cc1
REMARK SMILES IDX 6 1 7 2 8 3 9 4 13 5 12 6 11 7 14 8 10 9 15 10 5 11 4 12
REMARK SMILES IDX 2 13 1 14 3 15
REMARK H PARENT
REMARK Flexibility Score: inf
ROOT
ATOM      1  C   UNL     1     160.553 164.351 188.059  1.00  0.00     0.012 C 
ENDROOT
BRANCH   1   2
ATOM      2  C   UNL     1     160.811 162.840 188.263  1.00  0.00     0.016 C 
ATOM      3  C   UNL     1     159.880 162.220 189.319  1.00  0.00     0.013 C 
BRANCH   2   4
ATOM      4  C   UNL     1     162.281 162.532 188.501  1.00  0.00    -0.045 A 
ATOM      5  C   UNL     1     166.464 161.571 189.019  1.00  0.00     0.044 C 
ATOM      6  C   UNL     1     165.008 161.902 188.868  1.00  0.00    -0.051 A 
ATOM      7  C   UNL     1     164.081 160.891 188.576  1.00  0.00     0.004 A 
ATOM      8  C   UNL     1     164.575 163.232 188.939  1.00  0.00     0.004 A 
ATOM      9  C   UNL     1     162.730 161.204 188.395  1.00  0.00     0.004 A 
ATOM     10  C   UNL     1     163.224 163.547 188.760  1.00  0.00     0.004 A 
ENDBRANCH   2   4
ENDBRANCH   1   2
BRANCH   1  11
ATOM     11  C   UNL     1     159.894 164.712 186.716  1.00  0.00     0.028 C 
BRANCH  11  12
ATOM     12  C   UNL     1     159.959 163.544 185.764  1.00  0.00    -0.028 C 
ATOM     13  C   UNL     1     160.926 163.374 184.834  1.00  0.00    -0.080 C 
ATOM     14  C   UNL     1     160.879 162.182 183.913  1.00  0.00     0.039 C 
ATOM     15  C   UNL     1     162.094 164.321 184.709  1.00  0.00     0.039 C 
ENDBRANCH  11  12
ENDBRANCH   1  11
TORSDOF 4
ENDMDL
MODEL 9
REMARK VINA RESULT:    -4.097      1.839      5.385
REMARK INTER + INTRA:          -6.586
REMARK INTER:                  -5.493
REMARK INTRA:                  -1.093
REMARK UNBOUND:                -1.530
REMARK SMILES CC(C)=CCC[C@H](C)c1ccc(C)cc1
REMARK SMILES IDX 6 1 7 2 8 3 9 4 13 5 12 6 11 7 14 8 10 9 15 10 5 11 4 12
REMARK SMILES IDX 2 13 1 14 3 15
REMARK H PARENT
REMARK Flexibility Score: inf
ROOT
ATOM      1  C   UNL     1     164.293 159.909 188.640  1.00  0.00     0.012 C 
ENDROOT
BRANCH   1   2
ATOM      2  C   UNL     1     163.690 161.138 187.922  1.00  0.00     0.016 C 
ATOM      3  C   UNL     1     162.316 161.538 188.487  1.00  0.00     0.013 C 
BRANCH   2   4
ATOM      4  C   UNL     1     163.696 160.983 186.409  1.00  0.00    -0.045 A 
ATOM      5  C   UNL     1     163.784 160.378 182.130  1.00  0.00     0.044 C 
ATOM      6  C   UNL     1     163.759 160.615 183.611  1.00  0.00    -0.051 A 
ATOM      7  C   UNL     1     164.918 160.424 184.376  1.00  0.00     0.004 A 
ATOM      8  C   UNL     1     162.560 160.955 184.252  1.00  0.00     0.004 A 
ATOM      9  C   UNL     1     164.887 160.607 185.762  1.00  0.00     0.004 A 
ATOM     10  C   UNL     1     162.527 161.139 185.637  1.00  0.00     0.004 A 
ENDBRANCH   2   4
ENDBRANCH   1   2
BRANCH   1  11
ATOM     11  C   UNL     1     165.397 160.242 189.659  1.00  0.00     0.028 C 
BRANCH  11  12
ATOM     12  C   UNL     1     166.152 161.478 189.237  1.00  0.00    -0.028 C 
ATOM     13  C   UNL     1     167.331 161.459 188.576  1.00  0.00    -0.080 C 
ATOM     14  C   UNL     1     168.015 162.756 188.225  1.00  0.00     0.039 C 
ATOM     15  C   UNL     1     167.978 160.172 188.126  1.00  0.00     0.039 C 
ENDBRANCH  11  12
ENDBRANCH   1  11
TORSDOF 4
ENDMDL
