MODEL 1
REMARK VINA RESULT:    -5.517      0.000      0.000
REMARK INTER + INTRA:          -5.906
REMARK INTER:                  -5.840
REMARK INTRA:                  -0.066
REMARK UNBOUND:                -0.066
REMARK SMILES CC1=C[C@H]2C(=C(C)CC[C@H]2C(C)C)CC1
REMARK SMILES IDX 1 1 2 2 3 3 4 4 10 5 9 6 8 7 6 8 5 9 14 10 15 11 7 12 11 13
REMARK SMILES IDX 12 14 13 15
REMARK H PARENT
REMARK Flexibility Score: inf
ROOT
ATOM      1  C   UNL     1     144.090 139.467 136.782  1.00  0.00     0.039 C 
ATOM      2  C   UNL     1     144.020 139.849 135.329  1.00  0.00    -0.076 C 
ATOM      3  C   UNL     1     144.654 140.962 134.908  1.00  0.00    -0.020 C 
ATOM      4  C   UNL     1     144.674 141.411 133.462  1.00  0.00     0.041 C 
ATOM      5  C   UNL     1     144.268 142.898 133.269  1.00  0.00     0.003 C 
ATOM      6  C   UNL     1     144.624 143.230 131.802  1.00  0.00     0.009 C 
ATOM      7  C   UNL     1     143.823 142.368 130.812  1.00  0.00     0.031 C 
ATOM      8  C   UNL     1     143.631 140.918 131.240  1.00  0.00    -0.073 C 
ATOM      9  C   UNL     1     143.915 140.496 132.508  1.00  0.00    -0.064 C 
ATOM     10  C   UNL     1     143.706 139.064 132.961  1.00  0.00     0.036 C 
ATOM     11  C   UNL     1     143.156 139.046 134.385  1.00  0.00     0.035 C 
ATOM     12  C   UNL     1     142.996 139.999 130.224  1.00  0.00     0.039 C 
ENDROOT
BRANCH   5  13
ATOM     13  C   UNL     1     142.770 143.236 133.624  1.00  0.00    -0.013 C 
ATOM     14  C   UNL     1     142.577 143.579 135.114  1.00  0.00     0.007 C 
ATOM     15  C   UNL     1     142.233 144.414 132.786  1.00  0.00     0.007 C 
ENDBRANCH   5  13
TORSDOF 1
ENDMDL
MODEL 2
REMARK VINA RESULT:    -5.505      2.908      4.557
REMARK INTER + INTRA:          -5.893
REMARK INTER:                  -5.817
REMARK INTRA:                  -0.076
REMARK UNBOUND:                -0.066
REMARK SMILES CC1=C[C@H]2C(=C(C)CC[C@H]2C(C)C)CC1
REMARK SMILES IDX 1 1 2 2 3 3 4 4 10 5 9 6 8 7 6 8 5 9 14 10 15 11 7 12 11 13
REMARK SMILES IDX 12 14 13 15
REMARK H PARENT
REMARK Flexibility Score: inf
ROOT
ATOM      1  C   UNL     1     139.117 138.395 136.636  1.00  0.00     0.039 C 
ATOM      2  C   UNL     1     139.615 138.358 135.217  1.00  0.00    -0.076 C 
ATOM      3  C   UNL     1     140.759 137.703 134.936  1.00  0.00    -0.020 C 
ATOM      4  C   UNL     1     141.323 137.579 133.536  1.00  0.00     0.041 C 
ATOM      5  C   UNL     1     142.821 137.979 133.433  1.00  0.00     0.003 C 
ATOM      6  C   UNL     1     143.270 137.517 132.029  1.00  0.00     0.009 C 
ATOM      7  C   UNL     1     142.490 138.235 130.915  1.00  0.00     0.031 C 
ATOM      8  C   UNL     1     141.010 138.449 131.210  1.00  0.00    -0.073 C 
ATOM      9  C   UNL     1     140.488 138.257 132.458  1.00  0.00    -0.064 C 
ATOM     10  C   UNL     1     139.023 138.489 132.776  1.00  0.00     0.036 C 
ATOM     11  C   UNL     1     138.890 139.144 134.150  1.00  0.00     0.035 C 
ATOM     12  C   UNL     1     140.175 138.999 130.079  1.00  0.00     0.039 C 
ENDROOT
BRANCH   5  13
ATOM     13  C   UNL     1     143.127 139.502 133.701  1.00  0.00    -0.013 C 
ATOM     14  C   UNL     1     143.285 139.820 135.201  1.00  0.00     0.007 C 
ATOM     15  C   UNL     1     144.405 139.967 132.973  1.00  0.00     0.007 C 
ENDBRANCH   5  13
TORSDOF 1
ENDMDL
MODEL 3
REMARK VINA RESULT:    -5.491      3.245      6.033
REMARK INTER + INTRA:          -5.878
REMARK INTER:                  -5.808
REMARK INTRA:                  -0.070
REMARK UNBOUND:                -0.066
REMARK SMILES CC1=C[C@H]2C(=C(C)CC[C@H]2C(C)C)CC1
REMARK SMILES IDX 1 1 2 2 3 3 4 4 10 5 9 6 8 7 6 8 5 9 14 10 15 11 7 12 11 13
REMARK SMILES IDX 12 14 13 15
REMARK H PARENT
REMARK Flexibility Score: inf
ROOT
ATOM      1  C   UNL     1     138.065 143.595 130.301  1.00  0.00     0.039 C 
ATOM      2  C   UNL     1     138.457 143.418 131.742  1.00  0.00    -0.076 C 
ATOM      3  C   UNL     1     139.176 144.380 132.353  1.00  0.00    -0.020 C 
ATOM      4  C   UNL     1     139.588 144.313 133.809  1.00  0.00     0.041 C 
ATOM      5  C   UNL     1     141.103 144.574 134.036  1.00  0.00     0.003 C 
ATOM      6  C   UNL     1     141.261 144.746 135.565  1.00  0.00     0.009 C 
ATOM      7  C   UNL     1     140.860 143.472 136.326  1.00  0.00     0.031 C 
ATOM      8  C   UNL     1     139.643 142.749 135.762  1.00  0.00    -0.073 C 
ATOM      9  C   UNL     1     139.121 143.060 134.538  1.00  0.00    -0.064 C 
ATOM     10  C   UNL     1     137.927 142.335 133.949  1.00  0.00     0.036 C 
ATOM     11  C   UNL     1     138.137 142.123 132.451  1.00  0.00     0.035 C 
ATOM     12  C   UNL     1     139.117 141.589 136.574  1.00  0.00     0.039 C 
ENDROOT
BRANCH   5  13
ATOM     13  C   UNL     1     142.069 143.479 133.443  1.00  0.00    -0.013 C 
ATOM     14  C   UNL     1     142.426 143.741 131.967  1.00  0.00     0.007 C 
ATOM     15  C   UNL     1     143.382 143.377 134.245  1.00  0.00     0.007 C 
ENDBRANCH   5  13
TORSDOF 1
ENDMDL
MODEL 4
REMARK VINA RESULT:    -5.477      4.705      6.408
REMARK INTER + INTRA:          -5.864
REMARK INTER:                  -5.796
REMARK INTRA:                  -0.068
REMARK UNBOUND:                -0.066
REMARK SMILES CC1=C[C@H]2C(=C(C)CC[C@H]2C(C)C)CC1
REMARK SMILES IDX 1 1 2 2 3 3 4 4 10 5 9 6 8 7 6 8 5 9 14 10 15 11 7 12 11 13
REMARK SMILES IDX 12 14 13 15
REMARK H PARENT
REMARK Flexibility Score: inf
ROOT
ATOM      1  C   UNL     1     138.161 142.792 136.927  1.00  0.00     0.039 C 
ATOM      2  C   UNL     1     138.209 142.449 135.463  1.00  0.00    -0.076 C 
ATOM      3  C   UNL     1     137.534 141.371 135.015  1.00  0.00    -0.020 C 
ATOM      4  C   UNL     1     137.490 140.964 133.557  1.00  0.00     0.041 C 
ATOM      5  C   UNL     1     137.841 139.469 133.321  1.00  0.00     0.003 C 
ATOM      6  C   UNL     1     137.465 139.191 131.847  1.00  0.00     0.009 C 
ATOM      7  C   UNL     1     138.290 140.052 130.876  1.00  0.00     0.031 C 
ATOM      8  C   UNL     1     138.536 141.482 131.344  1.00  0.00    -0.073 C 
ATOM      9  C   UNL     1     138.274 141.878 132.625  1.00  0.00    -0.064 C 
ATOM     10  C   UNL     1     138.536 143.289 133.115  1.00  0.00     0.036 C 
ATOM     11  C   UNL     1     139.095 143.247 134.536  1.00  0.00     0.035 C 
ATOM     12  C   UNL     1     139.197 142.407 130.349  1.00  0.00     0.039 C 
ENDROOT
BRANCH   5  13
ATOM     13  C   UNL     1     139.329 139.069 133.656  1.00  0.00    -0.013 C 
ATOM     14  C   UNL     1     139.520 138.687 135.137  1.00  0.00     0.007 C 
ATOM     15  C   UNL     1     139.816 137.891 132.788  1.00  0.00     0.007 C 
ENDBRANCH   5  13
TORSDOF 1
ENDMDL
MODEL 5
REMARK VINA RESULT:    -5.477      2.731      4.386
REMARK INTER + INTRA:          -5.863
REMARK INTER:                  -5.792
REMARK INTRA:                  -0.071
REMARK UNBOUND:                -0.066
REMARK SMILES CC1=C[C@H]2C(=C(C)CC[C@H]2C(C)C)CC1
REMARK SMILES IDX 1 1 2 2 3 3 4 4 10 5 9 6 8 7 6 8 5 9 14 10 15 11 7 12 11 13
REMARK SMILES IDX 12 14 13 15
REMARK H PARENT
REMARK Flexibility Score: inf
ROOT
ATOM      1  C   UNL     1     142.844 144.039 136.834  1.00  0.00     0.039 C 
ATOM      2  C   UNL     1     142.485 143.970 135.375  1.00  0.00    -0.076 C 
ATOM      3  C   UNL     1     141.407 144.645 134.928  1.00  0.00    -0.020 C 
ATOM      4  C   UNL     1     140.985 144.668 133.474  1.00  0.00     0.041 C 
ATOM      5  C   UNL     1     139.485 144.324 133.259  1.00  0.00     0.003 C 
ATOM      6  C   UNL     1     139.194 144.679 131.783  1.00  0.00     0.009 C 
ATOM      7  C   UNL     1     140.038 143.831 130.816  1.00  0.00     0.031 C 
ATOM      8  C   UNL     1     141.470 143.581 131.272  1.00  0.00    -0.073 C 
ATOM      9  C   UNL     1     141.882 143.862 132.545  1.00  0.00    -0.064 C 
ATOM     10  C   UNL     1     143.296 143.596 133.025  1.00  0.00     0.036 C 
ATOM     11  C   UNL     1     143.266 143.061 134.455  1.00  0.00     0.035 C 
ATOM     12  C   UNL     1     142.380 142.897 130.279  1.00  0.00     0.039 C 
ENDROOT
BRANCH   5  13
ATOM     13  C   UNL     1     139.077 142.846 133.623  1.00  0.00    -0.013 C 
ATOM     14  C   UNL     1     138.723 142.679 135.114  1.00  0.00     0.007 C 
ATOM     15  C   UNL     1     137.877 142.359 132.786  1.00  0.00     0.007 C 
ENDBRANCH   5  13
TORSDOF 1
ENDMDL
MODEL 6
REMARK VINA RESULT:    -5.471      4.621      6.397
REMARK INTER + INTRA:          -5.857
REMARK INTER:                  -5.809
REMARK INTRA:                  -0.048
REMARK UNBOUND:                -0.066
REMARK SMILES CC1=C[C@H]2C(=C(C)CC[C@H]2C(C)C)CC1
REMARK SMILES IDX 1 1 2 2 3 3 4 4 10 5 9 6 8 7 6 8 5 9 14 10 15 11 7 12 11 13
REMARK SMILES IDX 12 14 13 15
REMARK H PARENT
REMARK Flexibility Score: inf
ROOT
ATOM      1  C   UNL     1     138.707 137.991 130.170  1.00  0.00     0.039 C 
ATOM      2  C   UNL     1     138.824 138.394 131.615  1.00  0.00    -0.076 C 
ATOM      3  C   UNL     1     137.830 139.106 132.184  1.00  0.00    -0.020 C 
ATOM      4  C   UNL     1     137.837 139.527 133.638  1.00  0.00     0.041 C 
ATOM      5  C   UNL     1     137.550 141.040 133.846  1.00  0.00     0.003 C 
ATOM      6  C   UNL     1     137.317 141.205 135.365  1.00  0.00     0.009 C 
ATOM      7  C   UNL     1     138.566 140.823 136.178  1.00  0.00     0.031 C 
ATOM      8  C   UNL     1     139.324 139.611 135.650  1.00  0.00    -0.073 C 
ATOM      9  C   UNL     1     139.065 139.078 134.418  1.00  0.00    -0.064 C 
ATOM     10  C   UNL     1     139.826 137.889 133.865  1.00  0.00     0.036 C 
ATOM     11  C   UNL     1     140.094 138.093 132.375  1.00  0.00     0.035 C 
ATOM     12  C   UNL     1     140.456 139.102 136.510  1.00  0.00     0.039 C 
ENDROOT
BRANCH   5  13
ATOM     13  C   UNL     1     138.656 142.015 133.289  1.00  0.00    -0.013 C 
ATOM     14  C   UNL     1     138.397 142.434 131.829  1.00  0.00     0.007 C 
ATOM     15  C   UNL     1     138.777 143.294 134.143  1.00  0.00     0.007 C 
ENDBRANCH   5  13
TORSDOF 1
ENDMDL
MODEL 7
REMARK VINA RESULT:    -5.465      1.851      3.278
REMARK INTER + INTRA:          -5.851
REMARK INTER:                  -5.759
REMARK INTRA:                  -0.091
REMARK UNBOUND:                -0.066
REMARK SMILES CC1=C[C@H]2C(=C(C)CC[C@H]2C(C)C)CC1
REMARK SMILES IDX 1 1 2 2 3 3 4 4 10 5 9 6 8 7 6 8 5 9 14 10 15 11 7 12 11 13
REMARK SMILES IDX 12 14 13 15
REMARK H PARENT
REMARK Flexibility Score: inf
ROOT
ATOM      1  C   UNL     1     144.755 140.257 136.779  1.00  0.00     0.039 C 
ATOM      2  C   UNL     1     144.248 141.270 135.789  1.00  0.00    -0.076 C 
ATOM      3  C   UNL     1     143.617 142.373 136.238  1.00  0.00    -0.020 C 
ATOM      4  C   UNL     1     143.104 143.467 135.326  1.00  0.00     0.041 C 
ATOM      5  C   UNL     1     141.623 143.853 135.593  1.00  0.00     0.003 C 
ATOM      6  C   UNL     1     141.387 145.147 134.782  1.00  0.00     0.009 C 
ATOM      7  C   UNL     1     141.572 144.916 133.273  1.00  0.00     0.031 C 
ATOM      8  C   UNL     1     142.723 143.986 132.907  1.00  0.00    -0.073 C 
ATOM      9  C   UNL     1     143.360 143.223 133.844  1.00  0.00    -0.064 C 
ATOM     10  C   UNL     1     144.490 142.273 133.496  1.00  0.00     0.036 C 
ATOM     11  C   UNL     1     144.354 140.987 134.309  1.00  0.00     0.035 C 
ATOM     12  C   UNL     1     143.043 143.864 131.436  1.00  0.00     0.039 C 
ENDROOT
BRANCH   5  13
ATOM     13  C   UNL     1     140.568 142.728 135.267  1.00  0.00    -0.013 C 
ATOM     14  C   UNL     1     140.530 141.622 136.340  1.00  0.00     0.007 C 
ATOM     15  C   UNL     1     139.144 143.302 135.118  1.00  0.00     0.007 C 
ENDBRANCH   5  13
TORSDOF 1
ENDMDL
MODEL 8
REMARK VINA RESULT:    -5.456      1.879      2.959
REMARK INTER + INTRA:          -5.841
REMARK INTER:                  -5.751
REMARK INTRA:                  -0.090
REMARK UNBOUND:                -0.066
REMARK SMILES CC1=C[C@H]2C(=C(C)CC[C@H]2C(C)C)CC1
REMARK SMILES IDX 1 1 2 2 3 3 4 4 10 5 9 6 8 7 6 8 5 9 14 10 15 11 7 12 11 13
REMARK SMILES IDX 12 14 13 15
REMARK H PARENT
REMARK Flexibility Score: inf
ROOT
ATOM      1  C   UNL     1     140.253 137.434 136.744  1.00  0.00     0.039 C 
ATOM      2  C   UNL     1     141.274 137.937 135.759  1.00  0.00    -0.076 C 
ATOM      3  C   UNL     1     142.367 138.582 136.214  1.00  0.00    -0.020 C 
ATOM      4  C   UNL     1     143.468 139.093 135.308  1.00  0.00     0.041 C 
ATOM      5  C   UNL     1     143.838 140.581 135.561  1.00  0.00     0.003 C 
ATOM      6  C   UNL     1     145.140 140.817 134.763  1.00  0.00     0.009 C 
ATOM      7  C   UNL     1     144.929 140.611 133.254  1.00  0.00     0.031 C 
ATOM      8  C   UNL     1     144.013 139.448 132.891  1.00  0.00    -0.073 C 
ATOM      9  C   UNL     1     143.244 138.816 133.827  1.00  0.00    -0.064 C 
ATOM     10  C   UNL     1     142.307 137.674 133.482  1.00  0.00     0.036 C 
ATOM     11  C   UNL     1     141.011 137.810 134.277  1.00  0.00     0.035 C 
ATOM     12  C   UNL     1     143.911 139.108 131.423  1.00  0.00     0.039 C 
ENDROOT
BRANCH   5  13
ATOM     13  C   UNL     1     142.708 141.622 135.208  1.00  0.00    -0.013 C 
ATOM     14  C   UNL     1     141.611 141.695 136.288  1.00  0.00     0.007 C 
ATOM     15  C   UNL     1     143.279 143.040 135.004  1.00  0.00     0.007 C 
ENDBRANCH   5  13
TORSDOF 1
ENDMDL
MODEL 9
REMARK VINA RESULT:    -5.428      1.171      5.001
REMARK INTER + INTRA:          -5.812
REMARK INTER:                  -5.755
REMARK INTRA:                  -0.056
REMARK UNBOUND:                -0.066
REMARK SMILES CC1=C[C@H]2C(=C(C)CC[C@H]2C(C)C)CC1
REMARK SMILES IDX 1 1 2 2 3 3 4 4 10 5 9 6 8 7 6 8 5 9 14 10 15 11 7 12 11 13
REMARK SMILES IDX 12 14 13 15
REMARK H PARENT
REMARK Flexibility Score: inf
ROOT
ATOM      1  C   UNL     1     143.648 143.969 130.115  1.00  0.00     0.039 C 
ATOM      2  C   UNL     1     143.465 143.635 131.571  1.00  0.00    -0.076 C 
ATOM      3  C   UNL     1     144.421 142.935 132.213  1.00  0.00    -0.020 C 
ATOM      4  C   UNL     1     144.347 142.581 133.683  1.00  0.00     0.041 C 
ATOM      5  C   UNL     1     144.598 141.075 133.972  1.00  0.00     0.003 C 
ATOM      6  C   UNL     1     144.765 140.977 135.505  1.00  0.00     0.009 C 
ATOM      7  C   UNL     1     143.492 141.417 136.247  1.00  0.00     0.031 C 
ATOM      8  C   UNL     1     142.778 142.615 135.633  1.00  0.00    -0.073 C 
ATOM      9  C   UNL     1     143.096 143.086 134.390  1.00  0.00    -0.064 C 
ATOM     10  C   UNL     1     142.380 144.261 133.752  1.00  0.00     0.036 C 
ATOM     11  C   UNL     1     142.170 143.992 132.263  1.00  0.00     0.035 C 
ATOM     12  C   UNL     1     141.621 143.181 136.421  1.00  0.00     0.039 C 
ENDROOT
BRANCH   5  13
ATOM     13  C   UNL     1     143.498 140.094 133.414  1.00  0.00    -0.013 C 
ATOM     14  C   UNL     1     143.794 139.627 131.976  1.00  0.00     0.007 C 
ATOM     15  C   UNL     1     143.340 138.844 134.304  1.00  0.00     0.007 C 
ENDBRANCH   5  13
TORSDOF 1
ENDMDL
