MODEL 1
REMARK VINA RESULT:    -3.776      0.000      0.000
REMARK INTER + INTRA:         -15.013
REMARK INTER:                  -9.848
REMARK INTRA:                  -5.166
REMARK UNBOUND:                -5.166
REMARK SMILES CCCCCCCCCCCCCCCCCCCCCCCCCCCCCO
REMARK SMILES IDX 16 1 15 2 14 3 13 4 12 5 11 6 10 7 9 8 8 9 7 10 6 11 5 12
REMARK SMILES IDX 4 13 3 14 2 15 1 16 17 17 18 18 19 19 20 20 21 21 22 22
REMARK SMILES IDX 23 23 24 24 25 25 26 26 27 27 28 28 29 29 30 30
REMARK H PARENT 30 31
REMARK Flexibility Score: inf
ROOT
ATOM      1  C   UNL     1     117.926 114.606 118.081  1.00  0.00     0.000 C 
ENDROOT
BRANCH   1   2
ATOM      2  C   UNL     1     116.461 114.835 117.661  1.00  0.00     0.000 C 
BRANCH   2   3
ATOM      3  C   UNL     1     116.212 116.094 116.804  1.00  0.00     0.000 C 
BRANCH   3   4
ATOM      4  C   UNL     1     114.842 116.141 116.099  1.00  0.00     0.000 C 
BRANCH   4   5
ATOM      5  C   UNL     1     114.385 114.800 115.487  1.00  0.00     0.000 C 
BRANCH   5   6
ATOM      6  C   UNL     1     113.321 114.923 114.380  1.00  0.00     0.000 C 
BRANCH   6   7
ATOM      7  C   UNL     1     113.889 114.632 112.982  1.00  0.00     0.000 C 
BRANCH   7   8
ATOM      8  C   UNL     1     113.860 115.879 112.087  1.00  0.00    -0.000 C 
BRANCH   8   9
ATOM      9  C   UNL     1     114.931 116.917 112.469  1.00  0.00    -0.000 C 
BRANCH   9  10
ATOM     10  C   UNL     1     114.466 118.383 112.338  1.00  0.00    -0.000 C 
BRANCH  10  11
ATOM     11  C   UNL     1     114.666 119.177 113.640  1.00  0.00    -0.000 C 
BRANCH  11  12
ATOM     12  C   UNL     1     116.079 118.970 114.205  1.00  0.00    -0.000 C 
BRANCH  12  13
ATOM     13  C   UNL     1     116.248 119.549 115.619  1.00  0.00    -0.000 C 
BRANCH  13  14
ATOM     14  C   UNL     1     115.076 120.424 116.106  1.00  0.00    -0.000 C 
BRANCH  14  15
ATOM     15  C   UNL     1     114.763 120.268 117.608  1.00  0.00    -0.003 C 
ATOM     16  C   UNL     1     113.767 119.142 117.889  1.00  0.00     0.004 C 
ENDBRANCH  14  15
ENDBRANCH  13  14
ENDBRANCH  12  13
ENDBRANCH  11  12
ENDBRANCH  10  11
ENDBRANCH   9  10
ENDBRANCH   8   9
ENDBRANCH   7   8
ENDBRANCH   6   7
ENDBRANCH   5   6
ENDBRANCH   4   5
ENDBRANCH   3   4
ENDBRANCH   2   3
ENDBRANCH   1   2
BRANCH   1  17
ATOM     17  C   UNL     1     118.833 114.221 116.900  1.00  0.00     0.000 C 
BRANCH  17  18
ATOM     18  C   UNL     1     118.412 112.903 116.230  1.00  0.00     0.000 C 
BRANCH  18  19
ATOM     19  C   UNL     1     118.501 112.962 114.694  1.00  0.00     0.000 C 
BRANCH  19  20
ATOM     20  C   UNL     1     117.392 113.822 114.060  1.00  0.00     0.000 C 
BRANCH  20  21
ATOM     21  C   UNL     1     117.882 114.878 113.050  1.00  0.00     0.000 C 
BRANCH  21  22
ATOM     22  C   UNL     1     118.293 116.201 113.720  1.00  0.00     0.000 C 
BRANCH  22  23
ATOM     23  C   UNL     1     119.085 117.119 112.777  1.00  0.00     0.000 C 
BRANCH  23  24
ATOM     24  C   UNL     1     119.785 118.266 113.521  1.00  0.00     0.000 C 
BRANCH  24  25
ATOM     25  C   UNL     1     119.642 118.109 115.041  1.00  0.00     0.000 C 
BRANCH  25  26
ATOM     26  C   UNL     1     120.959 118.456 115.754  1.00  0.00     0.000 C 
BRANCH  26  27
ATOM     27  C   UNL     1     120.836 118.428 117.289  1.00  0.00     0.002 C 
BRANCH  27  28
ATOM     28  C   UNL     1     121.387 119.673 118.007  1.00  0.00     0.028 C 
BRANCH  28  29
ATOM     29  C   UNL     1     120.285 120.567 118.589  1.00  0.00     0.156 C 
BRANCH  29  30
ATOM     30  O   UNL     1     119.029 120.128 118.149  1.00  0.00    -0.396 OA
ATOM     31  H   UNL     1     118.988 120.311 117.175  1.00  0.00     0.210 HD
ENDBRANCH  29  30
ENDBRANCH  28  29
ENDBRANCH  27  28
ENDBRANCH  26  27
ENDBRANCH  25  26
ENDBRANCH  24  25
ENDBRANCH  23  24
ENDBRANCH  22  23
ENDBRANCH  21  22
ENDBRANCH  20  21
ENDBRANCH  19  20
ENDBRANCH  18  19
ENDBRANCH  17  18
ENDBRANCH   1  17
TORSDOF 28
ENDMDL
MODEL 2
REMARK VINA RESULT:    -3.739      2.232      5.548
REMARK INTER + INTRA:         -14.916
REMARK INTER:                 -10.017
REMARK INTRA:                  -4.899
REMARK UNBOUND:                -5.166
REMARK SMILES CCCCCCCCCCCCCCCCCCCCCCCCCCCCCO
REMARK SMILES IDX 16 1 15 2 14 3 13 4 12 5 11 6 10 7 9 8 8 9 7 10 6 11 5 12
REMARK SMILES IDX 4 13 3 14 2 15 1 16 17 17 18 18 19 19 20 20 21 21 22 22
REMARK SMILES IDX 23 23 24 24 25 25 26 26 27 27 28 28 29 29 30 30
REMARK H PARENT 30 31
REMARK Flexibility Score: inf
ROOT
ATOM      1  C   UNL     1     115.514 119.517 114.728  1.00  0.00     0.000 C 
ENDROOT
BRANCH   1   2
ATOM      2  C   UNL     1     114.673 119.839 113.477  1.00  0.00     0.000 C 
BRANCH   2   3
ATOM      3  C   UNL     1     115.026 119.019 112.219  1.00  0.00     0.000 C 
BRANCH   3   4
ATOM      4  C   UNL     1     114.400 117.611 112.163  1.00  0.00     0.000 C 
BRANCH   4   5
ATOM      5  C   UNL     1     115.408 116.451 112.309  1.00  0.00     0.000 C 
BRANCH   5   6
ATOM      6  C   UNL     1     114.786 115.043 112.250  1.00  0.00     0.000 C 
BRANCH   6   7
ATOM      7  C   UNL     1     113.277 115.054 112.538  1.00  0.00     0.000 C 
BRANCH   7   8
ATOM      8  C   UNL     1     112.962 114.505 113.937  1.00  0.00    -0.000 C 
BRANCH   8   9
ATOM      9  C   UNL     1     113.295 115.503 115.061  1.00  0.00    -0.000 C 
BRANCH   9  10
ATOM     10  C   UNL     1     113.328 114.877 116.472  1.00  0.00    -0.000 C 
BRANCH  10  11
ATOM     11  C   UNL     1     114.696 114.257 116.804  1.00  0.00    -0.000 C 
BRANCH  11  12
ATOM     12  C   UNL     1     115.791 114.798 115.872  1.00  0.00    -0.000 C 
BRANCH  12  13
ATOM     13  C   UNL     1     117.160 114.140 116.113  1.00  0.00    -0.000 C 
BRANCH  13  14
ATOM     14  C   UNL     1     117.279 113.358 117.436  1.00  0.00    -0.000 C 
BRANCH  14  15
ATOM     15  C   UNL     1     118.106 114.084 118.517  1.00  0.00    -0.003 C 
ATOM     16  C   UNL     1     117.253 114.552 119.695  1.00  0.00     0.004 C 
ENDBRANCH  14  15
ENDBRANCH  13  14
ENDBRANCH  12  13
ENDBRANCH  11  12
ENDBRANCH  10  11
ENDBRANCH   9  10
ENDBRANCH   8   9
ENDBRANCH   7   8
ENDBRANCH   6   7
ENDBRANCH   5   6
ENDBRANCH   4   5
ENDBRANCH   3   4
ENDBRANCH   2   3
ENDBRANCH   1   2
BRANCH   1  17
ATOM     17  C   UNL     1     114.937 118.355 115.554  1.00  0.00     0.000 C 
BRANCH  17  18
ATOM     18  C   UNL     1     115.209 118.502 117.061  1.00  0.00     0.000 C 
BRANCH  18  19
ATOM     19  C   UNL     1     116.145 119.680 117.383  1.00  0.00     0.000 C 
BRANCH  19  20
ATOM     20  C   UNL     1     117.566 119.231 117.772  1.00  0.00     0.000 C 
BRANCH  20  21
ATOM     21  C   UNL     1     117.836 117.722 117.628  1.00  0.00     0.000 C 
BRANCH  21  22
ATOM     22  C   UNL     1     118.911 117.405 116.573  1.00  0.00     0.000 C 
BRANCH  22  23
ATOM     23  C   UNL     1     118.735 118.224 115.285  1.00  0.00     0.000 C 
BRANCH  23  24
ATOM     24  C   UNL     1     120.008 118.251 114.426  1.00  0.00     0.000 C 
BRANCH  24  25
ATOM     25  C   UNL     1     119.709 118.759 113.009  1.00  0.00     0.000 C 
BRANCH  25  26
ATOM     26  C   UNL     1     118.674 117.861 112.312  1.00  0.00     0.000 C 
BRANCH  26  27
ATOM     27  C   UNL     1     119.186 116.428 112.072  1.00  0.00     0.002 C 
BRANCH  27  28
ATOM     28  C   UNL     1     118.598 115.364 113.016  1.00  0.00     0.028 C 
BRANCH  28  29
ATOM     29  C   UNL     1     118.604 113.956 112.411  1.00  0.00     0.156 C 
BRANCH  29  30
ATOM     30  O   UNL     1     119.006 113.021 113.375  1.00  0.00    -0.396 OA
ATOM     31  H   UNL     1     118.837 112.123 112.989  1.00  0.00     0.210 HD
ENDBRANCH  29  30
ENDBRANCH  28  29
ENDBRANCH  27  28
ENDBRANCH  26  27
ENDBRANCH  25  26
ENDBRANCH  24  25
ENDBRANCH  23  24
ENDBRANCH  22  23
ENDBRANCH  21  22
ENDBRANCH  20  21
ENDBRANCH  19  20
ENDBRANCH  18  19
ENDBRANCH  17  18
ENDBRANCH   1  17
TORSDOF 28
ENDMDL
MODEL 3
REMARK VINA RESULT:    -3.713      1.750      4.934
REMARK INTER + INTRA:         -14.848
REMARK INTER:                  -9.339
REMARK INTRA:                  -5.509
REMARK UNBOUND:                -5.166
REMARK SMILES CCCCCCCCCCCCCCCCCCCCCCCCCCCCCO
REMARK SMILES IDX 16 1 15 2 14 3 13 4 12 5 11 6 10 7 9 8 8 9 7 10 6 11 5 12
REMARK SMILES IDX 4 13 3 14 2 15 1 16 17 17 18 18 19 19 20 20 21 21 22 22
REMARK SMILES IDX 23 23 24 24 25 25 26 26 27 27 28 28 29 29 30 30
REMARK H PARENT 30 31
REMARK Flexibility Score: inf
ROOT
ATOM      1  C   UNL     1     115.242 115.715 116.663  1.00  0.00     0.000 C 
ENDROOT
BRANCH   1   2
ATOM      2  C   UNL     1     116.521 115.478 115.837  1.00  0.00     0.000 C 
BRANCH   2   3
ATOM      3  C   UNL     1     116.877 113.999 115.586  1.00  0.00     0.000 C 
BRANCH   3   4
ATOM      4  C   UNL     1     117.363 113.680 114.158  1.00  0.00     0.000 C 
BRANCH   4   5
ATOM      5  C   UNL     1     118.474 114.612 113.631  1.00  0.00     0.000 C 
BRANCH   5   6
ATOM      6  C   UNL     1     118.346 114.996 112.145  1.00  0.00     0.000 C 
BRANCH   6   7
ATOM      7  C   UNL     1     118.761 116.451 111.875  1.00  0.00     0.000 C 
BRANCH   7   8
ATOM      8  C   UNL     1     118.335 117.384 113.018  1.00  0.00    -0.000 C 
BRANCH   8   9
ATOM      9  C   UNL     1     119.278 118.588 113.192  1.00  0.00    -0.000 C 
BRANCH   9  10
ATOM     10  C   UNL     1     120.188 118.503 114.436  1.00  0.00    -0.000 C 
BRANCH  10  11
ATOM     11  C   UNL     1     119.747 117.393 115.406  1.00  0.00    -0.000 C 
BRANCH  11  12
ATOM     12  C   UNL     1     119.461 117.960 116.805  1.00  0.00    -0.000 C 
BRANCH  12  13
ATOM     13  C   UNL     1     118.939 116.898 117.785  1.00  0.00    -0.000 C 
BRANCH  13  14
ATOM     14  C   UNL     1     118.451 117.449 119.140  1.00  0.00    -0.000 C 
BRANCH  14  15
ATOM     15  C   UNL     1     117.465 116.516 119.873  1.00  0.00    -0.003 C 
ATOM     16  C   UNL     1     118.091 115.173 120.246  1.00  0.00     0.004 C 
ENDBRANCH  14  15
ENDBRANCH  13  14
ENDBRANCH  12  13
ENDBRANCH  11  12
ENDBRANCH  10  11
ENDBRANCH   9  10
ENDBRANCH   8   9
ENDBRANCH   7   8
ENDBRANCH   6   7
ENDBRANCH   5   6
ENDBRANCH   4   5
ENDBRANCH   3   4
ENDBRANCH   2   3
ENDBRANCH   1   2
BRANCH   1  17
ATOM     17  C   UNL     1     114.092 114.773 116.268  1.00  0.00     0.000 C 
BRANCH  17  18
ATOM     18  C   UNL     1     113.158 115.383 115.209  1.00  0.00     0.000 C 
BRANCH  18  19
ATOM     19  C   UNL     1     112.861 114.414 114.050  1.00  0.00     0.000 C 
BRANCH  19  20
ATOM     20  C   UNL     1     113.872 114.530 112.895  1.00  0.00     0.000 C 
BRANCH  20  21
ATOM     21  C   UNL     1     113.604 115.679 111.905  1.00  0.00     0.000 C 
BRANCH  21  22
ATOM     22  C   UNL     1     114.738 116.719 111.875  1.00  0.00     0.000 C 
BRANCH  22  23
ATOM     23  C   UNL     1     114.835 117.526 113.179  1.00  0.00     0.000 C 
BRANCH  23  24
ATOM     24  C   UNL     1     114.769 119.042 112.940  1.00  0.00     0.000 C 
BRANCH  24  25
ATOM     25  C   UNL     1     114.946 119.818 114.252  1.00  0.00     0.000 C 
BRANCH  25  26
ATOM     26  C   UNL     1     115.789 119.015 115.255  1.00  0.00     0.000 C 
BRANCH  26  27
ATOM     27  C   UNL     1     116.189 119.835 116.496  1.00  0.00     0.002 C 
BRANCH  27  28
ATOM     28  C   UNL     1     115.660 119.287 117.833  1.00  0.00     0.028 C 
BRANCH  28  29
ATOM     29  C   UNL     1     114.403 120.014 118.325  1.00  0.00     0.156 C 
BRANCH  29  30
ATOM     30  O   UNL     1     113.306 119.673 117.523  1.00  0.00    -0.396 OA
ATOM     31  H   UNL     1     113.305 120.303 116.757  1.00  0.00     0.210 HD
ENDBRANCH  29  30
ENDBRANCH  28  29
ENDBRANCH  27  28
ENDBRANCH  26  27
ENDBRANCH  25  26
ENDBRANCH  24  25
ENDBRANCH  23  24
ENDBRANCH  22  23
ENDBRANCH  21  22
ENDBRANCH  20  21
ENDBRANCH  19  20
ENDBRANCH  18  19
ENDBRANCH  17  18
ENDBRANCH   1  17
TORSDOF 28
ENDMDL
MODEL 4
REMARK VINA RESULT:    -3.688      1.991      5.468
REMARK INTER + INTRA:         -14.783
REMARK INTER:                 -10.225
REMARK INTRA:                  -4.558
REMARK UNBOUND:                -5.166
REMARK SMILES CCCCCCCCCCCCCCCCCCCCCCCCCCCCCO
REMARK SMILES IDX 16 1 15 2 14 3 13 4 12 5 11 6 10 7 9 8 8 9 7 10 6 11 5 12
REMARK SMILES IDX 4 13 3 14 2 15 1 16 17 17 18 18 19 19 20 20 21 21 22 22
REMARK SMILES IDX 23 23 24 24 25 25 26 26 27 27 28 28 29 29 30 30
REMARK H PARENT 30 31
REMARK Flexibility Score: inf
ROOT
ATOM      1  C   UNL     1     115.200 117.352 115.740  1.00  0.00     0.000 C 
ENDROOT
BRANCH   1   2
ATOM      2  C   UNL     1     114.745 118.805 115.979  1.00  0.00     0.000 C 
BRANCH   2   3
ATOM      3  C   UNL     1     114.983 119.772 114.801  1.00  0.00     0.000 C 
BRANCH   3   4
ATOM      4  C   UNL     1     114.485 119.265 113.433  1.00  0.00     0.000 C 
BRANCH   4   5
ATOM      5  C   UNL     1     115.365 119.676 112.233  1.00  0.00     0.000 C 
BRANCH   5   6
ATOM      6  C   UNL     1     116.538 118.723 111.935  1.00  0.00     0.000 C 
BRANCH   6   7
ATOM      7  C   UNL     1     117.380 118.417 113.183  1.00  0.00     0.000 C 
BRANCH   7   8
ATOM      8  C   UNL     1     118.865 118.235 112.836  1.00  0.00    -0.000 C 
BRANCH   8   9
ATOM      9  C   UNL     1     119.656 117.515 113.942  1.00  0.00    -0.000 C 
BRANCH   9  10
ATOM     10  C   UNL     1     120.259 118.458 115.005  1.00  0.00    -0.000 C 
BRANCH  10  11
ATOM     11  C   UNL     1     120.203 117.856 116.419  1.00  0.00    -0.000 C 
BRANCH  11  12
ATOM     12  C   UNL     1     119.074 116.822 116.537  1.00  0.00    -0.000 C 
BRANCH  12  13
ATOM     13  C   UNL     1     118.768 116.435 117.994  1.00  0.00    -0.000 C 
BRANCH  13  14
ATOM     14  C   UNL     1     117.293 116.091 118.278  1.00  0.00    -0.000 C 
BRANCH  14  15
ATOM     15  C   UNL     1     117.045 115.522 119.690  1.00  0.00    -0.003 C 
ATOM     16  C   UNL     1     117.852 114.253 119.963  1.00  0.00     0.004 C 
ENDBRANCH  14  15
ENDBRANCH  13  14
ENDBRANCH  12  13
ENDBRANCH  11  12
ENDBRANCH  10  11
ENDBRANCH   9  10
ENDBRANCH   8   9
ENDBRANCH   7   8
ENDBRANCH   6   7
ENDBRANCH   5   6
ENDBRANCH   4   5
ENDBRANCH   3   4
ENDBRANCH   2   3
ENDBRANCH   1   2
BRANCH   1  17
ATOM     17  C   UNL     1     114.037 116.346 115.783  1.00  0.00     0.000 C 
BRANCH  17  18
ATOM     18  C   UNL     1     114.305 115.088 114.940  1.00  0.00     0.000 C 
BRANCH  18  19
ATOM     19  C   UNL     1     113.566 115.108 113.590  1.00  0.00     0.000 C 
BRANCH  19  20
ATOM     20  C   UNL     1     114.446 115.608 112.430  1.00  0.00     0.000 C 
BRANCH  20  21
ATOM     21  C   UNL     1     115.444 114.574 111.875  1.00  0.00     0.000 C 
BRANCH  21  22
ATOM     22  C   UNL     1     116.911 114.974 112.112  1.00  0.00     0.000 C 
BRANCH  22  23
ATOM     23  C   UNL     1     117.884 113.804 111.895  1.00  0.00     0.000 C 
BRANCH  23  24
ATOM     24  C   UNL     1     118.494 113.294 113.209  1.00  0.00     0.000 C 
BRANCH  24  25
ATOM     25  C   UNL     1     118.187 114.250 114.371  1.00  0.00     0.000 C 
BRANCH  25  26
ATOM     26  C   UNL     1     117.620 113.483 115.576  1.00  0.00     0.000 C 
BRANCH  26  27
ATOM     27  C   UNL     1     118.413 112.204 115.902  1.00  0.00     0.002 C 
BRANCH  27  28
ATOM     28  C   UNL     1     118.591 111.917 117.404  1.00  0.00     0.028 C 
BRANCH  28  29
ATOM     29  C   UNL     1     120.058 111.933 117.848  1.00  0.00     0.156 C 
BRANCH  29  30
ATOM     30  O   UNL     1     120.571 113.235 117.762  1.00  0.00    -0.396 OA
ATOM     31  H   UNL     1     119.977 113.736 117.146  1.00  0.00     0.210 HD
ENDBRANCH  29  30
ENDBRANCH  28  29
ENDBRANCH  27  28
ENDBRANCH  26  27
ENDBRANCH  25  26
ENDBRANCH  24  25
ENDBRANCH  23  24
ENDBRANCH  22  23
ENDBRANCH  21  22
ENDBRANCH  20  21
ENDBRANCH  19  20
ENDBRANCH  18  19
ENDBRANCH  17  18
ENDBRANCH   1  17
TORSDOF 28
ENDMDL
MODEL 5
REMARK VINA RESULT:    -3.648      1.643      5.005
REMARK INTER + INTRA:         -14.679
REMARK INTER:                 -10.049
REMARK INTRA:                  -4.629
REMARK UNBOUND:                -5.166
REMARK SMILES CCCCCCCCCCCCCCCCCCCCCCCCCCCCCO
REMARK SMILES IDX 16 1 15 2 14 3 13 4 12 5 11 6 10 7 9 8 8 9 7 10 6 11 5 12
REMARK SMILES IDX 4 13 3 14 2 15 1 16 17 17 18 18 19 19 20 20 21 21 22 22
REMARK SMILES IDX 23 23 24 24 25 25 26 26 27 27 28 28 29 29 30 30
REMARK H PARENT 30 31
REMARK Flexibility Score: inf
ROOT
ATOM      1  C   UNL     1     120.094 117.837 115.331  1.00  0.00     0.000 C 
ENDROOT
BRANCH   1   2
ATOM      2  C   UNL     1     119.610 117.650 116.783  1.00  0.00     0.000 C 
BRANCH   2   3
ATOM      3  C   UNL     1     118.105 117.353 116.941  1.00  0.00     0.000 C 
BRANCH   3   4
ATOM      4  C   UNL     1     117.736 115.856 116.955  1.00  0.00     0.000 C 
BRANCH   4   5
ATOM      5  C   UNL     1     116.942 115.376 115.722  1.00  0.00     0.000 C 
BRANCH   5   6
ATOM      6  C   UNL     1     117.181 113.906 115.330  1.00  0.00     0.000 C 
BRANCH   6   7
ATOM      7  C   UNL     1     118.438 113.726 114.463  1.00  0.00     0.000 C 
BRANCH   7   8
ATOM      8  C   UNL     1     118.259 114.345 113.069  1.00  0.00    -0.000 C 
BRANCH   8   9
ATOM      9  C   UNL     1     117.021 113.808 112.328  1.00  0.00    -0.000 C 
BRANCH   9  10
ATOM     10  C   UNL     1     116.031 114.902 111.876  1.00  0.00    -0.000 C 
BRANCH  10  11
ATOM     11  C   UNL     1     114.579 114.568 112.257  1.00  0.00    -0.000 C 
BRANCH  11  12
ATOM     12  C   UNL     1     114.043 115.547 113.312  1.00  0.00    -0.000 C 
BRANCH  12  13
ATOM     13  C   UNL     1     113.228 114.850 114.414  1.00  0.00    -0.000 C 
BRANCH  13  14
ATOM     14  C   UNL     1     113.220 115.577 115.773  1.00  0.00    -0.000 C 
BRANCH  14  15
ATOM     15  C   UNL     1     112.911 114.656 116.971  1.00  0.00    -0.003 C 
ATOM     16  C   UNL     1     114.167 114.019 117.565  1.00  0.00     0.004 C 
ENDBRANCH  14  15
ENDBRANCH  13  14
ENDBRANCH  12  13
ENDBRANCH  11  12
ENDBRANCH  10  11
ENDBRANCH   9  10
ENDBRANCH   8   9
ENDBRANCH   7   8
ENDBRANCH   6   7
ENDBRANCH   5   6
ENDBRANCH   4   5
ENDBRANCH   3   4
ENDBRANCH   2   3
ENDBRANCH   1   2
BRANCH   1  17
ATOM     17  C   UNL     1     118.942 117.827 114.311  1.00  0.00     0.000 C 
BRANCH  17  18
ATOM     18  C   UNL     1     119.318 118.499 112.980  1.00  0.00     0.000 C 
BRANCH  18  19
ATOM     19  C   UNL     1     118.128 118.605 112.011  1.00  0.00     0.000 C 
BRANCH  19  20
ATOM     20  C   UNL     1     116.781 118.257 112.671  1.00  0.00     0.000 C 
BRANCH  20  21
ATOM     21  C   UNL     1     115.617 119.203 112.317  1.00  0.00     0.000 C 
BRANCH  21  22
ATOM     22  C   UNL     1     114.771 119.594 113.542  1.00  0.00     0.000 C 
BRANCH  22  23
ATOM     23  C   UNL     1     115.143 118.791 114.798  1.00  0.00     0.000 C 
BRANCH  23  24
ATOM     24  C   UNL     1     115.684 119.680 115.927  1.00  0.00     0.000 C 
BRANCH  24  25
ATOM     25  C   UNL     1     114.730 120.846 116.221  1.00  0.00     0.000 C 
BRANCH  25  26
ATOM     26  C   UNL     1     113.900 120.570 117.485  1.00  0.00     0.000 C 
BRANCH  26  27
ATOM     27  C   UNL     1     114.152 121.597 118.604  1.00  0.00     0.002 C 
BRANCH  27  28
ATOM     28  C   UNL     1     115.310 121.247 119.557  1.00  0.00     0.028 C 
BRANCH  28  29
ATOM     29  C   UNL     1     116.685 121.627 118.996  1.00  0.00     0.156 C 
BRANCH  29  30
ATOM     30  O   UNL     1     116.691 122.975 118.614  1.00  0.00    -0.396 OA
ATOM     31  H   UNL     1     115.743 123.242 118.491  1.00  0.00     0.210 HD
ENDBRANCH  29  30
ENDBRANCH  28  29
ENDBRANCH  27  28
ENDBRANCH  26  27
ENDBRANCH  25  26
ENDBRANCH  24  25
ENDBRANCH  23  24
ENDBRANCH  22  23
ENDBRANCH  21  22
ENDBRANCH  20  21
ENDBRANCH  19  20
ENDBRANCH  18  19
ENDBRANCH  17  18
ENDBRANCH   1  17
TORSDOF 28
ENDMDL
MODEL 6
REMARK VINA RESULT:    -3.640      1.904      5.350
REMARK INTER + INTRA:         -14.659
REMARK INTER:                  -9.109
REMARK INTRA:                  -5.549
REMARK UNBOUND:                -5.166
REMARK SMILES CCCCCCCCCCCCCCCCCCCCCCCCCCCCCO
REMARK SMILES IDX 16 1 15 2 14 3 13 4 12 5 11 6 10 7 9 8 8 9 7 10 6 11 5 12
REMARK SMILES IDX 4 13 3 14 2 15 1 16 17 17 18 18 19 19 20 20 21 21 22 22
REMARK SMILES IDX 23 23 24 24 25 25 26 26 27 27 28 28 29 29 30 30
REMARK H PARENT 30 31
REMARK Flexibility Score: inf
ROOT
ATOM      1  C   UNL     1     118.871 116.000 112.940  1.00  0.00     0.000 C 
ENDROOT
BRANCH   1   2
ATOM      2  C   UNL     1     119.585 117.133 112.176  1.00  0.00     0.000 C 
BRANCH   2   3
ATOM      3  C   UNL     1     118.891 118.509 112.242  1.00  0.00     0.000 C 
BRANCH   3   4
ATOM      4  C   UNL     1     117.372 118.484 111.987  1.00  0.00     0.000 C 
BRANCH   4   5
ATOM      5  C   UNL     1     116.506 118.858 113.209  1.00  0.00     0.000 C 
BRANCH   5   6
ATOM      6  C   UNL     1     115.204 119.609 112.874  1.00  0.00     0.000 C 
BRANCH   6   7
ATOM      7  C   UNL     1     114.562 120.255 114.111  1.00  0.00     0.000 C 
BRANCH   7   8
ATOM      8  C   UNL     1     115.381 119.984 115.382  1.00  0.00    -0.000 C 
BRANCH   8   9
ATOM      9  C   UNL     1     114.628 119.116 116.407  1.00  0.00    -0.000 C 
BRANCH   9  10
ATOM     10  C   UNL     1     115.510 118.593 117.561  1.00  0.00    -0.000 C 
BRANCH  10  11
ATOM     11  C   UNL     1     116.843 119.352 117.667  1.00  0.00    -0.000 C 
BRANCH  11  12
ATOM     12  C   UNL     1     118.038 118.398 117.530  1.00  0.00    -0.000 C 
BRANCH  12  13
ATOM     13  C   UNL     1     118.623 118.372 116.109  1.00  0.00    -0.000 C 
BRANCH  13  14
ATOM     14  C   UNL     1     120.020 117.731 115.993  1.00  0.00    -0.000 C 
BRANCH  14  15
ATOM     15  C   UNL     1     121.074 118.647 115.338  1.00  0.00    -0.003 C 
ATOM     16  C   UNL     1     122.259 118.936 116.260  1.00  0.00     0.004 C 
ENDBRANCH  14  15
ENDBRANCH  13  14
ENDBRANCH  12  13
ENDBRANCH  11  12
ENDBRANCH  10  11
ENDBRANCH   9  10
ENDBRANCH   8   9
ENDBRANCH   7   8
ENDBRANCH   6   7
ENDBRANCH   5   6
ENDBRANCH   4   5
ENDBRANCH   3   4
ENDBRANCH   2   3
ENDBRANCH   1   2
BRANCH   1  17
ATOM     17  C   UNL     1     118.689 114.729 112.092  1.00  0.00     0.000 C 
BRANCH  17  18
ATOM     18  C   UNL     1     117.435 113.928 112.480  1.00  0.00     0.000 C 
BRANCH  18  19
ATOM     19  C   UNL     1     116.146 114.512 111.875  1.00  0.00     0.000 C 
BRANCH  19  20
ATOM     20  C   UNL     1     114.932 114.388 112.813  1.00  0.00     0.000 C 
BRANCH  20  21
ATOM     21  C   UNL     1     114.143 115.693 113.035  1.00  0.00     0.000 C 
BRANCH  21  22
ATOM     22  C   UNL     1     114.365 116.295 114.434  1.00  0.00     0.000 C 
BRANCH  22  23
ATOM     23  C   UNL     1     115.688 115.841 115.070  1.00  0.00     0.000 C 
BRANCH  23  24
ATOM     24  C   UNL     1     115.480 114.815 116.194  1.00  0.00     0.000 C 
BRANCH  24  25
ATOM     25  C   UNL     1     116.652 113.827 116.267  1.00  0.00     0.000 C 
BRANCH  25  26
ATOM     26  C   UNL     1     117.993 114.551 116.064  1.00  0.00     0.000 C 
BRANCH  26  27
ATOM     27  C   UNL     1     118.794 114.709 117.370  1.00  0.00     0.002 C 
BRANCH  27  28
ATOM     28  C   UNL     1     117.999 114.422 118.657  1.00  0.00     0.028 C 
BRANCH  28  29
ATOM     29  C   UNL     1     118.736 113.488 119.623  1.00  0.00     0.156 C 
BRANCH  29  30
ATOM     30  O   UNL     1     118.843 114.090 120.884  1.00  0.00    -0.396 OA
ATOM     31  H   UNL     1     119.371 114.920 120.760  1.00  0.00     0.210 HD
ENDBRANCH  29  30
ENDBRANCH  28  29
ENDBRANCH  27  28
ENDBRANCH  26  27
ENDBRANCH  25  26
ENDBRANCH  24  25
ENDBRANCH  23  24
ENDBRANCH  22  23
ENDBRANCH  21  22
ENDBRANCH  20  21
ENDBRANCH  19  20
ENDBRANCH  18  19
ENDBRANCH  17  18
ENDBRANCH   1  17
TORSDOF 28
ENDMDL
MODEL 7
REMARK VINA RESULT:    -3.636      1.690      6.262
REMARK INTER + INTRA:         -14.646
REMARK INTER:                  -9.314
REMARK INTRA:                  -5.332
REMARK UNBOUND:                -5.166
REMARK SMILES CCCCCCCCCCCCCCCCCCCCCCCCCCCCCO
REMARK SMILES IDX 16 1 15 2 14 3 13 4 12 5 11 6 10 7 9 8 8 9 7 10 6 11 5 12
REMARK SMILES IDX 4 13 3 14 2 15 1 16 17 17 18 18 19 19 20 20 21 21 22 22
REMARK SMILES IDX 23 23 24 24 25 25 26 26 27 27 28 28 29 29 30 30
REMARK H PARENT 30 31
REMARK Flexibility Score: inf
ROOT
ATOM      1  C   UNL     1     116.264 118.872 113.354  1.00  0.00     0.000 C 
ENDROOT
BRANCH   1   2
ATOM      2  C   UNL     1     117.084 118.691 112.062  1.00  0.00     0.000 C 
BRANCH   2   3
ATOM      3  C   UNL     1     118.099 117.530 112.084  1.00  0.00     0.000 C 
BRANCH   3   4
ATOM      4  C   UNL     1     119.578 117.960 112.147  1.00  0.00     0.000 C 
BRANCH   4   5
ATOM      5  C   UNL     1     119.933 118.875 113.337  1.00  0.00     0.000 C 
BRANCH   5   6
ATOM      6  C   UNL     1     120.284 118.135 114.641  1.00  0.00     0.000 C 
BRANCH   6   7
ATOM      7  C   UNL     1     119.156 118.208 115.682  1.00  0.00     0.000 C 
BRANCH   7   8
ATOM      8  C   UNL     1     118.788 116.818 116.220  1.00  0.00    -0.000 C 
BRANCH   8   9
ATOM      9  C   UNL     1     117.838 116.045 115.286  1.00  0.00    -0.000 C 
BRANCH   9  10
ATOM     10  C   UNL     1     118.487 114.831 114.589  1.00  0.00    -0.000 C 
BRANCH  10  11
ATOM     11  C   UNL     1     117.659 113.546 114.763  1.00  0.00    -0.000 C 
BRANCH  11  12
ATOM     12  C   UNL     1     118.359 112.559 115.709  1.00  0.00    -0.000 C 
BRANCH  12  13
ATOM     13  C   UNL     1     118.216 112.946 117.190  1.00  0.00    -0.000 C 
BRANCH  13  14
ATOM     14  C   UNL     1     116.843 113.531 117.577  1.00  0.00    -0.000 C 
BRANCH  14  15
ATOM     15  C   UNL     1     116.847 114.292 118.919  1.00  0.00    -0.003 C 
ATOM     16  C   UNL     1     115.860 113.709 119.930  1.00  0.00     0.004 C 
ENDBRANCH  14  15
ENDBRANCH  13  14
ENDBRANCH  12  13
ENDBRANCH  11  12
ENDBRANCH  10  11
ENDBRANCH   9  10
ENDBRANCH   8   9
ENDBRANCH   7   8
ENDBRANCH   6   7
ENDBRANCH   5   6
ENDBRANCH   4   5
ENDBRANCH   3   4
ENDBRANCH   2   3
ENDBRANCH   1   2
BRANCH   1  17
ATOM     17  C   UNL     1     114.808 118.398 113.211  1.00  0.00     0.000 C 
BRANCH  17  18
ATOM     18  C   UNL     1     114.547 117.665 111.884  1.00  0.00     0.000 C 
BRANCH  18  19
ATOM     19  C   UNL     1     114.230 116.173 112.082  1.00  0.00     0.000 C 
BRANCH  19  20
ATOM     20  C   UNL     1     114.759 115.617 113.417  1.00  0.00     0.000 C 
BRANCH  20  21
ATOM     21  C   UNL     1     113.699 114.941 114.308  1.00  0.00     0.000 C 
BRANCH  21  22
ATOM     22  C   UNL     1     114.123 114.862 115.786  1.00  0.00     0.000 C 
BRANCH  22  23
ATOM     23  C   UNL     1     113.248 115.734 116.699  1.00  0.00     0.000 C 
BRANCH  23  24
ATOM     24  C   UNL     1     114.071 116.510 117.738  1.00  0.00     0.000 C 
BRANCH  24  25
ATOM     25  C   UNL     1     114.161 117.998 117.373  1.00  0.00     0.000 C 
BRANCH  25  26
ATOM     26  C   UNL     1     115.583 118.366 116.918  1.00  0.00     0.000 C 
BRANCH  26  27
ATOM     27  C   UNL     1     115.840 119.885 116.921  1.00  0.00     0.002 C 
BRANCH  27  28
ATOM     28  C   UNL     1     114.746 120.728 116.242  1.00  0.00     0.028 C 
BRANCH  28  29
ATOM     29  C   UNL     1     114.656 122.154 116.797  1.00  0.00     0.156 C 
BRANCH  29  30
ATOM     30  O   UNL     1     115.835 122.478 117.480  1.00  0.00    -0.396 OA
ATOM     31  H   UNL     1     115.565 122.820 118.371  1.00  0.00     0.210 HD
ENDBRANCH  29  30
ENDBRANCH  28  29
ENDBRANCH  27  28
ENDBRANCH  26  27
ENDBRANCH  25  26
ENDBRANCH  24  25
ENDBRANCH  23  24
ENDBRANCH  22  23
ENDBRANCH  21  22
ENDBRANCH  20  21
ENDBRANCH  19  20
ENDBRANCH  18  19
ENDBRANCH  17  18
ENDBRANCH   1  17
TORSDOF 28
ENDMDL
MODEL 8
REMARK VINA RESULT:    -3.628      1.402      4.604
REMARK INTER + INTRA:         -14.627
REMARK INTER:                  -9.212
REMARK INTRA:                  -5.415
REMARK UNBOUND:                -5.166
REMARK SMILES CCCCCCCCCCCCCCCCCCCCCCCCCCCCCO
REMARK SMILES IDX 16 1 15 2 14 3 13 4 12 5 11 6 10 7 9 8 8 9 7 10 6 11 5 12
REMARK SMILES IDX 4 13 3 14 2 15 1 16 17 17 18 18 19 19 20 20 21 21 22 22
REMARK SMILES IDX 23 23 24 24 25 25 26 26 27 27 28 28 29 29 30 30
REMARK H PARENT 30 31
REMARK Flexibility Score: inf
ROOT
ATOM      1  C   UNL     1     114.536 116.177 116.339  1.00  0.00     0.000 C 
ENDROOT
BRANCH   1   2
ATOM      2  C   UNL     1     114.487 114.873 115.518  1.00  0.00     0.000 C 
BRANCH   2   3
ATOM      3  C   UNL     1     113.569 114.911 114.279  1.00  0.00     0.000 C 
BRANCH   3   4
ATOM      4  C   UNL     1     114.249 114.510 112.954  1.00  0.00     0.000 C 
BRANCH   4   5
ATOM      5  C   UNL     1     115.708 114.990 112.807  1.00  0.00     0.000 C 
BRANCH   5   6
ATOM      6  C   UNL     1     116.582 114.126 111.880  1.00  0.00     0.000 C 
BRANCH   6   7
ATOM      7  C   UNL     1     117.804 113.537 112.604  1.00  0.00     0.000 C 
BRANCH   7   8
ATOM      8  C   UNL     1     117.905 114.043 114.050  1.00  0.00    -0.000 C 
BRANCH   8   9
ATOM      9  C   UNL     1     118.257 112.929 115.052  1.00  0.00    -0.000 C 
BRANCH   9  10
ATOM     10  C   UNL     1     117.695 113.155 116.472  1.00  0.00    -0.000 C 
BRANCH  10  11
ATOM     11  C   UNL     1     117.947 114.585 116.979  1.00  0.00    -0.000 C 
BRANCH  11  12
ATOM     12  C   UNL     1     119.199 114.647 117.866  1.00  0.00    -0.000 C 
BRANCH  12  13
ATOM     13  C   UNL     1     119.058 115.640 119.031  1.00  0.00    -0.000 C 
BRANCH  13  14
ATOM     14  C   UNL     1     117.828 116.566 118.948  1.00  0.00    -0.000 C 
BRANCH  14  15
ATOM     15  C   UNL     1     116.924 116.515 120.197  1.00  0.00    -0.003 C 
ATOM     16  C   UNL     1     115.799 115.488 120.068  1.00  0.00     0.004 C 
ENDBRANCH  14  15
ENDBRANCH  13  14
ENDBRANCH  12  13
ENDBRANCH  11  12
ENDBRANCH  10  11
ENDBRANCH   9  10
ENDBRANCH   8   9
ENDBRANCH   7   8
ENDBRANCH   6   7
ENDBRANCH   5   6
ENDBRANCH   4   5
ENDBRANCH   3   4
ENDBRANCH   2   3
ENDBRANCH   1   2
BRANCH   1  17
ATOM     17  C   UNL     1     115.689 117.105 115.918  1.00  0.00     0.000 C 
BRANCH  17  18
ATOM     18  C   UNL     1     115.555 118.523 116.498  1.00  0.00     0.000 C 
BRANCH  18  19
ATOM     19  C   UNL     1     115.501 119.608 115.409  1.00  0.00     0.000 C 
BRANCH  19  20
ATOM     20  C   UNL     1     114.748 119.156 114.144  1.00  0.00     0.000 C 
BRANCH  20  21
ATOM     21  C   UNL     1     115.185 119.849 112.840  1.00  0.00     0.000 C 
BRANCH  21  22
ATOM     22  C   UNL     1     115.919 118.901 111.876  1.00  0.00     0.000 C 
BRANCH  22  23
ATOM     23  C   UNL     1     117.435 118.866 112.123  1.00  0.00     0.000 C 
BRANCH  23  24
ATOM     24  C   UNL     1     117.950 117.451 112.429  1.00  0.00     0.000 C 
BRANCH  24  25
ATOM     25  C   UNL     1     119.242 117.499 113.257  1.00  0.00     0.000 C 
BRANCH  25  26
ATOM     26  C   UNL     1     118.949 117.913 114.708  1.00  0.00     0.000 C 
BRANCH  26  27
ATOM     27  C   UNL     1     120.047 117.471 115.692  1.00  0.00     0.002 C 
BRANCH  27  28
ATOM     28  C   UNL     1     120.472 118.542 116.713  1.00  0.00     0.028 C 
BRANCH  28  29
ATOM     29  C   UNL     1     119.283 119.212 117.410  1.00  0.00     0.156 C 
BRANCH  29  30
ATOM     30  O   UNL     1     119.711 120.360 118.090  1.00  0.00    -0.396 OA
ATOM     31  H   UNL     1     118.904 120.913 118.252  1.00  0.00     0.210 HD
ENDBRANCH  29  30
ENDBRANCH  28  29
ENDBRANCH  27  28
ENDBRANCH  26  27
ENDBRANCH  25  26
ENDBRANCH  24  25
ENDBRANCH  23  24
ENDBRANCH  22  23
ENDBRANCH  21  22
ENDBRANCH  20  21
ENDBRANCH  19  20
ENDBRANCH  18  19
ENDBRANCH  17  18
ENDBRANCH   1  17
TORSDOF 28
ENDMDL
