MODEL 1
REMARK VINA RESULT:    -6.439      0.000      0.000
REMARK INTER + INTRA:          -8.702
REMARK INTER:                  -8.132
REMARK INTRA:                  -0.569
REMARK UNBOUND:                -0.569
REMARK SMILES Oc1ccc(CCc2cc(O)cc(O)c2)cc1
REMARK SMILES IDX 6 1 5 2 4 3 3 4 2 5 16 6 17 7 1 8 7 10 8 11 15 12 9 13 13 14
REMARK SMILES IDX 10 15 12 16 14 17 11 19
REMARK H PARENT 1 9 14 18 11 20
REMARK Flexibility Score: inf
ROOT
ATOM      1  C   UNL     1       3.433   2.847  15.600  1.00  0.00     0.040 C 
ENDROOT
BRANCH   1   2
ATOM      2  C   UNL     1       2.566   3.519  16.634  1.00  0.00    -0.047 A 
ATOM      3  C   UNL     1       2.800   4.858  16.991  1.00  0.00     0.007 A 
ATOM      4  C   UNL     1       2.029   5.467  17.985  1.00  0.00     0.046 A 
ATOM      5  C   UNL     1       1.021   4.745  18.637  1.00  0.00     0.115 A 
ATOM      6  C   UNL     1       1.559   2.797  17.296  1.00  0.00     0.007 A 
ATOM      7  C   UNL     1       0.790   3.409  18.291  1.00  0.00     0.046 A 
BRANCH   5   8
ATOM      8  O   UNL     1       0.246   5.340  19.630  1.00  0.00    -0.508 OA
ATOM      9  H   UNL     1      -0.477   4.824  20.117  1.00  0.00     0.293 HD
ENDBRANCH   5   8
ENDBRANCH   1   2
BRANCH   1  10
ATOM     10  C   UNL     1       2.653   2.546  14.313  1.00  0.00     0.040 C 
BRANCH  10  11
ATOM     11  C   UNL     1       2.985   3.526  13.215  1.00  0.00    -0.040 A 
ATOM     12  C   UNL     1       4.259   4.113  13.151  1.00  0.00     0.050 A 
ATOM     13  C   UNL     1       2.043   3.809  12.213  1.00  0.00     0.050 A 
ATOM     14  C   UNL     1       4.585   4.982  12.105  1.00  0.00     0.119 A 
ATOM     15  C   UNL     1       2.367   4.683  11.166  1.00  0.00     0.119 A 
ATOM     16  C   UNL     1       3.635   5.269  11.115  1.00  0.00     0.092 A 
BRANCH  14  17
ATOM     17  O   UNL     1       5.854   5.555  12.058  1.00  0.00    -0.508 OA
ATOM     18  H   UNL     1       5.986   6.532  11.822  1.00  0.00     0.293 HD
ENDBRANCH  14  17
BRANCH  15  19
ATOM     19  O   UNL     1       1.437   4.972  10.170  1.00  0.00    -0.508 OA
ATOM     20  H   UNL     1       0.500   4.586  10.191  1.00  0.00     0.293 HD
ENDBRANCH  15  19
ENDBRANCH  10  11
ENDBRANCH   1  10
TORSDOF 6
ENDMDL
MODEL 2
REMARK VINA RESULT:    -6.437      0.679      2.098
REMARK INTER + INTRA:          -8.699
REMARK INTER:                  -8.241
REMARK INTRA:                  -0.458
REMARK UNBOUND:                -0.569
REMARK SMILES Oc1ccc(CCc2cc(O)cc(O)c2)cc1
REMARK SMILES IDX 6 1 5 2 4 3 3 4 2 5 16 6 17 7 1 8 7 10 8 11 15 12 9 13 13 14
REMARK SMILES IDX 10 15 12 16 14 17 11 19
REMARK H PARENT 1 9 14 18 11 20
REMARK Flexibility Score: inf
ROOT
ATOM      1  C   UNL     1       3.333   3.436  15.909  1.00  0.00     0.040 C 
ENDROOT
BRANCH   1   2
ATOM      2  C   UNL     1       2.383   3.955  16.959  1.00  0.00    -0.047 A 
ATOM      3  C   UNL     1       2.536   5.254  17.470  1.00  0.00     0.007 A 
ATOM      4  C   UNL     1       1.686   5.720  18.477  1.00  0.00     0.046 A 
ATOM      5  C   UNL     1       0.680   4.890  18.989  1.00  0.00     0.115 A 
ATOM      6  C   UNL     1       1.377   3.124  17.480  1.00  0.00     0.007 A 
ATOM      7  C   UNL     1       0.530   3.593  18.488  1.00  0.00     0.046 A 
BRANCH   5   8
ATOM      8  O   UNL     1      -0.173   5.342  19.994  1.00  0.00    -0.508 OA
ATOM      9  H   UNL     1      -1.178   5.351  19.869  1.00  0.00     0.293 HD
ENDBRANCH   5   8
ENDBRANCH   1   2
BRANCH   1  10
ATOM     10  C   UNL     1       2.586   2.777  14.741  1.00  0.00     0.040 C 
BRANCH  10  11
ATOM     11  C   UNL     1       3.027   3.333  13.411  1.00  0.00    -0.040 A 
ATOM     12  C   UNL     1       2.247   3.125  12.262  1.00  0.00     0.050 A 
ATOM     13  C   UNL     1       4.189   4.117  13.323  1.00  0.00     0.050 A 
ATOM     14  C   UNL     1       2.629   3.683  11.038  1.00  0.00     0.119 A 
ATOM     15  C   UNL     1       4.575   4.674  12.097  1.00  0.00     0.119 A 
ATOM     16  C   UNL     1       3.796   4.455  10.956  1.00  0.00     0.092 A 
BRANCH  14  17
ATOM     17  O   UNL     1       1.841   3.466   9.909  1.00  0.00    -0.508 OA
ATOM     18  H   UNL     1       2.254   3.330   8.994  1.00  0.00     0.293 HD
ENDBRANCH  14  17
BRANCH  15  19
ATOM     19  O   UNL     1       5.728   5.450  12.001  1.00  0.00    -0.508 OA
ATOM     20  H   UNL     1       6.515   5.161  11.432  1.00  0.00     0.293 HD
ENDBRANCH  15  19
ENDBRANCH  10  11
ENDBRANCH   1  10
TORSDOF 6
ENDMDL
MODEL 3
REMARK VINA RESULT:    -6.389      0.076      1.177
REMARK INTER + INTRA:          -8.639
REMARK INTER:                  -8.081
REMARK INTRA:                  -0.559
REMARK UNBOUND:                -0.569
REMARK SMILES Oc1ccc(CCc2cc(O)cc(O)c2)cc1
REMARK SMILES IDX 6 1 5 2 4 3 3 4 2 5 16 6 17 7 1 8 7 10 8 11 15 12 9 13 13 14
REMARK SMILES IDX 10 15 12 16 14 17 11 19
REMARK H PARENT 1 9 14 18 11 20
REMARK Flexibility Score: inf
ROOT
ATOM      1  C   UNL     1       3.380   2.842  15.582  1.00  0.00     0.040 C 
ENDROOT
BRANCH   1   2
ATOM      2  C   UNL     1       2.583   3.502  16.678  1.00  0.00    -0.047 A 
ATOM      3  C   UNL     1       1.609   2.774  17.381  1.00  0.00     0.007 A 
ATOM      4  C   UNL     1       0.836   3.397  18.364  1.00  0.00     0.046 A 
ATOM      5  C   UNL     1       1.023   4.756  18.652  1.00  0.00     0.115 A 
ATOM      6  C   UNL     1       2.763   4.866  16.965  1.00  0.00     0.007 A 
ATOM      7  C   UNL     1       1.987   5.487  17.948  1.00  0.00     0.046 A 
BRANCH   5   8
ATOM      8  O   UNL     1       0.258   5.389  19.628  1.00  0.00    -0.508 OA
ATOM      9  H   UNL     1      -0.315   6.196  19.410  1.00  0.00     0.293 HD
ENDBRANCH   5   8
ENDBRANCH   1   2
BRANCH   1  10
ATOM     10  C   UNL     1       2.529   2.597  14.328  1.00  0.00     0.040 C 
BRANCH  10  11
ATOM     11  C   UNL     1       2.899   3.537  13.209  1.00  0.00    -0.040 A 
ATOM     12  C   UNL     1       4.185   4.099  13.150  1.00  0.00     0.050 A 
ATOM     13  C   UNL     1       1.981   3.808  12.182  1.00  0.00     0.050 A 
ATOM     14  C   UNL     1       4.546   4.930  12.086  1.00  0.00     0.119 A 
ATOM     15  C   UNL     1       2.339   4.644  11.116  1.00  0.00     0.119 A 
ATOM     16  C   UNL     1       3.620   5.205  11.071  1.00  0.00     0.092 A 
BRANCH  14  17
ATOM     17  O   UNL     1       5.826   5.478  12.045  1.00  0.00    -0.508 OA
ATOM     18  H   UNL     1       6.629   4.975  12.404  1.00  0.00     0.293 HD
ENDBRANCH  14  17
BRANCH  15  19
ATOM     19  O   UNL     1       1.432   4.921  10.095  1.00  0.00    -0.508 OA
ATOM     20  H   UNL     1       0.705   5.618  10.207  1.00  0.00     0.293 HD
ENDBRANCH  15  19
ENDBRANCH  10  11
ENDBRANCH   1  10
TORSDOF 6
ENDMDL
MODEL 4
REMARK VINA RESULT:    -6.321      2.357      6.815
REMARK INTER + INTRA:          -8.553
REMARK INTER:                  -8.155
REMARK INTRA:                  -0.399
REMARK UNBOUND:                -0.569
REMARK SMILES Oc1ccc(CCc2cc(O)cc(O)c2)cc1
REMARK SMILES IDX 6 1 5 2 4 3 3 4 2 5 16 6 17 7 1 8 7 10 8 11 15 12 9 13 13 14
REMARK SMILES IDX 10 15 12 16 14 17 11 19
REMARK H PARENT 1 9 14 18 11 20
REMARK Flexibility Score: inf
ROOT
ATOM      1  C   UNL     1       2.118   3.371  17.096  1.00  0.00     0.040 C 
ENDROOT
BRANCH   1   2
ATOM      2  C   UNL     1       2.888   2.894  15.891  1.00  0.00    -0.047 A 
ATOM      3  C   UNL     1       3.288   3.807  14.902  1.00  0.00     0.007 A 
ATOM      4  C   UNL     1       3.960   3.361  13.761  1.00  0.00     0.046 A 
ATOM      5  C   UNL     1       4.233   1.997  13.593  1.00  0.00     0.115 A 
ATOM      6  C   UNL     1       3.158   1.527  15.715  1.00  0.00     0.007 A 
ATOM      7  C   UNL     1       3.829   1.083  14.571  1.00  0.00     0.046 A 
BRANCH   5   8
ATOM      8  O   UNL     1       4.901   1.539  12.459  1.00  0.00    -0.508 OA
ATOM      9  H   UNL     1       4.610   1.813  11.528  1.00  0.00     0.293 HD
ENDBRANCH   5   8
ENDBRANCH   1   2
BRANCH   1  10
ATOM     10  C   UNL     1       2.369   4.858  17.381  1.00  0.00     0.040 C 
BRANCH  10  11
ATOM     11  C   UNL     1       1.191   5.502  18.067  1.00  0.00    -0.040 A 
ATOM     12  C   UNL     1       0.643   6.694  17.566  1.00  0.00     0.050 A 
ATOM     13  C   UNL     1       0.593   4.881  19.175  1.00  0.00     0.050 A 
ATOM     14  C   UNL     1      -0.481   7.266  18.171  1.00  0.00     0.119 A 
ATOM     15  C   UNL     1      -0.532   5.454  19.785  1.00  0.00     0.119 A 
ATOM     16  C   UNL     1      -1.065   6.646  19.284  1.00  0.00     0.092 A 
BRANCH  14  17
ATOM     17  O   UNL     1      -1.010   8.448  17.659  1.00  0.00    -0.508 OA
ATOM     18  H   UNL     1      -1.948   8.754  17.892  1.00  0.00     0.293 HD
ENDBRANCH  14  17
BRANCH  15  19
ATOM     19  O   UNL     1      -1.128   4.846  20.888  1.00  0.00    -0.508 OA
ATOM     20  H   UNL     1      -1.478   5.390  21.668  1.00  0.00     0.293 HD
ENDBRANCH  15  19
ENDBRANCH  10  11
ENDBRANCH   1  10
TORSDOF 6
ENDMDL
MODEL 5
REMARK VINA RESULT:    -6.304      2.356      6.750
REMARK INTER + INTRA:          -8.532
REMARK INTER:                  -8.134
REMARK INTRA:                  -0.398
REMARK UNBOUND:                -0.569
REMARK SMILES Oc1ccc(CCc2cc(O)cc(O)c2)cc1
REMARK SMILES IDX 6 1 5 2 4 3 3 4 2 5 16 6 17 7 1 8 7 10 8 11 15 12 9 13 13 14
REMARK SMILES IDX 10 15 12 16 14 17 11 19
REMARK H PARENT 1 9 14 18 11 20
REMARK Flexibility Score: inf
ROOT
ATOM      1  C   UNL     1       2.213   3.367  17.124  1.00  0.00     0.040 C 
ENDROOT
BRANCH   1   2
ATOM      2  C   UNL     1       2.976   2.881  15.918  1.00  0.00    -0.047 A 
ATOM      3  C   UNL     1       3.210   3.744  14.835  1.00  0.00     0.007 A 
ATOM      4  C   UNL     1       3.876   3.282  13.696  1.00  0.00     0.046 A 
ATOM      5  C   UNL     1       4.309   1.951  13.625  1.00  0.00     0.115 A 
ATOM      6  C   UNL     1       3.406   1.546  15.839  1.00  0.00     0.007 A 
ATOM      7  C   UNL     1       4.070   1.086  14.698  1.00  0.00     0.046 A 
BRANCH   5   8
ATOM      8  O   UNL     1       4.972   1.478  12.495  1.00  0.00    -0.508 OA
ATOM      9  H   UNL     1       5.108   0.485  12.340  1.00  0.00     0.293 HD
ENDBRANCH   5   8
ENDBRANCH   1   2
BRANCH   1  10
ATOM     10  C   UNL     1       2.385   4.877  17.336  1.00  0.00     0.040 C 
BRANCH  10  11
ATOM     11  C   UNL     1       1.165   5.495  17.972  1.00  0.00    -0.040 A 
ATOM     12  C   UNL     1       0.571   4.896  19.096  1.00  0.00     0.050 A 
ATOM     13  C   UNL     1       0.651   6.707  17.485  1.00  0.00     0.050 A 
ATOM     14  C   UNL     1      -0.530   5.495  19.717  1.00  0.00     0.119 A 
ATOM     15  C   UNL     1      -0.454   7.307  18.104  1.00  0.00     0.119 A 
ATOM     16  C   UNL     1      -1.043   6.699  19.217  1.00  0.00     0.092 A 
BRANCH  14  17
ATOM     17  O   UNL     1      -1.105   4.886  20.830  1.00  0.00    -0.508 OA
ATOM     18  H   UNL     1      -2.058   4.542  20.812  1.00  0.00     0.293 HD
ENDBRANCH  14  17
BRANCH  15  19
ATOM     19  O   UNL     1      -0.971   8.508  17.623  1.00  0.00    -0.508 OA
ATOM     20  H   UNL     1      -1.116   9.304  18.233  1.00  0.00     0.293 HD
ENDBRANCH  15  19
ENDBRANCH  10  11
ENDBRANCH   1  10
TORSDOF 6
ENDMDL
MODEL 6
REMARK VINA RESULT:    -6.228      1.632      6.987
REMARK INTER + INTRA:          -8.435
REMARK INTER:                  -8.028
REMARK INTRA:                  -0.407
REMARK UNBOUND:                -0.569
REMARK SMILES Oc1ccc(CCc2cc(O)cc(O)c2)cc1
REMARK SMILES IDX 6 1 5 2 4 3 3 4 2 5 16 6 17 7 1 8 7 10 8 11 15 12 9 13 13 14
REMARK SMILES IDX 10 15 12 16 14 17 11 19
REMARK H PARENT 1 9 14 18 11 20
REMARK Flexibility Score: inf
ROOT
ATOM      1  C   UNL     1       3.561   3.708  15.041  1.00  0.00     0.040 C 
ENDROOT
BRANCH   1   2
ATOM      2  C   UNL     1       3.453   3.849  13.544  1.00  0.00    -0.047 A 
ATOM      3  C   UNL     1       2.406   3.224  12.848  1.00  0.00     0.007 A 
ATOM      4  C   UNL     1       2.332   3.314  11.455  1.00  0.00     0.046 A 
ATOM      5  C   UNL     1       3.308   4.023  10.742  1.00  0.00     0.115 A 
ATOM      6  C   UNL     1       4.433   4.553  12.824  1.00  0.00     0.007 A 
ATOM      7  C   UNL     1       4.358   4.640  11.431  1.00  0.00     0.046 A 
BRANCH   5   8
ATOM      8  O   UNL     1       3.246   4.118   9.354  1.00  0.00    -0.508 OA
ATOM      9  H   UNL     1       3.410   4.998   8.877  1.00  0.00     0.293 HD
ENDBRANCH   5   8
ENDBRANCH   1   2
BRANCH   1  10
ATOM     10  C   UNL     1       2.565   2.676  15.588  1.00  0.00     0.040 C 
BRANCH  10  11
ATOM     11  C   UNL     1       2.232   2.934  17.036  1.00  0.00    -0.040 A 
ATOM     12  C   UNL     1       2.125   1.865  17.941  1.00  0.00     0.050 A 
ATOM     13  C   UNL     1       2.089   4.250  17.504  1.00  0.00     0.050 A 
ATOM     14  C   UNL     1       1.866   2.106  19.293  1.00  0.00     0.119 A 
ATOM     15  C   UNL     1       1.827   4.494  18.859  1.00  0.00     0.119 A 
ATOM     16  C   UNL     1       1.714   3.422  19.750  1.00  0.00     0.092 A 
BRANCH  14  17
ATOM     17  O   UNL     1       1.764   1.033  20.176  1.00  0.00    -0.508 OA
ATOM     18  H   UNL     1       2.114   1.092  21.125  1.00  0.00     0.293 HD
ENDBRANCH  14  17
BRANCH  15  19
ATOM     19  O   UNL     1       1.680   5.797  19.330  1.00  0.00    -0.508 OA
ATOM     20  H   UNL     1       2.367   6.220  19.942  1.00  0.00     0.293 HD
ENDBRANCH  15  19
ENDBRANCH  10  11
ENDBRANCH   1  10
TORSDOF 6
ENDMDL
MODEL 7
REMARK VINA RESULT:    -6.095      1.360      6.834
REMARK INTER + INTRA:          -8.267
REMARK INTER:                  -7.855
REMARK INTRA:                  -0.412
REMARK UNBOUND:                -0.569
REMARK SMILES Oc1ccc(CCc2cc(O)cc(O)c2)cc1
REMARK SMILES IDX 6 1 5 2 4 3 3 4 2 5 16 6 17 7 1 8 7 10 8 11 15 12 9 13 13 14
REMARK SMILES IDX 10 15 12 16 14 17 11 19
REMARK H PARENT 1 9 14 18 11 20
REMARK Flexibility Score: inf
ROOT
ATOM      1  C   UNL     1       3.122   2.891  14.871  1.00  0.00     0.040 C 
ENDROOT
BRANCH   1   2
ATOM      2  C   UNL     1       3.196   3.322  13.428  1.00  0.00    -0.047 A 
ATOM      3  C   UNL     1       2.252   2.851  12.500  1.00  0.00     0.007 A 
ATOM      4  C   UNL     1       2.348   3.212  11.153  1.00  0.00     0.046 A 
ATOM      5  C   UNL     1       3.390   4.041  10.718  1.00  0.00     0.115 A 
ATOM      6  C   UNL     1       4.243   4.147  12.986  1.00  0.00     0.007 A 
ATOM      7  C   UNL     1       4.337   4.505  11.637  1.00  0.00     0.046 A 
BRANCH   5   8
ATOM      8  O   UNL     1       3.497   4.406   9.378  1.00  0.00    -0.508 OA
ATOM      9  H   UNL     1       3.953   3.805   8.701  1.00  0.00     0.293 HD
ENDBRANCH   5   8
ENDBRANCH   1   2
BRANCH   1  10
ATOM     10  C   UNL     1       3.270   4.080  15.829  1.00  0.00     0.040 C 
BRANCH  10  11
ATOM     11  C   UNL     1       2.315   3.984  16.992  1.00  0.00    -0.040 A 
ATOM     12  C   UNL     1       1.928   5.139  17.690  1.00  0.00     0.050 A 
ATOM     13  C   UNL     1       1.756   2.745  17.346  1.00  0.00     0.050 A 
ATOM     14  C   UNL     1       1.003   5.057  18.736  1.00  0.00     0.119 A 
ATOM     15  C   UNL     1       0.832   2.660  18.396  1.00  0.00     0.119 A 
ATOM     16  C   UNL     1       0.459   3.815  19.090  1.00  0.00     0.092 A 
BRANCH  14  17
ATOM     17  O   UNL     1       0.631   6.215  19.416  1.00  0.00    -0.508 OA
ATOM     18  H   UNL     1      -0.302   6.601  19.332  1.00  0.00     0.293 HD
ENDBRANCH  14  17
BRANCH  15  19
ATOM     19  O   UNL     1       0.277   1.434  18.755  1.00  0.00    -0.508 OA
ATOM     20  H   UNL     1      -0.550   1.377  19.339  1.00  0.00     0.293 HD
ENDBRANCH  15  19
ENDBRANCH  10  11
ENDBRANCH   1  10
TORSDOF 6
ENDMDL
MODEL 8
REMARK VINA RESULT:    -6.083      2.357      3.638
REMARK INTER + INTRA:          -8.253
REMARK INTER:                  -7.855
REMARK INTRA:                  -0.398
REMARK UNBOUND:                -0.569
REMARK SMILES Oc1ccc(CCc2cc(O)cc(O)c2)cc1
REMARK SMILES IDX 6 1 5 2 4 3 3 4 2 5 16 6 17 7 1 8 7 10 8 11 15 12 9 13 13 14
REMARK SMILES IDX 10 15 12 16 14 17 11 19
REMARK H PARENT 1 9 14 18 11 20
REMARK Flexibility Score: inf
ROOT
ATOM      1  C   UNL     1       2.041   3.558  17.319  1.00  0.00     0.040 C 
ENDROOT
BRANCH   1   2
ATOM      2  C   UNL     1       1.025   4.561  17.802  1.00  0.00    -0.047 A 
ATOM      3  C   UNL     1      -0.239   4.133  18.240  1.00  0.00     0.007 A 
ATOM      4  C   UNL     1      -1.199   5.066  18.642  1.00  0.00     0.046 A 
ATOM      5  C   UNL     1      -0.909   6.436  18.604  1.00  0.00     0.115 A 
ATOM      6  C   UNL     1       1.309   5.937  17.759  1.00  0.00     0.007 A 
ATOM      7  C   UNL     1       0.346   6.867  18.161  1.00  0.00     0.046 A 
BRANCH   5   8
ATOM      8  O   UNL     1      -1.858   7.376  19.001  1.00  0.00    -0.508 OA
ATOM      9  H   UNL     1      -1.650   8.368  19.003  1.00  0.00     0.293 HD
ENDBRANCH   5   8
ENDBRANCH   1   2
BRANCH   1  10
ATOM     10  C   UNL     1       3.085   4.203  16.398  1.00  0.00     0.040 C 
BRANCH  10  11
ATOM     11  C   UNL     1       3.513   3.266  15.296  1.00  0.00    -0.040 A 
ATOM     12  C   UNL     1       3.510   3.696  13.959  1.00  0.00     0.050 A 
ATOM     13  C   UNL     1       3.980   1.978  15.605  1.00  0.00     0.050 A 
ATOM     14  C   UNL     1       3.955   2.845  12.942  1.00  0.00     0.119 A 
ATOM     15  C   UNL     1       4.423   1.123  14.587  1.00  0.00     0.119 A 
ATOM     16  C   UNL     1       4.408   1.557  13.258  1.00  0.00     0.092 A 
BRANCH  14  17
ATOM     17  O   UNL     1       3.945   3.289  11.621  1.00  0.00    -0.508 OA
ATOM     18  H   UNL     1       4.804   3.433  11.104  1.00  0.00     0.293 HD
ENDBRANCH  14  17
BRANCH  15  19
ATOM     19  O   UNL     1       4.883  -0.157  14.886  1.00  0.00    -0.508 OA
ATOM     20  H   UNL     1       4.445  -0.983  14.493  1.00  0.00     0.293 HD
ENDBRANCH  15  19
ENDBRANCH  10  11
ENDBRANCH   1  10
TORSDOF 6
ENDMDL
MODEL 9
REMARK VINA RESULT:    -6.072      2.356      3.395
REMARK INTER + INTRA:          -8.238
REMARK INTER:                  -7.836
REMARK INTRA:                  -0.402
REMARK UNBOUND:                -0.569
REMARK SMILES Oc1ccc(CCc2cc(O)cc(O)c2)cc1
REMARK SMILES IDX 6 1 5 2 4 3 3 4 2 5 16 6 17 7 1 8 7 10 8 11 15 12 9 13 13 14
REMARK SMILES IDX 10 15 12 16 14 17 11 19
REMARK H PARENT 1 9 14 18 11 20
REMARK Flexibility Score: inf
ROOT
ATOM      1  C   UNL     1       2.040   3.533  17.239  1.00  0.00     0.040 C 
ENDROOT
BRANCH   1   2
ATOM      2  C   UNL     1       1.036   4.532  17.754  1.00  0.00    -0.047 A 
ATOM      3  C   UNL     1      -0.229   4.103  18.189  1.00  0.00     0.007 A 
ATOM      4  C   UNL     1      -1.178   5.033  18.622  1.00  0.00     0.046 A 
ATOM      5  C   UNL     1      -0.877   6.401  18.618  1.00  0.00     0.115 A 
ATOM      6  C   UNL     1       1.331   5.905  17.745  1.00  0.00     0.007 A 
ATOM      7  C   UNL     1       0.379   6.833  18.178  1.00  0.00     0.046 A 
BRANCH   5   8
ATOM      8  O   UNL     1      -1.815   7.338  19.046  1.00  0.00    -0.508 OA
ATOM      9  H   UNL     1      -1.533   8.248  19.391  1.00  0.00     0.293 HD
ENDBRANCH   5   8
ENDBRANCH   1   2
BRANCH   1  10
ATOM     10  C   UNL     1       3.104   4.199  16.355  1.00  0.00     0.040 C 
BRANCH  10  11
ATOM     11  C   UNL     1       3.574   3.279  15.256  1.00  0.00    -0.040 A 
ATOM     12  C   UNL     1       4.050   1.993  15.563  1.00  0.00     0.050 A 
ATOM     13  C   UNL     1       3.479   3.676  13.913  1.00  0.00     0.050 A 
ATOM     14  C   UNL     1       4.438   1.121  14.542  1.00  0.00     0.119 A 
ATOM     15  C   UNL     1       3.871   2.805  12.888  1.00  0.00     0.119 A 
ATOM     16  C   UNL     1       4.351   1.530  13.204  1.00  0.00     0.092 A 
BRANCH  14  17
ATOM     17  O   UNL     1       4.907  -0.151  14.865  1.00  0.00    -0.508 OA
ATOM     18  H   UNL     1       5.730  -0.540  14.421  1.00  0.00     0.293 HD
ENDBRANCH  14  17
BRANCH  15  19
ATOM     19  O   UNL     1       3.784   3.194  11.553  1.00  0.00    -0.508 OA
ATOM     20  H   UNL     1       3.014   3.759  11.215  1.00  0.00     0.293 HD
ENDBRANCH  15  19
ENDBRANCH  10  11
ENDBRANCH   1  10
TORSDOF 6
ENDMDL
