MODEL 1
REMARK VINA RESULT:    88.580      0.000      0.000
REMARK INTER + INTRA:         148.000
REMARK INTER:                 145.542
REMARK INTRA:                   2.458
REMARK UNBOUND:                 2.458
REMARK SMILES COc1ccc([C@H]2CC(=O)c3c(O)cc(O[C@@H]4O[C@@H](CO[C@@H]5O[C@H](C)[C@@H](O)[C@@H](O)[C@@H]5O)[C@@H](O)[C@H](O)[C@@H]4O)cc3O2)cc1O
REMARK SMILES IDX 19 1 32 2 34 3 36 4 17 5 18 6 20 7 21 8 22 9 25 10 24 11
REMARK SMILES IDX 26 12 23 13 28 14 30 15 27 16 29 18 31 20 33 22 35 24 16 26
REMARK SMILES IDX 15 27 14 28 38 29 12 30 39 31 11 32 40 33 9 34 7 35 10 36
REMARK SMILES IDX 8 37 13 38 6 40 41 41 5 42 42 43 4 44 3 45 43 46 2 48 1 49
REMARK SMILES IDX 37 50
REMARK H PARENT 27 17 29 19 31 21 33 23 35 25 13 39 43 47 37 51
REMARK Flexibility Score: inf
ROOT
ATOM      1  C   UNL     1       8.279  94.454   1.768  1.00  0.00     0.180 C 
ATOM      2  C   UNL     1       7.808  94.290   0.298  1.00  0.00     0.177 C 
ATOM      3  C   UNL     1       8.426  95.390  -0.605  1.00  0.00     0.180 C 
ATOM      4  C   UNL     1       8.262  96.773   0.050  1.00  0.00     0.214 C 
ATOM      5  C   UNL     1       8.673  96.761   1.537  1.00  0.00     0.339 C 
ATOM      6  O   UNL     1       7.980  95.753   2.256  1.00  0.00    -0.332 OA
ENDROOT
BRANCH   1   7
ATOM      7  C   UNL     1       7.618  93.440   2.720  1.00  0.00     0.198 C 
BRANCH   7   8
ATOM      8  O   UNL     1       8.551  92.466   3.163  1.00  0.00    -0.347 OA
BRANCH   8   9
ATOM      9  C   UNL     1       8.184  91.126   2.844  1.00  0.00     0.281 C 
ATOM     10  C   UNL     1       6.053  88.625   4.514  1.00  0.00     0.041 C 
ATOM     11  C   UNL     1       7.232  89.148   3.691  1.00  0.00     0.150 C 
ATOM     12  C   UNL     1       8.564  88.501   4.168  1.00  0.00     0.174 C 
ATOM     13  O   UNL     1       7.305  90.555   3.821  1.00  0.00    -0.344 OA
ATOM     14  C   UNL     1       9.795  89.367   3.771  1.00  0.00     0.179 C 
ATOM     15  C   UNL     1       9.462  90.269   2.562  1.00  0.00     0.202 C 
BRANCH  12  16
ATOM     16  O   UNL     1       8.668  87.183   3.689  1.00  0.00    -0.388 OA
ATOM     17  H   UNL     1       9.085  86.629   4.406  1.00  0.00     0.211 HD
ENDBRANCH  12  16
BRANCH  14  18
ATOM     18  O   UNL     1      10.940  88.580   3.532  1.00  0.00    -0.387 OA
ATOM     19  H   UNL     1      10.828  88.135   2.649  1.00  0.00     0.211 HD
ENDBRANCH  14  18
BRANCH  15  20
ATOM     20  O   UNL     1      10.562  91.062   2.187  1.00  0.00    -0.385 OA
ATOM     21  H   UNL     1      10.997  90.636   1.406  1.00  0.00     0.211 HD
ENDBRANCH  15  20
ENDBRANCH   8   9
ENDBRANCH   7   8
ENDBRANCH   1   7
BRANCH   2  22
ATOM     22  O   UNL     1       6.404  94.384   0.240  1.00  0.00    -0.387 OA
ATOM     23  H   UNL     1       6.072  94.407   1.176  1.00  0.00     0.211 HD
ENDBRANCH   2  22
BRANCH   3  24
ATOM     24  O   UNL     1       9.772  95.136  -0.947  1.00  0.00    -0.387 OA
ATOM     25  H   UNL     1      10.268  94.843  -0.146  1.00  0.00     0.211 HD
ENDBRANCH   3  24
BRANCH   5  26
ATOM     26  O   UNL     1      10.091  96.644   1.695  1.00  0.00    -0.462 OA
BRANCH  26  27
ATOM     27  C   UNL     1      11.027  97.007   0.716  1.00  0.00     0.130 A 
ATOM     28  C   UNL     1      11.106  98.315   0.203  1.00  0.00     0.093 A 
ATOM     29  C   UNL     1      11.888  96.023   0.221  1.00  0.00     0.094 A 
ATOM     30  C   UNL     1      12.000  98.624  -0.831  1.00  0.00     0.133 A 
ATOM     31  C   UNL     1      12.778  96.317  -0.813  1.00  0.00     0.138 A 
ATOM     32  C   UNL     1      12.830  97.614  -1.359  1.00  0.00     0.102 A 
ATOM     33  O   UNL     1      13.603  95.305  -1.323  1.00  0.00    -0.484 OA
ATOM     34  C   UNL     1      13.718  97.836  -2.525  1.00  0.00     0.174 C 
ATOM     35  C   UNL     1      14.715  95.592  -2.178  1.00  0.00     0.211 C 
ATOM     36  O   UNL     1      13.935  98.994  -2.978  1.00  0.00    -0.294 OA
ATOM     37  C   UNL     1      14.310  96.647  -3.224  1.00  0.00     0.131 C 
BRANCH  30  38
ATOM     38  O   UNL     1      12.042  99.920  -1.343  1.00  0.00    -0.507 OA
ATOM     39  H   UNL     1      12.906 100.324  -1.689  1.00  0.00     0.293 HD
ENDBRANCH  30  38
BRANCH  35  40
ATOM     40  C   UNL     1      15.263  94.293  -2.741  1.00  0.00    -0.003 A 
ATOM     41  C   UNL     1      14.531  93.116  -2.520  1.00  0.00     0.057 A 
ATOM     42  C   UNL     1      16.431  94.222  -3.525  1.00  0.00     0.011 A 
ATOM     43  C   UNL     1      14.958  91.892  -3.045  1.00  0.00     0.158 A 
ATOM     44  C   UNL     1      16.863  93.001  -4.048  1.00  0.00     0.051 A 
ATOM     45  C   UNL     1      16.132  91.824  -3.813  1.00  0.00     0.160 A 
BRANCH  43  46
ATOM     46  O   UNL     1      14.200  90.751  -2.788  1.00  0.00    -0.504 OA
ATOM     47  H   UNL     1      13.543  90.378  -3.461  1.00  0.00     0.293 HD
ENDBRANCH  43  46
BRANCH  45  48
ATOM     48  O   UNL     1      16.537  90.581  -4.328  1.00  0.00    -0.493 OA
ATOM     49  C   UNL     1      17.234  90.412  -5.558  1.00  0.00     0.278 C 
ENDBRANCH  45  48
ENDBRANCH  35  40
ENDBRANCH  26  27
ENDBRANCH   5  26
BRANCH   4  50
ATOM     50  O   UNL     1       8.934  97.778  -0.671  1.00  0.00    -0.384 OA
ATOM     51  H   UNL     1       8.256  98.333  -1.135  1.00  0.00     0.211 HD
ENDBRANCH   4  50
TORSDOF 15
ENDMDL
MODEL 2
REMARK VINA RESULT:    89.031      0.980      1.963
REMARK INTER + INTRA:         148.741
REMARK INTER:                 146.277
REMARK INTRA:                   2.464
REMARK UNBOUND:                 2.458
REMARK SMILES COc1ccc([C@H]2CC(=O)c3c(O)cc(O[C@@H]4O[C@@H](CO[C@@H]5O[C@H](C)[C@@H](O)[C@@H](O)[C@@H]5O)[C@@H](O)[C@H](O)[C@@H]4O)cc3O2)cc1O
REMARK SMILES IDX 19 1 32 2 34 3 36 4 17 5 18 6 20 7 21 8 22 9 25 10 24 11
REMARK SMILES IDX 26 12 23 13 28 14 30 15 27 16 29 18 31 20 33 22 35 24 16 26
REMARK SMILES IDX 15 27 14 28 38 29 12 30 39 31 11 32 40 33 9 34 7 35 10 36
REMARK SMILES IDX 8 37 13 38 6 40 41 41 5 42 42 43 4 44 3 45 43 46 2 48 1 49
REMARK SMILES IDX 37 50
REMARK H PARENT 27 17 29 19 31 21 33 23 35 25 13 39 43 47 37 51
REMARK Flexibility Score: inf
ROOT
ATOM      1  C   UNL     1       8.515  94.988   1.890  1.00  0.00     0.180 C 
ATOM      2  C   UNL     1       7.982  94.554   0.497  1.00  0.00     0.177 C 
ATOM      3  C   UNL     1       8.657  95.375  -0.633  1.00  0.00     0.180 C 
ATOM      4  C   UNL     1       8.632  96.876  -0.291  1.00  0.00     0.214 C 
ATOM      5  C   UNL     1       9.092  97.147   1.157  1.00  0.00     0.339 C 
ATOM      6  O   UNL     1       8.343  96.383   2.088  1.00  0.00    -0.332 OA
ENDROOT
BRANCH   1   7
ATOM      7  C   UNL     1       7.806  94.265   3.049  1.00  0.00     0.198 C 
BRANCH   7   8
ATOM      8  O   UNL     1       7.529  92.912   2.719  1.00  0.00    -0.347 OA
BRANCH   8   9
ATOM      9  C   UNL     1       8.421  91.976   3.317  1.00  0.00     0.281 C 
ATOM     10  C   UNL     1      11.042  89.765   1.965  1.00  0.00     0.041 C 
ATOM     11  C   UNL     1       9.902  90.198   2.889  1.00  0.00     0.150 C 
ATOM     12  C   UNL     1       8.856  89.057   3.042  1.00  0.00     0.174 C 
ATOM     13  O   UNL     1       9.282  91.353   2.356  1.00  0.00    -0.344 OA
ATOM     14  C   UNL     1       7.470  89.607   3.488  1.00  0.00     0.179 C 
ATOM     15  C   UNL     1       7.626  90.964   4.207  1.00  0.00     0.202 C 
BRANCH  12  16
ATOM     16  O   UNL     1       9.337  88.064   3.915  1.00  0.00    -0.388 OA
ATOM     17  H   UNL     1      10.164  87.679   3.514  1.00  0.00     0.211 HD
ENDBRANCH  12  16
BRANCH  14  18
ATOM     18  O   UNL     1       6.762  88.679   4.279  1.00  0.00    -0.387 OA
ATOM     19  H   UNL     1       6.978  88.862   5.233  1.00  0.00     0.211 HD
ENDBRANCH  14  18
BRANCH  15  20
ATOM     20  O   UNL     1       6.384  91.482   4.619  1.00  0.00    -0.385 OA
ATOM     21  H   UNL     1       5.769  90.720   4.771  1.00  0.00     0.211 HD
ENDBRANCH  15  20
ENDBRANCH   8   9
ENDBRANCH   7   8
ENDBRANCH   1   7
BRANCH   2  22
ATOM     22  O   UNL     1       6.590  94.758   0.443  1.00  0.00    -0.387 OA
ATOM     23  H   UNL     1       6.303  95.075   1.340  1.00  0.00     0.211 HD
ENDBRANCH   2  22
BRANCH   3  24
ATOM     24  O   UNL     1       9.965  94.935  -0.933  1.00  0.00    -0.387 OA
ATOM     25  H   UNL     1      10.173  94.129  -0.403  1.00  0.00     0.211 HD
ENDBRANCH   3  24
BRANCH   5  26
ATOM     26  O   UNL     1      10.500  96.941   1.314  1.00  0.00    -0.462 OA
BRANCH  26  27
ATOM     27  C   UNL     1      11.444  97.130   0.294  1.00  0.00     0.130 A 
ATOM     28  C   UNL     1      11.677  98.390  -0.288  1.00  0.00     0.093 A 
ATOM     29  C   UNL     1      12.152  96.018  -0.170  1.00  0.00     0.094 A 
ATOM     30  C   UNL     1      12.571  98.528  -1.359  1.00  0.00     0.133 A 
ATOM     31  C   UNL     1      13.040  96.142  -1.241  1.00  0.00     0.138 A 
ATOM     32  C   UNL     1      13.244  97.392  -1.854  1.00  0.00     0.102 A 
ATOM     33  O   UNL     1      13.709  95.005  -1.718  1.00  0.00    -0.484 OA
ATOM     34  C   UNL     1      14.116  97.439  -3.052  1.00  0.00     0.174 C 
ATOM     35  C   UNL     1      14.821  95.101  -2.615  1.00  0.00     0.211 C 
ATOM     36  O   UNL     1      14.468  98.534  -3.570  1.00  0.00    -0.294 OA
ATOM     37  C   UNL     1      14.524  96.149  -3.703  1.00  0.00     0.131 C 
BRANCH  30  38
ATOM     38  O   UNL     1      12.766  99.780  -1.938  1.00  0.00    -0.507 OA
ATOM     39  H   UNL     1      13.051  99.876  -2.907  1.00  0.00     0.293 HD
ENDBRANCH  30  38
BRANCH  35  40
ATOM     40  C   UNL     1      15.176  93.716  -3.123  1.00  0.00    -0.003 A 
ATOM     41  C   UNL     1      16.193  93.606  -4.085  1.00  0.00     0.057 A 
ATOM     42  C   UNL     1      14.583  92.536  -2.633  1.00  0.00     0.011 A 
ATOM     43  C   UNL     1      16.598  92.358  -4.567  1.00  0.00     0.158 A 
ATOM     44  C   UNL     1      14.983  91.287  -3.115  1.00  0.00     0.051 A 
ATOM     45  C   UNL     1      15.993  91.185  -4.086  1.00  0.00     0.160 A 
BRANCH  43  46
ATOM     46  O   UNL     1      17.605  92.304  -5.529  1.00  0.00    -0.504 OA
ATOM     47  H   UNL     1      17.438  92.545  -6.498  1.00  0.00     0.293 HD
ENDBRANCH  43  46
BRANCH  45  48
ATOM     48  O   UNL     1      16.420  89.944  -4.588  1.00  0.00    -0.493 OA
ATOM     49  C   UNL     1      17.452  89.783  -5.555  1.00  0.00     0.278 C 
ENDBRANCH  45  48
ENDBRANCH  35  40
ENDBRANCH  26  27
ENDBRANCH   5  26
BRANCH   4  50
ATOM     50  O   UNL     1       9.360  97.639  -1.223  1.00  0.00    -0.384 OA
ATOM     51  H   UNL     1       8.727  97.979  -1.907  1.00  0.00     0.211 HD
ENDBRANCH   4  50
TORSDOF 15
ENDMDL
MODEL 3
REMARK VINA RESULT:    90.479      4.245     10.256
REMARK INTER + INTRA:         151.121
REMARK INTER:                 146.935
REMARK INTRA:                   4.186
REMARK UNBOUND:                 2.458
REMARK SMILES COc1ccc([C@H]2CC(=O)c3c(O)cc(O[C@@H]4O[C@@H](CO[C@@H]5O[C@H](C)[C@@H](O)[C@@H](O)[C@@H]5O)[C@@H](O)[C@H](O)[C@@H]4O)cc3O2)cc1O
REMARK SMILES IDX 19 1 32 2 34 3 36 4 17 5 18 6 20 7 21 8 22 9 25 10 24 11
REMARK SMILES IDX 26 12 23 13 28 14 30 15 27 16 29 18 31 20 33 22 35 24 16 26
REMARK SMILES IDX 15 27 14 28 38 29 12 30 39 31 11 32 40 33 9 34 7 35 10 36
REMARK SMILES IDX 8 37 13 38 6 40 41 41 5 42 42 43 4 44 3 45 43 46 2 48 1 49
REMARK SMILES IDX 37 50
REMARK H PARENT 27 17 29 19 31 21 33 23 35 25 13 39 43 47 37 51
REMARK Flexibility Score: inf
ROOT
ATOM      1  C   UNL     1      16.232  92.840  -3.145  1.00  0.00     0.180 C 
ATOM      2  C   UNL     1      17.069  93.614  -2.090  1.00  0.00     0.177 C 
ATOM      3  C   UNL     1      16.305  94.870  -1.594  1.00  0.00     0.180 C 
ATOM      4  C   UNL     1      15.746  95.664  -2.789  1.00  0.00     0.214 C 
ATOM      5  C   UNL     1      15.028  94.750  -3.804  1.00  0.00     0.339 C 
ATOM      6  O   UNL     1      15.866  93.686  -4.225  1.00  0.00    -0.332 OA
ENDROOT
BRANCH   1   7
ATOM      7  C   UNL     1      16.989  91.637  -3.736  1.00  0.00     0.198 C 
BRANCH   7   8
ATOM      8  O   UNL     1      16.138  90.845  -4.552  1.00  0.00    -0.347 OA
BRANCH   8   9
ATOM      9  C   UNL     1      16.790  90.275  -5.684  1.00  0.00     0.281 C 
ATOM     10  C   UNL     1      19.741  88.100  -6.070  1.00  0.00     0.041 C 
ATOM     11  C   UNL     1      18.751  89.210  -6.430  1.00  0.00     0.150 C 
ATOM     12  C   UNL     1      19.506  90.504  -6.848  1.00  0.00     0.174 C 
ATOM     13  O   UNL     1      17.920  89.474  -5.316  1.00  0.00    -0.344 OA
ATOM     14  C   UNL     1      18.610  91.767  -6.687  1.00  0.00     0.179 C 
ATOM     15  C   UNL     1      17.115  91.385  -6.737  1.00  0.00     0.202 C 
BRANCH  12  16
ATOM     16  O   UNL     1      20.013  90.377  -8.153  1.00  0.00    -0.388 OA
ATOM     17  H   UNL     1      20.970  90.655  -8.139  1.00  0.00     0.211 HD
ENDBRANCH  12  16
BRANCH  14  18
ATOM     18  O   UNL     1      18.924  92.762  -7.636  1.00  0.00    -0.387 OA
ATOM     19  H   UNL     1      19.040  93.623  -7.151  1.00  0.00     0.211 HD
ENDBRANCH  14  18
BRANCH  15  20
ATOM     20  O   UNL     1      16.285  92.513  -6.593  1.00  0.00    -0.385 OA
ATOM     21  H   UNL     1      15.673  92.349  -5.832  1.00  0.00     0.211 HD
ENDBRANCH  15  20
ENDBRANCH   8   9
ENDBRANCH   7   8
ENDBRANCH   1   7
BRANCH   2  22
ATOM     22  O   UNL     1      18.290  94.018  -2.663  1.00  0.00    -0.387 OA
ATOM     23  H   UNL     1      18.619  94.796  -2.138  1.00  0.00     0.211 HD
ENDBRANCH   2  22
BRANCH   3  24
ATOM     24  O   UNL     1      15.294  94.569  -0.655  1.00  0.00    -0.387 OA
ATOM     25  H   UNL     1      14.691  95.345  -0.558  1.00  0.00     0.211 HD
ENDBRANCH   3  24
BRANCH   5  26
ATOM     26  O   UNL     1      13.778  94.270  -3.296  1.00  0.00    -0.462 OA
BRANCH  26  27
ATOM     27  C   UNL     1      12.904  95.029  -2.505  1.00  0.00     0.130 A 
ATOM     28  C   UNL     1      11.705  94.499  -1.993  1.00  0.00     0.093 A 
ATOM     29  C   UNL     1      13.230  96.363  -2.245  1.00  0.00     0.094 A 
ATOM     30  C   UNL     1      10.816  95.307  -1.272  1.00  0.00     0.133 A 
ATOM     31  C   UNL     1      12.350  97.180  -1.534  1.00  0.00     0.138 A 
ATOM     32  C   UNL     1      11.130  96.665  -1.056  1.00  0.00     0.102 A 
ATOM     33  O   UNL     1      12.678  98.527  -1.320  1.00  0.00    -0.484 OA
ATOM     34  C   UNL     1      10.192  97.609  -0.403  1.00  0.00     0.174 C 
ATOM     35  C   UNL     1      11.967  99.340  -0.380  1.00  0.00     0.211 C 
ATOM     36  O   UNL     1       9.149  97.205   0.182  1.00  0.00    -0.294 OA
ATOM     37  C   UNL     1      10.455  99.083  -0.507  1.00  0.00     0.131 C 
BRANCH  30  38
ATOM     38  O   UNL     1       9.622  94.768  -0.797  1.00  0.00    -0.507 OA
ATOM     39  H   UNL     1       9.252  95.022   0.113  1.00  0.00     0.293 HD
ENDBRANCH  30  38
BRANCH  35  40
ATOM     40  C   UNL     1      12.398 100.787  -0.541  1.00  0.00    -0.003 A 
ATOM     41  C   UNL     1      13.578 101.049  -1.257  1.00  0.00     0.057 A 
ATOM     42  C   UNL     1      11.643 101.876  -0.066  1.00  0.00     0.011 A 
ATOM     43  C   UNL     1      14.011 102.360  -1.477  1.00  0.00     0.158 A 
ATOM     44  C   UNL     1      12.075 103.188  -0.282  1.00  0.00     0.051 A 
ATOM     45  C   UNL     1      13.262 103.443  -0.988  1.00  0.00     0.160 A 
BRANCH  43  46
ATOM     46  O   UNL     1      15.193 102.566  -2.185  1.00  0.00    -0.504 OA
ATOM     47  H   UNL     1      16.036 102.040  -1.991  1.00  0.00     0.293 HD
ENDBRANCH  43  46
BRANCH  45  48
ATOM     48  O   UNL     1      13.721 104.750  -1.225  1.00  0.00    -0.493 OA
ATOM     49  C   UNL     1      13.112 105.660  -2.134  1.00  0.00     0.278 C 
ENDBRANCH  45  48
ENDBRANCH  35  40
ENDBRANCH  26  27
ENDBRANCH   5  26
BRANCH   4  50
ATOM     50  O   UNL     1      14.927  96.731  -2.374  1.00  0.00    -0.384 OA
ATOM     51  H   UNL     1      15.397  97.579  -2.580  1.00  0.00     0.211 HD
ENDBRANCH   4  50
TORSDOF 15
ENDMDL
MODEL 4
REMARK VINA RESULT:    90.771      2.653      5.954
REMARK INTER + INTRA:         151.600
REMARK INTER:                 150.308
REMARK INTRA:                   1.291
REMARK UNBOUND:                 2.458
REMARK SMILES COc1ccc([C@H]2CC(=O)c3c(O)cc(O[C@@H]4O[C@@H](CO[C@@H]5O[C@H](C)[C@@H](O)[C@@H](O)[C@@H]5O)[C@@H](O)[C@H](O)[C@@H]4O)cc3O2)cc1O
REMARK SMILES IDX 19 1 32 2 34 3 36 4 17 5 18 6 20 7 21 8 22 9 25 10 24 11
REMARK SMILES IDX 26 12 23 13 28 14 30 15 27 16 29 18 31 20 33 22 35 24 16 26
REMARK SMILES IDX 15 27 14 28 38 29 12 30 39 31 11 32 40 33 9 34 7 35 10 36
REMARK SMILES IDX 8 37 13 38 6 40 41 41 5 42 42 43 4 44 3 45 43 46 2 48 1 49
REMARK SMILES IDX 37 50
REMARK H PARENT 27 17 29 19 31 21 33 23 35 25 13 39 43 47 37 51
REMARK Flexibility Score: inf
ROOT
ATOM      1  C   UNL     1       7.895  94.124   2.169  1.00  0.00     0.180 C 
ATOM      2  C   UNL     1       6.937  94.309   0.961  1.00  0.00     0.177 C 
ATOM      3  C   UNL     1       7.520  95.327  -0.054  1.00  0.00     0.180 C 
ATOM      4  C   UNL     1       8.005  96.592   0.677  1.00  0.00     0.214 C 
ATOM      5  C   UNL     1       8.862  96.253   1.914  1.00  0.00     0.339 C 
ATOM      6  O   UNL     1       8.179  95.369   2.789  1.00  0.00    -0.332 OA
ENDROOT
BRANCH   1   7
ATOM      7  C   UNL     1       7.316  93.192   3.249  1.00  0.00     0.198 C 
BRANCH   7   8
ATOM      8  O   UNL     1       8.253  92.193   3.622  1.00  0.00    -0.347 OA
BRANCH   8   9
ATOM      9  C   UNL     1       7.924  90.887   3.153  1.00  0.00     0.281 C 
ATOM     10  C   UNL     1       5.834  88.169   4.505  1.00  0.00     0.041 C 
ATOM     11  C   UNL     1       7.011  88.807   3.764  1.00  0.00     0.150 C 
ATOM     12  C   UNL     1       8.352  88.143   4.188  1.00  0.00     0.174 C 
ATOM     13  O   UNL     1       7.047  90.192   4.047  1.00  0.00    -0.344 OA
ATOM     14  C   UNL     1       9.566  89.076   3.909  1.00  0.00     0.179 C 
ATOM     15  C   UNL     1       9.227  90.096   2.801  1.00  0.00     0.202 C 
BRANCH  12  16
ATOM     16  O   UNL     1       8.495  86.888   3.571  1.00  0.00    -0.388 OA
ATOM     17  H   UNL     1       8.239  86.189   4.234  1.00  0.00     0.211 HD
ENDBRANCH  12  16
BRANCH  14  18
ATOM     18  O   UNL     1      10.733  88.346   3.605  1.00  0.00    -0.387 OA
ATOM     19  H   UNL     1      10.464  87.415   3.379  1.00  0.00     0.211 HD
ENDBRANCH  14  18
BRANCH  15  20
ATOM     20  O   UNL     1      10.312  90.951   2.532  1.00  0.00    -0.385 OA
ATOM     21  H   UNL     1       9.957  91.867   2.404  1.00  0.00     0.211 HD
ENDBRANCH  15  20
ENDBRANCH   8   9
ENDBRANCH   7   8
ENDBRANCH   1   7
BRANCH   2  22
ATOM     22  O   UNL     1       5.690  94.778   1.417  1.00  0.00    -0.387 OA
ATOM     23  H   UNL     1       5.798  95.744   1.627  1.00  0.00     0.211 HD
ENDBRANCH   2  22
BRANCH   3  24
ATOM     24  O   UNL     1       8.534  94.780  -0.869  1.00  0.00    -0.387 OA
ATOM     25  H   UNL     1       9.030  95.509  -1.314  1.00  0.00     0.211 HD
ENDBRANCH   3  24
BRANCH   5  26
ATOM     26  O   UNL     1      10.148  95.743   1.545  1.00  0.00    -0.462 OA
BRANCH  26  27
ATOM     27  C   UNL     1      10.911  96.227   0.473  1.00  0.00     0.130 A 
ATOM     28  C   UNL     1      11.514  95.369  -0.466  1.00  0.00     0.093 A 
ATOM     29  C   UNL     1      11.095  97.608   0.357  1.00  0.00     0.094 A 
ATOM     30  C   UNL     1      12.335  95.882  -1.479  1.00  0.00     0.133 A 
ATOM     31  C   UNL     1      11.915  98.130  -0.644  1.00  0.00     0.138 A 
ATOM     32  C   UNL     1      12.555  97.273  -1.559  1.00  0.00     0.102 A 
ATOM     33  O   UNL     1      12.120  99.516  -0.716  1.00  0.00    -0.484 OA
ATOM     34  C   UNL     1      13.496  97.879  -2.530  1.00  0.00     0.174 C 
ATOM     35  C   UNL     1      12.714 100.136  -1.862  1.00  0.00     0.211 C 
ATOM     36  O   UNL     1      13.995  97.207  -3.475  1.00  0.00    -0.294 OA
ATOM     37  C   UNL     1      13.921  99.305  -2.336  1.00  0.00     0.131 C 
BRANCH  30  38
ATOM     38  O   UNL     1      12.944  95.012  -2.382  1.00  0.00    -0.507 OA
ATOM     39  H   UNL     1      12.453  94.203  -2.750  1.00  0.00     0.293 HD
ENDBRANCH  30  38
BRANCH  35  40
ATOM     40  C   UNL     1      13.007 101.592  -1.549  1.00  0.00    -0.003 A 
ATOM     41  C   UNL     1      14.086 102.205  -2.208  1.00  0.00     0.057 A 
ATOM     42  C   UNL     1      12.216 102.372  -0.685  1.00  0.00     0.011 A 
ATOM     43  C   UNL     1      14.386 103.554  -1.997  1.00  0.00     0.158 A 
ATOM     44  C   UNL     1      12.515 103.720  -0.469  1.00  0.00     0.051 A 
ATOM     45  C   UNL     1      13.603 104.324  -1.121  1.00  0.00     0.160 A 
BRANCH  43  46
ATOM     46  O   UNL     1      15.473 104.112  -2.667  1.00  0.00    -0.504 OA
ATOM     47  H   UNL     1      16.314 104.401  -2.183  1.00  0.00     0.293 HD
ENDBRANCH  43  46
BRANCH  45  48
ATOM     48  O   UNL     1      13.928 105.677  -0.929  1.00  0.00    -0.493 OA
ATOM     49  C   UNL     1      13.813 106.679  -1.934  1.00  0.00     0.278 C 
ENDBRANCH  45  48
ENDBRANCH  35  40
ENDBRANCH  26  27
ENDBRANCH   5  26
BRANCH   4  50
ATOM     50  O   UNL     1       8.667  97.479  -0.192  1.00  0.00    -0.384 OA
ATOM     51  H   UNL     1       8.230  97.429  -1.080  1.00  0.00     0.211 HD
ENDBRANCH   4  50
TORSDOF 15
ENDMDL
MODEL 5
REMARK VINA RESULT:    91.216      4.012     10.000
REMARK INTER + INTRA:         152.331
REMARK INTER:                 153.506
REMARK INTRA:                  -1.176
REMARK UNBOUND:                 2.458
REMARK SMILES COc1ccc([C@H]2CC(=O)c3c(O)cc(O[C@@H]4O[C@@H](CO[C@@H]5O[C@H](C)[C@@H](O)[C@@H](O)[C@@H]5O)[C@@H](O)[C@H](O)[C@@H]4O)cc3O2)cc1O
REMARK SMILES IDX 19 1 32 2 34 3 36 4 17 5 18 6 20 7 21 8 22 9 25 10 24 11
REMARK SMILES IDX 26 12 23 13 28 14 30 15 27 16 29 18 31 20 33 22 35 24 16 26
REMARK SMILES IDX 15 27 14 28 38 29 12 30 39 31 11 32 40 33 9 34 7 35 10 36
REMARK SMILES IDX 8 37 13 38 6 40 41 41 5 42 42 43 4 44 3 45 43 46 2 48 1 49
REMARK SMILES IDX 37 50
REMARK H PARENT 27 17 29 19 31 21 33 23 35 25 13 39 43 47 37 51
REMARK Flexibility Score: inf
ROOT
ATOM      1  C   UNL     1      11.436  97.585  -3.592  1.00  0.00     0.180 C 
ATOM      2  C   UNL     1      12.988  97.595  -3.655  1.00  0.00     0.177 C 
ATOM      3  C   UNL     1      13.595  96.931  -2.391  1.00  0.00     0.180 C 
ATOM      4  C   UNL     1      12.925  97.486  -1.121  1.00  0.00     0.214 C 
ATOM      5  C   UNL     1      11.387  97.510  -1.242  1.00  0.00     0.339 C 
ATOM      6  O   UNL     1      10.971  98.209  -2.404  1.00  0.00    -0.332 OA
ENDROOT
BRANCH   1   7
ATOM      7  C   UNL     1      10.789  98.318  -4.782  1.00  0.00     0.198 C 
BRANCH   7   8
ATOM      8  O   UNL     1       9.900  97.466  -5.488  1.00  0.00    -0.347 OA
BRANCH   8   9
ATOM      9  C   UNL     1       9.709  97.833  -6.852  1.00  0.00     0.281 C 
ATOM     10  C   UNL     1       7.743 100.477  -8.504  1.00  0.00     0.041 C 
ATOM     11  C   UNL     1       8.381  99.098  -8.326  1.00  0.00     0.150 C 
ATOM     12  C   UNL     1       7.357  97.973  -8.652  1.00  0.00     0.174 C 
ATOM     13  O   UNL     1       8.840  98.964  -6.995  1.00  0.00    -0.344 OA
ATOM     14  C   UNL     1       7.755  96.626  -7.981  1.00  0.00     0.179 C 
ATOM     15  C   UNL     1       9.271  96.587  -7.691  1.00  0.00     0.202 C 
BRANCH  12  16
ATOM     16  O   UNL     1       7.195  97.844 -10.043  1.00  0.00    -0.388 OA
ATOM     17  H   UNL     1       7.422  96.907 -10.292  1.00  0.00     0.211 HD
ENDBRANCH  12  16
BRANCH  14  18
ATOM     18  O   UNL     1       7.343  95.515  -8.744  1.00  0.00    -0.387 OA
ATOM     19  H   UNL     1       6.568  95.795  -9.302  1.00  0.00     0.211 HD
ENDBRANCH  14  18
BRANCH  15  20
ATOM     20  O   UNL     1       9.653  95.377  -7.082  1.00  0.00    -0.385 OA
ATOM     21  H   UNL     1       9.696  94.680  -7.785  1.00  0.00     0.211 HD
ENDBRANCH  15  20
ENDBRANCH   8   9
ENDBRANCH   7   8
ENDBRANCH   1   7
BRANCH   2  22
ATOM     22  O   UNL     1      13.447  98.924  -3.740  1.00  0.00    -0.387 OA
ATOM     23  H   UNL     1      13.868  99.033  -4.633  1.00  0.00     0.211 HD
ENDBRANCH   2  22
BRANCH   3  24
ATOM     24  O   UNL     1      13.545  95.521  -2.427  1.00  0.00    -0.387 OA
ATOM     25  H   UNL     1      13.109  95.226  -3.262  1.00  0.00     0.211 HD
ENDBRANCH   3  24
BRANCH   5  26
ATOM     26  O   UNL     1      10.829  96.192  -1.188  1.00  0.00    -0.462 OA
BRANCH  26  27
ATOM     27  C   UNL     1       9.799  95.806  -0.319  1.00  0.00     0.130 A 
ATOM     28  C   UNL     1       8.765  96.685   0.055  1.00  0.00     0.093 A 
ATOM     29  C   UNL     1       9.822  94.512   0.207  1.00  0.00     0.094 A 
ATOM     30  C   UNL     1       7.795  96.292   0.986  1.00  0.00     0.133 A 
ATOM     31  C   UNL     1       8.865  94.111   1.141  1.00  0.00     0.138 A 
ATOM     32  C   UNL     1       7.855  95.001   1.551  1.00  0.00     0.102 A 
ATOM     33  O   UNL     1       8.933  92.821   1.689  1.00  0.00    -0.484 OA
ATOM     34  C   UNL     1       6.934  94.553   2.622  1.00  0.00     0.174 C 
ATOM     35  C   UNL     1       7.846  92.255   2.429  1.00  0.00     0.211 C 
ATOM     36  O   UNL     1       5.916  95.226   2.942  1.00  0.00    -0.294 OA
ATOM     37  C   UNL     1       7.266  93.308   3.391  1.00  0.00     0.131 C 
BRANCH  30  38
ATOM     38  O   UNL     1       6.796  97.188   1.363  1.00  0.00    -0.507 OA
ATOM     39  H   UNL     1       5.864  97.140   0.964  1.00  0.00     0.293 HD
ENDBRANCH  30  38
BRANCH  35  40
ATOM     40  C   UNL     1       8.302  90.960   3.078  1.00  0.00    -0.003 A 
ATOM     41  C   UNL     1       7.324  90.012   3.417  1.00  0.00     0.057 A 
ATOM     42  C   UNL     1       9.656  90.639   3.296  1.00  0.00     0.011 A 
ATOM     43  C   UNL     1       7.678  88.782   3.981  1.00  0.00     0.158 A 
ATOM     44  C   UNL     1      10.013  89.412   3.861  1.00  0.00     0.051 A 
ATOM     45  C   UNL     1       9.029  88.472   4.210  1.00  0.00     0.160 A 
BRANCH  43  46
ATOM     46  O   UNL     1       6.668  87.879   4.308  1.00  0.00    -0.504 OA
ATOM     47  H   UNL     1       6.850  87.037   4.839  1.00  0.00     0.293 HD
ENDBRANCH  43  46
BRANCH  45  48
ATOM     48  O   UNL     1       9.355  87.228   4.777  1.00  0.00    -0.493 OA
ATOM     49  C   UNL     1      10.650  86.880   5.254  1.00  0.00     0.278 C 
ENDBRANCH  45  48
ENDBRANCH  35  40
ENDBRANCH  26  27
ENDBRANCH   5  26
BRANCH   4  50
ATOM     50  O   UNL     1      13.349  96.807   0.036  1.00  0.00    -0.384 OA
ATOM     51  H   UNL     1      12.547  96.452   0.498  1.00  0.00     0.211 HD
ENDBRANCH   4  50
TORSDOF 15
ENDMDL
