MODEL 1
REMARK VINA RESULT:    -5.219      0.000      0.000
REMARK INTER + INTRA:         -11.220
REMARK INTER:                 -10.100
REMARK INTRA:                  -1.119
REMARK UNBOUND:                -1.119
REMARK SMILES CCCCCCCCCCCCCCCCCC(=O)[O-]
REMARK SMILES IDX 10 1 11 2 12 3 13 4 14 5 15 6 16 7 17 8 18 9 19 10 20 11
REMARK SMILES IDX 9 12 8 13 7 14 6 15 5 16 4 17 3 18 2 19 1 20
REMARK H PARENT
REMARK Flexibility Score: inf
ROOT
ATOM      1  C   UNL     1       4.697  11.082  19.812  1.00  0.00     0.000 C 
ENDROOT
BRANCH   1   2
ATOM      2  C   UNL     1       3.568  11.533  18.868  1.00  0.00     0.000 C 
BRANCH   2   3
ATOM      3  C   UNL     1       2.631  10.379  18.473  1.00  0.00     0.000 C 
BRANCH   3   4
ATOM      4  C   UNL     1       3.138   9.597  17.249  1.00  0.00     0.000 C 
BRANCH   4   5
ATOM      5  C   UNL     1       2.233   8.406  16.885  1.00  0.00     0.000 C 
BRANCH   5   6
ATOM      6  C   UNL     1       0.961   8.260  17.744  1.00  0.00     0.000 C 
BRANCH   6   7
ATOM      7  C   UNL     1       0.353   6.844  17.783  1.00  0.00     0.006 C 
BRANCH   7   8
ATOM      8  C   UNL     1       0.297   6.216  19.185  1.00  0.00     0.053 C 
BRANCH   8   9
ATOM      9  C   UNL     1       1.017   4.903  19.236  1.00  0.00     0.041 C 
ATOM     10  O   UNL     1       1.251   4.266  18.175  1.00  0.00    -0.550 OA
ATOM     11  O   UNL     1       1.457   4.399  20.453  1.00  0.00    -0.550 OA
ENDBRANCH   8   9
ENDBRANCH   7   8
ENDBRANCH   6   7
ENDBRANCH   5   6
ENDBRANCH   4   5
ENDBRANCH   3   4
ENDBRANCH   2   3
ENDBRANCH   1   2
BRANCH   1  12
ATOM     12  C   UNL     1       6.081  11.153  19.145  1.00  0.00     0.000 C 
BRANCH  12  13
ATOM     13  C   UNL     1       6.003  11.097  17.609  1.00  0.00    -0.000 C 
BRANCH  13  14
ATOM     14  C   UNL     1       6.114  12.486  16.956  1.00  0.00    -0.000 C 
BRANCH  14  15
ATOM     15  C   UNL     1       5.370  12.646  15.613  1.00  0.00    -0.000 C 
BRANCH  15  16
ATOM     16  C   UNL     1       3.848  12.871  15.725  1.00  0.00    -0.000 C 
BRANCH  16  17
ATOM     17  C   UNL     1       3.102  12.802  14.372  1.00  0.00    -0.000 C 
BRANCH  17  18
ATOM     18  C   UNL     1       2.685  11.376  13.968  1.00  0.00    -0.000 C 
BRANCH  18  19
ATOM     19  C   UNL     1       3.834  10.354  13.955  1.00  0.00    -0.003 C 
ATOM     20  C   UNL     1       3.439   9.022  13.318  1.00  0.00     0.004 C 
ENDBRANCH  18  19
ENDBRANCH  17  18
ENDBRANCH  16  17
ENDBRANCH  15  16
ENDBRANCH  14  15
ENDBRANCH  13  14
ENDBRANCH  12  13
ENDBRANCH   1  12
TORSDOF 16
ENDMDL
MODEL 2
REMARK VINA RESULT:    -5.174      2.474      6.266
REMARK INTER + INTRA:         -11.133
REMARK INTER:                  -9.925
REMARK INTRA:                  -1.208
REMARK UNBOUND:                -1.119
REMARK SMILES CCCCCCCCCCCCCCCCCC(=O)[O-]
REMARK SMILES IDX 10 1 11 2 12 3 13 4 14 5 15 6 16 7 17 8 18 9 19 10 20 11
REMARK SMILES IDX 9 12 8 13 7 14 6 15 5 16 4 17 3 18 2 19 1 20
REMARK H PARENT
REMARK Flexibility Score: inf
ROOT
ATOM      1  C   UNL     1       5.213  11.286  18.903  1.00  0.00     0.000 C 
ENDROOT
BRANCH   1   2
ATOM      2  C   UNL     1       5.619  11.044  17.438  1.00  0.00     0.000 C 
BRANCH   2   3
ATOM      3  C   UNL     1       6.142  12.317  16.751  1.00  0.00     0.000 C 
BRANCH   3   4
ATOM      4  C   UNL     1       5.279  12.737  15.549  1.00  0.00     0.000 C 
BRANCH   4   5
ATOM      5  C   UNL     1       3.783  12.848  15.898  1.00  0.00     0.000 C 
BRANCH   5   6
ATOM      6  C   UNL     1       2.834  12.981  14.691  1.00  0.00     0.000 C 
BRANCH   6   7
ATOM      7  C   UNL     1       2.720  11.726  13.802  1.00  0.00     0.006 C 
BRANCH   7   8
ATOM      8  C   UNL     1       3.050  10.408  14.521  1.00  0.00     0.053 C 
BRANCH   8   9
ATOM      9  C   UNL     1       3.768   9.448  13.623  1.00  0.00     0.041 C 
ATOM     10  O   UNL     1       4.929   9.710  13.212  1.00  0.00    -0.550 OA
ATOM     11  O   UNL     1       3.167   8.248  13.266  1.00  0.00    -0.550 OA
ENDBRANCH   8   9
ENDBRANCH   7   8
ENDBRANCH   6   7
ENDBRANCH   5   6
ENDBRANCH   4   5
ENDBRANCH   3   4
ENDBRANCH   2   3
ENDBRANCH   1   2
BRANCH   1  12
ATOM     12  C   UNL     1       4.000  10.439  19.321  1.00  0.00     0.000 C 
BRANCH  12  13
ATOM     13  C   UNL     1       2.827  10.554  18.332  1.00  0.00    -0.000 C 
BRANCH  13  14
ATOM     14  C   UNL     1       2.560   9.244  17.570  1.00  0.00    -0.000 C 
BRANCH  14  15
ATOM     15  C   UNL     1       1.140   8.661  17.738  1.00  0.00    -0.000 C 
BRANCH  15  16
ATOM     16  C   UNL     1       1.065   7.122  17.817  1.00  0.00    -0.000 C 
BRANCH  16  17
ATOM     17  C   UNL     1       0.065   6.595  18.872  1.00  0.00    -0.000 C 
BRANCH  17  18
ATOM     18  C   UNL     1       0.089   5.064  19.036  1.00  0.00    -0.000 C 
BRANCH  18  19
ATOM     19  C   UNL     1       1.393   4.392  18.572  1.00  0.00    -0.003 C 
ATOM     20  C   UNL     1       2.283   3.956  19.735  1.00  0.00     0.004 C 
ENDBRANCH  18  19
ENDBRANCH  17  18
ENDBRANCH  16  17
ENDBRANCH  15  16
ENDBRANCH  14  15
ENDBRANCH  13  14
ENDBRANCH  12  13
ENDBRANCH   1  12
TORSDOF 16
ENDMDL
MODEL 3
REMARK VINA RESULT:    -5.134      0.978      3.730
REMARK INTER + INTRA:         -11.056
REMARK INTER:                  -9.642
REMARK INTRA:                  -1.415
REMARK UNBOUND:                -1.119
REMARK SMILES CCCCCCCCCCCCCCCCCC(=O)[O-]
REMARK SMILES IDX 10 1 11 2 12 3 13 4 14 5 15 6 16 7 17 8 18 9 19 10 20 11
REMARK SMILES IDX 9 12 8 13 7 14 6 15 5 16 4 17 3 18 2 19 1 20
REMARK H PARENT
REMARK Flexibility Score: inf
ROOT
ATOM      1  C   UNL     1       3.961  11.121  14.479  1.00  0.00     0.000 C 
ENDROOT
BRANCH   1   2
ATOM      2  C   UNL     1       3.516   9.683  14.801  1.00  0.00     0.000 C 
BRANCH   2   3
ATOM      3  C   UNL     1       3.328   9.446  16.308  1.00  0.00     0.000 C 
BRANCH   3   4
ATOM      4  C   UNL     1       2.376   8.275  16.609  1.00  0.00     0.000 C 
BRANCH   4   5
ATOM      5  C   UNL     1       1.566   8.481  17.902  1.00  0.00     0.000 C 
BRANCH   5   6
ATOM      6  C   UNL     1       0.194   7.779  17.938  1.00  0.00     0.000 C 
BRANCH   6   7
ATOM      7  C   UNL     1       0.142   6.479  18.765  1.00  0.00     0.006 C 
BRANCH   7   8
ATOM      8  C   UNL     1       0.813   5.271  18.092  1.00  0.00     0.053 C 
BRANCH   8   9
ATOM      9  C   UNL     1       1.358   4.304  19.097  1.00  0.00     0.041 C 
ATOM     10  O   UNL     1       1.275   4.555  20.329  1.00  0.00    -0.550 OA
ATOM     11  O   UNL     1       1.926   3.109  18.675  1.00  0.00    -0.550 OA
ENDBRANCH   8   9
ENDBRANCH   7   8
ENDBRANCH   6   7
ENDBRANCH   5   6
ENDBRANCH   4   5
ENDBRANCH   3   4
ENDBRANCH   2   3
ENDBRANCH   1   2
BRANCH   1  12
ATOM     12  C   UNL     1       2.790  12.009  14.027  1.00  0.00     0.000 C 
BRANCH  12  13
ATOM     13  C   UNL     1       2.728  13.342  14.793  1.00  0.00    -0.000 C 
BRANCH  13  14
ATOM     14  C   UNL     1       3.467  13.290  16.141  1.00  0.00    -0.000 C 
BRANCH  14  15
ATOM     15  C   UNL     1       2.648  13.764  17.362  1.00  0.00    -0.000 C 
BRANCH  15  16
ATOM     16  C   UNL     1       2.942  13.021  18.681  1.00  0.00    -0.000 C 
BRANCH  16  17
ATOM     17  C   UNL     1       3.256  11.518  18.500  1.00  0.00    -0.000 C 
BRANCH  17  18
ATOM     18  C   UNL     1       4.321  10.987  19.478  1.00  0.00    -0.000 C 
BRANCH  18  19
ATOM     19  C   UNL     1       5.768  11.359  19.111  1.00  0.00    -0.003 C 
ATOM     20  C   UNL     1       6.068  11.187  17.622  1.00  0.00     0.004 C 
ENDBRANCH  18  19
ENDBRANCH  17  18
ENDBRANCH  16  17
ENDBRANCH  15  16
ENDBRANCH  14  15
ENDBRANCH  13  14
ENDBRANCH  12  13
ENDBRANCH   1  12
TORSDOF 16
ENDMDL
MODEL 4
REMARK VINA RESULT:    -4.926      2.961      6.647
REMARK INTER + INTRA:         -10.654
REMARK INTER:                  -9.619
REMARK INTRA:                  -1.034
REMARK UNBOUND:                -1.119
REMARK SMILES CCCCCCCCCCCCCCCCCC(=O)[O-]
REMARK SMILES IDX 10 1 11 2 12 3 13 4 14 5 15 6 16 7 17 8 18 9 19 10 20 11
REMARK SMILES IDX 9 12 8 13 7 14 6 15 5 16 4 17 3 18 2 19 1 20
REMARK H PARENT
REMARK Flexibility Score: inf
ROOT
ATOM      1  C   UNL     1       4.004   9.801  14.486  1.00  0.00     0.000 C 
ENDROOT
BRANCH   1   2
ATOM      2  C   UNL     1       3.217  11.070  14.114  1.00  0.00     0.000 C 
BRANCH   2   3
ATOM      3  C   UNL     1       3.932  12.360  14.551  1.00  0.00     0.000 C 
BRANCH   3   4
ATOM      4  C   UNL     1       2.967  13.395  15.154  1.00  0.00     0.000 C 
BRANCH   4   5
ATOM      5  C   UNL     1       3.127  13.542  16.679  1.00  0.00     0.000 C 
BRANCH   5   6
ATOM      6  C   UNL     1       3.137  12.219  17.469  1.00  0.00     0.000 C 
BRANCH   6   7
ATOM      7  C   UNL     1       3.645  12.324  18.921  1.00  0.00     0.006 C 
BRANCH   7   8
ATOM      8  C   UNL     1       4.429  11.095  19.410  1.00  0.00     0.053 C 
BRANCH   8   9
ATOM      9  C   UNL     1       5.895  11.220  19.129  1.00  0.00     0.041 C 
ATOM     10  O   UNL     1       6.297  11.489  17.966  1.00  0.00    -0.550 OA
ATOM     11  O   UNL     1       6.814  11.073  20.158  1.00  0.00    -0.550 OA
ENDBRANCH   8   9
ENDBRANCH   7   8
ENDBRANCH   6   7
ENDBRANCH   5   6
ENDBRANCH   4   5
ENDBRANCH   3   4
ENDBRANCH   2   3
ENDBRANCH   1   2
BRANCH   1  12
ATOM     12  C   UNL     1       3.951   9.500  15.993  1.00  0.00     0.000 C 
BRANCH  12  13
ATOM     13  C   UNL     1       2.756   8.611  16.379  1.00  0.00    -0.000 C 
BRANCH  13  14
ATOM     14  C   UNL     1       1.965   9.163  17.577  1.00  0.00    -0.000 C 
BRANCH  14  15
ATOM     15  C   UNL     1       0.604   8.482  17.840  1.00  0.00    -0.000 C 
BRANCH  15  16
ATOM     16  C   UNL     1       0.625   6.939  17.821  1.00  0.00    -0.000 C 
BRANCH  16  17
ATOM     17  C   UNL     1       0.101   6.287  19.122  1.00  0.00    -0.000 C 
BRANCH  17  18
ATOM     18  C   UNL     1       0.266   4.757  19.155  1.00  0.00    -0.000 C 
BRANCH  18  19
ATOM     19  C   UNL     1       1.635   4.251  18.671  1.00  0.00    -0.003 C 
ATOM     20  C   UNL     1       2.515   3.732  19.808  1.00  0.00     0.004 C 
ENDBRANCH  18  19
ENDBRANCH  17  18
ENDBRANCH  16  17
ENDBRANCH  15  16
ENDBRANCH  14  15
ENDBRANCH  13  14
ENDBRANCH  12  13
ENDBRANCH   1  12
TORSDOF 16
ENDMDL
MODEL 5
REMARK VINA RESULT:    -4.645      0.907      2.042
REMARK INTER + INTRA:         -10.109
REMARK INTER:                  -8.537
REMARK INTRA:                  -1.571
REMARK UNBOUND:                -1.119
REMARK SMILES CCCCCCCCCCCCCCCCCC(=O)[O-]
REMARK SMILES IDX 10 1 11 2 12 3 13 4 14 5 15 6 16 7 17 8 18 9 19 10 20 11
REMARK SMILES IDX 9 12 8 13 7 14 6 15 5 16 4 17 3 18 2 19 1 20
REMARK H PARENT
REMARK Flexibility Score: inf
ROOT
ATOM      1  C   UNL     1       4.886  11.687  19.583  1.00  0.00     0.000 C 
ENDROOT
BRANCH   1   2
ATOM      2  C   UNL     1       3.508  11.513  18.920  1.00  0.00     0.000 C 
BRANCH   2   3
ATOM      3  C   UNL     1       3.083  10.039  18.819  1.00  0.00     0.000 C 
BRANCH   3   4
ATOM      4  C   UNL     1       2.254   9.748  17.556  1.00  0.00     0.000 C 
BRANCH   4   5
ATOM      5  C   UNL     1       1.859   8.265  17.430  1.00  0.00     0.000 C 
BRANCH   5   6
ATOM      6  C   UNL     1       0.437   7.919  17.916  1.00  0.00     0.000 C 
BRANCH   6   7
ATOM      7  C   UNL     1       0.356   6.786  18.957  1.00  0.00     0.006 C 
BRANCH   7   8
ATOM      8  C   UNL     1       0.383   5.370  18.358  1.00  0.00     0.053 C 
BRANCH   8   9
ATOM      9  C   UNL     1       1.183   4.424  19.200  1.00  0.00     0.041 C 
ATOM     10  O   UNL     1       1.172   4.527  20.455  1.00  0.00    -0.550 OA
ATOM     11  O   UNL     1       1.913   3.407  18.599  1.00  0.00    -0.550 OA
ENDBRANCH   8   9
ENDBRANCH   7   8
ENDBRANCH   6   7
ENDBRANCH   5   6
ENDBRANCH   4   5
ENDBRANCH   3   4
ENDBRANCH   2   3
ENDBRANCH   1   2
BRANCH   1  12
ATOM     12  C   UNL     1       6.025  11.110  18.727  1.00  0.00     0.000 C 
BRANCH  12  13
ATOM     13  C   UNL     1       5.925  11.526  17.249  1.00  0.00    -0.000 C 
BRANCH  13  14
ATOM     14  C   UNL     1       5.490  10.368  16.333  1.00  0.00    -0.000 C 
BRANCH  14  15
ATOM     15  C   UNL     1       5.002  10.784  14.929  1.00  0.00    -0.000 C 
BRANCH  15  16
ATOM     16  C   UNL     1       3.675  10.142  14.475  1.00  0.00    -0.000 C 
BRANCH  16  17
ATOM     17  C   UNL     1       2.635  11.155  13.945  1.00  0.00    -0.000 C 
BRANCH  17  18
ATOM     18  C   UNL     1       3.115  12.618  13.995  1.00  0.00    -0.000 C 
BRANCH  18  19
ATOM     19  C   UNL     1       2.336  13.514  14.972  1.00  0.00    -0.003 C 
ATOM     20  C   UNL     1       3.029  13.664  16.326  1.00  0.00     0.004 C 
ENDBRANCH  18  19
ENDBRANCH  17  18
ENDBRANCH  16  17
ENDBRANCH  15  16
ENDBRANCH  14  15
ENDBRANCH  13  14
ENDBRANCH  12  13
ENDBRANCH   1  12
TORSDOF 16
ENDMDL
MODEL 6
REMARK VINA RESULT:    -4.359      1.147      2.517
REMARK INTER + INTRA:          -9.555
REMARK INTER:                  -7.817
REMARK INTRA:                  -1.738
REMARK UNBOUND:                -1.119
REMARK SMILES CCCCCCCCCCCCCCCCCC(=O)[O-]
REMARK SMILES IDX 10 1 11 2 12 3 13 4 14 5 15 6 16 7 17 8 18 9 19 10 20 11
REMARK SMILES IDX 9 12 8 13 7 14 6 15 5 16 4 17 3 18 2 19 1 20
REMARK H PARENT
REMARK Flexibility Score: inf
ROOT
ATOM      1  C   UNL     1       5.896  11.223  16.493  1.00  0.00     0.000 C 
ENDROOT
BRANCH   1   2
ATOM      2  C   UNL     1       5.060   9.935  16.603  1.00  0.00     0.000 C 
BRANCH   2   3
ATOM      3  C   UNL     1       3.841   9.939  15.667  1.00  0.00     0.000 C 
BRANCH   3   4
ATOM      4  C   UNL     1       2.767   8.922  16.090  1.00  0.00     0.000 C 
BRANCH   4   5
ATOM      5  C   UNL     1       2.165   9.231  17.473  1.00  0.00     0.000 C 
BRANCH   5   6
ATOM      6  C   UNL     1       0.947   8.371  17.868  1.00  0.00     0.000 C 
BRANCH   6   7
ATOM      7  C   UNL     1       1.150   6.848  17.746  1.00  0.00     0.006 C 
BRANCH   7   8
ATOM      8  C   UNL     1       0.315   6.016  18.733  1.00  0.00     0.053 C 
BRANCH   8   9
ATOM      9  C   UNL     1       1.003   4.738  19.106  1.00  0.00     0.041 C 
ATOM     10  O   UNL     1       1.397   3.945  18.210  1.00  0.00    -0.550 OA
ATOM     11  O   UNL     1       1.237   4.439  20.441  1.00  0.00    -0.550 OA
ENDBRANCH   8   9
ENDBRANCH   7   8
ENDBRANCH   6   7
ENDBRANCH   5   6
ENDBRANCH   4   5
ENDBRANCH   3   4
ENDBRANCH   2   3
ENDBRANCH   1   2
BRANCH   1  12
ATOM     12  C   UNL     1       6.137  11.884  17.860  1.00  0.00     0.000 C 
BRANCH  12  13
ATOM     13  C   UNL     1       5.614  11.032  19.030  1.00  0.00    -0.000 C 
BRANCH  13  14
ATOM     14  C   UNL     1       4.387  11.654  19.718  1.00  0.00    -0.000 C 
BRANCH  14  15
ATOM     15  C   UNL     1       3.205  11.991  18.783  1.00  0.00    -0.000 C 
BRANCH  15  16
ATOM     16  C   UNL     1       2.709  13.450  18.849  1.00  0.00    -0.000 C 
BRANCH  16  17
ATOM     17  C   UNL     1       2.349  14.054  17.471  1.00  0.00    -0.000 C 
BRANCH  17  18
ATOM     18  C   UNL     1       3.267  13.579  16.330  1.00  0.00    -0.000 C 
BRANCH  18  19
ATOM     19  C   UNL     1       2.548  13.328  14.994  1.00  0.00    -0.003 C 
ATOM     20  C   UNL     1       3.477  12.773  13.913  1.00  0.00     0.004 C 
ENDBRANCH  18  19
ENDBRANCH  17  18
ENDBRANCH  16  17
ENDBRANCH  15  16
ENDBRANCH  14  15
ENDBRANCH  13  14
ENDBRANCH  12  13
ENDBRANCH   1  12
TORSDOF 16
ENDMDL
MODEL 7
REMARK VINA RESULT:    -4.267      0.987      3.716
REMARK INTER + INTRA:          -9.378
REMARK INTER:                  -8.037
REMARK INTRA:                  -1.340
REMARK UNBOUND:                -1.119
REMARK SMILES CCCCCCCCCCCCCCCCCC(=O)[O-]
REMARK SMILES IDX 10 1 11 2 12 3 13 4 14 5 15 6 16 7 17 8 18 9 19 10 20 11
REMARK SMILES IDX 9 12 8 13 7 14 6 15 5 16 4 17 3 18 2 19 1 20
REMARK H PARENT
REMARK Flexibility Score: inf
ROOT
ATOM      1  C   UNL     1       3.082  11.635  14.180  1.00  0.00     0.000 C 
ENDROOT
BRANCH   1   2
ATOM      2  C   UNL     1       3.913  10.369  13.906  1.00  0.00     0.000 C 
BRANCH   2   3
ATOM      3  C   UNL     1       3.373   9.135  14.648  1.00  0.00     0.000 C 
BRANCH   3   4
ATOM      4  C   UNL     1       2.826   9.478  16.045  1.00  0.00     0.000 C 
BRANCH   4   5
ATOM      5  C   UNL     1       2.542   8.227  16.897  1.00  0.00     0.000 C 
BRANCH   5   6
ATOM      6  C   UNL     1       1.205   8.246  17.667  1.00  0.00     0.000 C 
BRANCH   6   7
ATOM      7  C   UNL     1       0.463   6.896  17.727  1.00  0.00     0.006 C 
BRANCH   7   8
ATOM      8  C   UNL     1       0.333   6.306  19.141  1.00  0.00     0.053 C 
BRANCH   8   9
ATOM      9  C   UNL     1       0.895   4.920  19.220  1.00  0.00     0.041 C 
ATOM     10  O   UNL     1       0.830   4.270  20.297  1.00  0.00    -0.550 OA
ATOM     11  O   UNL     1       1.459   4.334  18.095  1.00  0.00    -0.550 OA
ENDBRANCH   8   9
ENDBRANCH   7   8
ENDBRANCH   6   7
ENDBRANCH   5   6
ENDBRANCH   4   5
ENDBRANCH   3   4
ENDBRANCH   2   3
ENDBRANCH   1   2
BRANCH   1  12
ATOM     12  C   UNL     1       3.551  12.382  15.440  1.00  0.00     0.000 C 
BRANCH  12  13
ATOM     13  C   UNL     1       4.972  12.953  15.296  1.00  0.00    -0.000 C 
BRANCH  13  14
ATOM     14  C   UNL     1       5.956  12.369  16.325  1.00  0.00    -0.000 C 
BRANCH  14  15
ATOM     15  C   UNL     1       5.461  11.112  17.072  1.00  0.00    -0.000 C 
BRANCH  15  16
ATOM     16  C   UNL     1       5.569  11.174  18.609  1.00  0.00    -0.000 C 
BRANCH  16  17
ATOM     17  C   UNL     1       4.226  10.952  19.344  1.00  0.00    -0.000 C 
BRANCH  17  18
ATOM     18  C   UNL     1       3.051  11.737  18.732  1.00  0.00    -0.000 C 
BRANCH  18  19
ATOM     19  C   UNL     1       3.051  13.241  19.052  1.00  0.00    -0.003 C 
ATOM     20  C   UNL     1       2.314  14.074  18.004  1.00  0.00     0.004 C 
ENDBRANCH  18  19
ENDBRANCH  17  18
ENDBRANCH  16  17
ENDBRANCH  15  16
ENDBRANCH  14  15
ENDBRANCH  13  14
ENDBRANCH  12  13
ENDBRANCH   1  12
TORSDOF 16
ENDMDL
MODEL 8
REMARK VINA RESULT:    -4.061      3.009      4.367
REMARK INTER + INTRA:          -8.980
REMARK INTER:                  -7.864
REMARK INTRA:                  -1.116
REMARK UNBOUND:                -1.119
REMARK SMILES CCCCCCCCCCCCCCCCCC(=O)[O-]
REMARK SMILES IDX 10 1 11 2 12 3 13 4 14 5 15 6 16 7 17 8 18 9 19 10 20 11
REMARK SMILES IDX 9 12 8 13 7 14 6 15 5 16 4 17 3 18 2 19 1 20
REMARK H PARENT
REMARK Flexibility Score: inf
ROOT
ATOM      1  C   UNL     1       4.543  11.022  15.736  1.00  0.00     0.000 C 
ENDROOT
BRANCH   1   2
ATOM      2  C   UNL     1       4.951  10.772  17.199  1.00  0.00     0.000 C 
BRANCH   2   3
ATOM      3  C   UNL     1       3.782  10.266  18.061  1.00  0.00     0.000 C 
BRANCH   3   4
ATOM      4  C   UNL     1       2.714   9.530  17.234  1.00  0.00     0.000 C 
BRANCH   4   5
ATOM      5  C   UNL     1       1.560   8.989  18.098  1.00  0.00     0.000 C 
BRANCH   5   6
ATOM      6  C   UNL     1       0.926   7.674  17.601  1.00  0.00     0.000 C 
BRANCH   6   7
ATOM      7  C   UNL     1       0.516   6.682  18.707  1.00  0.00     0.006 C 
BRANCH   7   8
ATOM      8  C   UNL     1       0.475   5.213  18.257  1.00  0.00     0.053 C 
BRANCH   8   9
ATOM      9  C   UNL     1       1.298   4.334  19.148  1.00  0.00     0.041 C 
ATOM     10  O   UNL     1       2.006   3.416  18.656  1.00  0.00    -0.550 OA
ATOM     11  O   UNL     1       1.309   4.550  20.520  1.00  0.00    -0.550 OA
ENDBRANCH   8   9
ENDBRANCH   7   8
ENDBRANCH   6   7
ENDBRANCH   5   6
ENDBRANCH   4   5
ENDBRANCH   3   4
ENDBRANCH   2   3
ENDBRANCH   1   2
BRANCH   1  12
ATOM     12  C   UNL     1       4.516  12.518  15.383  1.00  0.00     0.000 C 
BRANCH  12  13
ATOM     13  C   UNL     1       3.173  12.959  14.773  1.00  0.00    -0.000 C 
BRANCH  13  14
ATOM     14  C   UNL     1       2.337  13.821  15.734  1.00  0.00    -0.000 C 
BRANCH  14  15
ATOM     15  C   UNL     1       2.875  13.912  17.178  1.00  0.00    -0.000 C 
BRANCH  15  16
ATOM     16  C   UNL     1       1.898  14.512  18.210  1.00  0.00    -0.000 C 
BRANCH  16  17
ATOM     17  C   UNL     1       0.839  15.458  17.596  1.00  0.00    -0.000 C 
BRANCH  17  18
ATOM     18  C   UNL     1       0.828  16.864  18.225  1.00  0.00    -0.000 C 
BRANCH  18  19
ATOM     19  C   UNL     1      -0.509  17.265  18.869  1.00  0.00    -0.003 C 
ATOM     20  C   UNL     1      -1.693  16.456  18.338  1.00  0.00     0.004 C 
ENDBRANCH  18  19
ENDBRANCH  17  18
ENDBRANCH  16  17
ENDBRANCH  15  16
ENDBRANCH  14  15
ENDBRANCH  13  14
ENDBRANCH  12  13
ENDBRANCH   1  12
TORSDOF 16
ENDMDL
MODEL 9
REMARK VINA RESULT:    -3.883      5.538      8.243
REMARK INTER + INTRA:          -8.634
REMARK INTER:                  -7.842
REMARK INTRA:                  -0.792
REMARK UNBOUND:                -1.119
REMARK SMILES CCCCCCCCCCCCCCCCCC(=O)[O-]
REMARK SMILES IDX 10 1 11 2 12 3 13 4 14 5 15 6 16 7 17 8 18 9 19 10 20 11
REMARK SMILES IDX 9 12 8 13 7 14 6 15 5 16 4 17 3 18 2 19 1 20
REMARK H PARENT
REMARK Flexibility Score: inf
ROOT
ATOM      1  C   UNL     1       4.985  10.415  17.768  1.00  0.00     0.000 C 
ENDROOT
BRANCH   1   2
ATOM      2  C   UNL     1       4.988  11.863  18.291  1.00  0.00     0.000 C 
BRANCH   2   3
ATOM      3  C   UNL     1       3.606  12.312  18.794  1.00  0.00     0.000 C 
BRANCH   3   4
ATOM      4  C   UNL     1       2.890  13.244  17.802  1.00  0.00     0.000 C 
BRANCH   4   5
ATOM      5  C   UNL     1       2.033  14.316  18.502  1.00  0.00     0.000 C 
BRANCH   5   6
ATOM      6  C   UNL     1       1.252  15.253  17.559  1.00  0.00     0.000 C 
BRANCH   6   7
ATOM      7  C   UNL     1       0.159  16.104  18.235  1.00  0.00     0.006 C 
BRANCH   7   8
ATOM      8  C   UNL     1       0.543  17.577  18.448  1.00  0.00     0.053 C 
BRANCH   8   9
ATOM      9  C   UNL     1      -0.660  18.439  18.678  1.00  0.00     0.041 C 
ATOM     10  O   UNL     1      -1.426  18.213  19.652  1.00  0.00    -0.550 OA
ATOM     11  O   UNL     1      -0.916  19.513  17.836  1.00  0.00    -0.550 OA
ENDBRANCH   8   9
ENDBRANCH   7   8
ENDBRANCH   6   7
ENDBRANCH   5   6
ENDBRANCH   4   5
ENDBRANCH   3   4
ENDBRANCH   2   3
ENDBRANCH   1   2
BRANCH   1  12
ATOM     12  C   UNL     1       4.381  10.302  16.358  1.00  0.00     0.000 C 
BRANCH  12  13
ATOM     13  C   UNL     1       3.104   9.445  16.328  1.00  0.00    -0.000 C 
BRANCH  13  14
ATOM     14  C   UNL     1       2.370   9.421  17.680  1.00  0.00    -0.000 C 
BRANCH  14  15
ATOM     15  C   UNL     1       1.241   8.375  17.800  1.00  0.00    -0.000 C 
BRANCH  15  16
ATOM     16  C   UNL     1       1.481   7.056  17.037  1.00  0.00    -0.000 C 
BRANCH  16  17
ATOM     17  C   UNL     1       0.704   5.848  17.611  1.00  0.00    -0.000 C 
BRANCH  17  18
ATOM     18  C   UNL     1       0.517   5.903  19.138  1.00  0.00    -0.000 C 
BRANCH  18  19
ATOM     19  C   UNL     1       0.741   4.563  19.858  1.00  0.00    -0.003 C 
ATOM     20  C   UNL     1       2.135   3.983  19.618  1.00  0.00     0.004 C 
ENDBRANCH  18  19
ENDBRANCH  17  18
ENDBRANCH  16  17
ENDBRANCH  15  16
ENDBRANCH  14  15
ENDBRANCH  13  14
ENDBRANCH  12  13
ENDBRANCH   1  12
TORSDOF 16
ENDMDL
