MODEL 1
REMARK VINA RESULT:    -6.292      0.000      0.000
REMARK INTER + INTRA:          -7.241
REMARK INTER:                  -7.028
REMARK INTRA:                  -0.213
REMARK UNBOUND:                -0.213
REMARK SMILES CC(C)c1ccc(C(=O)[O-])cc1
REMARK SMILES IDX 7 1 6 2 11 3 5 4 12 5 4 6 8 7 9 8 10 9 2 10 1 11 3 12
REMARK H PARENT
REMARK Flexibility Score: inf
ROOT
ATOM      1  C   UNL     1      35.333  43.557  47.195  1.00  0.00    -0.003 A 
ATOM      2  C   UNL     1      35.084  43.725  48.568  1.00  0.00     0.010 A 
ATOM      3  C   UNL     1      36.481  42.854  46.793  1.00  0.00     0.010 A 
ATOM      4  C   UNL     1      35.964  43.200  49.518  1.00  0.00     0.004 A 
ATOM      5  C   UNL     1      37.362  42.329  47.743  1.00  0.00     0.004 A 
ATOM      6  C   UNL     1      37.113  42.496  49.116  1.00  0.00    -0.045 A 
ENDROOT
BRANCH   1   7
ATOM      7  C   UNL     1      34.399  44.114  46.192  1.00  0.00     0.071 C 
ATOM      8  O   UNL     1      33.157  44.114  46.403  1.00  0.00    -0.545 OA
ATOM      9  O   UNL     1      34.881  44.648  45.002  1.00  0.00    -0.545 OA
ENDBRANCH   1   7
BRANCH   6  10
ATOM     10  C   UNL     1      38.078  41.921  50.138  1.00  0.00     0.013 C 
ATOM     11  C   UNL     1      39.109  41.004  49.468  1.00  0.00     0.012 C 
ATOM     12  C   UNL     1      38.765  43.035  50.936  1.00  0.00     0.012 C 
ENDBRANCH   6  10
TORSDOF 2
ENDMDL
MODEL 2
REMARK VINA RESULT:    -6.259      0.081      1.400
REMARK INTER + INTRA:          -7.203
REMARK INTER:                  -6.991
REMARK INTRA:                  -0.212
REMARK UNBOUND:                -0.213
REMARK SMILES CC(C)c1ccc(C(=O)[O-])cc1
REMARK SMILES IDX 7 1 6 2 11 3 5 4 12 5 4 6 8 7 9 8 10 9 2 10 1 11 3 12
REMARK H PARENT
REMARK Flexibility Score: inf
ROOT
ATOM      1  C   UNL     1      35.315  43.524  47.269  1.00  0.00    -0.003 A 
ATOM      2  C   UNL     1      36.452  42.822  46.837  1.00  0.00     0.010 A 
ATOM      3  C   UNL     1      35.102  43.692  48.648  1.00  0.00     0.010 A 
ATOM      4  C   UNL     1      37.358  42.299  47.763  1.00  0.00     0.004 A 
ATOM      5  C   UNL     1      36.007  43.168  49.575  1.00  0.00     0.004 A 
ATOM      6  C   UNL     1      37.146  42.467  49.143  1.00  0.00    -0.045 A 
ENDROOT
BRANCH   1   7
ATOM      7  C   UNL     1      34.359  44.077  46.284  1.00  0.00     0.071 C 
ATOM      8  O   UNL     1      33.123  44.093  46.530  1.00  0.00    -0.545 OA
ATOM      9  O   UNL     1      34.811  44.587  45.073  1.00  0.00    -0.545 OA
ENDBRANCH   1   7
BRANCH   6  10
ATOM     10  C   UNL     1      38.121  41.903  50.161  1.00  0.00     0.013 C 
ATOM     11  C   UNL     1      39.152  40.988  49.490  1.00  0.00     0.012 C 
ATOM     12  C   UNL     1      38.808  43.026  50.947  1.00  0.00     0.012 C 
ENDBRANCH   6  10
TORSDOF 2
ENDMDL
MODEL 3
REMARK VINA RESULT:    -6.015      3.306      5.122
REMARK INTER + INTRA:          -6.931
REMARK INTER:                  -6.722
REMARK INTRA:                  -0.209
REMARK UNBOUND:                -0.213
REMARK SMILES CC(C)c1ccc(C(=O)[O-])cc1
REMARK SMILES IDX 7 1 6 2 11 3 5 4 12 5 4 6 8 7 9 8 10 9 2 10 1 11 3 12
REMARK H PARENT
REMARK Flexibility Score: inf
ROOT
ATOM      1  C   UNL     1      37.485  42.470  49.703  1.00  0.00    -0.003 A 
ATOM      2  C   UNL     1      36.253  43.035  50.073  1.00  0.00     0.010 A 
ATOM      3  C   UNL     1      37.749  42.245  48.341  1.00  0.00     0.010 A 
ATOM      4  C   UNL     1      35.305  43.369  49.102  1.00  0.00     0.004 A 
ATOM      5  C   UNL     1      36.800  42.578  47.370  1.00  0.00     0.004 A 
ATOM      6  C   UNL     1      35.568  43.144  47.739  1.00  0.00    -0.045 A 
ENDROOT
BRANCH   1   7
ATOM      7  C   UNL     1      38.486  42.118  50.734  1.00  0.00     0.071 C 
ATOM      8  O   UNL     1      39.285  42.987  51.176  1.00  0.00    -0.545 OA
ATOM      9  O   UNL     1      38.559  40.821  51.231  1.00  0.00    -0.545 OA
ENDBRANCH   1   7
BRANCH   6  10
ATOM     10  C   UNL     1      34.548  43.501  46.673  1.00  0.00     0.013 C 
ATOM     11  C   UNL     1      33.295  44.127  47.297  1.00  0.00     0.012 C 
ATOM     12  C   UNL     1      35.158  44.425  45.613  1.00  0.00     0.012 C 
ENDBRANCH   6  10
TORSDOF 2
ENDMDL
MODEL 4
REMARK VINA RESULT:    -6.008      3.311      5.311
REMARK INTER + INTRA:          -6.923
REMARK INTER:                  -6.713
REMARK INTRA:                  -0.210
REMARK UNBOUND:                -0.213
REMARK SMILES CC(C)c1ccc(C(=O)[O-])cc1
REMARK SMILES IDX 7 1 6 2 11 3 5 4 12 5 4 6 8 7 9 8 10 9 2 10 1 11 3 12
REMARK H PARENT
REMARK Flexibility Score: inf
ROOT
ATOM      1  C   UNL     1      37.461  42.450  49.720  1.00  0.00    -0.003 A 
ATOM      2  C   UNL     1      37.726  42.235  48.358  1.00  0.00     0.010 A 
ATOM      3  C   UNL     1      36.224  43.003  50.094  1.00  0.00     0.010 A 
ATOM      4  C   UNL     1      36.775  42.566  47.389  1.00  0.00     0.004 A 
ATOM      5  C   UNL     1      35.273  43.335  49.125  1.00  0.00     0.004 A 
ATOM      6  C   UNL     1      35.537  43.119  47.762  1.00  0.00    -0.045 A 
ENDROOT
BRANCH   1   7
ATOM      7  C   UNL     1      38.471  42.098  50.743  1.00  0.00     0.071 C 
ATOM      8  O   UNL     1      39.261  42.972  51.191  1.00  0.00    -0.545 OA
ATOM      9  O   UNL     1      38.561  40.797  51.225  1.00  0.00    -0.545 OA
ENDBRANCH   1   7
BRANCH   6  10
ATOM     10  C   UNL     1      34.495  43.484  46.720  1.00  0.00     0.013 C 
ATOM     11  C   UNL     1      33.254  44.104  47.374  1.00  0.00     0.012 C 
ATOM     12  C   UNL     1      35.083  44.417  45.655  1.00  0.00     0.012 C 
ENDBRANCH   6  10
TORSDOF 2
ENDMDL
MODEL 5
REMARK VINA RESULT:    -5.911      3.321      5.175
REMARK INTER + INTRA:          -6.815
REMARK INTER:                  -6.608
REMARK INTRA:                  -0.207
REMARK UNBOUND:                -0.213
REMARK SMILES CC(C)c1ccc(C(=O)[O-])cc1
REMARK SMILES IDX 7 1 6 2 11 3 5 4 12 5 4 6 8 7 9 8 10 9 2 10 1 11 3 12
REMARK H PARENT
REMARK Flexibility Score: inf
ROOT
ATOM      1  C   UNL     1      37.329  42.527  49.473  1.00  0.00    -0.003 A 
ATOM      2  C   UNL     1      37.358  42.292  48.088  1.00  0.00     0.010 A 
ATOM      3  C   UNL     1      36.123  42.935  50.069  1.00  0.00     0.010 A 
ATOM      4  C   UNL     1      36.205  42.459  47.316  1.00  0.00     0.004 A 
ATOM      5  C   UNL     1      34.971  43.103  49.297  1.00  0.00     0.004 A 
ATOM      6  C   UNL     1      34.999  42.867  47.912  1.00  0.00    -0.045 A 
ENDROOT
BRANCH   1   7
ATOM      7  C   UNL     1      38.552  42.349  50.287  1.00  0.00     0.071 C 
ATOM      8  O   UNL     1      38.896  43.223  51.127  1.00  0.00    -0.545 OA
ATOM      9  O   UNL     1      39.338  41.212  50.137  1.00  0.00    -0.545 OA
ENDBRANCH   1   7
BRANCH   6  10
ATOM     10  C   UNL     1      33.739  43.053  47.085  1.00  0.00     0.013 C 
ATOM     11  C   UNL     1      32.873  41.788  47.105  1.00  0.00     0.012 C 
ATOM     12  C   UNL     1      32.944  44.275  47.559  1.00  0.00     0.012 C 
ENDBRANCH   6  10
TORSDOF 2
ENDMDL
MODEL 6
REMARK VINA RESULT:    -5.858      2.313      3.884
REMARK INTER + INTRA:          -6.756
REMARK INTER:                  -6.541
REMARK INTRA:                  -0.215
REMARK UNBOUND:                -0.213
REMARK SMILES CC(C)c1ccc(C(=O)[O-])cc1
REMARK SMILES IDX 7 1 6 2 11 3 5 4 12 5 4 6 8 7 9 8 10 9 2 10 1 11 3 12
REMARK H PARENT
REMARK Flexibility Score: inf
ROOT
ATOM      1  C   UNL     1      33.371  44.489  44.588  1.00  0.00    -0.003 A 
ATOM      2  C   UNL     1      34.745  44.712  44.779  1.00  0.00     0.010 A 
ATOM      3  C   UNL     1      32.618  43.942  45.640  1.00  0.00     0.010 A 
ATOM      4  C   UNL     1      35.353  44.397  45.998  1.00  0.00     0.004 A 
ATOM      5  C   UNL     1      33.225  43.625  46.859  1.00  0.00     0.004 A 
ATOM      6  C   UNL     1      34.599  43.850  47.051  1.00  0.00    -0.045 A 
ENDROOT
BRANCH   1   7
ATOM      7  C   UNL     1      32.732  44.825  43.296  1.00  0.00     0.071 C 
ATOM      8  O   UNL     1      31.893  44.043  42.774  1.00  0.00    -0.545 OA
ATOM      9  O   UNL     1      33.048  46.009  42.641  1.00  0.00    -0.545 OA
ENDBRANCH   1   7
BRANCH   6  10
ATOM     10  C   UNL     1      35.246  43.502  48.380  1.00  0.00     0.013 C 
ATOM     11  C   UNL     1      34.253  42.792  49.308  1.00  0.00     0.012 C 
ATOM     12  C   UNL     1      36.510  42.658  48.174  1.00  0.00     0.012 C 
ENDBRANCH   6  10
TORSDOF 2
ENDMDL
MODEL 7
REMARK VINA RESULT:    -5.653      2.666      5.577
REMARK INTER + INTRA:          -6.526
REMARK INTER:                  -6.311
REMARK INTRA:                  -0.215
REMARK UNBOUND:                -0.213
REMARK SMILES CC(C)c1ccc(C(=O)[O-])cc1
REMARK SMILES IDX 7 1 6 2 11 3 5 4 12 5 4 6 8 7 9 8 10 9 2 10 1 11 3 12
REMARK H PARENT
REMARK Flexibility Score: inf
ROOT
ATOM      1  C   UNL     1      35.609  43.120  47.572  1.00  0.00    -0.003 A 
ATOM      2  C   UNL     1      34.323  42.616  47.828  1.00  0.00     0.010 A 
ATOM      3  C   UNL     1      35.789  44.017  46.505  1.00  0.00     0.010 A 
ATOM      4  C   UNL     1      33.239  43.002  47.034  1.00  0.00     0.004 A 
ATOM      5  C   UNL     1      34.705  44.402  45.711  1.00  0.00     0.004 A 
ATOM      6  C   UNL     1      33.418  43.899  45.967  1.00  0.00    -0.045 A 
ENDROOT
BRANCH   1   7
ATOM      7  C   UNL     1      36.754  42.709  48.414  1.00  0.00     0.071 C 
ATOM      8  O   UNL     1      37.817  42.284  47.889  1.00  0.00    -0.545 OA
ATOM      9  O   UNL     1      36.673  42.789  49.800  1.00  0.00    -0.545 OA
ENDBRANCH   1   7
BRANCH   6  10
ATOM     10  C   UNL     1      32.250  44.326  45.097  1.00  0.00     0.013 C 
ATOM     11  C   UNL     1      32.680  44.483  43.633  1.00  0.00     0.012 C 
ATOM     12  C   UNL     1      31.078  43.346  45.226  1.00  0.00     0.012 C 
ENDBRANCH   6  10
TORSDOF 2
ENDMDL
MODEL 8
REMARK VINA RESULT:    -5.491      3.027      6.160
REMARK INTER + INTRA:          -6.345
REMARK INTER:                  -6.131
REMARK INTRA:                  -0.214
REMARK UNBOUND:                -0.213
REMARK SMILES CC(C)c1ccc(C(=O)[O-])cc1
REMARK SMILES IDX 7 1 6 2 11 3 5 4 12 5 4 6 8 7 9 8 10 9 2 10 1 11 3 12
REMARK H PARENT
REMARK Flexibility Score: inf
ROOT
ATOM      1  C   UNL     1      34.318  43.404  47.160  1.00  0.00    -0.003 A 
ATOM      2  C   UNL     1      35.175  43.963  46.198  1.00  0.00     0.010 A 
ATOM      3  C   UNL     1      32.932  43.417  46.926  1.00  0.00     0.010 A 
ATOM      4  C   UNL     1      34.659  44.522  45.026  1.00  0.00     0.004 A 
ATOM      5  C   UNL     1      32.415  43.978  45.755  1.00  0.00     0.004 A 
ATOM      6  C   UNL     1      33.273  44.535  44.791  1.00  0.00    -0.045 A 
ENDROOT
BRANCH   1   7
ATOM      7  C   UNL     1      34.868  42.813  48.400  1.00  0.00     0.071 C 
ATOM      8  O   UNL     1      36.107  42.615  48.521  1.00  0.00    -0.545 OA
ATOM      9  O   UNL     1      34.025  42.467  49.449  1.00  0.00    -0.545 OA
ENDBRANCH   1   7
BRANCH   6  10
ATOM     10  C   UNL     1      32.698  45.140  43.523  1.00  0.00     0.013 C 
ATOM     11  C   UNL     1      33.747  45.982  42.788  1.00  0.00     0.012 C 
ATOM     12  C   UNL     1      32.119  44.055  42.607  1.00  0.00     0.012 C 
ENDBRANCH   6  10
TORSDOF 2
ENDMDL
MODEL 9
REMARK VINA RESULT:    -5.461      3.145      5.726
REMARK INTER + INTRA:          -6.312
REMARK INTER:                  -6.102
REMARK INTRA:                  -0.211
REMARK UNBOUND:                -0.213
REMARK SMILES CC(C)c1ccc(C(=O)[O-])cc1
REMARK SMILES IDX 7 1 6 2 11 3 5 4 12 5 4 6 8 7 9 8 10 9 2 10 1 11 3 12
REMARK H PARENT
REMARK Flexibility Score: inf
ROOT
ATOM      1  C   UNL     1      34.623  44.056  47.667  1.00  0.00    -0.003 A 
ATOM      2  C   UNL     1      33.286  43.904  47.263  1.00  0.00     0.010 A 
ATOM      3  C   UNL     1      35.590  44.397  46.706  1.00  0.00     0.010 A 
ATOM      4  C   UNL     1      32.923  44.090  45.927  1.00  0.00     0.004 A 
ATOM      5  C   UNL     1      35.227  44.582  45.369  1.00  0.00     0.004 A 
ATOM      6  C   UNL     1      33.889  44.432  44.965  1.00  0.00    -0.045 A 
ENDROOT
BRANCH   1   7
ATOM      7  C   UNL     1      35.003  43.858  49.083  1.00  0.00     0.071 C 
ATOM      8  O   UNL     1      34.473  44.550  49.993  1.00  0.00    -0.545 OA
ATOM      9  O   UNL     1      35.953  42.903  49.430  1.00  0.00    -0.545 OA
ENDBRANCH   1   7
BRANCH   6  10
ATOM     10  C   UNL     1      33.510  44.637  43.509  1.00  0.00     0.013 C 
ATOM     11  C   UNL     1      32.016  44.370  43.285  1.00  0.00     0.012 C 
ATOM     12  C   UNL     1      33.898  46.040  43.029  1.00  0.00     0.012 C 
ENDBRANCH   6  10
TORSDOF 2
ENDMDL
