MODEL 1
REMARK VINA RESULT:    -5.223      0.000      0.000
REMARK INTER + INTRA:          -8.043
REMARK INTER:                  -7.665
REMARK INTRA:                  -0.377
REMARK UNBOUND:                -0.377
REMARK SMILES O=C([O-])CCCCCCCC(=O)[O-]
REMARK SMILES IDX 7 1 6 2 5 3 4 4 2 5 1 6 3 7 8 8 9 9 10 10 11 11 12 12 13 13
REMARK H PARENT
REMARK Flexibility Score: inf
ROOT
ATOM      1  C   UNL     1      12.432  22.829  -0.198  1.00  0.00     0.000 C 
ENDROOT
BRANCH   1   2
ATOM      2  C   UNL     1      11.663  22.168  -1.352  1.00  0.00     0.000 C 
BRANCH   2   3
ATOM      3  C   UNL     1      12.274  20.810  -1.714  1.00  0.00     0.006 C 
BRANCH   3   4
ATOM      4  C   UNL     1      11.702  20.282  -3.032  1.00  0.00     0.053 C 
BRANCH   4   5
ATOM      5  C   UNL     1      12.668  20.507  -4.152  1.00  0.00     0.041 C 
ATOM      6  O   UNL     1      13.336  19.546  -4.614  1.00  0.00    -0.550 OA
ATOM      7  O   UNL     1      12.868  21.788  -4.651  1.00  0.00    -0.550 OA
ENDBRANCH   4   5
ENDBRANCH   3   4
ENDBRANCH   2   3
ENDBRANCH   1   2
BRANCH   1   8
ATOM      8  C   UNL     1      13.730  22.084   0.164  1.00  0.00     0.000 C 
BRANCH   8   9
ATOM      9  C   UNL     1      15.028  22.811  -0.230  1.00  0.00     0.006 C 
BRANCH   9  10
ATOM     10  C   UNL     1      15.085  23.168  -1.720  1.00  0.00     0.053 C 
BRANCH  10  11
ATOM     11  C   UNL     1      14.568  24.554  -1.946  1.00  0.00     0.041 C 
ATOM     12  O   UNL     1      14.931  25.495  -1.193  1.00  0.00    -0.550 OA
ATOM     13  O   UNL     1      13.725  24.816  -3.018  1.00  0.00    -0.550 OA
ENDBRANCH  10  11
ENDBRANCH   9  10
ENDBRANCH   8   9
ENDBRANCH   1   8
TORSDOF 8
ENDMDL
MODEL 2
REMARK VINA RESULT:    -5.100      0.632      4.488
REMARK INTER + INTRA:          -7.862
REMARK INTER:                  -7.301
REMARK INTRA:                  -0.562
REMARK UNBOUND:                -0.377
REMARK SMILES O=C([O-])CCCCCCCC(=O)[O-]
REMARK SMILES IDX 7 1 6 2 5 3 4 4 2 5 1 6 3 7 8 8 9 9 10 10 11 11 12 12 13 13
REMARK H PARENT
REMARK Flexibility Score: inf
ROOT
ATOM      1  C   UNL     1      12.936  20.950  -0.685  1.00  0.00     0.000 C 
ENDROOT
BRANCH   1   2
ATOM      2  C   UNL     1      13.304  22.262   0.023  1.00  0.00     0.000 C 
BRANCH   2   3
ATOM      3  C   UNL     1      14.774  22.624  -0.218  1.00  0.00     0.006 C 
BRANCH   3   4
ATOM      4  C   UNL     1      15.013  23.013  -1.680  1.00  0.00     0.053 C 
BRANCH   4   5
ATOM      5  C   UNL     1      14.400  24.345  -1.975  1.00  0.00     0.041 C 
ATOM      6  O   UNL     1      14.783  25.370  -1.353  1.00  0.00    -0.550 OA
ATOM      7  O   UNL     1      13.370  24.447  -2.901  1.00  0.00    -0.550 OA
ENDBRANCH   4   5
ENDBRANCH   3   4
ENDBRANCH   2   3
ENDBRANCH   1   2
BRANCH   1   8
ATOM      8  C   UNL     1      11.845  21.131  -1.757  1.00  0.00     0.000 C 
BRANCH   8   9
ATOM      9  C   UNL     1      11.458  19.847  -2.512  1.00  0.00     0.006 C 
BRANCH   9  10
ATOM     10  C   UNL     1      11.542  20.001  -4.036  1.00  0.00     0.053 C 
BRANCH  10  11
ATOM     11  C   UNL     1      12.849  20.615  -4.428  1.00  0.00     0.041 C 
ATOM     12  O   UNL     1      13.925  19.991  -4.233  1.00  0.00    -0.550 OA
ATOM     13  O   UNL     1      12.875  21.854  -5.054  1.00  0.00    -0.550 OA
ENDBRANCH  10  11
ENDBRANCH   9  10
ENDBRANCH   8   9
ENDBRANCH   1   8
TORSDOF 8
ENDMDL
MODEL 3
REMARK VINA RESULT:    -5.020      1.291      1.745
REMARK INTER + INTRA:          -7.746
REMARK INTER:                  -7.280
REMARK INTRA:                  -0.466
REMARK UNBOUND:                -0.377
REMARK SMILES O=C([O-])CCCCCCCC(=O)[O-]
REMARK SMILES IDX 7 1 6 2 5 3 4 4 2 5 1 6 3 7 8 8 9 9 10 10 11 11 12 12 13 13
REMARK H PARENT
REMARK Flexibility Score: inf
ROOT
ATOM      1  C   UNL     1      13.289  22.355  -0.091  1.00  0.00     0.000 C 
ENDROOT
BRANCH   1   2
ATOM      2  C   UNL     1      12.988  21.047  -0.837  1.00  0.00     0.000 C 
BRANCH   2   3
ATOM      3  C   UNL     1      11.839  21.234  -1.834  1.00  0.00     0.006 C 
BRANCH   3   4
ATOM      4  C   UNL     1      11.515  19.922  -2.553  1.00  0.00     0.053 C 
BRANCH   4   5
ATOM      5  C   UNL     1      11.981  19.973  -3.974  1.00  0.00     0.041 C 
ATOM      6  O   UNL     1      11.163  19.806  -4.915  1.00  0.00    -0.550 OA
ATOM      7  O   UNL     1      13.329  20.156  -4.258  1.00  0.00    -0.550 OA
ENDBRANCH   4   5
ENDBRANCH   3   4
ENDBRANCH   2   3
ENDBRANCH   1   2
BRANCH   1   8
ATOM      8  C   UNL     1      14.745  22.825  -0.265  1.00  0.00     0.000 C 
BRANCH   8   9
ATOM      9  C   UNL     1      15.034  23.571  -1.580  1.00  0.00     0.006 C 
BRANCH   9  10
ATOM     10  C   UNL     1      14.080  24.747  -1.823  1.00  0.00     0.053 C 
BRANCH  10  11
ATOM     11  C   UNL     1      13.329  24.554  -3.103  1.00  0.00     0.041 C 
ATOM     12  O   UNL     1      13.252  23.411  -3.625  1.00  0.00    -0.550 OA
ATOM     13  O   UNL     1      12.672  25.626  -3.692  1.00  0.00    -0.550 OA
ENDBRANCH  10  11
ENDBRANCH   9  10
ENDBRANCH   8   9
ENDBRANCH   1   8
TORSDOF 8
ENDMDL
MODEL 4
REMARK VINA RESULT:    -4.969      1.517      4.598
REMARK INTER + INTRA:          -7.671
REMARK INTER:                  -7.132
REMARK INTRA:                  -0.539
REMARK UNBOUND:                -0.377
REMARK SMILES O=C([O-])CCCCCCCC(=O)[O-]
REMARK SMILES IDX 7 1 6 2 5 3 4 4 2 5 1 6 3 7 8 8 9 9 10 10 11 11 12 12 13 13
REMARK H PARENT
REMARK Flexibility Score: inf
ROOT
ATOM      1  C   UNL     1      11.532  21.964  -1.542  1.00  0.00     0.000 C 
ENDROOT
BRANCH   1   2
ATOM      2  C   UNL     1      12.369  23.133  -1.001  1.00  0.00     0.000 C 
BRANCH   2   3
ATOM      3  C   UNL     1      13.137  23.829  -2.129  1.00  0.00     0.006 C 
BRANCH   3   4
ATOM      4  C   UNL     1      14.568  24.162  -1.698  1.00  0.00     0.053 C 
BRANCH   4   5
ATOM      5  C   UNL     1      15.241  22.952  -1.133  1.00  0.00     0.041 C 
ATOM      6  O   UNL     1      15.685  22.966   0.045  1.00  0.00    -0.550 OA
ATOM      7  O   UNL     1      15.423  21.824  -1.923  1.00  0.00    -0.550 OA
ENDBRANCH   4   5
ENDBRANCH   3   4
ENDBRANCH   2   3
ENDBRANCH   1   2
BRANCH   1   8
ATOM      8  C   UNL     1      12.324  20.645  -1.623  1.00  0.00     0.000 C 
BRANCH   8   9
ATOM      9  C   UNL     1      11.634  19.521  -2.417  1.00  0.00     0.006 C 
BRANCH   9  10
ATOM     10  C   UNL     1      11.481  19.847  -3.908  1.00  0.00     0.053 C 
BRANCH  10  11
ATOM     11  C   UNL     1      12.812  20.163  -4.512  1.00  0.00     0.041 C 
ATOM     12  O   UNL     1      13.669  19.254  -4.667  1.00  0.00    -0.550 OA
ATOM     13  O   UNL     1      13.088  21.452  -4.951  1.00  0.00    -0.550 OA
ENDBRANCH  10  11
ENDBRANCH   9  10
ENDBRANCH   8   9
ENDBRANCH   1   8
TORSDOF 8
ENDMDL
MODEL 5
REMARK VINA RESULT:    -4.918      1.312      1.916
REMARK INTER + INTRA:          -7.595
REMARK INTER:                  -7.136
REMARK INTRA:                  -0.459
REMARK UNBOUND:                -0.377
REMARK SMILES O=C([O-])CCCCCCCC(=O)[O-]
REMARK SMILES IDX 7 1 6 2 5 3 4 4 2 5 1 6 3 7 8 8 9 9 10 10 11 11 12 12 13 13
REMARK H PARENT
REMARK Flexibility Score: inf
ROOT
ATOM      1  C   UNL     1      11.605  21.868  -1.734  1.00  0.00     0.000 C 
ENDROOT
BRANCH   1   2
ATOM      2  C   UNL     1      12.251  20.478  -1.848  1.00  0.00     0.000 C 
BRANCH   2   3
ATOM      3  C   UNL     1      11.323  19.499  -2.575  1.00  0.00     0.006 C 
BRANCH   3   4
ATOM      4  C   UNL     1      11.337  19.745  -4.086  1.00  0.00     0.053 C 
BRANCH   4   5
ATOM      5  C   UNL     1      12.741  19.881  -4.582  1.00  0.00     0.041 C 
ATOM      6  O   UNL     1      13.513  18.886  -4.579  1.00  0.00    -0.550 OA
ATOM      7  O   UNL     1      13.215  21.117  -5.003  1.00  0.00    -0.550 OA
ENDBRANCH   4   5
ENDBRANCH   3   4
ENDBRANCH   2   3
ENDBRANCH   1   2
BRANCH   1   8
ATOM      8  C   UNL     1      12.228  22.731  -0.622  1.00  0.00     0.000 C 
BRANCH   8   9
ATOM      9  C   UNL     1      13.308  22.027   0.219  1.00  0.00     0.006 C 
BRANCH   9  10
ATOM     10  C   UNL     1      14.674  22.719   0.140  1.00  0.00     0.053 C 
BRANCH  10  11
ATOM     11  C   UNL     1      15.146  22.783  -1.278  1.00  0.00     0.041 C 
ATOM     12  O   UNL     1      15.475  21.730  -1.884  1.00  0.00    -0.550 OA
ATOM     13  O   UNL     1      15.176  24.000  -1.946  1.00  0.00    -0.550 OA
ENDBRANCH  10  11
ENDBRANCH   9  10
ENDBRANCH   8   9
ENDBRANCH   1   8
TORSDOF 8
ENDMDL
MODEL 6
REMARK VINA RESULT:    -4.910      1.485      2.104
REMARK INTER + INTRA:          -7.583
REMARK INTER:                  -7.201
REMARK INTRA:                  -0.382
REMARK UNBOUND:                -0.377
REMARK SMILES O=C([O-])CCCCCCCC(=O)[O-]
REMARK SMILES IDX 7 1 6 2 5 3 4 4 2 5 1 6 3 7 8 8 9 9 10 10 11 11 12 12 13 13
REMARK H PARENT
REMARK Flexibility Score: inf
ROOT
ATOM      1  C   UNL     1      11.595  21.970  -1.383  1.00  0.00     0.000 C 
ENDROOT
BRANCH   1   2
ATOM      2  C   UNL     1      12.461  20.706  -1.492  1.00  0.00     0.000 C 
BRANCH   2   3
ATOM      3  C   UNL     1      11.714  19.590  -2.229  1.00  0.00     0.006 C 
BRANCH   3   4
ATOM      4  C   UNL     1      11.458  19.970  -3.691  1.00  0.00     0.053 C 
BRANCH   4   5
ATOM      5  C   UNL     1      12.745  20.283  -4.385  1.00  0.00     0.041 C 
ATOM      6  O   UNL     1      12.950  21.435  -4.850  1.00  0.00    -0.550 OA
ATOM      7  O   UNL     1      13.700  19.290  -4.563  1.00  0.00    -0.550 OA
ENDBRANCH   4   5
ENDBRANCH   3   4
ENDBRANCH   2   3
ENDBRANCH   1   2
BRANCH   1   8
ATOM      8  C   UNL     1      12.395  23.210  -0.943  1.00  0.00     0.000 C 
BRANCH   8   9
ATOM      9  C   UNL     1      13.136  23.942  -2.076  1.00  0.00     0.006 C 
BRANCH   9  10
ATOM     10  C   UNL     1      14.606  24.226  -1.745  1.00  0.00     0.053 C 
BRANCH  10  11
ATOM     11  C   UNL     1      15.235  23.035  -1.095  1.00  0.00     0.041 C 
ATOM     12  O   UNL     1      15.542  23.067   0.126  1.00  0.00    -0.550 OA
ATOM     13  O   UNL     1      15.436  21.870  -1.824  1.00  0.00    -0.550 OA
ENDBRANCH  10  11
ENDBRANCH   9  10
ENDBRANCH   8   9
ENDBRANCH   1   8
TORSDOF 8
ENDMDL
MODEL 7
REMARK VINA RESULT:    -4.666      1.994      2.936
REMARK INTER + INTRA:          -7.226
REMARK INTER:                  -6.845
REMARK INTRA:                  -0.381
REMARK UNBOUND:                -0.377
REMARK SMILES O=C([O-])CCCCCCCC(=O)[O-]
REMARK SMILES IDX 7 1 6 2 5 3 4 4 2 5 1 6 3 7 8 8 9 9 10 10 11 11 12 12 13 13
REMARK H PARENT
REMARK Flexibility Score: inf
ROOT
ATOM      1  C   UNL     1      12.823  22.545  -2.920  1.00  0.00     0.000 C 
ENDROOT
BRANCH   1   2
ATOM      2  C   UNL     1      13.463  21.307  -3.566  1.00  0.00     0.000 C 
BRANCH   2   3
ATOM      3  C   UNL     1      12.677  20.864  -4.805  1.00  0.00     0.006 C 
BRANCH   3   4
ATOM      4  C   UNL     1      12.368  19.365  -4.754  1.00  0.00     0.053 C 
BRANCH   4   5
ATOM      5  C   UNL     1      10.988  19.131  -4.227  1.00  0.00     0.041 C 
ATOM      6  O   UNL     1      10.777  19.119  -2.985  1.00  0.00    -0.550 OA
ATOM      7  O   UNL     1       9.941  18.877  -5.104  1.00  0.00    -0.550 OA
ENDBRANCH   4   5
ENDBRANCH   3   4
ENDBRANCH   2   3
ENDBRANCH   1   2
BRANCH   1   8
ATOM      8  C   UNL     1      12.020  22.212  -1.649  1.00  0.00     0.000 C 
BRANCH   8   9
ATOM      9  C   UNL     1      12.496  22.930  -0.374  1.00  0.00     0.006 C 
BRANCH   9  10
ATOM     10  C   UNL     1      13.647  22.199   0.329  1.00  0.00     0.053 C 
BRANCH  10  11
ATOM     11  C   UNL     1      14.958  22.585  -0.277  1.00  0.00     0.041 C 
ATOM     12  O   UNL     1      15.894  21.746  -0.348  1.00  0.00    -0.550 OA
ATOM     13  O   UNL     1      15.131  23.856  -0.810  1.00  0.00    -0.550 OA
ENDBRANCH  10  11
ENDBRANCH   9  10
ENDBRANCH   8   9
ENDBRANCH   1   8
TORSDOF 8
ENDMDL
MODEL 8
REMARK VINA RESULT:    -4.604      1.947      4.964
REMARK INTER + INTRA:          -7.135
REMARK INTER:                  -6.639
REMARK INTRA:                  -0.496
REMARK UNBOUND:                -0.377
REMARK SMILES O=C([O-])CCCCCCCC(=O)[O-]
REMARK SMILES IDX 7 1 6 2 5 3 4 4 2 5 1 6 3 7 8 8 9 9 10 10 11 11 12 12 13 13
REMARK H PARENT
REMARK Flexibility Score: inf
ROOT
ATOM      1  C   UNL     1      12.833  23.050  -2.774  1.00  0.00     0.000 C 
ENDROOT
BRANCH   1   2
ATOM      2  C   UNL     1      11.953  22.591  -1.602  1.00  0.00     0.000 C 
BRANCH   2   3
ATOM      3  C   UNL     1      12.602  22.937  -0.258  1.00  0.00     0.006 C 
BRANCH   3   4
ATOM      4  C   UNL     1      13.679  21.914   0.114  1.00  0.00     0.053 C 
BRANCH   4   5
ATOM      5  C   UNL     1      15.034  22.411  -0.278  1.00  0.00     0.041 C 
ATOM      6  O   UNL     1      16.007  21.616  -0.340  1.00  0.00    -0.550 OA
ATOM      7  O   UNL     1      15.233  23.764  -0.527  1.00  0.00    -0.550 OA
ENDBRANCH   4   5
ENDBRANCH   3   4
ENDBRANCH   2   3
ENDBRANCH   1   2
BRANCH   1   8
ATOM      8  C   UNL     1      12.956  21.990  -3.885  1.00  0.00     0.000 C 
BRANCH   8   9
ATOM      9  C   UNL     1      13.482  20.620  -3.420  1.00  0.00     0.006 C 
BRANCH   9  10
ATOM     10  C   UNL     1      12.861  19.448  -4.191  1.00  0.00     0.053 C 
BRANCH  10  11
ATOM     11  C   UNL     1      11.394  19.358  -3.912  1.00  0.00     0.041 C 
ATOM     12  O   UNL     1      10.577  19.222  -4.860  1.00  0.00    -0.550 OA
ATOM     13  O   UNL     1      10.933  19.374  -2.602  1.00  0.00    -0.550 OA
ENDBRANCH  10  11
ENDBRANCH   9  10
ENDBRANCH   8   9
ENDBRANCH   1   8
TORSDOF 8
ENDMDL
MODEL 9
REMARK VINA RESULT:    -4.213      1.485      4.372
REMARK INTER + INTRA:          -6.560
REMARK INTER:                  -5.991
REMARK INTRA:                  -0.570
REMARK UNBOUND:                -0.377
REMARK SMILES O=C([O-])CCCCCCCC(=O)[O-]
REMARK SMILES IDX 7 1 6 2 5 3 4 4 2 5 1 6 3 7 8 8 9 9 10 10 11 11 12 12 13 13
REMARK H PARENT
REMARK Flexibility Score: inf
ROOT
ATOM      1  C   UNL     1      13.599  22.643  -0.539  1.00  0.00     0.000 C 
ENDROOT
BRANCH   1   2
ATOM      2  C   UNL     1      14.915  23.174  -1.125  1.00  0.00     0.000 C 
BRANCH   2   3
ATOM      3  C   UNL     1      14.734  24.584  -1.696  1.00  0.00     0.006 C 
BRANCH   3   4
ATOM      4  C   UNL     1      13.275  24.836  -2.089  1.00  0.00     0.053 C 
BRANCH   4   5
ATOM      5  C   UNL     1      13.103  24.715  -3.571  1.00  0.00     0.041 C 
ATOM      6  O   UNL     1      12.791  25.724  -4.256  1.00  0.00    -0.550 OA
ATOM      7  O   UNL     1      13.237  23.479  -4.189  1.00  0.00    -0.550 OA
ENDBRANCH   4   5
ENDBRANCH   3   4
ENDBRANCH   2   3
ENDBRANCH   1   2
BRANCH   1   8
ATOM      8  C   UNL     1      13.627  21.126  -0.273  1.00  0.00     0.000 C 
BRANCH   8   9
ATOM      9  C   UNL     1      12.566  20.313  -1.035  1.00  0.00     0.006 C 
BRANCH   9  10
ATOM     10  C   UNL     1      12.010  21.052  -2.259  1.00  0.00     0.053 C 
BRANCH  10  11
ATOM     11  C   UNL     1      12.172  20.219  -3.491  1.00  0.00     0.041 C 
ATOM     12  O   UNL     1      13.301  20.109  -4.037  1.00  0.00    -0.550 OA
ATOM     13  O   UNL     1      11.087  19.523  -4.007  1.00  0.00    -0.550 OA
ENDBRANCH  10  11
ENDBRANCH   9  10
ENDBRANCH   8   9
ENDBRANCH   1   8
TORSDOF 8
ENDMDL
