MODEL 1
REMARK VINA RESULT:    22.693      0.000      0.000
REMARK INTER + INTRA:          26.406
REMARK INTER:                  26.673
REMARK INTRA:                  -0.267
REMARK UNBOUND:                -0.267
REMARK SMILES O=c1cc(-c2ccc(O)c(O)c2)oc2cc(O)cc(O)c12
REMARK SMILES IDX 4 1 3 2 2 3 1 4 21 5 19 6 18 7 16 8 15 9 14 10 13 11 5 12
REMARK SMILES IDX 6 13 7 14 8 15 12 16 10 17 9 18 11 20 20 22 17 24
REMARK H PARENT 9 19 11 21 20 23 17 25
REMARK Flexibility Score: inf
ROOT
ATOM      1  C   UNL     1      -6.242   7.221  16.100  1.00  0.00     0.138 A 
ATOM      2  C   UNL     1      -7.137   6.912  15.066  1.00  0.00     0.100 A 
ATOM      3  C   UNL     1      -7.388   5.577  14.745  1.00  0.00     0.197 A 
ATOM      4  O   UNL     1      -8.153   5.334  13.776  1.00  0.00    -0.289 OA
ATOM      5  C   UNL     1      -6.766   4.545  15.489  1.00  0.00     0.107 A 
ATOM      6  C   UNL     1      -6.972   3.149  15.275  1.00  0.00     0.134 A 
ATOM      7  C   UNL     1      -6.225   2.221  16.010  1.00  0.00     0.093 A 
ATOM      8  C   UNL     1      -5.323   2.635  16.990  1.00  0.00     0.123 A 
ATOM      9  C   UNL     1      -5.150   3.996  17.242  1.00  0.00     0.094 A 
ATOM     10  C   UNL     1      -5.855   4.948  16.502  1.00  0.00     0.146 A 
ATOM     11  O   UNL     1      -5.647   6.234  16.763  1.00  0.00    -0.456 OA
ENDROOT
BRANCH   1  12
ATOM     12  C   UNL     1      -5.941   8.623  16.485  1.00  0.00     0.021 A 
ATOM     13  C   UNL     1      -4.623   9.100  16.375  1.00  0.00     0.016 A 
ATOM     14  C   UNL     1      -4.313  10.417  16.723  1.00  0.00     0.051 A 
ATOM     15  C   UNL     1      -5.312  11.283  17.177  1.00  0.00     0.157 A 
ATOM     16  C   UNL     1      -6.947   9.502  16.930  1.00  0.00     0.062 A 
ATOM     17  C   UNL     1      -6.637  10.826  17.277  1.00  0.00     0.158 A 
BRANCH  15  18
ATOM     18  O   UNL     1      -4.972  12.591  17.518  1.00  0.00    -0.504 OA
ATOM     19  H   UNL     1      -4.465  13.198  16.885  1.00  0.00     0.293 HD
ENDBRANCH  15  18
BRANCH  17  20
ATOM     20  O   UNL     1      -7.639  11.688  17.719  1.00  0.00    -0.504 OA
ATOM     21  H   UNL     1      -7.495  12.310  18.506  1.00  0.00     0.293 HD
ENDBRANCH  17  20
ENDBRANCH   1  12
BRANCH   6  22
ATOM     22  O   UNL     1      -7.907   2.623  14.378  1.00  0.00    -0.507 OA
ATOM     23  H   UNL     1      -8.789   3.051  14.142  1.00  0.00     0.293 HD
ENDBRANCH   6  22
BRANCH   8  24
ATOM     24  O   UNL     1      -4.608   1.681  17.712  1.00  0.00    -0.508 OA
ATOM     25  H   UNL     1      -5.073   1.022  18.326  1.00  0.00     0.293 HD
ENDBRANCH   8  24
TORSDOF 5
ENDMDL
MODEL 2
REMARK VINA RESULT:    23.674      1.433      7.404
REMARK INTER + INTRA:          27.559
REMARK INTER:                  27.824
REMARK INTRA:                  -0.265
REMARK UNBOUND:                -0.267
REMARK SMILES O=c1cc(-c2ccc(O)c(O)c2)oc2cc(O)cc(O)c12
REMARK SMILES IDX 4 1 3 2 2 3 1 4 21 5 19 6 18 7 16 8 15 9 14 10 13 11 5 12
REMARK SMILES IDX 6 13 7 14 8 15 12 16 10 17 9 18 11 20 20 22 17 24
REMARK H PARENT 9 19 11 21 20 23 17 25
REMARK Flexibility Score: inf
ROOT
ATOM      1  C   UNL     1      -6.018   7.893  16.512  1.00  0.00     0.138 A 
ATOM      2  C   UNL     1      -4.774   8.514  16.334  1.00  0.00     0.100 A 
ATOM      3  C   UNL     1      -4.649   9.886  16.557  1.00  0.00     0.197 A 
ATOM      4  O   UNL     1      -3.533  10.423  16.335  1.00  0.00    -0.289 OA
ATOM      5  C   UNL     1      -5.769  10.633  16.996  1.00  0.00     0.107 A 
ATOM      6  C   UNL     1      -5.752  12.030  17.288  1.00  0.00     0.134 A 
ATOM      7  C   UNL     1      -6.947  12.679  17.620  1.00  0.00     0.093 A 
ATOM      8  C   UNL     1      -8.145  11.975  17.728  1.00  0.00     0.123 A 
ATOM      9  C   UNL     1      -8.164  10.599  17.494  1.00  0.00     0.094 A 
ATOM     10  C   UNL     1      -6.996   9.928  17.126  1.00  0.00     0.146 A 
ATOM     11  O   UNL     1      -7.061   8.621  16.895  1.00  0.00    -0.456 OA
ENDROOT
BRANCH   1  12
ATOM     12  C   UNL     1      -6.206   6.436  16.292  1.00  0.00     0.021 A 
ATOM     13  C   UNL     1      -5.905   5.537  17.330  1.00  0.00     0.016 A 
ATOM     14  C   UNL     1      -6.079   4.162  17.152  1.00  0.00     0.051 A 
ATOM     15  C   UNL     1      -6.567   3.662  15.942  1.00  0.00     0.157 A 
ATOM     16  C   UNL     1      -6.709   5.929  15.078  1.00  0.00     0.062 A 
ATOM     17  C   UNL     1      -6.887   4.548  14.900  1.00  0.00     0.158 A 
BRANCH  15  18
ATOM     18  O   UNL     1      -6.729   2.285  15.794  1.00  0.00    -0.504 OA
ATOM     19  H   UNL     1      -6.321   1.623  16.442  1.00  0.00     0.293 HD
ENDBRANCH  15  18
BRANCH  17  20
ATOM     20  O   UNL     1      -7.383   4.055  13.694  1.00  0.00    -0.504 OA
ATOM     21  H   UNL     1      -6.771   3.847  12.914  1.00  0.00     0.293 HD
ENDBRANCH  17  20
ENDBRANCH   1  12
BRANCH   6  22
ATOM     22  O   UNL     1      -4.596  12.817  17.289  1.00  0.00    -0.507 OA
ATOM     23  H   UNL     1      -4.497  13.702  16.817  1.00  0.00     0.293 HD
ENDBRANCH   6  22
BRANCH   8  24
ATOM     24  O   UNL     1      -9.312  12.652  18.076  1.00  0.00    -0.508 OA
ATOM     25  H   UNL     1      -9.709  13.367  17.477  1.00  0.00     0.293 HD
ENDBRANCH   8  24
TORSDOF 5
ENDMDL
MODEL 3
REMARK VINA RESULT:    23.893      1.959      3.511
REMARK INTER + INTRA:          27.816
REMARK INTER:                  28.130
REMARK INTRA:                  -0.313
REMARK UNBOUND:                -0.267
REMARK SMILES O=c1cc(-c2ccc(O)c(O)c2)oc2cc(O)cc(O)c12
REMARK SMILES IDX 4 1 3 2 2 3 1 4 21 5 19 6 18 7 16 8 15 9 14 10 13 11 5 12
REMARK SMILES IDX 6 13 7 14 8 15 12 16 10 17 9 18 11 20 20 22 17 24
REMARK H PARENT 9 19 11 21 20 23 17 25
REMARK Flexibility Score: inf
ROOT
ATOM      1  C   UNL     1      -7.099   8.578  16.498  1.00  0.00     0.138 A 
ATOM      2  C   UNL     1      -6.222   8.164  17.510  1.00  0.00     0.100 A 
ATOM      3  C   UNL     1      -5.731   6.857  17.507  1.00  0.00     0.197 A 
ATOM      4  O   UNL     1      -4.990   6.500  18.459  1.00  0.00    -0.289 OA
ATOM      5  C   UNL     1      -6.093   5.972  16.462  1.00  0.00     0.107 A 
ATOM      6  C   UNL     1      -5.627   4.629  16.336  1.00  0.00     0.134 A 
ATOM      7  C   UNL     1      -6.133   3.817  15.314  1.00  0.00     0.093 A 
ATOM      8  C   UNL     1      -7.040   4.314  14.380  1.00  0.00     0.123 A 
ATOM      9  C   UNL     1      -7.464   5.641  14.464  1.00  0.00     0.094 A 
ATOM     10  C   UNL     1      -7.005   6.466  15.493  1.00  0.00     0.146 A 
ATOM     11  O   UNL     1      -7.447   7.718  15.547  1.00  0.00    -0.456 OA
ENDROOT
BRANCH   1  12
ATOM     12  C   UNL     1      -7.648   9.957  16.451  1.00  0.00     0.021 A 
ATOM     13  C   UNL     1      -7.583  10.764  17.601  1.00  0.00     0.016 A 
ATOM     14  C   UNL     1      -8.086  12.068  17.582  1.00  0.00     0.051 A 
ATOM     15  C   UNL     1      -8.653  12.591  16.417  1.00  0.00     0.157 A 
ATOM     16  C   UNL     1      -8.209  10.492  15.276  1.00  0.00     0.062 A 
ATOM     17  C   UNL     1      -8.712  11.802  15.256  1.00  0.00     0.158 A 
BRANCH  15  18
ATOM     18  O   UNL     1      -9.148  13.894  16.431  1.00  0.00    -0.504 OA
ATOM     19  H   UNL     1      -9.294  14.422  15.579  1.00  0.00     0.293 HD
ENDBRANCH  15  18
BRANCH  17  20
ATOM     20  O   UNL     1      -9.267  12.322  14.089  1.00  0.00    -0.504 OA
ATOM     21  H   UNL     1      -8.688  12.696  13.346  1.00  0.00     0.293 HD
ENDBRANCH  17  20
ENDBRANCH   1  12
BRANCH   6  22
ATOM     22  O   UNL     1      -4.660   4.052  17.167  1.00  0.00    -0.507 OA
ATOM     23  H   UNL     1      -3.686   4.310  17.187  1.00  0.00     0.293 HD
ENDBRANCH   6  22
BRANCH   8  24
ATOM     24  O   UNL     1      -7.509   3.481  13.366  1.00  0.00    -0.508 OA
ATOM     25  H   UNL     1      -8.013   3.850  12.568  1.00  0.00     0.293 HD
ENDBRANCH   8  24
TORSDOF 5
ENDMDL
MODEL 4
REMARK VINA RESULT:    24.239      1.169      2.675
REMARK INTER + INTRA:          28.223
REMARK INTER:                  28.490
REMARK INTRA:                  -0.267
REMARK UNBOUND:                -0.267
REMARK SMILES O=c1cc(-c2ccc(O)c(O)c2)oc2cc(O)cc(O)c12
REMARK SMILES IDX 4 1 3 2 2 3 1 4 21 5 19 6 18 7 16 8 15 9 14 10 13 11 5 12
REMARK SMILES IDX 6 13 7 14 8 15 12 16 10 17 9 18 11 20 20 22 17 24
REMARK H PARENT 9 19 11 21 20 23 17 25
REMARK Flexibility Score: inf
ROOT
ATOM      1  C   UNL     1      -5.985   7.517  16.697  1.00  0.00     0.138 A 
ATOM      2  C   UNL     1      -5.538   6.591  17.649  1.00  0.00     0.100 A 
ATOM      3  C   UNL     1      -5.776   5.230  17.455  1.00  0.00     0.197 A 
ATOM      4  O   UNL     1      -5.412   4.430  18.354  1.00  0.00    -0.289 OA
ATOM      5  C   UNL     1      -6.435   4.791  16.280  1.00  0.00     0.107 A 
ATOM      6  C   UNL     1      -6.702   3.427  15.957  1.00  0.00     0.134 A 
ATOM      7  C   UNL     1      -7.448   3.122  14.813  1.00  0.00     0.093 A 
ATOM      8  C   UNL     1      -7.886   4.125  13.949  1.00  0.00     0.123 A 
ATOM      9  C   UNL     1      -7.588   5.459  14.228  1.00  0.00     0.094 A 
ATOM     10  C   UNL     1      -6.876   5.799  15.381  1.00  0.00     0.146 A 
ATOM     11  O   UNL     1      -6.628   7.082  15.618  1.00  0.00    -0.456 OA
ENDROOT
BRANCH   1  12
ATOM     12  C   UNL     1      -5.757   8.976  16.853  1.00  0.00     0.021 A 
ATOM     13  C   UNL     1      -4.467   9.497  16.649  1.00  0.00     0.016 A 
ATOM     14  C   UNL     1      -4.225  10.867  16.782  1.00  0.00     0.051 A 
ATOM     15  C   UNL     1      -5.265  11.740  17.110  1.00  0.00     0.157 A 
ATOM     16  C   UNL     1      -6.805   9.861  17.171  1.00  0.00     0.062 A 
ATOM     17  C   UNL     1      -6.563  11.237  17.302  1.00  0.00     0.158 A 
BRANCH  15  18
ATOM     18  O   UNL     1      -4.993  13.101  17.238  1.00  0.00    -0.504 OA
ATOM     19  H   UNL     1      -5.272  13.632  18.054  1.00  0.00     0.293 HD
ENDBRANCH  15  18
BRANCH  17  20
ATOM     20  O   UNL     1      -7.606  12.105  17.620  1.00  0.00    -0.504 OA
ATOM     21  H   UNL     1      -8.225  12.475  16.907  1.00  0.00     0.293 HD
ENDBRANCH  17  20
ENDBRANCH   1  12
BRANCH   6  22
ATOM     22  O   UNL     1      -6.242   2.339  16.707  1.00  0.00    -0.507 OA
ATOM     23  H   UNL     1      -6.116   1.403  16.354  1.00  0.00     0.293 HD
ENDBRANCH   6  22
BRANCH   8  24
ATOM     24  O   UNL     1      -8.614   3.783  12.811  1.00  0.00    -0.508 OA
ATOM     25  H   UNL     1      -8.570   4.341  11.966  1.00  0.00     0.293 HD
ENDBRANCH   8  24
TORSDOF 5
ENDMDL
