MODEL 1
REMARK VINA RESULT:    -3.981      0.000      0.000
REMARK INTER + INTRA:          -5.849
REMARK INTER:                  -5.377
REMARK INTRA:                  -0.471
REMARK UNBOUND:                -0.471
REMARK SMILES CCCCCCC=CC(=O)[O-]
REMARK SMILES IDX 5 1 6 2 7 3 8 4 9 5 10 6 11 7 4 8 3 9 2 10 1 11
REMARK H PARENT
REMARK Flexibility Score: inf
ROOT
ATOM      1  C   UNL     1      22.340  25.792  32.463  1.00  0.00     0.004 C 
ENDROOT
BRANCH   1   2
ATOM      2  C   UNL     1      21.327  26.453  33.410  1.00  0.00     0.027 C 
BRANCH   2   3
ATOM      3  C   UNL     1      21.890  27.708  34.016  1.00  0.00    -0.025 C 
ATOM      4  C   UNL     1      22.642  27.673  35.120  1.00  0.00     0.020 C 
BRANCH   4   5
ATOM      5  C   UNL     1      23.187  28.894  35.733  1.00  0.00     0.064 C 
ATOM      6  O   UNL     1      23.903  28.806  36.764  1.00  0.00    -0.545 OA
ATOM      7  O   UNL     1      22.924  30.147  35.189  1.00  0.00    -0.545 OA
ENDBRANCH   4   5
ENDBRANCH   2   3
ENDBRANCH   1   2
BRANCH   1   8
ATOM      8  C   UNL     1      22.906  24.477  33.025  1.00  0.00     0.000 C 
BRANCH   8   9
ATOM      9  C   UNL     1      22.103  23.955  34.228  1.00  0.00    -0.000 C 
BRANCH   9  10
ATOM     10  C   UNL     1      21.222  22.748  33.868  1.00  0.00    -0.003 C 
ATOM     11  C   UNL     1      21.600  22.117  32.527  1.00  0.00     0.004 C 
ENDBRANCH   9  10
ENDBRANCH   8   9
ENDBRANCH   1   8
TORSDOF 6
ENDMDL
MODEL 2
REMARK VINA RESULT:    -3.926      3.253      6.203
REMARK INTER + INTRA:          -5.775
REMARK INTER:                  -5.473
REMARK INTRA:                  -0.301
REMARK UNBOUND:                -0.471
REMARK SMILES CCCCCCC=CC(=O)[O-]
REMARK SMILES IDX 5 1 6 2 7 3 8 4 9 5 10 6 11 7 4 8 3 9 2 10 1 11
REMARK H PARENT
REMARK Flexibility Score: inf
ROOT
ATOM      1  C   UNL     1      22.964  27.374  35.691  1.00  0.00     0.004 C 
ENDROOT
BRANCH   1   2
ATOM      2  C   UNL     1      22.145  27.480  34.394  1.00  0.00     0.027 C 
BRANCH   2   3
ATOM      3  C   UNL     1      22.041  26.148  33.709  1.00  0.00    -0.025 C 
ATOM      4  C   UNL     1      22.411  25.018  34.319  1.00  0.00     0.020 C 
BRANCH   4   5
ATOM      5  C   UNL     1      22.328  23.709  33.655  1.00  0.00     0.064 C 
ATOM      6  O   UNL     1      22.281  23.650  32.399  1.00  0.00    -0.545 OA
ATOM      7  O   UNL     1      22.303  22.530  34.394  1.00  0.00    -0.545 OA
ENDBRANCH   4   5
ENDBRANCH   2   3
ENDBRANCH   1   2
BRANCH   1   8
ATOM      8  C   UNL     1      23.462  28.740  36.190  1.00  0.00     0.000 C 
BRANCH   8   9
ATOM      9  C   UNL     1      23.107  29.887  35.228  1.00  0.00    -0.000 C 
BRANCH   9  10
ATOM     10  C   UNL     1      23.365  31.272  35.843  1.00  0.00    -0.003 C 
ATOM     11  C   UNL     1      22.193  31.775  36.686  1.00  0.00     0.004 C 
ENDBRANCH   9  10
ENDBRANCH   8   9
ENDBRANCH   1   8
TORSDOF 6
ENDMDL
MODEL 3
REMARK VINA RESULT:    -3.907     12.093     13.243
REMARK INTER + INTRA:          -5.749
REMARK INTER:                  -5.050
REMARK INTRA:                  -0.699
REMARK UNBOUND:                -0.471
REMARK SMILES CCCCCCC=CC(=O)[O-]
REMARK SMILES IDX 5 1 6 2 7 3 8 4 9 5 10 6 11 7 4 8 3 9 2 10 1 11
REMARK H PARENT
REMARK Flexibility Score: inf
ROOT
ATOM      1  C   UNL     1      35.916  25.453  31.009  1.00  0.00     0.004 C 
ENDROOT
BRANCH   1   2
ATOM      2  C   UNL     1      34.416  25.551  30.689  1.00  0.00     0.027 C 
BRANCH   2   3
ATOM      3  C   UNL     1      33.582  25.196  31.887  1.00  0.00    -0.025 C 
ATOM      4  C   UNL     1      33.895  24.163  32.675  1.00  0.00     0.020 C 
BRANCH   4   5
ATOM      5  C   UNL     1      33.079  23.795  33.841  1.00  0.00     0.064 C 
ATOM      6  O   UNL     1      33.596  23.130  34.777  1.00  0.00    -0.545 OA
ATOM      7  O   UNL     1      31.743  24.171  33.929  1.00  0.00    -0.545 OA
ENDBRANCH   4   5
ENDBRANCH   2   3
ENDBRANCH   1   2
BRANCH   1   8
ATOM      8  C   UNL     1      36.510  26.791  31.478  1.00  0.00     0.000 C 
BRANCH   8   9
ATOM      9  C   UNL     1      37.253  26.670  32.819  1.00  0.00    -0.000 C 
BRANCH   9  10
ATOM     10  C   UNL     1      36.342  26.949  34.025  1.00  0.00    -0.003 C 
ATOM     11  C   UNL     1      35.205  27.918  33.698  1.00  0.00     0.004 C 
ENDBRANCH   9  10
ENDBRANCH   8   9
ENDBRANCH   1   8
TORSDOF 6
ENDMDL
MODEL 4
REMARK VINA RESULT:    -3.889     11.878     12.994
REMARK INTER + INTRA:          -5.724
REMARK INTER:                  -5.026
REMARK INTRA:                  -0.698
REMARK UNBOUND:                -0.471
REMARK SMILES CCCCCCC=CC(=O)[O-]
REMARK SMILES IDX 5 1 6 2 7 3 8 4 9 5 10 6 11 7 4 8 3 9 2 10 1 11
REMARK H PARENT
REMARK Flexibility Score: inf
ROOT
ATOM      1  C   UNL     1      35.531  26.761  31.910  1.00  0.00     0.004 C 
ENDROOT
BRANCH   1   2
ATOM      2  C   UNL     1      34.501  25.775  31.337  1.00  0.00     0.027 C 
BRANCH   2   3
ATOM      3  C   UNL     1      33.585  25.263  32.413  1.00  0.00    -0.025 C 
ATOM      4  C   UNL     1      33.404  23.953  32.611  1.00  0.00     0.020 C 
BRANCH   4   5
ATOM      5  C   UNL     1      32.500  23.438  33.649  1.00  0.00     0.064 C 
ATOM      6  O   UNL     1      31.514  24.129  34.014  1.00  0.00    -0.545 OA
ATOM      7  O   UNL     1      32.715  22.195  34.235  1.00  0.00    -0.545 OA
ENDBRANCH   4   5
ENDBRANCH   2   3
ENDBRANCH   1   2
BRANCH   1   8
ATOM      8  C   UNL     1      35.138  27.287  33.300  1.00  0.00     0.000 C 
BRANCH   8   9
ATOM      9  C   UNL     1      36.239  27.062  34.350  1.00  0.00    -0.000 C 
BRANCH   9  10
ATOM     10  C   UNL     1      37.009  25.751  34.125  1.00  0.00    -0.003 C 
ATOM     11  C   UNL     1      36.354  24.553  34.813  1.00  0.00     0.004 C 
ENDBRANCH   9  10
ENDBRANCH   8   9
ENDBRANCH   1   8
TORSDOF 6
ENDMDL
MODEL 5
REMARK VINA RESULT:    -3.860     11.129     12.339
REMARK INTER + INTRA:          -5.685
REMARK INTER:                  -5.238
REMARK INTRA:                  -0.446
REMARK UNBOUND:                -0.471
REMARK SMILES CCCCCCC=CC(=O)[O-]
REMARK SMILES IDX 5 1 6 2 7 3 8 4 9 5 10 6 11 7 4 8 3 9 2 10 1 11
REMARK H PARENT
REMARK Flexibility Score: inf
ROOT
ATOM      1  C   UNL     1      34.173  25.659  31.567  1.00  0.00     0.004 C 
ENDROOT
BRANCH   1   2
ATOM      2  C   UNL     1      33.064  25.465  32.614  1.00  0.00     0.027 C 
BRANCH   2   3
ATOM      3  C   UNL     1      32.624  24.030  32.677  1.00  0.00    -0.025 C 
ATOM      4  C   UNL     1      31.388  23.694  33.058  1.00  0.00     0.020 C 
BRANCH   4   5
ATOM      5  C   UNL     1      30.948  22.294  33.139  1.00  0.00     0.064 C 
ATOM      6  O   UNL     1      30.578  21.821  34.246  1.00  0.00    -0.545 OA
ATOM      7  O   UNL     1      30.931  21.481  32.010  1.00  0.00    -0.545 OA
ENDBRANCH   4   5
ENDBRANCH   2   3
ENDBRANCH   1   2
BRANCH   1   8
ATOM      8  C   UNL     1      35.255  26.649  32.027  1.00  0.00     0.000 C 
BRANCH   8   9
ATOM      9  C   UNL     1      35.033  27.141  33.467  1.00  0.00    -0.000 C 
BRANCH   9  10
ATOM     10  C   UNL     1      36.199  26.778  34.400  1.00  0.00    -0.003 C 
ATOM     11  C   UNL     1      36.317  25.274  34.646  1.00  0.00     0.004 C 
ENDBRANCH   9  10
ENDBRANCH   8   9
ENDBRANCH   1   8
TORSDOF 6
ENDMDL
MODEL 6
REMARK VINA RESULT:    -3.829      2.971      5.433
REMARK INTER + INTRA:          -5.644
REMARK INTER:                  -5.050
REMARK INTRA:                  -0.594
REMARK UNBOUND:                -0.471
REMARK SMILES CCCCCCC=CC(=O)[O-]
REMARK SMILES IDX 5 1 6 2 7 3 8 4 9 5 10 6 11 7 4 8 3 9 2 10 1 11
REMARK H PARENT
REMARK Flexibility Score: inf
ROOT
ATOM      1  C   UNL     1      21.052  28.903  33.272  1.00  0.00     0.004 C 
ENDROOT
BRANCH   1   2
ATOM      2  C   UNL     1      22.128  27.947  32.731  1.00  0.00     0.027 C 
BRANCH   2   3
ATOM      3  C   UNL     1      21.798  26.519  33.059  1.00  0.00    -0.025 C 
ATOM      4  C   UNL     1      22.757  25.608  33.255  1.00  0.00     0.020 C 
BRANCH   4   5
ATOM      5  C   UNL     1      22.449  24.204  33.562  1.00  0.00     0.064 C 
ATOM      6  O   UNL     1      22.270  23.386  32.622  1.00  0.00    -0.545 OA
ATOM      7  O   UNL     1      22.355  23.762  34.877  1.00  0.00    -0.545 OA
ENDBRANCH   4   5
ENDBRANCH   2   3
ENDBRANCH   1   2
BRANCH   1   8
ATOM      8  C   UNL     1      21.651  30.128  33.981  1.00  0.00     0.000 C 
BRANCH   8   9
ATOM      9  C   UNL     1      23.126  29.925  34.367  1.00  0.00    -0.000 C 
BRANCH   9  10
ATOM     10  C   UNL     1      23.312  29.683  35.873  1.00  0.00    -0.003 C 
ATOM     11  C   UNL     1      23.422  28.199  36.226  1.00  0.00     0.004 C 
ENDBRANCH   9  10
ENDBRANCH   8   9
ENDBRANCH   1   8
TORSDOF 6
ENDMDL
MODEL 7
REMARK VINA RESULT:    -3.719     10.459     11.945
REMARK INTER + INTRA:          -5.495
REMARK INTER:                  -5.137
REMARK INTRA:                  -0.358
REMARK UNBOUND:                -0.471
REMARK SMILES CCCCCCC=CC(=O)[O-]
REMARK SMILES IDX 5 1 6 2 7 3 8 4 9 5 10 6 11 7 4 8 3 9 2 10 1 11
REMARK H PARENT
REMARK Flexibility Score: inf
ROOT
ATOM      1  C   UNL     1      30.755  22.494  33.149  1.00  0.00     0.004 C 
ENDROOT
BRANCH   1   2
ATOM      2  C   UNL     1      31.679  21.265  33.156  1.00  0.00     0.027 C 
BRANCH   2   3
ATOM      3  C   UNL     1      31.186  20.223  34.119  1.00  0.00    -0.025 C 
ATOM      4  C   UNL     1      31.953  19.777  35.119  1.00  0.00     0.020 C 
BRANCH   4   5
ATOM      5  C   UNL     1      31.490  18.747  36.059  1.00  0.00     0.064 C 
ATOM      6  O   UNL     1      30.460  18.076  35.789  1.00  0.00    -0.545 OA
ATOM      7  O   UNL     1      32.175  18.498  37.244  1.00  0.00    -0.545 OA
ENDBRANCH   4   5
ENDBRANCH   2   3
ENDBRANCH   1   2
BRANCH   1   8
ATOM      8  C   UNL     1      31.533  23.820  33.191  1.00  0.00     0.000 C 
BRANCH   8   9
ATOM      9  C   UNL     1      32.947  23.657  33.774  1.00  0.00    -0.000 C 
BRANCH   9  10
ATOM     10  C   UNL     1      33.846  24.868  33.480  1.00  0.00    -0.003 C 
ATOM     11  C   UNL     1      33.173  25.903  32.578  1.00  0.00     0.004 C 
ENDBRANCH   9  10
ENDBRANCH   8   9
ENDBRANCH   1   8
TORSDOF 6
ENDMDL
MODEL 8
REMARK VINA RESULT:    -3.719      3.257      5.093
REMARK INTER + INTRA:          -5.494
REMARK INTER:                  -4.754
REMARK INTRA:                  -0.740
REMARK UNBOUND:                -0.471
REMARK SMILES CCCCCCC=CC(=O)[O-]
REMARK SMILES IDX 5 1 6 2 7 3 8 4 9 5 10 6 11 7 4 8 3 9 2 10 1 11
REMARK H PARENT
REMARK Flexibility Score: inf
ROOT
ATOM      1  C   UNL     1      21.220  25.798  30.627  1.00  0.00     0.004 C 
ENDROOT
BRANCH   1   2
ATOM      2  C   UNL     1      22.363  24.787  30.438  1.00  0.00     0.027 C 
BRANCH   2   3
ATOM      3  C   UNL     1      22.711  24.115  31.736  1.00  0.00    -0.025 C 
ATOM      4  C   UNL     1      21.769  23.759  32.614  1.00  0.00     0.020 C 
BRANCH   4   5
ATOM      5  C   UNL     1      22.097  23.115  33.894  1.00  0.00     0.064 C 
ATOM      6  O   UNL     1      22.223  21.864  33.946  1.00  0.00    -0.545 OA
ATOM      7  O   UNL     1      22.273  23.867  35.050  1.00  0.00    -0.545 OA
ENDBRANCH   4   5
ENDBRANCH   2   3
ENDBRANCH   1   2
BRANCH   1   8
ATOM      8  C   UNL     1      21.677  27.252  30.427  1.00  0.00     0.000 C 
BRANCH   8   9
ATOM      9  C   UNL     1      22.003  27.958  31.754  1.00  0.00    -0.000 C 
BRANCH   9  10
ATOM     10  C   UNL     1      21.168  27.419  32.927  1.00  0.00    -0.003 C 
ATOM     11  C   UNL     1      21.988  27.239  34.205  1.00  0.00     0.004 C 
ENDBRANCH   9  10
ENDBRANCH   8   9
ENDBRANCH   1   8
TORSDOF 6
ENDMDL
MODEL 9
REMARK VINA RESULT:    -3.699      3.415      5.508
REMARK INTER + INTRA:          -5.467
REMARK INTER:                  -5.089
REMARK INTRA:                  -0.378
REMARK UNBOUND:                -0.471
REMARK SMILES CCCCCCC=CC(=O)[O-]
REMARK SMILES IDX 5 1 6 2 7 3 8 4 9 5 10 6 11 7 4 8 3 9 2 10 1 11
REMARK H PARENT
REMARK Flexibility Score: inf
ROOT
ATOM      1  C   UNL     1      22.337  27.433  32.648  1.00  0.00     0.004 C 
ENDROOT
BRANCH   1   2
ATOM      2  C   UNL     1      21.400  26.414  31.980  1.00  0.00     0.027 C 
BRANCH   2   3
ATOM      3  C   UNL     1      21.871  25.007  32.218  1.00  0.00    -0.025 C 
ATOM      4  C   UNL     1      21.280  24.215  33.118  1.00  0.00     0.020 C 
BRANCH   4   5
ATOM      5  C   UNL     1      21.740  22.842  33.372  1.00  0.00     0.064 C 
ATOM      6  O   UNL     1      22.403  22.590  34.412  1.00  0.00    -0.545 OA
ATOM      7  O   UNL     1      21.453  21.814  32.480  1.00  0.00    -0.545 OA
ENDBRANCH   4   5
ENDBRANCH   2   3
ENDBRANCH   1   2
BRANCH   1   8
ATOM      8  C   UNL     1      21.862  27.844  34.051  1.00  0.00     0.000 C 
BRANCH   8   9
ATOM      9  C   UNL     1      22.645  27.139  35.171  1.00  0.00    -0.000 C 
BRANCH   9  10
ATOM     10  C   UNL     1      23.310  28.130  36.139  1.00  0.00    -0.003 C 
ATOM     11  C   UNL     1      23.378  29.551  35.578  1.00  0.00     0.004 C 
ENDBRANCH   9  10
ENDBRANCH   8   9
ENDBRANCH   1   8
TORSDOF 6
ENDMDL
