MODEL 1
REMARK VINA RESULT:    -8.164      0.000      0.000
REMARK INTER + INTRA:         -15.207
REMARK INTER:                 -13.413
REMARK INTRA:                  -1.793
REMARK UNBOUND:                -1.793
REMARK SMILES COc1ccc([C@H]2CC(=O)c3c(O)cc(O[C@@H]4O[C@H](CO[C@H]5O[C@@H](C)[C@H](O)[C@H](O)[C@H]5O)[C@@H](O)[C@H](O)[C@@H]4O)cc3O2)cc1O
REMARK SMILES IDX 19 1 32 2 34 3 36 4 17 5 18 6 20 7 21 8 22 9 25 10 24 11
REMARK SMILES IDX 26 12 23 13 28 14 30 15 27 16 29 18 31 20 33 22 35 24 16 26
REMARK SMILES IDX 15 27 14 28 38 29 12 30 39 31 11 32 40 33 9 34 7 35 10 36
REMARK SMILES IDX 8 37 13 38 6 40 41 41 5 42 42 43 4 44 3 45 43 46 2 48 1 49
REMARK SMILES IDX 37 50
REMARK H PARENT 27 17 29 19 31 21 33 23 35 25 13 39 43 47 37 51
REMARK Flexibility Score: inf
ROOT
ATOM      1  C   UNL     1      23.319 -21.283 -13.284  1.00  0.00     0.180 C 
ATOM      2  C   UNL     1      22.400 -20.254 -14.009  1.00  0.00     0.177 C 
ATOM      3  C   UNL     1      20.939 -20.726 -14.070  1.00  0.00     0.180 C 
ATOM      4  C   UNL     1      20.886 -22.165 -14.585  1.00  0.00     0.214 C 
ATOM      5  C   UNL     1      21.835 -23.080 -13.796  1.00  0.00     0.339 C 
ATOM      6  O   UNL     1      23.175 -22.609 -13.775  1.00  0.00    -0.332 OA
ENDROOT
BRANCH   1   7
ATOM      7  C   UNL     1      23.348 -21.239 -11.723  1.00  0.00     0.198 C 
BRANCH   7   8
ATOM      8  O   UNL     1      22.914 -19.992 -11.225  1.00  0.00    -0.347 OA
BRANCH   8   9
ATOM      9  C   UNL     1      23.952 -19.024 -11.310  1.00  0.00     0.281 C 
ATOM     10  C   UNL     1      21.148 -17.658 -11.268  1.00  0.00     0.041 C 
ATOM     11  C   UNL     1      22.564 -17.071 -11.220  1.00  0.00     0.150 C 
ATOM     12  C   UNL     1      23.035 -16.731  -9.782  1.00  0.00     0.174 C 
ATOM     13  O   UNL     1      23.508 -17.840 -11.960  1.00  0.00    -0.344 OA
ATOM     14  C   UNL     1      23.499 -17.996  -9.047  1.00  0.00     0.179 C 
ATOM     15  C   UNL     1      24.524 -18.745  -9.911  1.00  0.00     0.202 C 
BRANCH  12  16
ATOM     16  O   UNL     1      24.095 -15.807  -9.834  1.00  0.00    -0.388 OA
ATOM     17  H   UNL     1      24.910 -16.310 -10.097  1.00  0.00     0.211 HD
ENDBRANCH  12  16
BRANCH  14  18
ATOM     18  O   UNL     1      24.069 -17.636  -7.811  1.00  0.00    -0.387 OA
ATOM     19  H   UNL     1      23.446 -16.993  -7.390  1.00  0.00     0.211 HD
ENDBRANCH  14  18
BRANCH  15  20
ATOM     20  O   UNL     1      24.879 -19.967  -9.323  1.00  0.00    -0.385 OA
ATOM     21  H   UNL     1      25.857 -20.083  -9.451  1.00  0.00     0.211 HD
ENDBRANCH  15  20
ENDBRANCH   8   9
ENDBRANCH   7   8
ENDBRANCH   1   7
BRANCH   2  22
ATOM     22  O   UNL     1      22.879 -20.067 -15.316  1.00  0.00    -0.387 OA
ATOM     23  H   UNL     1      22.230 -19.484 -15.785  1.00  0.00     0.211 HD
ENDBRANCH   2  22
BRANCH   3  24
ATOM     24  O   UNL     1      20.328 -20.631 -12.807  1.00  0.00    -0.387 OA
ATOM     25  H   UNL     1      19.369 -20.437 -12.971  1.00  0.00     0.211 HD
ENDBRANCH   3  24
BRANCH   5  26
ATOM     26  O   UNL     1      21.331 -23.309 -12.476  1.00  0.00    -0.462 OA
BRANCH  26  27
ATOM     27  C   UNL     1      21.213 -24.602 -11.964  1.00  0.00     0.130 A 
ATOM     28  C   UNL     1      21.148 -24.810 -10.578  1.00  0.00     0.093 A 
ATOM     29  C   UNL     1      21.235 -25.702 -12.826  1.00  0.00     0.094 A 
ATOM     30  C   UNL     1      21.210 -26.111 -10.047  1.00  0.00     0.133 A 
ATOM     31  C   UNL     1      21.379 -26.986 -12.306  1.00  0.00     0.138 A 
ATOM     32  C   UNL     1      21.345 -27.208 -10.915  1.00  0.00     0.102 A 
ATOM     33  O   UNL     1      21.667 -28.050 -13.165  1.00  0.00    -0.484 OA
ATOM     34  C   UNL     1      21.627 -28.581 -10.429  1.00  0.00     0.174 C 
ATOM     35  C   UNL     1      22.565 -29.075 -12.732  1.00  0.00     0.211 C 
ATOM     36  O   UNL     1      21.518 -28.859  -9.199  1.00  0.00    -0.294 OA
ATOM     37  C   UNL     1      22.066 -29.659 -11.387  1.00  0.00     0.131 C 
BRANCH  30  38
ATOM     38  O   UNL     1      21.174 -26.286  -8.667  1.00  0.00    -0.507 OA
ATOM     39  H   UNL     1      21.372 -27.190  -8.243  1.00  0.00     0.293 HD
ENDBRANCH  30  38
BRANCH  35  40
ATOM     40  C   UNL     1      23.970 -28.487 -12.709  1.00  0.00    -0.003 A 
ATOM     41  C   UNL     1      24.862 -28.924 -11.716  1.00  0.00     0.057 A 
ATOM     42  C   UNL     1      24.498 -27.748 -13.786  1.00  0.00     0.011 A 
ATOM     43  C   UNL     1      26.243 -28.739 -11.855  1.00  0.00     0.158 A 
ATOM     44  C   UNL     1      25.872 -27.586 -13.946  1.00  0.00     0.051 A 
ATOM     45  C   UNL     1      26.764 -28.136 -13.016  1.00  0.00     0.160 A 
BRANCH  43  46
ATOM     46  O   UNL     1      27.078 -29.214 -10.842  1.00  0.00    -0.504 OA
ATOM     47  H   UNL     1      28.078 -29.038 -10.844  1.00  0.00     0.293 HD
ENDBRANCH  43  46
BRANCH  45  48
ATOM     48  O   UNL     1      28.150 -28.126 -13.225  1.00  0.00    -0.493 OA
ATOM     49  C   UNL     1      28.895 -26.979 -13.631  1.00  0.00     0.278 C 
ENDBRANCH  45  48
ENDBRANCH  35  40
ENDBRANCH  26  27
ENDBRANCH   5  26
BRANCH   4  50
ATOM     50  O   UNL     1      19.568 -22.636 -14.506  1.00  0.00    -0.384 OA
ATOM     51  H   UNL     1      19.607 -23.620 -14.634  1.00  0.00     0.211 HD
ENDBRANCH   4  50
TORSDOF 15
ENDMDL
MODEL 2
REMARK VINA RESULT:    -8.045      0.841      1.272
REMARK INTER + INTRA:         -15.013
REMARK INTER:                 -13.226
REMARK INTRA:                  -1.787
REMARK UNBOUND:                -1.793
REMARK SMILES COc1ccc([C@H]2CC(=O)c3c(O)cc(O[C@@H]4O[C@H](CO[C@H]5O[C@@H](C)[C@H](O)[C@H](O)[C@H]5O)[C@@H](O)[C@H](O)[C@@H]4O)cc3O2)cc1O
REMARK SMILES IDX 19 1 32 2 34 3 36 4 17 5 18 6 20 7 21 8 22 9 25 10 24 11
REMARK SMILES IDX 26 12 23 13 28 14 30 15 27 16 29 18 31 20 33 22 35 24 16 26
REMARK SMILES IDX 15 27 14 28 38 29 12 30 39 31 11 32 40 33 9 34 7 35 10 36
REMARK SMILES IDX 8 37 13 38 6 40 41 41 5 42 42 43 4 44 3 45 43 46 2 48 1 49
REMARK SMILES IDX 37 50
REMARK H PARENT 27 17 29 19 31 21 33 23 35 25 13 39 43 47 37 51
REMARK Flexibility Score: inf
ROOT
ATOM      1  C   UNL     1      23.395 -21.519 -13.214  1.00  0.00     0.180 C 
ATOM      2  C   UNL     1      22.428 -20.541 -13.946  1.00  0.00     0.177 C 
ATOM      3  C   UNL     1      20.980 -21.055 -13.951  1.00  0.00     0.180 C 
ATOM      4  C   UNL     1      20.954 -22.512 -14.418  1.00  0.00     0.214 C 
ATOM      5  C   UNL     1      21.951 -23.373 -13.625  1.00  0.00     0.339 C 
ATOM      6  O   UNL     1      23.276 -22.864 -13.657  1.00  0.00    -0.332 OA
ENDROOT
BRANCH   1   7
ATOM      7  C   UNL     1      23.465 -21.421 -11.656  1.00  0.00     0.198 C 
BRANCH   7   8
ATOM      8  O   UNL     1      22.992 -20.177 -11.187  1.00  0.00    -0.347 OA
BRANCH   8   9
ATOM      9  C   UNL     1      24.001 -19.181 -11.291  1.00  0.00     0.281 C 
ATOM     10  C   UNL     1      21.156 -17.902 -11.319  1.00  0.00     0.041 C 
ATOM     11  C   UNL     1      22.553 -17.269 -11.276  1.00  0.00     0.150 C 
ATOM     12  C   UNL     1      22.999 -16.871  -9.845  1.00  0.00     0.174 C 
ATOM     13  O   UNL     1      23.528 -18.032 -11.982  1.00  0.00    -0.344 OA
ATOM     14  C   UNL     1      23.493 -18.099  -9.066  1.00  0.00     0.179 C 
ATOM     15  C   UNL     1      24.550 -18.842  -9.896  1.00  0.00     0.202 C 
BRANCH  12  16
ATOM     16  O   UNL     1      24.030 -15.918  -9.914  1.00  0.00    -0.388 OA
ATOM     17  H   UNL     1      24.880 -16.414 -10.052  1.00  0.00     0.211 HD
ENDBRANCH  12  16
BRANCH  14  18
ATOM     18  O   UNL     1      24.038 -17.683  -7.836  1.00  0.00    -0.387 OA
ATOM     19  H   UNL     1      24.831 -17.131  -8.051  1.00  0.00     0.211 HD
ENDBRANCH  14  18
BRANCH  15  20
ATOM     20  O   UNL     1      24.934 -20.033  -9.266  1.00  0.00    -0.385 OA
ATOM     21  H   UNL     1      25.925 -20.024  -9.197  1.00  0.00     0.211 HD
ENDBRANCH  15  20
ENDBRANCH   8   9
ENDBRANCH   7   8
ENDBRANCH   1   7
BRANCH   2  22
ATOM     22  O   UNL     1      22.866 -20.384 -15.272  1.00  0.00    -0.387 OA
ATOM     23  H   UNL     1      23.083 -21.287 -15.616  1.00  0.00     0.211 HD
ENDBRANCH   2  22
BRANCH   3  24
ATOM     24  O   UNL     1      20.400 -20.936 -12.676  1.00  0.00    -0.387 OA
ATOM     25  H   UNL     1      20.718 -21.711 -12.147  1.00  0.00     0.211 HD
ENDBRANCH   3  24
BRANCH   5  26
ATOM     26  O   UNL     1      21.489 -23.572 -12.285  1.00  0.00    -0.462 OA
BRANCH  26  27
ATOM     27  C   UNL     1      21.194 -24.849 -11.806  1.00  0.00     0.130 A 
ATOM     28  C   UNL     1      21.266 -25.123 -10.432  1.00  0.00     0.093 A 
ATOM     29  C   UNL     1      20.899 -25.881 -12.701  1.00  0.00     0.094 A 
ATOM     30  C   UNL     1      21.148 -26.442  -9.959  1.00  0.00     0.133 A 
ATOM     31  C   UNL     1      20.862 -27.199 -12.250  1.00  0.00     0.138 A 
ATOM     32  C   UNL     1      20.962 -27.492 -10.875  1.00  0.00     0.102 A 
ATOM     33  O   UNL     1      20.833 -28.245 -13.176  1.00  0.00    -0.484 OA
ATOM     34  C   UNL     1      21.038 -28.919 -10.479  1.00  0.00     0.174 C 
ATOM     35  C   UNL     1      21.568 -29.441 -12.903  1.00  0.00     0.211 C 
ATOM     36  O   UNL     1      21.035 -29.245  -9.256  1.00  0.00    -0.294 OA
ATOM     37  C   UNL     1      21.142 -30.002 -11.523  1.00  0.00     0.131 C 
BRANCH  30  38
ATOM     38  O   UNL     1      21.254 -26.689  -8.594  1.00  0.00    -0.507 OA
ATOM     39  H   UNL     1      21.336 -27.637  -8.232  1.00  0.00     0.293 HD
ENDBRANCH  30  38
BRANCH  35  40
ATOM     40  C   UNL     1      23.051 -29.122 -13.049  1.00  0.00    -0.003 A 
ATOM     41  C   UNL     1      23.440 -28.178 -14.012  1.00  0.00     0.057 A 
ATOM     42  C   UNL     1      24.006 -29.516 -12.091  1.00  0.00     0.011 A 
ATOM     43  C   UNL     1      24.694 -27.556 -13.946  1.00  0.00     0.158 A 
ATOM     44  C   UNL     1      25.243 -28.881 -12.002  1.00  0.00     0.051 A 
ATOM     45  C   UNL     1      25.576 -27.849 -12.888  1.00  0.00     0.160 A 
BRANCH  43  46
ATOM     46  O   UNL     1      25.013 -26.611 -14.923  1.00  0.00    -0.504 OA
ATOM     47  H   UNL     1      25.876 -26.077 -14.891  1.00  0.00     0.293 HD
ENDBRANCH  43  46
BRANCH  45  48
ATOM     48  O   UNL     1      26.742 -27.087 -12.732  1.00  0.00    -0.493 OA
ATOM     49  C   UNL     1      28.009 -27.431 -13.290  1.00  0.00     0.278 C 
ENDBRANCH  45  48
ENDBRANCH  35  40
ENDBRANCH  26  27
ENDBRANCH   5  26
BRANCH   4  50
ATOM     50  O   UNL     1      19.654 -23.016 -14.286  1.00  0.00    -0.384 OA
ATOM     51  H   UNL     1      19.071 -22.248 -14.048  1.00  0.00     0.211 HD
ENDBRANCH   4  50
TORSDOF 15
ENDMDL
MODEL 3
REMARK VINA RESULT:    -7.888      3.061      8.633
REMARK INTER + INTRA:         -14.754
REMARK INTER:                 -11.965
REMARK INTRA:                  -2.788
REMARK UNBOUND:                -1.793
REMARK SMILES COc1ccc([C@H]2CC(=O)c3c(O)cc(O[C@@H]4O[C@H](CO[C@H]5O[C@@H](C)[C@H](O)[C@H](O)[C@H]5O)[C@@H](O)[C@H](O)[C@@H]4O)cc3O2)cc1O
REMARK SMILES IDX 19 1 32 2 34 3 36 4 17 5 18 6 20 7 21 8 22 9 25 10 24 11
REMARK SMILES IDX 26 12 23 13 28 14 30 15 27 16 29 18 31 20 33 22 35 24 16 26
REMARK SMILES IDX 15 27 14 28 38 29 12 30 39 31 11 32 40 33 9 34 7 35 10 36
REMARK SMILES IDX 8 37 13 38 6 40 41 41 5 42 42 43 4 44 3 45 43 46 2 48 1 49
REMARK SMILES IDX 37 50
REMARK H PARENT 27 17 29 19 31 21 33 23 35 25 13 39 43 47 37 51
REMARK Flexibility Score: inf
ROOT
ATOM      1  C   UNL     1      19.493 -31.213 -11.892  1.00  0.00     0.180 C 
ATOM      2  C   UNL     1      19.411 -32.693 -12.374  1.00  0.00     0.177 C 
ATOM      3  C   UNL     1      20.731 -33.171 -13.000  1.00  0.00     0.180 C 
ATOM      4  C   UNL     1      21.211 -32.147 -14.030  1.00  0.00     0.214 C 
ATOM      5  C   UNL     1      21.244 -30.729 -13.439  1.00  0.00     0.339 C 
ATOM      6  O   UNL     1      20.001 -30.328 -12.881  1.00  0.00    -0.332 OA
ENDROOT
BRANCH   1   7
ATOM      7  C   UNL     1      20.132 -30.952 -10.491  1.00  0.00     0.198 C 
BRANCH   7   8
ATOM      8  O   UNL     1      19.935 -29.621 -10.064  1.00  0.00    -0.347 OA
BRANCH   8   9
ATOM      9  C   UNL     1      21.027 -29.178  -9.269  1.00  0.00     0.281 C 
ATOM     10  C   UNL     1      20.387 -27.131 -11.533  1.00  0.00     0.041 C 
ATOM     11  C   UNL     1      21.364 -27.066 -10.352  1.00  0.00     0.150 C 
ATOM     12  C   UNL     1      20.799 -26.287  -9.135  1.00  0.00     0.174 C 
ATOM     13  O   UNL     1      21.904 -28.339 -10.009  1.00  0.00    -0.344 OA
ATOM     14  C   UNL     1      19.830 -27.162  -8.329  1.00  0.00     0.179 C 
ATOM     15  C   UNL     1      20.504 -28.500  -7.992  1.00  0.00     0.202 C 
BRANCH  12  16
ATOM     16  O   UNL     1      21.855 -25.873  -8.303  1.00  0.00    -0.388 OA
ATOM     17  H   UNL     1      21.654 -24.944  -8.015  1.00  0.00     0.211 HD
ENDBRANCH  12  16
BRANCH  14  18
ATOM     18  O   UNL     1      19.462 -26.487  -7.150  1.00  0.00    -0.387 OA
ATOM     19  H   UNL     1      19.186 -25.576  -7.420  1.00  0.00     0.211 HD
ENDBRANCH  14  18
BRANCH  15  20
ATOM     20  O   UNL     1      19.605 -29.370  -7.360  1.00  0.00    -0.385 OA
ATOM     21  H   UNL     1      19.807 -30.287  -7.684  1.00  0.00     0.211 HD
ENDBRANCH  15  20
ENDBRANCH   8   9
ENDBRANCH   7   8
ENDBRANCH   1   7
BRANCH   2  22
ATOM     22  O   UNL     1      18.384 -32.800 -13.326  1.00  0.00    -0.387 OA
ATOM     23  H   UNL     1      18.789 -33.167 -14.152  1.00  0.00     0.211 HD
ENDBRANCH   2  22
BRANCH   3  24
ATOM     24  O   UNL     1      21.711 -33.373 -12.012  1.00  0.00    -0.387 OA
ATOM     25  H   UNL     1      22.434 -32.718 -12.193  1.00  0.00     0.211 HD
ENDBRANCH   3  24
BRANCH   5  26
ATOM     26  O   UNL     1      22.315 -30.600 -12.499  1.00  0.00    -0.462 OA
BRANCH  26  27
ATOM     27  C   UNL     1      23.489 -29.921 -12.831  1.00  0.00     0.130 A 
ATOM     28  C   UNL     1      24.571 -29.902 -11.939  1.00  0.00     0.093 A 
ATOM     29  C   UNL     1      23.563 -29.194 -14.022  1.00  0.00     0.094 A 
ATOM     30  C   UNL     1      25.684 -29.077 -12.183  1.00  0.00     0.133 A 
ATOM     31  C   UNL     1      24.623 -28.313 -14.230  1.00  0.00     0.138 A 
ATOM     32  C   UNL     1      25.704 -28.262 -13.327  1.00  0.00     0.102 A 
ATOM     33  O   UNL     1      24.563 -27.398 -15.284  1.00  0.00    -0.484 OA
ATOM     34  C   UNL     1      26.734 -27.217 -13.545  1.00  0.00     0.174 C 
ATOM     35  C   UNL     1      25.082 -26.079 -15.095  1.00  0.00     0.211 C 
ATOM     36  O   UNL     1      27.773 -27.183 -12.823  1.00  0.00    -0.294 OA
ATOM     37  C   UNL     1      26.551 -26.169 -14.614  1.00  0.00     0.131 C 
BRANCH  30  38
ATOM     38  O   UNL     1      26.730 -29.055 -11.265  1.00  0.00    -0.507 OA
ATOM     39  H   UNL     1      27.537 -29.665 -11.370  1.00  0.00     0.293 HD
ENDBRANCH  30  38
BRANCH  35  40
ATOM     40  C   UNL     1      24.134 -25.332 -14.164  1.00  0.00    -0.003 A 
ATOM     41  C   UNL     1      24.655 -24.304 -13.363  1.00  0.00     0.057 A 
ATOM     42  C   UNL     1      22.733 -25.435 -14.272  1.00  0.00     0.011 A 
ATOM     43  C   UNL     1      23.815 -23.339 -12.792  1.00  0.00     0.158 A 
ATOM     44  C   UNL     1      21.894 -24.462 -13.732  1.00  0.00     0.051 A 
ATOM     45  C   UNL     1      22.430 -23.368 -13.042  1.00  0.00     0.160 A 
BRANCH  43  46
ATOM     46  O   UNL     1      24.398 -22.331 -12.022  1.00  0.00    -0.504 OA
ATOM     47  H   UNL     1      23.933 -21.442 -11.861  1.00  0.00     0.293 HD
ENDBRANCH  43  46
BRANCH  45  48
ATOM     48  O   UNL     1      21.631 -22.295 -12.621  1.00  0.00    -0.493 OA
ATOM     49  C   UNL     1      21.007 -22.210 -11.341  1.00  0.00     0.278 C 
ENDBRANCH  45  48
ENDBRANCH  35  40
ENDBRANCH  26  27
ENDBRANCH   5  26
BRANCH   4  50
ATOM     50  O   UNL     1      22.480 -32.518 -14.494  1.00  0.00    -0.384 OA
ATOM     51  H   UNL     1      23.108 -32.402 -13.733  1.00  0.00     0.211 HD
ENDBRANCH   4  50
TORSDOF 15
ENDMDL
MODEL 4
REMARK VINA RESULT:    -7.453      3.735      6.465
REMARK INTER + INTRA:         -14.038
REMARK INTER:                 -11.388
REMARK INTRA:                  -2.650
REMARK UNBOUND:                -1.793
REMARK SMILES COc1ccc([C@H]2CC(=O)c3c(O)cc(O[C@@H]4O[C@H](CO[C@H]5O[C@@H](C)[C@H](O)[C@H](O)[C@H]5O)[C@@H](O)[C@H](O)[C@@H]4O)cc3O2)cc1O
REMARK SMILES IDX 19 1 32 2 34 3 36 4 17 5 18 6 20 7 21 8 22 9 25 10 24 11
REMARK SMILES IDX 26 12 23 13 28 14 30 15 27 16 29 18 31 20 33 22 35 24 16 26
REMARK SMILES IDX 15 27 14 28 38 29 12 30 39 31 11 32 40 33 9 34 7 35 10 36
REMARK SMILES IDX 8 37 13 38 6 40 41 41 5 42 42 43 4 44 3 45 43 46 2 48 1 49
REMARK SMILES IDX 37 50
REMARK H PARENT 27 17 29 19 31 21 33 23 35 25 13 39 43 47 37 51
REMARK Flexibility Score: inf
ROOT
ATOM      1  C   UNL     1      21.875 -25.368 -14.654  1.00  0.00     0.180 C 
ATOM      2  C   UNL     1      22.635 -24.028 -14.416  1.00  0.00     0.177 C 
ATOM      3  C   UNL     1      22.863 -23.750 -12.922  1.00  0.00     0.180 C 
ATOM      4  C   UNL     1      21.549 -23.931 -12.159  1.00  0.00     0.214 C 
ATOM      5  C   UNL     1      20.895 -25.284 -12.480  1.00  0.00     0.339 C 
ATOM      6  O   UNL     1      20.696 -25.492 -13.871  1.00  0.00    -0.332 OA
ENDROOT
BRANCH   1   7
ATOM      7  C   UNL     1      22.723 -26.681 -14.645  1.00  0.00     0.198 C 
BRANCH   7   8
ATOM      8  O   UNL     1      24.073 -26.431 -14.317  1.00  0.00    -0.347 OA
BRANCH   8   9
ATOM      9  C   UNL     1      24.873 -27.580 -14.563  1.00  0.00     0.281 C 
ATOM     10  C   UNL     1      26.587 -24.977 -14.672  1.00  0.00     0.041 C 
ATOM     11  C   UNL     1      26.984 -26.458 -14.737  1.00  0.00     0.150 C 
ATOM     12  C   UNL     1      27.462 -27.022 -13.374  1.00  0.00     0.174 C 
ATOM     13  O   UNL     1      25.999 -27.268 -15.373  1.00  0.00    -0.344 OA
ATOM     14  C   UNL     1      26.266 -27.347 -12.469  1.00  0.00     0.179 C 
ATOM     15  C   UNL     1      25.272 -28.236 -13.231  1.00  0.00     0.202 C 
BRANCH  12  16
ATOM     16  O   UNL     1      28.221 -28.188 -13.580  1.00  0.00    -0.388 OA
ATOM     17  H   UNL     1      27.604 -28.881 -13.934  1.00  0.00     0.211 HD
ENDBRANCH  12  16
BRANCH  14  18
ATOM     18  O   UNL     1      26.723 -28.004 -11.310  1.00  0.00    -0.387 OA
ATOM     19  H   UNL     1      26.243 -27.597 -10.546  1.00  0.00     0.211 HD
ENDBRANCH  14  18
BRANCH  15  20
ATOM     20  O   UNL     1      24.112 -28.453 -12.475  1.00  0.00    -0.385 OA
ATOM     21  H   UNL     1      23.366 -28.597 -13.115  1.00  0.00     0.211 HD
ENDBRANCH  15  20
ENDBRANCH   8   9
ENDBRANCH   7   8
ENDBRANCH   1   7
BRANCH   2  22
ATOM     22  O   UNL     1      21.882 -22.980 -14.970  1.00  0.00    -0.387 OA
ATOM     23  H   UNL     1      21.295 -22.630 -14.252  1.00  0.00     0.211 HD
ENDBRANCH   2  22
BRANCH   3  24
ATOM     24  O   UNL     1      23.856 -24.597 -12.399  1.00  0.00    -0.387 OA
ATOM     25  H   UNL     1      24.056 -25.267 -13.103  1.00  0.00     0.211 HD
ENDBRANCH   3  24
BRANCH   5  26
ATOM     26  O   UNL     1      21.635 -26.354 -11.883  1.00  0.00    -0.462 OA
BRANCH  26  27
ATOM     27  C   UNL     1      20.986 -27.471 -11.353  1.00  0.00     0.130 A 
ATOM     28  C   UNL     1      21.281 -27.909 -10.053  1.00  0.00     0.093 A 
ATOM     29  C   UNL     1      20.096 -28.203 -12.142  1.00  0.00     0.094 A 
ATOM     30  C   UNL     1      20.771 -29.130  -9.577  1.00  0.00     0.133 A 
ATOM     31  C   UNL     1      19.653 -29.451 -11.710  1.00  0.00     0.138 A 
ATOM     32  C   UNL     1      19.965 -29.918 -10.417  1.00  0.00     0.102 A 
ATOM     33  O   UNL     1      18.984 -30.294 -12.602  1.00  0.00    -0.484 OA
ATOM     34  C   UNL     1      19.565 -31.303 -10.070  1.00  0.00     0.174 C 
ATOM     35  C   UNL     1      19.229 -31.701 -12.551  1.00  0.00     0.211 C 
ATOM     36  O   UNL     1      19.735 -31.742  -8.895  1.00  0.00    -0.294 OA
ATOM     37  C   UNL     1      18.970 -32.216 -11.112  1.00  0.00     0.131 C 
BRANCH  30  38
ATOM     38  O   UNL     1      21.104 -29.555  -8.295  1.00  0.00    -0.507 OA
ATOM     39  H   UNL     1      21.386 -30.515  -8.112  1.00  0.00     0.293 HD
ENDBRANCH  30  38
BRANCH  35  40
ATOM     40  C   UNL     1      20.630 -31.954 -13.093  1.00  0.00    -0.003 A 
ATOM     41  C   UNL     1      21.039 -31.256 -14.240  1.00  0.00     0.057 A 
ATOM     42  C   UNL     1      21.617 -32.632 -12.350  1.00  0.00     0.011 A 
ATOM     43  C   UNL     1      22.397 -31.133 -14.564  1.00  0.00     0.158 A 
ATOM     44  C   UNL     1      22.970 -32.491 -12.649  1.00  0.00     0.051 A 
ATOM     45  C   UNL     1      23.379 -31.687 -13.721  1.00  0.00     0.160 A 
BRANCH  43  46
ATOM     46  O   UNL     1      22.739 -30.409 -15.707  1.00  0.00    -0.504 OA
ATOM     47  H   UNL     1      23.706 -30.219 -15.953  1.00  0.00     0.293 HD
ENDBRANCH  43  46
BRANCH  45  48
ATOM     48  O   UNL     1      24.731 -31.399 -13.956  1.00  0.00    -0.493 OA
ATOM     49  C   UNL     1      25.469 -31.865 -15.084  1.00  0.00     0.278 C 
ENDBRANCH  45  48
ENDBRANCH  35  40
ENDBRANCH  26  27
ENDBRANCH   5  26
BRANCH   4  50
ATOM     50  O   UNL     1      21.793 -23.814 -10.785  1.00  0.00    -0.384 OA
ATOM     51  H   UNL     1      21.426 -24.632 -10.358  1.00  0.00     0.211 HD
ENDBRANCH   4  50
TORSDOF 15
ENDMDL
MODEL 5
REMARK VINA RESULT:    -7.245      4.360     10.210
REMARK INTER + INTRA:         -13.697
REMARK INTER:                 -11.731
REMARK INTRA:                  -1.966
REMARK UNBOUND:                -1.793
REMARK SMILES COc1ccc([C@H]2CC(=O)c3c(O)cc(O[C@@H]4O[C@H](CO[C@H]5O[C@@H](C)[C@H](O)[C@H](O)[C@H]5O)[C@@H](O)[C@H](O)[C@@H]4O)cc3O2)cc1O
REMARK SMILES IDX 19 1 32 2 34 3 36 4 17 5 18 6 20 7 21 8 22 9 25 10 24 11
REMARK SMILES IDX 26 12 23 13 28 14 30 15 27 16 29 18 31 20 33 22 35 24 16 26
REMARK SMILES IDX 15 27 14 28 38 29 12 30 39 31 11 32 40 33 9 34 7 35 10 36
REMARK SMILES IDX 8 37 13 38 6 40 41 41 5 42 42 43 4 44 3 45 43 46 2 48 1 49
REMARK SMILES IDX 37 50
REMARK H PARENT 27 17 29 19 31 21 33 23 35 25 13 39 43 47 37 51
REMARK Flexibility Score: inf
ROOT
ATOM      1  C   UNL     1      22.240 -31.854 -14.789  1.00  0.00     0.180 C 
ATOM      2  C   UNL     1      23.034 -33.172 -14.544  1.00  0.00     0.177 C 
ATOM      3  C   UNL     1      24.552 -32.963 -14.660  1.00  0.00     0.180 C 
ATOM      4  C   UNL     1      24.868 -32.209 -15.954  1.00  0.00     0.214 C 
ATOM      5  C   UNL     1      24.021 -30.933 -16.083  1.00  0.00     0.339 C 
ATOM      6  O   UNL     1      22.626 -31.177 -15.978  1.00  0.00    -0.332 OA
ENDROOT
BRANCH   1   7
ATOM      7  C   UNL     1      22.093 -30.873 -13.581  1.00  0.00     0.198 C 
BRANCH   7   8
ATOM      8  O   UNL     1      20.774 -30.854 -13.078  1.00  0.00    -0.347 OA
BRANCH   8   9
ATOM      9  C   UNL     1      20.514 -32.014 -12.299  1.00  0.00     0.281 C 
ATOM     10  C   UNL     1      21.418 -29.632 -10.498  1.00  0.00     0.041 C 
ATOM     11  C   UNL     1      20.904 -31.034 -10.145  1.00  0.00     0.150 C 
ATOM     12  C   UNL     1      19.393 -31.060  -9.795  1.00  0.00     0.174 C 
ATOM     13  O   UNL     1      21.282 -32.020 -11.102  1.00  0.00    -0.344 OA
ATOM     14  C   UNL     1      18.538 -31.031 -11.070  1.00  0.00     0.179 C 
ATOM     15  C   UNL     1      19.005 -32.136 -12.028  1.00  0.00     0.202 C 
BRANCH  12  16
ATOM     16  O   UNL     1      19.094 -32.222  -9.060  1.00  0.00    -0.388 OA
ATOM     17  H   UNL     1      19.416 -32.997  -9.592  1.00  0.00     0.211 HD
ENDBRANCH  12  16
BRANCH  14  18
ATOM     18  O   UNL     1      17.185 -31.218 -10.728  1.00  0.00    -0.387 OA
ATOM     19  H   UNL     1      16.883 -30.379 -10.300  1.00  0.00     0.211 HD
ENDBRANCH  14  18
BRANCH  15  20
ATOM     20  O   UNL     1      18.325 -32.061 -13.251  1.00  0.00    -0.385 OA
ATOM     21  H   UNL     1      18.292 -31.103 -13.511  1.00  0.00     0.211 HD
ENDBRANCH  15  20
ENDBRANCH   8   9
ENDBRANCH   7   8
ENDBRANCH   1   7
BRANCH   2  22
ATOM     22  O   UNL     1      22.626 -34.125 -15.491  1.00  0.00    -0.387 OA
ATOM     23  H   UNL     1      22.813 -35.018 -15.106  1.00  0.00     0.211 HD
ENDBRANCH   2  22
BRANCH   3  24
ATOM     24  O   UNL     1      25.049 -32.261 -13.548  1.00  0.00    -0.387 OA
ATOM     25  H   UNL     1      24.262 -31.890 -13.072  1.00  0.00     0.211 HD
ENDBRANCH   3  24
BRANCH   5  26
ATOM     26  O   UNL     1      24.459 -29.942 -15.148  1.00  0.00    -0.462 OA
BRANCH  26  27
ATOM     27  C   UNL     1      24.230 -28.584 -15.377  1.00  0.00     0.130 A 
ATOM     28  C   UNL     1      25.268 -27.655 -15.214  1.00  0.00     0.093 A 
ATOM     29  C   UNL     1      22.946 -28.135 -15.697  1.00  0.00     0.094 A 
ATOM     30  C   UNL     1      25.006 -26.274 -15.265  1.00  0.00     0.133 A 
ATOM     31  C   UNL     1      22.663 -26.771 -15.669  1.00  0.00     0.138 A 
ATOM     32  C   UNL     1      23.691 -25.827 -15.476  1.00  0.00     0.102 A 
ATOM     33  O   UNL     1      21.335 -26.341 -15.724  1.00  0.00    -0.484 OA
ATOM     34  C   UNL     1      23.300 -24.403 -15.336  1.00  0.00     0.174 C 
ATOM     35  C   UNL     1      20.931 -25.215 -14.940  1.00  0.00     0.211 C 
ATOM     36  O   UNL     1      24.185 -23.502 -15.255  1.00  0.00    -0.294 OA
ATOM     37  C   UNL     1      21.846 -24.008 -15.265  1.00  0.00     0.131 C 
BRANCH  30  38
ATOM     38  O   UNL     1      26.050 -25.374 -15.070  1.00  0.00    -0.507 OA
ATOM     39  H   UNL     1      25.917 -24.519 -14.536  1.00  0.00     0.293 HD
ENDBRANCH  30  38
BRANCH  35  40
ATOM     40  C   UNL     1      20.912 -25.646 -13.478  1.00  0.00    -0.003 A 
ATOM     41  C   UNL     1      21.529 -24.817 -12.529  1.00  0.00     0.057 A 
ATOM     42  C   UNL     1      20.077 -26.677 -13.006  1.00  0.00     0.011 A 
ATOM     43  C   UNL     1      21.226 -24.932 -11.166  1.00  0.00     0.158 A 
ATOM     44  C   UNL     1      19.748 -26.779 -11.656  1.00  0.00     0.051 A 
ATOM     45  C   UNL     1      20.269 -25.867 -10.729  1.00  0.00     0.160 A 
BRANCH  43  46
ATOM     46  O   UNL     1      21.860 -24.064 -10.274  1.00  0.00    -0.504 OA
ATOM     47  H   UNL     1      21.653 -24.072  -9.280  1.00  0.00     0.293 HD
ENDBRANCH  43  46
BRANCH  45  48
ATOM     48  O   UNL     1      19.841 -25.843  -9.394  1.00  0.00    -0.493 OA
ATOM     49  C   UNL     1      20.359 -26.688  -8.368  1.00  0.00     0.278 C 
ENDBRANCH  45  48
ENDBRANCH  35  40
ENDBRANCH  26  27
ENDBRANCH   5  26
BRANCH   4  50
ATOM     50  O   UNL     1      26.234 -31.899 -15.985  1.00  0.00    -0.384 OA
ATOM     51  H   UNL     1      26.316 -31.010 -16.419  1.00  0.00     0.211 HD
ENDBRANCH   4  50
TORSDOF 15
ENDMDL
MODEL 6
REMARK VINA RESULT:    -7.108      3.517      9.927
REMARK INTER + INTRA:         -13.472
REMARK INTER:                 -11.253
REMARK INTRA:                  -2.219
REMARK UNBOUND:                -1.793
REMARK SMILES COc1ccc([C@H]2CC(=O)c3c(O)cc(O[C@@H]4O[C@H](CO[C@H]5O[C@@H](C)[C@H](O)[C@H](O)[C@H]5O)[C@@H](O)[C@H](O)[C@@H]4O)cc3O2)cc1O
REMARK SMILES IDX 19 1 32 2 34 3 36 4 17 5 18 6 20 7 21 8 22 9 25 10 24 11
REMARK SMILES IDX 26 12 23 13 28 14 30 15 27 16 29 18 31 20 33 22 35 24 16 26
REMARK SMILES IDX 15 27 14 28 38 29 12 30 39 31 11 32 40 33 9 34 7 35 10 36
REMARK SMILES IDX 8 37 13 38 6 40 41 41 5 42 42 43 4 44 3 45 43 46 2 48 1 49
REMARK SMILES IDX 37 50
REMARK H PARENT 27 17 29 19 31 21 33 23 35 25 13 39 43 47 37 51
REMARK Flexibility Score: inf
ROOT
ATOM      1  C   UNL     1      20.055 -31.495 -15.321  1.00  0.00     0.180 C 
ATOM      2  C   UNL     1      20.125 -33.008 -14.953  1.00  0.00     0.177 C 
ATOM      3  C   UNL     1      21.462 -33.381 -14.295  1.00  0.00     0.180 C 
ATOM      4  C   UNL     1      22.618 -32.832 -15.134  1.00  0.00     0.214 C 
ATOM      5  C   UNL     1      22.433 -31.336 -15.434  1.00  0.00     0.339 C 
ATOM      6  O   UNL     1      21.187 -31.041 -16.050  1.00  0.00    -0.332 OA
ENDROOT
BRANCH   1   7
ATOM      7  C   UNL     1      19.655 -30.501 -14.185  1.00  0.00     0.198 C 
BRANCH   7   8
ATOM      8  O   UNL     1      19.509 -31.155 -12.942  1.00  0.00    -0.347 OA
BRANCH   8   9
ATOM      9  C   UNL     1      19.028 -30.257 -11.952  1.00  0.00     0.281 C 
ATOM     10  C   UNL     1      18.215 -33.196 -11.291  1.00  0.00     0.041 C 
ATOM     11  C   UNL     1      18.059 -31.895 -10.492  1.00  0.00     0.150 C 
ATOM     12  C   UNL     1      19.172 -31.693  -9.432  1.00  0.00     0.174 C 
ATOM     13  O   UNL     1      17.853 -30.756 -11.323  1.00  0.00    -0.344 OA
ATOM     14  C   UNL     1      20.461 -31.176 -10.086  1.00  0.00     0.179 C 
ATOM     15  C   UNL     1      20.144 -29.942 -10.942  1.00  0.00     0.202 C 
BRANCH  12  16
ATOM     16  O   UNL     1      18.742 -30.773  -8.459  1.00  0.00    -0.388 OA
ATOM     17  H   UNL     1      18.869 -31.202  -7.572  1.00  0.00     0.211 HD
ENDBRANCH  12  16
BRANCH  14  18
ATOM     18  O   UNL     1      21.395 -30.851  -9.083  1.00  0.00    -0.387 OA
ATOM     19  H   UNL     1      20.963 -30.174  -8.504  1.00  0.00     0.211 HD
ENDBRANCH  14  18
BRANCH  15  20
ATOM     20  O   UNL     1      21.277 -29.517 -11.649  1.00  0.00    -0.385 OA
ATOM     21  H   UNL     1      21.827 -28.976 -11.024  1.00  0.00     0.211 HD
ENDBRANCH  15  20
ENDBRANCH   8   9
ENDBRANCH   7   8
ENDBRANCH   1   7
BRANCH   2  22
ATOM     22  O   UNL     1      19.961 -33.764 -16.125  1.00  0.00    -0.387 OA
ATOM     23  H   UNL     1      20.385 -33.256 -16.862  1.00  0.00     0.211 HD
ENDBRANCH   2  22
BRANCH   3  24
ATOM     24  O   UNL     1      21.531 -32.888 -12.980  1.00  0.00    -0.387 OA
ATOM     25  H   UNL     1      21.841 -31.949 -13.046  1.00  0.00     0.211 HD
ENDBRANCH   3  24
BRANCH   5  26
ATOM     26  O   UNL     1      22.640 -30.557 -14.253  1.00  0.00    -0.462 OA
BRANCH  26  27
ATOM     27  C   UNL     1      23.840 -29.876 -14.040  1.00  0.00     0.130 A 
ATOM     28  C   UNL     1      24.489 -29.958 -12.799  1.00  0.00     0.093 A 
ATOM     29  C   UNL     1      24.361 -29.047 -15.037  1.00  0.00     0.094 A 
ATOM     30  C   UNL     1      25.596 -29.138 -12.515  1.00  0.00     0.133 A 
ATOM     31  C   UNL     1      25.405 -28.174 -14.736  1.00  0.00     0.138 A 
ATOM     32  C   UNL     1      26.048 -28.226 -13.482  1.00  0.00     0.102 A 
ATOM     33  O   UNL     1      25.746 -27.168 -15.643  1.00  0.00    -0.484 OA
ATOM     34  C   UNL     1      27.066 -27.188 -13.188  1.00  0.00     0.174 C 
ATOM     35  C   UNL     1      26.130 -25.882 -15.149  1.00  0.00     0.211 C 
ATOM     36  O   UNL     1      27.741 -27.240 -12.119  1.00  0.00    -0.294 OA
ATOM     37  C   UNL     1      27.297 -26.045 -14.144  1.00  0.00     0.131 C 
BRANCH  30  38
ATOM     38  O   UNL     1      26.202 -29.220 -11.264  1.00  0.00    -0.507 OA
ATOM     39  H   UNL     1      26.449 -30.118 -10.854  1.00  0.00     0.293 HD
ENDBRANCH  30  38
BRANCH  35  40
ATOM     40  C   UNL     1      24.883 -25.201 -14.598  1.00  0.00    -0.003 A 
ATOM     41  C   UNL     1      25.016 -24.371 -13.474  1.00  0.00     0.057 A 
ATOM     42  C   UNL     1      23.673 -25.144 -15.317  1.00  0.00     0.011 A 
ATOM     43  C   UNL     1      24.030 -23.429 -13.152  1.00  0.00     0.158 A 
ATOM     44  C   UNL     1      22.702 -24.190 -15.021  1.00  0.00     0.051 A 
ATOM     45  C   UNL     1      22.899 -23.278 -13.976  1.00  0.00     0.160 A 
BRANCH  43  46
ATOM     46  O   UNL     1      24.232 -22.619 -12.033  1.00  0.00    -0.504 OA
ATOM     47  H   UNL     1      25.100 -22.637 -11.507  1.00  0.00     0.293 HD
ENDBRANCH  43  46
BRANCH  45  48
ATOM     48  O   UNL     1      22.018 -22.211 -13.749  1.00  0.00    -0.493 OA
ATOM     49  C   UNL     1      20.642 -22.363 -13.405  1.00  0.00     0.278 C 
ENDBRANCH  45  48
ENDBRANCH  35  40
ENDBRANCH  26  27
ENDBRANCH   5  26
BRANCH   4  50
ATOM     50  O   UNL     1      23.826 -33.054 -14.458  1.00  0.00    -0.384 OA
ATOM     51  H   UNL     1      24.533 -33.128 -15.152  1.00  0.00     0.211 HD
ENDBRANCH   4  50
TORSDOF 15
ENDMDL
MODEL 7
REMARK VINA RESULT:    -7.103      4.265      7.304
REMARK INTER + INTRA:         -13.463
REMARK INTER:                 -11.641
REMARK INTRA:                  -1.823
REMARK UNBOUND:                -1.793
REMARK SMILES COc1ccc([C@H]2CC(=O)c3c(O)cc(O[C@@H]4O[C@H](CO[C@H]5O[C@@H](C)[C@H](O)[C@H](O)[C@H]5O)[C@@H](O)[C@H](O)[C@@H]4O)cc3O2)cc1O
REMARK SMILES IDX 19 1 32 2 34 3 36 4 17 5 18 6 20 7 21 8 22 9 25 10 24 11
REMARK SMILES IDX 26 12 23 13 28 14 30 15 27 16 29 18 31 20 33 22 35 24 16 26
REMARK SMILES IDX 15 27 14 28 38 29 12 30 39 31 11 32 40 33 9 34 7 35 10 36
REMARK SMILES IDX 8 37 13 38 6 40 41 41 5 42 42 43 4 44 3 45 43 46 2 48 1 49
REMARK SMILES IDX 37 50
REMARK H PARENT 27 17 29 19 31 21 33 23 35 25 13 39 43 47 37 51
REMARK Flexibility Score: inf
ROOT
ATOM      1  C   UNL     1      22.204 -25.340 -15.388  1.00  0.00     0.180 C 
ATOM      2  C   UNL     1      22.444 -24.439 -14.140  1.00  0.00     0.177 C 
ATOM      3  C   UNL     1      21.857 -25.054 -12.860  1.00  0.00     0.180 C 
ATOM      4  C   UNL     1      20.412 -25.489 -13.116  1.00  0.00     0.214 C 
ATOM      5  C   UNL     1      20.304 -26.367 -14.372  1.00  0.00     0.339 C 
ATOM      6  O   UNL     1      20.852 -25.754 -15.531  1.00  0.00    -0.332 OA
ENDROOT
BRANCH   1   7
ATOM      7  C   UNL     1      23.202 -26.519 -15.621  1.00  0.00     0.198 C 
BRANCH   7   8
ATOM      8  O   UNL     1      24.186 -26.581 -14.611  1.00  0.00    -0.347 OA
BRANCH   8   9
ATOM      9  C   UNL     1      25.074 -27.668 -14.835  1.00  0.00     0.281 C 
ATOM     10  C   UNL     1      26.626 -24.967 -14.684  1.00  0.00     0.041 C 
ATOM     11  C   UNL     1      27.119 -26.417 -14.778  1.00  0.00     0.150 C 
ATOM     12  C   UNL     1      27.515 -27.017 -13.404  1.00  0.00     0.174 C 
ATOM     13  O   UNL     1      26.242 -27.252 -15.531  1.00  0.00    -0.344 OA
ATOM     14  C   UNL     1      26.270 -27.455 -12.621  1.00  0.00     0.179 C 
ATOM     15  C   UNL     1      25.400 -28.362 -13.503  1.00  0.00     0.202 C 
BRANCH  12  16
ATOM     16  O   UNL     1      28.360 -28.125 -13.594  1.00  0.00    -0.388 OA
ATOM     17  H   UNL     1      29.026 -28.116 -12.858  1.00  0.00     0.211 HD
ENDBRANCH  12  16
BRANCH  14  18
ATOM     18  O   UNL     1      26.668 -28.139 -11.456  1.00  0.00    -0.387 OA
ATOM     19  H   UNL     1      25.996 -28.848 -11.301  1.00  0.00     0.211 HD
ENDBRANCH  14  18
BRANCH  15  20
ATOM     20  O   UNL     1      24.197 -28.683 -12.860  1.00  0.00    -0.385 OA
ATOM     21  H   UNL     1      24.294 -29.601 -12.494  1.00  0.00     0.211 HD
ENDBRANCH  15  20
ENDBRANCH   8   9
ENDBRANCH   7   8
ENDBRANCH   1   7
BRANCH   2  22
ATOM     22  O   UNL     1      21.846 -23.188 -14.367  1.00  0.00    -0.387 OA
ATOM     23  H   UNL     1      22.578 -22.532 -14.489  1.00  0.00     0.211 HD
ENDBRANCH   2  22
BRANCH   3  24
ATOM     24  O   UNL     1      22.631 -26.146 -12.427  1.00  0.00    -0.387 OA
ATOM     25  H   UNL     1      23.192 -26.418 -13.197  1.00  0.00     0.211 HD
ENDBRANCH   3  24
BRANCH   5  26
ATOM     26  O   UNL     1      20.875 -27.658 -14.135  1.00  0.00    -0.462 OA
BRANCH  26  27
ATOM     27  C   UNL     1      20.128 -28.678 -13.543  1.00  0.00     0.130 A 
ATOM     28  C   UNL     1      18.739 -28.545 -13.399  1.00  0.00     0.093 A 
ATOM     29  C   UNL     1      20.771 -29.805 -13.023  1.00  0.00     0.094 A 
ATOM     30  C   UNL     1      18.005 -29.481 -12.648  1.00  0.00     0.133 A 
ATOM     31  C   UNL     1      20.066 -30.690 -12.210  1.00  0.00     0.138 A 
ATOM     32  C   UNL     1      18.674 -30.552 -12.032  1.00  0.00     0.102 A 
ATOM     33  O   UNL     1      20.760 -31.658 -11.479  1.00  0.00    -0.484 OA
ATOM     34  C   UNL     1      18.012 -31.453 -11.059  1.00  0.00     0.174 C 
ATOM     35  C   UNL     1      20.322 -31.983 -10.158  1.00  0.00     0.211 C 
ATOM     36  O   UNL     1      16.753 -31.439 -10.927  1.00  0.00    -0.294 OA
ATOM     37  C   UNL     1      18.826 -32.385 -10.197  1.00  0.00     0.131 C 
BRANCH  30  38
ATOM     38  O   UNL     1      16.633 -29.307 -12.496  1.00  0.00    -0.507 OA
ATOM     39  H   UNL     1      16.091 -29.897 -11.868  1.00  0.00     0.293 HD
ENDBRANCH  30  38
BRANCH  35  40
ATOM     40  C   UNL     1      20.659 -30.807  -9.249  1.00  0.00    -0.003 A 
ATOM     41  C   UNL     1      21.216 -29.655  -9.826  1.00  0.00     0.057 A 
ATOM     42  C   UNL     1      20.188 -30.716  -7.925  1.00  0.00     0.011 A 
ATOM     43  C   UNL     1      21.191 -28.427  -9.153  1.00  0.00     0.158 A 
ATOM     44  C   UNL     1      20.132 -29.493  -7.260  1.00  0.00     0.051 A 
ATOM     45  C   UNL     1      20.573 -28.323  -7.892  1.00  0.00     0.160 A 
BRANCH  43  46
ATOM     46  O   UNL     1      21.744 -27.314  -9.789  1.00  0.00    -0.504 OA
ATOM     47  H   UNL     1      22.659 -27.347 -10.228  1.00  0.00     0.293 HD
ENDBRANCH  43  46
BRANCH  45  48
ATOM     48  O   UNL     1      20.391 -27.058  -7.316  1.00  0.00    -0.493 OA
ATOM     49  C   UNL     1      19.284 -26.200  -7.590  1.00  0.00     0.278 C 
ENDBRANCH  45  48
ENDBRANCH  35  40
ENDBRANCH  26  27
ENDBRANCH   5  26
BRANCH   4  50
ATOM     50  O   UNL     1      19.931 -26.174 -11.993  1.00  0.00    -0.384 OA
ATOM     51  H   UNL     1      20.315 -27.089 -12.028  1.00  0.00     0.211 HD
ENDBRANCH   4  50
TORSDOF 15
ENDMDL
MODEL 8
REMARK VINA RESULT:    -7.058      4.663     10.340
REMARK INTER + INTRA:         -13.390
REMARK INTER:                 -10.743
REMARK INTRA:                  -2.647
REMARK UNBOUND:                -1.793
REMARK SMILES COc1ccc([C@H]2CC(=O)c3c(O)cc(O[C@@H]4O[C@H](CO[C@H]5O[C@@H](C)[C@H](O)[C@H](O)[C@H]5O)[C@@H](O)[C@H](O)[C@@H]4O)cc3O2)cc1O
REMARK SMILES IDX 19 1 32 2 34 3 36 4 17 5 18 6 20 7 21 8 22 9 25 10 24 11
REMARK SMILES IDX 26 12 23 13 28 14 30 15 27 16 29 18 31 20 33 22 35 24 16 26
REMARK SMILES IDX 15 27 14 28 38 29 12 30 39 31 11 32 40 33 9 34 7 35 10 36
REMARK SMILES IDX 8 37 13 38 6 40 41 41 5 42 42 43 4 44 3 45 43 46 2 48 1 49
REMARK SMILES IDX 37 50
REMARK H PARENT 27 17 29 19 31 21 33 23 35 25 13 39 43 47 37 51
REMARK Flexibility Score: inf
ROOT
ATOM      1  C   UNL     1      22.114 -31.729 -14.816  1.00  0.00     0.180 C 
ATOM      2  C   UNL     1      23.009 -32.940 -14.414  1.00  0.00     0.177 C 
ATOM      3  C   UNL     1      24.495 -32.558 -14.331  1.00  0.00     0.180 C 
ATOM      4  C   UNL     1      24.903 -31.802 -15.597  1.00  0.00     0.214 C 
ATOM      5  C   UNL     1      23.944 -30.637 -15.889  1.00  0.00     0.339 C 
ATOM      6  O   UNL     1      22.584 -31.039 -15.966  1.00  0.00    -0.332 OA
ENDROOT
BRANCH   1   7
ATOM      7  C   UNL     1      21.691 -30.745 -13.678  1.00  0.00     0.198 C 
BRANCH   7   8
ATOM      8  O   UNL     1      21.078 -31.421 -12.601  1.00  0.00    -0.347 OA
BRANCH   8   9
ATOM      9  C   UNL     1      19.724 -31.014 -12.454  1.00  0.00     0.281 C 
ATOM     10  C   UNL     1      19.944 -34.118 -12.676  1.00  0.00     0.041 C 
ATOM     11  C   UNL     1      18.748 -33.203 -12.380  1.00  0.00     0.150 C 
ATOM     12  C   UNL     1      18.436 -33.077 -10.867  1.00  0.00     0.174 C 
ATOM     13  O   UNL     1      18.832 -31.948 -13.050  1.00  0.00    -0.344 OA
ATOM     14  C   UNL     1      19.400 -32.090 -10.192  1.00  0.00     0.179 C 
ATOM     15  C   UNL     1      19.409 -30.767 -10.970  1.00  0.00     0.202 C 
BRANCH  12  16
ATOM     16  O   UNL     1      17.114 -32.631 -10.688  1.00  0.00    -0.388 OA
ATOM     17  H   UNL     1      16.528 -33.231 -11.220  1.00  0.00     0.211 HD
ENDBRANCH  12  16
BRANCH  14  18
ATOM     18  O   UNL     1      18.992 -31.875  -8.862  1.00  0.00    -0.387 OA
ATOM     19  H   UNL     1      18.015 -31.719  -8.888  1.00  0.00     0.211 HD
ENDBRANCH  14  18
BRANCH  15  20
ATOM     20  O   UNL     1      20.367 -29.886 -10.451  1.00  0.00    -0.385 OA
ATOM     21  H   UNL     1      20.058 -28.963 -10.649  1.00  0.00     0.211 HD
ENDBRANCH  15  20
ENDBRANCH   8   9
ENDBRANCH   7   8
ENDBRANCH   1   7
BRANCH   2  22
ATOM     22  O   UNL     1      22.847 -33.955 -15.371  1.00  0.00    -0.387 OA
ATOM     23  H   UNL     1      22.377 -34.705 -14.925  1.00  0.00     0.211 HD
ENDBRANCH   2  22
BRANCH   3  24
ATOM     24  O   UNL     1      24.750 -31.779 -13.189  1.00  0.00    -0.387 OA
ATOM     25  H   UNL     1      25.161 -32.384 -12.519  1.00  0.00     0.211 HD
ENDBRANCH   3  24
BRANCH   5  26
ATOM     26  O   UNL     1      24.134 -29.581 -14.942  1.00  0.00    -0.462 OA
BRANCH  26  27
ATOM     27  C   UNL     1      23.923 -28.247 -15.298  1.00  0.00     0.130 A 
ATOM     28  C   UNL     1      24.965 -27.314 -15.190  1.00  0.00     0.093 A 
ATOM     29  C   UNL     1      22.652 -27.820 -15.692  1.00  0.00     0.094 A 
ATOM     30  C   UNL     1      24.717 -25.942 -15.373  1.00  0.00     0.133 A 
ATOM     31  C   UNL     1      22.381 -26.457 -15.794  1.00  0.00     0.138 A 
ATOM     32  C   UNL     1      23.412 -25.506 -15.659  1.00  0.00     0.102 A 
ATOM     33  O   UNL     1      21.058 -26.024 -15.924  1.00  0.00    -0.484 OA
ATOM     34  C   UNL     1      23.030 -24.073 -15.657  1.00  0.00     0.174 C 
ATOM     35  C   UNL     1      20.645 -24.831 -15.255  1.00  0.00     0.211 C 
ATOM     36  O   UNL     1      23.921 -23.174 -15.634  1.00  0.00    -0.294 OA
ATOM     37  C   UNL     1      21.579 -23.664 -15.662  1.00  0.00     0.131 C 
BRANCH  30  38
ATOM     38  O   UNL     1      25.763 -25.035 -15.230  1.00  0.00    -0.507 OA
ATOM     39  H   UNL     1      26.723 -25.299 -15.439  1.00  0.00     0.293 HD
ENDBRANCH  30  38
BRANCH  35  40
ATOM     40  C   UNL     1      20.583 -25.128 -13.762  1.00  0.00    -0.003 A 
ATOM     41  C   UNL     1      19.651 -26.074 -13.306  1.00  0.00     0.057 A 
ATOM     42  C   UNL     1      21.587 -24.712 -12.866  1.00  0.00     0.011 A 
ATOM     43  C   UNL     1      19.791 -26.677 -12.049  1.00  0.00     0.158 A 
ATOM     44  C   UNL     1      21.750 -25.326 -11.627  1.00  0.00     0.051 A 
ATOM     45  C   UNL     1      20.893 -26.361 -11.231  1.00  0.00     0.160 A 
BRANCH  43  46
ATOM     46  O   UNL     1      18.843 -27.625 -11.663  1.00  0.00    -0.504 OA
ATOM     47  H   UNL     1      18.918 -28.135 -10.788  1.00  0.00     0.293 HD
ENDBRANCH  43  46
BRANCH  45  48
ATOM     48  O   UNL     1      21.120 -27.104 -10.064  1.00  0.00    -0.493 OA
ATOM     49  C   UNL     1      20.707 -26.701  -8.760  1.00  0.00     0.278 C 
ENDBRANCH  45  48
ENDBRANCH  35  40
ENDBRANCH  26  27
ENDBRANCH   5  26
BRANCH   4  50
ATOM     50  O   UNL     1      26.216 -31.336 -15.455  1.00  0.00    -0.384 OA
ATOM     51  H   UNL     1      26.745 -32.083 -15.069  1.00  0.00     0.211 HD
ENDBRANCH   4  50
TORSDOF 15
ENDMDL
MODEL 9
REMARK VINA RESULT:    -6.951      3.472      8.632
REMARK INTER + INTRA:         -13.215
REMARK INTER:                 -10.093
REMARK INTRA:                  -3.122
REMARK UNBOUND:                -1.793
REMARK SMILES COc1ccc([C@H]2CC(=O)c3c(O)cc(O[C@@H]4O[C@H](CO[C@H]5O[C@@H](C)[C@H](O)[C@H](O)[C@H]5O)[C@@H](O)[C@H](O)[C@@H]4O)cc3O2)cc1O
REMARK SMILES IDX 19 1 32 2 34 3 36 4 17 5 18 6 20 7 21 8 22 9 25 10 24 11
REMARK SMILES IDX 26 12 23 13 28 14 30 15 27 16 29 18 31 20 33 22 35 24 16 26
REMARK SMILES IDX 15 27 14 28 38 29 12 30 39 31 11 32 40 33 9 34 7 35 10 36
REMARK SMILES IDX 8 37 13 38 6 40 41 41 5 42 42 43 4 44 3 45 43 46 2 48 1 49
REMARK SMILES IDX 37 50
REMARK H PARENT 27 17 29 19 31 21 33 23 35 25 13 39 43 47 37 51
REMARK Flexibility Score: inf
ROOT
ATOM      1  C   UNL     1      20.354 -30.439 -14.525  1.00  0.00     0.180 C 
ATOM      2  C   UNL     1      19.665 -31.800 -14.845  1.00  0.00     0.177 C 
ATOM      3  C   UNL     1      20.685 -32.929 -15.059  1.00  0.00     0.180 C 
ATOM      4  C   UNL     1      21.763 -32.466 -16.042  1.00  0.00     0.214 C 
ATOM      5  C   UNL     1      22.362 -31.114 -15.622  1.00  0.00     0.339 C 
ATOM      6  O   UNL     1      21.383 -30.101 -15.445  1.00  0.00    -0.332 OA
ENDROOT
BRANCH   1   7
ATOM      7  C   UNL     1      20.788 -30.188 -13.045  1.00  0.00     0.198 C 
BRANCH   7   8
ATOM      8  O   UNL     1      20.732 -28.819 -12.708  1.00  0.00    -0.347 OA
BRANCH   8   9
ATOM      9  C   UNL     1      19.716 -28.577 -11.744  1.00  0.00     0.281 C 
ATOM     10  C   UNL     1      22.505 -28.884 -10.380  1.00  0.00     0.041 C 
ATOM     11  C   UNL     1      21.134 -28.492  -9.812  1.00  0.00     0.150 C 
ATOM     12  C   UNL     1      20.948 -26.959  -9.671  1.00  0.00     0.174 C 
ATOM     13  O   UNL     1      20.053 -29.136 -10.480  1.00  0.00    -0.344 OA
ATOM     14  C   UNL     1      20.606 -26.324 -11.026  1.00  0.00     0.179 C 
ATOM     15  C   UNL     1      19.422 -27.070 -11.659  1.00  0.00     0.202 C 
BRANCH  12  16
ATOM     16  O   UNL     1      19.916 -26.686  -8.755  1.00  0.00    -0.388 OA
ATOM     17  H   UNL     1      19.502 -27.555  -8.513  1.00  0.00     0.211 HD
ENDBRANCH  12  16
BRANCH  14  18
ATOM     18  O   UNL     1      20.286 -24.966 -10.838  1.00  0.00    -0.387 OA
ATOM     19  H   UNL     1      20.398 -24.780  -9.872  1.00  0.00     0.211 HD
ENDBRANCH  14  18
BRANCH  15  20
ATOM     20  O   UNL     1      19.161 -26.593 -12.950  1.00  0.00    -0.385 OA
ATOM     21  H   UNL     1      19.464 -25.648 -12.982  1.00  0.00     0.211 HD
ENDBRANCH  15  20
ENDBRANCH   8   9
ENDBRANCH   7   8
ENDBRANCH   1   7
BRANCH   2  22
ATOM     22  O   UNL     1      18.892 -31.650 -16.008  1.00  0.00    -0.387 OA
ATOM     23  H   UNL     1      19.047 -30.732 -16.346  1.00  0.00     0.211 HD
ENDBRANCH   2  22
BRANCH   3  24
ATOM     24  O   UNL     1      21.265 -33.320 -13.840  1.00  0.00    -0.387 OA
ATOM     25  H   UNL     1      22.222 -33.501 -14.027  1.00  0.00     0.211 HD
ENDBRANCH   3  24
BRANCH   5  26
ATOM     26  O   UNL     1      23.185 -31.267 -14.462  1.00  0.00    -0.462 OA
BRANCH  26  27
ATOM     27  C   UNL     1      24.193 -30.347 -14.166  1.00  0.00     0.130 A 
ATOM     28  C   UNL     1      24.795 -30.342 -12.899  1.00  0.00     0.093 A 
ATOM     29  C   UNL     1      24.553 -29.377 -15.105  1.00  0.00     0.094 A 
ATOM     30  C   UNL     1      25.678 -29.310 -12.531  1.00  0.00     0.133 A 
ATOM     31  C   UNL     1      25.361 -28.309 -14.722  1.00  0.00     0.138 A 
ATOM     32  C   UNL     1      25.950 -28.275 -13.442  1.00  0.00     0.102 A 
ATOM     33  O   UNL     1      25.503 -27.210 -15.574  1.00  0.00    -0.484 OA
ATOM     34  C   UNL     1      26.696 -27.051 -13.060  1.00  0.00     0.174 C 
ATOM     35  C   UNL     1      25.568 -25.896 -15.014  1.00  0.00     0.211 C 
ATOM     36  O   UNL     1      27.324 -27.002 -11.962  1.00  0.00    -0.294 OA
ATOM     37  C   UNL     1      26.703 -25.842 -13.961  1.00  0.00     0.131 C 
BRANCH  30  38
ATOM     38  O   UNL     1      26.237 -29.313 -11.257  1.00  0.00    -0.507 OA
ATOM     39  H   UNL     1      26.891 -30.037 -10.969  1.00  0.00     0.293 HD
ENDBRANCH  30  38
BRANCH  35  40
ATOM     40  C   UNL     1      24.180 -25.537 -14.499  1.00  0.00    -0.003 A 
ATOM     41  C   UNL     1      24.074 -24.887 -13.259  1.00  0.00     0.057 A 
ATOM     42  C   UNL     1      23.036 -25.574 -15.320  1.00  0.00     0.011 A 
ATOM     43  C   UNL     1      22.910 -24.191 -12.906  1.00  0.00     0.158 A 
ATOM     44  C   UNL     1      21.886 -24.861 -14.990  1.00  0.00     0.051 A 
ATOM     45  C   UNL     1      21.833 -24.108 -13.810  1.00  0.00     0.160 A 
BRANCH  43  46
ATOM     46  O   UNL     1      22.876 -23.549 -11.668  1.00  0.00    -0.504 OA
ATOM     47  H   UNL     1      22.920 -24.065 -10.794  1.00  0.00     0.293 HD
ENDBRANCH  43  46
BRANCH  45  48
ATOM     48  O   UNL     1      20.756 -23.259 -13.521  1.00  0.00    -0.493 OA
ATOM     49  C   UNL     1      20.672 -21.896 -13.935  1.00  0.00     0.278 C 
ENDBRANCH  45  48
ENDBRANCH  35  40
ENDBRANCH  26  27
ENDBRANCH   5  26
BRANCH   4  50
ATOM     50  O   UNL     1      22.763 -33.444 -16.125  1.00  0.00    -0.384 OA
ATOM     51  H   UNL     1      22.864 -33.669 -17.087  1.00  0.00     0.211 HD
ENDBRANCH   4  50
TORSDOF 15
ENDMDL
