MODEL 1
REMARK VINA RESULT:    -4.327      0.000      0.000
REMARK INTER + INTRA:          -6.345
REMARK INTER:                  -5.845
REMARK INTRA:                  -0.500
REMARK UNBOUND:                -0.500
REMARK SMILES CCCCCCC=CC(=O)[O-]
REMARK SMILES IDX 5 1 6 2 7 3 8 4 9 5 10 6 11 7 4 8 3 9 2 10 1 11
REMARK H PARENT
REMARK Flexibility Score: inf
ROOT
ATOM      1  C   UNL     1     -35.012  43.241  40.612  1.00  0.00     0.004 C 
ENDROOT
BRANCH   1   2
ATOM      2  C   UNL     1     -34.805  44.734  40.323  1.00  0.00     0.027 C 
BRANCH   2   3
ATOM      3  C   UNL     1     -33.782  44.951  39.244  1.00  0.00    -0.025 C 
ATOM      4  C   UNL     1     -34.010  45.777  38.217  1.00  0.00     0.020 C 
BRANCH   4   5
ATOM      5  C   UNL     1     -33.035  45.973  37.133  1.00  0.00     0.064 C 
ATOM      6  O   UNL     1     -33.316  46.671  36.123  1.00  0.00    -0.545 OA
ATOM      7  O   UNL     1     -31.783  45.379  37.224  1.00  0.00    -0.545 OA
ENDBRANCH   4   5
ENDBRANCH   2   3
ENDBRANCH   1   2
BRANCH   1   8
ATOM      8  C   UNL     1     -34.388  42.349  39.524  1.00  0.00     0.000 C 
BRANCH   8   9
ATOM      9  C   UNL     1     -33.548  41.204  40.110  1.00  0.00    -0.000 C 
BRANCH   9  10
ATOM     10  C   UNL     1     -32.631  41.668  41.251  1.00  0.00    -0.003 C 
ATOM     11  C   UNL     1     -31.216  41.931  40.745  1.00  0.00     0.004 C 
ENDBRANCH   9  10
ENDBRANCH   8   9
ENDBRANCH   1   8
TORSDOF 6
ENDMDL
MODEL 2
REMARK VINA RESULT:    -4.324     11.883     13.322
REMARK INTER + INTRA:          -6.341
REMARK INTER:                  -5.829
REMARK INTRA:                  -0.512
REMARK UNBOUND:                -0.500
REMARK SMILES CCCCCCC=CC(=O)[O-]
REMARK SMILES IDX 5 1 6 2 7 3 8 4 9 5 10 6 11 7 4 8 3 9 2 10 1 11
REMARK H PARENT
REMARK Flexibility Score: inf
ROOT
ATOM      1  C   UNL     1     -38.653  39.011  46.881  1.00  0.00     0.004 C 
ENDROOT
BRANCH   1   2
ATOM      2  C   UNL     1     -40.069  38.420  46.867  1.00  0.00     0.027 C 
BRANCH   2   3
ATOM      3  C   UNL     1     -40.421  37.796  48.188  1.00  0.00    -0.025 C 
ATOM      4  C   UNL     1     -40.447  36.470  48.353  1.00  0.00     0.020 C 
BRANCH   4   5
ATOM      5  C   UNL     1     -40.826  35.842  49.630  1.00  0.00     0.064 C 
ATOM      6  O   UNL     1     -40.469  34.666  49.908  1.00  0.00    -0.545 OA
ATOM      7  O   UNL     1     -41.588  36.558  50.543  1.00  0.00    -0.545 OA
ENDBRANCH   4   5
ENDBRANCH   2   3
ENDBRANCH   1   2
BRANCH   1   8
ATOM      8  C   UNL     1     -37.671  38.184  46.033  1.00  0.00     0.000 C 
BRANCH   8   9
ATOM      9  C   UNL     1     -36.364  37.872  46.777  1.00  0.00    -0.000 C 
BRANCH   9  10
ATOM     10  C   UNL     1     -35.956  36.396  46.658  1.00  0.00    -0.003 C 
ATOM     11  C   UNL     1     -37.153  35.523  46.293  1.00  0.00     0.004 C 
ENDBRANCH   9  10
ENDBRANCH   8   9
ENDBRANCH   1   8
TORSDOF 6
ENDMDL
MODEL 3
REMARK VINA RESULT:    -4.271     11.164     12.602
REMARK INTER + INTRA:          -6.269
REMARK INTER:                  -5.781
REMARK INTRA:                  -0.487
REMARK UNBOUND:                -0.500
REMARK SMILES CCCCCCC=CC(=O)[O-]
REMARK SMILES IDX 5 1 6 2 7 3 8 4 9 5 10 6 11 7 4 8 3 9 2 10 1 11
REMARK H PARENT
REMARK Flexibility Score: inf
ROOT
ATOM      1  C   UNL     1     -40.645  37.932  47.286  1.00  0.00     0.004 C 
ENDROOT
BRANCH   1   2
ATOM      2  C   UNL     1     -39.410  38.695  46.789  1.00  0.00     0.027 C 
BRANCH   2   3
ATOM      3  C   UNL     1     -38.180  37.831  46.813  1.00  0.00    -0.025 C 
ATOM      4  C   UNL     1     -37.010  38.288  47.271  1.00  0.00     0.020 C 
BRANCH   4   5
ATOM      5  C   UNL     1     -35.788  37.468  47.268  1.00  0.00     0.064 C 
ATOM      6  O   UNL     1     -35.797  36.287  46.829  1.00  0.00    -0.545 OA
ATOM      7  O   UNL     1     -34.604  38.005  47.756  1.00  0.00    -0.545 OA
ENDBRANCH   4   5
ENDBRANCH   2   3
ENDBRANCH   1   2
BRANCH   1   8
ATOM      8  C   UNL     1     -40.321  36.469  47.634  1.00  0.00     0.000 C 
BRANCH   8   9
ATOM      9  C   UNL     1     -40.806  36.074  49.038  1.00  0.00    -0.000 C 
BRANCH   9  10
ATOM     10  C   UNL     1     -40.434  37.113  50.105  1.00  0.00    -0.003 C 
ATOM     11  C   UNL     1     -41.675  37.618  50.836  1.00  0.00     0.004 C 
ENDBRANCH   9  10
ENDBRANCH   8   9
ENDBRANCH   1   8
TORSDOF 6
ENDMDL
MODEL 4
REMARK VINA RESULT:    -4.229     11.504     12.904
REMARK INTER + INTRA:          -6.212
REMARK INTER:                  -5.722
REMARK INTRA:                  -0.490
REMARK UNBOUND:                -0.500
REMARK SMILES CCCCCCC=CC(=O)[O-]
REMARK SMILES IDX 5 1 6 2 7 3 8 4 9 5 10 6 11 7 4 8 3 9 2 10 1 11
REMARK H PARENT
REMARK Flexibility Score: inf
ROOT
ATOM      1  C   UNL     1     -38.641  39.082  46.531  1.00  0.00     0.004 C 
ENDROOT
BRANCH   1   2
ATOM      2  C   UNL     1     -40.112  38.645  46.526  1.00  0.00     0.027 C 
BRANCH   2   3
ATOM      3  C   UNL     1     -40.520  38.064  47.851  1.00  0.00    -0.025 C 
ATOM      4  C   UNL     1     -40.371  36.764  48.122  1.00  0.00     0.020 C 
BRANCH   4   5
ATOM      5  C   UNL     1     -40.799  36.171  49.400  1.00  0.00     0.064 C 
ATOM      6  O   UNL     1     -40.420  35.020  49.743  1.00  0.00    -0.545 OA
ATOM      7  O   UNL     1     -41.634  36.894  50.242  1.00  0.00    -0.545 OA
ENDBRANCH   4   5
ENDBRANCH   2   3
ENDBRANCH   1   2
BRANCH   1   8
ATOM      8  C   UNL     1     -37.810  38.330  45.476  1.00  0.00     0.000 C 
BRANCH   8   9
ATOM      9  C   UNL     1     -37.115  37.085  46.049  1.00  0.00    -0.000 C 
BRANCH   9  10
ATOM     10  C   UNL     1     -36.171  37.420  47.213  1.00  0.00    -0.003 C 
ATOM     11  C   UNL     1     -34.850  37.988  46.703  1.00  0.00     0.004 C 
ENDBRANCH   9  10
ENDBRANCH   8   9
ENDBRANCH   1   8
TORSDOF 6
ENDMDL
MODEL 5
REMARK VINA RESULT:    -4.182      2.106      2.664
REMARK INTER + INTRA:          -6.149
REMARK INTER:                  -5.805
REMARK INTRA:                  -0.344
REMARK UNBOUND:                -0.500
REMARK SMILES CCCCCCC=CC(=O)[O-]
REMARK SMILES IDX 5 1 6 2 7 3 8 4 9 5 10 6 11 7 4 8 3 9 2 10 1 11
REMARK H PARENT
REMARK Flexibility Score: inf
ROOT
ATOM      1  C   UNL     1     -35.155  42.792  42.677  1.00  0.00     0.004 C 
ENDROOT
BRANCH   1   2
ATOM      2  C   UNL     1     -34.578  42.493  41.287  1.00  0.00     0.027 C 
BRANCH   2   3
ATOM      3  C   UNL     1     -34.702  43.677  40.371  1.00  0.00    -0.025 C 
ATOM      4  C   UNL     1     -34.320  43.617  39.090  1.00  0.00     0.020 C 
BRANCH   4   5
ATOM      5  C   UNL     1     -34.400  44.778  38.189  1.00  0.00     0.064 C 
ATOM      6  O   UNL     1     -35.163  45.748  38.442  1.00  0.00    -0.545 OA
ATOM      7  O   UNL     1     -33.620  44.804  37.040  1.00  0.00    -0.545 OA
ENDBRANCH   4   5
ENDBRANCH   2   3
ENDBRANCH   1   2
BRANCH   1   8
ATOM      8  C   UNL     1     -34.335  42.130  43.799  1.00  0.00     0.000 C 
BRANCH   8   9
ATOM      9  C   UNL     1     -33.236  41.202  43.259  1.00  0.00    -0.000 C 
BRANCH   9  10
ATOM     10  C   UNL     1     -31.857  41.509  43.862  1.00  0.00    -0.003 C 
ATOM     11  C   UNL     1     -30.760  41.402  42.806  1.00  0.00     0.004 C 
ENDBRANCH   9  10
ENDBRANCH   8   9
ENDBRANCH   1   8
TORSDOF 6
ENDMDL
MODEL 6
REMARK VINA RESULT:    -4.178      1.609      2.428
REMARK INTER + INTRA:          -6.143
REMARK INTER:                  -5.820
REMARK INTRA:                  -0.323
REMARK UNBOUND:                -0.500
REMARK SMILES CCCCCCC=CC(=O)[O-]
REMARK SMILES IDX 5 1 6 2 7 3 8 4 9 5 10 6 11 7 4 8 3 9 2 10 1 11
REMARK H PARENT
REMARK Flexibility Score: inf
ROOT
ATOM      1  C   UNL     1     -34.877  42.650  40.189  1.00  0.00     0.004 C 
ENDROOT
BRANCH   1   2
ATOM      2  C   UNL     1     -34.669  44.170  40.186  1.00  0.00     0.027 C 
BRANCH   2   3
ATOM      3  C   UNL     1     -33.651  44.586  39.161  1.00  0.00    -0.025 C 
ATOM      4  C   UNL     1     -33.917  45.529  38.251  1.00  0.00     0.020 C 
BRANCH   4   5
ATOM      5  C   UNL     1     -32.946  45.922  37.217  1.00  0.00     0.064 C 
ATOM      6  O   UNL     1     -31.743  45.553  37.279  1.00  0.00    -0.545 OA
ATOM      7  O   UNL     1     -33.362  46.714  36.155  1.00  0.00    -0.545 OA
ENDBRANCH   4   5
ENDBRANCH   2   3
ENDBRANCH   1   2
BRANCH   1   8
ATOM      8  C   UNL     1     -35.398  42.140  41.544  1.00  0.00     0.000 C 
BRANCH   8   9
ATOM      9  C   UNL     1     -35.587  43.271  42.568  1.00  0.00    -0.000 C 
BRANCH   9  10
ATOM     10  C   UNL     1     -35.187  42.851  43.990  1.00  0.00    -0.003 C 
ATOM     11  C   UNL     1     -34.003  41.888  43.966  1.00  0.00     0.004 C 
ENDBRANCH   9  10
ENDBRANCH   8   9
ENDBRANCH   1   8
TORSDOF 6
ENDMDL
MODEL 7
REMARK VINA RESULT:    -4.175      2.796      4.752
REMARK INTER + INTRA:          -6.140
REMARK INTER:                  -5.623
REMARK INTRA:                  -0.517
REMARK UNBOUND:                -0.500
REMARK SMILES CCCCCCC=CC(=O)[O-]
REMARK SMILES IDX 5 1 6 2 7 3 8 4 9 5 10 6 11 7 4 8 3 9 2 10 1 11
REMARK H PARENT
REMARK Flexibility Score: inf
ROOT
ATOM      1  C   UNL     1     -34.647  44.287  40.303  1.00  0.00     0.004 C 
ENDROOT
BRANCH   1   2
ATOM      2  C   UNL     1     -34.787  42.840  39.812  1.00  0.00     0.027 C 
BRANCH   2   3
ATOM      3  C   UNL     1     -33.633  41.989  40.263  1.00  0.00    -0.025 C 
ATOM      4  C   UNL     1     -32.402  42.494  40.403  1.00  0.00     0.020 C 
BRANCH   4   5
ATOM      5  C   UNL     1     -31.253  41.667  40.808  1.00  0.00     0.064 C 
ATOM      6  O   UNL     1     -30.088  42.144  40.841  1.00  0.00    -0.545 OA
ATOM      7  O   UNL     1     -31.458  40.340  41.160  1.00  0.00    -0.545 OA
ENDBRANCH   4   5
ENDBRANCH   2   3
ENDBRANCH   1   2
BRANCH   1   8
ATOM      8  C   UNL     1     -34.628  45.294  39.140  1.00  0.00     0.000 C 
BRANCH   8   9
ATOM      9  C   UNL     1     -34.268  44.639  37.797  1.00  0.00    -0.000 C 
BRANCH   9  10
ATOM     10  C   UNL     1     -33.400  45.546  36.912  1.00  0.00    -0.003 C 
ATOM     11  C   UNL     1     -31.942  45.518  37.360  1.00  0.00     0.004 C 
ENDBRANCH   9  10
ENDBRANCH   8   9
ENDBRANCH   1   8
TORSDOF 6
ENDMDL
MODEL 8
REMARK VINA RESULT:    -4.140      2.020      3.095
REMARK INTER + INTRA:          -6.093
REMARK INTER:                  -5.545
REMARK INTRA:                  -0.548
REMARK UNBOUND:                -0.500
REMARK SMILES CCCCCCC=CC(=O)[O-]
REMARK SMILES IDX 5 1 6 2 7 3 8 4 9 5 10 6 11 7 4 8 3 9 2 10 1 11
REMARK H PARENT
REMARK Flexibility Score: inf
ROOT
ATOM      1  C   UNL     1     -33.004  41.477  41.085  1.00  0.00     0.004 C 
ENDROOT
BRANCH   1   2
ATOM      2  C   UNL     1     -34.248  42.332  41.360  1.00  0.00     0.027 C 
BRANCH   2   3
ATOM      3  C   UNL     1     -34.690  43.075  40.130  1.00  0.00    -0.025 C 
ATOM      4  C   UNL     1     -33.979  44.090  39.630  1.00  0.00     0.020 C 
BRANCH   4   5
ATOM      5  C   UNL     1     -34.415  44.853  38.449  1.00  0.00     0.064 C 
ATOM      6  O   UNL     1     -35.220  45.816  38.557  1.00  0.00    -0.545 OA
ATOM      7  O   UNL     1     -33.932  44.504  37.195  1.00  0.00    -0.545 OA
ENDBRANCH   4   5
ENDBRANCH   2   3
ENDBRANCH   1   2
BRANCH   1   8
ATOM      8  C   UNL     1     -33.240  40.457  39.957  1.00  0.00     0.000 C 
BRANCH   8   9
ATOM      9  C   UNL     1     -34.003  39.212  40.436  1.00  0.00    -0.000 C 
BRANCH   9  10
ATOM     10  C   UNL     1     -35.252  38.924  39.591  1.00  0.00    -0.003 C 
ATOM     11  C   UNL     1     -36.494  39.558  40.212  1.00  0.00     0.004 C 
ENDBRANCH   9  10
ENDBRANCH   8   9
ENDBRANCH   1   8
TORSDOF 6
ENDMDL
MODEL 9
REMARK VINA RESULT:    -4.116     11.268     12.761
REMARK INTER + INTRA:          -6.060
REMARK INTER:                  -5.706
REMARK INTRA:                  -0.354
REMARK UNBOUND:                -0.500
REMARK SMILES CCCCCCC=CC(=O)[O-]
REMARK SMILES IDX 5 1 6 2 7 3 8 4 9 5 10 6 11 7 4 8 3 9 2 10 1 11
REMARK H PARENT
REMARK Flexibility Score: inf
ROOT
ATOM      1  C   UNL     1     -38.751  39.112  46.829  1.00  0.00     0.004 C 
ENDROOT
BRANCH   1   2
ATOM      2  C   UNL     1     -40.180  38.628  46.551  1.00  0.00     0.027 C 
BRANCH   2   3
ATOM      3  C   UNL     1     -40.627  37.613  47.565  1.00  0.00    -0.025 C 
ATOM      4  C   UNL     1     -40.634  37.886  48.874  1.00  0.00     0.020 C 
BRANCH   4   5
ATOM      5  C   UNL     1     -41.033  36.892  49.884  1.00  0.00     0.064 C 
ATOM      6  O   UNL     1     -41.774  37.209  50.852  1.00  0.00    -0.545 OA
ATOM      7  O   UNL     1     -40.586  35.582  49.767  1.00  0.00    -0.545 OA
ENDBRANCH   4   5
ENDBRANCH   2   3
ENDBRANCH   1   2
BRANCH   1   8
ATOM      8  C   UNL     1     -37.961  39.358  45.532  1.00  0.00     0.000 C 
BRANCH   8   9
ATOM      9  C   UNL     1     -38.863  39.770  44.359  1.00  0.00    -0.000 C 
BRANCH   9  10
ATOM     10  C   UNL     1     -38.442  39.119  43.033  1.00  0.00    -0.003 C 
ATOM     11  C   UNL     1     -37.380  38.046  43.262  1.00  0.00     0.004 C 
ENDBRANCH   9  10
ENDBRANCH   8   9
ENDBRANCH   1   8
TORSDOF 6
ENDMDL
