MODEL 1
REMARK VINA RESULT:    -4.501      0.000      0.000
REMARK INTER + INTRA:          -4.501
REMARK INTER:                  -4.501
REMARK INTRA:                   0.000
REMARK UNBOUND:                 0.000
REMARK SMILES CC(C)=C1CC[C@@H](C)CC1=O
REMARK SMILES IDX 8 1 7 2 6 3 5 4 4 5 2 6 1 7 3 8 10 9 11 10 9 11
REMARK H PARENT
REMARK Flexibility Score: inf
ROOT
ATOM      1  C   UNL     1      -9.379  12.737  19.059  1.00  0.00     0.008 C 
ATOM      2  C   UNL     1     -10.134  11.586  18.385  1.00  0.00    -0.006 C 
ATOM      3  C   UNL     1     -11.568  12.013  18.032  1.00  0.00     0.008 C 
ATOM      4  C   UNL     1     -12.307  10.907  17.266  1.00  0.00     0.039 C 
ATOM      5  C   UNL     1     -12.257   9.565  17.984  1.00  0.00    -0.006 C 
ATOM      6  C   UNL     1     -13.283   8.670  17.887  1.00  0.00    -0.070 C 
ATOM      7  C   UNL     1     -14.504   8.965  17.045  1.00  0.00     0.039 C 
ATOM      8  C   UNL     1     -13.270   7.359  18.639  1.00  0.00     0.039 C 
ATOM      9  C   UNL     1     -10.982   9.249  18.696  1.00  0.00     0.159 C 
ATOM     10  O   UNL     1     -10.566   8.064  18.796  1.00  0.00    -0.295 OA
ATOM     11  C   UNL     1     -10.165  10.354  19.302  1.00  0.00     0.084 C 
ENDROOT
TORSDOF 0
ENDMDL
MODEL 2
REMARK VINA RESULT:    -4.487     16.564     17.449
REMARK INTER + INTRA:          -4.487
REMARK INTER:                  -4.487
REMARK INTRA:                   0.000
REMARK UNBOUND:                 0.000
REMARK SMILES CC(C)=C1CC[C@@H](C)CC1=O
REMARK SMILES IDX 8 1 7 2 6 3 5 4 4 5 2 6 1 7 3 8 10 9 11 10 9 11
REMARK H PARENT
REMARK Flexibility Score: inf
ROOT
ATOM      1  C   UNL     1      -1.392   0.353  26.354  1.00  0.00     0.008 C 
ATOM      2  C   UNL     1      -1.785   0.142  27.821  1.00  0.00    -0.006 C 
ATOM      3  C   UNL     1      -3.206  -0.438  27.922  1.00  0.00     0.008 C 
ATOM      4  C   UNL     1      -3.578  -0.750  29.378  1.00  0.00     0.039 C 
ATOM      5  C   UNL     1      -3.364   0.440  30.304  1.00  0.00    -0.006 C 
ATOM      6  C   UNL     1      -4.159   0.640  31.396  1.00  0.00    -0.070 C 
ATOM      7  C   UNL     1      -5.272  -0.323  31.743  1.00  0.00     0.039 C 
ATOM      8  C   UNL     1      -3.993   1.847  32.290  1.00  0.00     0.039 C 
ATOM      9  C   UNL     1      -2.175   1.295  30.011  1.00  0.00     0.159 C 
ATOM     10  O   UNL     1      -1.545   1.879  30.932  1.00  0.00    -0.295 OA
ATOM     11  C   UNL     1      -1.703   1.466  28.595  1.00  0.00     0.084 C 
ENDROOT
TORSDOF 0
ENDMDL
MODEL 3
REMARK VINA RESULT:    -4.447     15.441     17.208
REMARK INTER + INTRA:          -4.447
REMARK INTER:                  -4.447
REMARK INTRA:                   0.000
REMARK UNBOUND:                 0.000
REMARK SMILES CC(C)=C1CC[C@@H](C)CC1=O
REMARK SMILES IDX 8 1 7 2 6 3 5 4 4 5 2 6 1 7 3 8 10 9 11 10 9 11
REMARK H PARENT
REMARK Flexibility Score: inf
ROOT
ATOM      1  C   UNL     1      -2.077  -0.421  26.132  1.00  0.00     0.008 C 
ATOM      2  C   UNL     1      -1.331   0.642  26.945  1.00  0.00    -0.006 C 
ATOM      3  C   UNL     1      -1.042   0.132  28.367  1.00  0.00     0.008 C 
ATOM      4  C   UNL     1      -0.208   1.144  29.163  1.00  0.00     0.039 C 
ATOM      5  C   UNL     1      -0.818   2.539  29.156  1.00  0.00    -0.006 C 
ATOM      6  C   UNL     1      -0.672   3.383  30.219  1.00  0.00    -0.070 C 
ATOM      7  C   UNL     1       0.119   2.974  31.442  1.00  0.00     0.039 C 
ATOM      8  C   UNL     1      -1.319   4.748  30.247  1.00  0.00     0.039 C 
ATOM      9  C   UNL     1      -1.475   2.961  27.883  1.00  0.00     0.159 C 
ATOM     10  O   UNL     1      -1.474   4.165  27.514  1.00  0.00    -0.295 OA
ATOM     11  C   UNL     1      -2.149   1.940  27.011  1.00  0.00     0.084 C 
ENDROOT
TORSDOF 0
ENDMDL
MODEL 4
REMARK VINA RESULT:    -4.431     15.411     16.771
REMARK INTER + INTRA:          -4.431
REMARK INTER:                  -4.431
REMARK INTRA:                   0.000
REMARK UNBOUND:                 0.000
REMARK SMILES CC(C)=C1CC[C@@H](C)CC1=O
REMARK SMILES IDX 8 1 7 2 6 3 5 4 4 5 2 6 1 7 3 8 10 9 11 10 9 11
REMARK H PARENT
REMARK Flexibility Score: inf
ROOT
ATOM      1  C   UNL     1      -0.299   3.819  30.968  1.00  0.00     0.008 C 
ATOM      2  C   UNL     1      -0.982   2.639  30.266  1.00  0.00    -0.006 C 
ATOM      3  C   UNL     1       0.050   1.794  29.501  1.00  0.00     0.008 C 
ATOM      4  C   UNL     1      -0.600   0.553  28.876  1.00  0.00     0.039 C 
ATOM      5  C   UNL     1      -1.819   0.896  28.029  1.00  0.00    -0.006 C 
ATOM      6  C   UNL     1      -2.151   0.154  26.931  1.00  0.00    -0.070 C 
ATOM      7  C   UNL     1      -1.334  -1.051  26.522  1.00  0.00     0.039 C 
ATOM      8  C   UNL     1      -3.325   0.517  26.051  1.00  0.00     0.039 C 
ATOM      9  C   UNL     1      -2.679   2.006  28.536  1.00  0.00     0.159 C 
ATOM     10  O   UNL     1      -3.924   2.011  28.342  1.00  0.00    -0.295 OA
ATOM     11  C   UNL     1      -2.065   3.143  29.301  1.00  0.00     0.084 C 
ENDROOT
TORSDOF 0
ENDMDL
MODEL 5
REMARK VINA RESULT:    -4.403     15.400     16.774
REMARK INTER + INTRA:          -4.403
REMARK INTER:                  -4.403
REMARK INTRA:                   0.000
REMARK UNBOUND:                 0.000
REMARK SMILES CC(C)=C1CC[C@@H](C)CC1=O
REMARK SMILES IDX 8 1 7 2 6 3 5 4 4 5 2 6 1 7 3 8 10 9 11 10 9 11
REMARK H PARENT
REMARK Flexibility Score: inf
ROOT
ATOM      1  C   UNL     1      -5.139   0.435  32.242  1.00  0.00     0.008 C 
ATOM      2  C   UNL     1      -4.805   0.427  30.746  1.00  0.00    -0.006 C 
ATOM      3  C   UNL     1      -3.831  -0.715  30.415  1.00  0.00     0.008 C 
ATOM      4  C   UNL     1      -3.564  -0.801  28.907  1.00  0.00     0.039 C 
ATOM      5  C   UNL     1      -3.126   0.532  28.314  1.00  0.00    -0.006 C 
ATOM      6  C   UNL     1      -2.267   0.589  27.255  1.00  0.00    -0.070 C 
ATOM      7  C   UNL     1      -1.729  -0.670  26.613  1.00  0.00     0.039 C 
ATOM      8  C   UNL     1      -1.781   1.906  26.694  1.00  0.00     0.039 C 
ATOM      9  C   UNL     1      -3.778   1.749  28.883  1.00  0.00     0.159 C 
ATOM     10  O   UNL     1      -3.995   2.768  28.174  1.00  0.00    -0.295 OA
ATOM     11  C   UNL     1      -4.198   1.773  30.325  1.00  0.00     0.084 C 
ENDROOT
TORSDOF 0
ENDMDL
MODEL 6
REMARK VINA RESULT:    -4.397     14.410     16.280
REMARK INTER + INTRA:          -4.397
REMARK INTER:                  -4.397
REMARK INTRA:                   0.000
REMARK UNBOUND:                 0.000
REMARK SMILES CC(C)=C1CC[C@@H](C)CC1=O
REMARK SMILES IDX 8 1 7 2 6 3 5 4 4 5 2 6 1 7 3 8 10 9 11 10 9 11
REMARK H PARENT
REMARK Flexibility Score: inf
ROOT
ATOM      1  C   UNL     1     -12.806   0.033  28.483  1.00  0.00     0.008 C 
ATOM      2  C   UNL     1     -12.643   0.773  29.816  1.00  0.00    -0.006 C 
ATOM      3  C   UNL     1     -13.009  -0.146  30.993  1.00  0.00     0.008 C 
ATOM      4  C   UNL     1     -12.756   0.544  32.339  1.00  0.00     0.039 C 
ATOM      5  C   UNL     1     -13.428   1.908  32.431  1.00  0.00    -0.006 C 
ATOM      6  C   UNL     1     -13.887   2.393  33.622  1.00  0.00    -0.070 C 
ATOM      7  C   UNL     1     -13.729   1.605  34.903  1.00  0.00     0.039 C 
ATOM      8  C   UNL     1     -14.605   3.719  33.717  1.00  0.00     0.039 C 
ATOM      9  C   UNL     1     -13.447   2.717  31.176  1.00  0.00     0.159 C 
ATOM     10  O   UNL     1     -13.394   3.975  31.207  1.00  0.00    -0.295 OA
ATOM     11  C   UNL     1     -13.523   2.032  29.841  1.00  0.00     0.084 C 
ENDROOT
TORSDOF 0
ENDMDL
MODEL 7
REMARK VINA RESULT:    -4.386     12.337     12.841
REMARK INTER + INTRA:          -4.386
REMARK INTER:                  -4.386
REMARK INTRA:                   0.000
REMARK UNBOUND:                 0.000
REMARK SMILES CC(C)=C1CC[C@@H](C)CC1=O
REMARK SMILES IDX 8 1 7 2 6 3 5 4 4 5 2 6 1 7 3 8 10 9 11 10 9 11
REMARK H PARENT
REMARK Flexibility Score: inf
ROOT
ATOM      1  C   UNL     1     -11.050  12.184  30.183  1.00  0.00     0.008 C 
ATOM      2  C   UNL     1     -12.382  11.439  30.036  1.00  0.00    -0.006 C 
ATOM      3  C   UNL     1     -13.560  12.362  30.387  1.00  0.00     0.008 C 
ATOM      4  C   UNL     1     -14.905  11.665  30.148  1.00  0.00     0.039 C 
ATOM      5  C   UNL     1     -14.994  10.313  30.845  1.00  0.00    -0.006 C 
ATOM      6  C   UNL     1     -16.183   9.834  31.314  1.00  0.00    -0.070 C 
ATOM      7  C   UNL     1     -17.466  10.617  31.144  1.00  0.00     0.039 C 
ATOM      8  C   UNL     1     -16.276   8.521  32.056  1.00  0.00     0.039 C 
ATOM      9  C   UNL     1     -13.738   9.507  30.876  1.00  0.00     0.159 C 
ATOM     10  O   UNL     1     -13.767   8.248  30.845  1.00  0.00    -0.295 OA
ATOM     11  C   UNL     1     -12.404  10.196  30.937  1.00  0.00     0.084 C 
ENDROOT
TORSDOF 0
ENDMDL
MODEL 8
REMARK VINA RESULT:    -4.370     15.542     16.815
REMARK INTER + INTRA:          -4.370
REMARK INTER:                  -4.370
REMARK INTRA:                   0.000
REMARK UNBOUND:                 0.000
REMARK SMILES CC(C)=C1CC[C@@H](C)CC1=O
REMARK SMILES IDX 8 1 7 2 6 3 5 4 4 5 2 6 1 7 3 8 10 9 11 10 9 11
REMARK H PARENT
REMARK Flexibility Score: inf
ROOT
ATOM      1  C   UNL     1      -4.018   1.676  32.142  1.00  0.00     0.008 C 
ATOM      2  C   UNL     1      -3.417   1.666  30.732  1.00  0.00    -0.006 C 
ATOM      3  C   UNL     1      -4.511   1.421  29.679  1.00  0.00     0.008 C 
ATOM      4  C   UNL     1      -3.945   1.508  28.256  1.00  0.00     0.039 C 
ATOM      5  C   UNL     1      -2.729   0.612  28.055  1.00  0.00    -0.006 C 
ATOM      6  C   UNL     1      -2.463   0.038  26.846  1.00  0.00    -0.070 C 
ATOM      7  C   UNL     1      -3.355   0.283  25.649  1.00  0.00     0.039 C 
ATOM      8  C   UNL     1      -1.292  -0.897  26.648  1.00  0.00     0.039 C 
ATOM      9  C   UNL     1      -1.798   0.500  29.217  1.00  0.00     0.159 C 
ATOM     10  O   UNL     1      -0.560   0.339  29.051  1.00  0.00    -0.295 OA
ATOM     11  C   UNL     1      -2.331   0.586  30.619  1.00  0.00     0.084 C 
ENDROOT
TORSDOF 0
ENDMDL
MODEL 9
REMARK VINA RESULT:    -4.296     16.423     17.565
REMARK INTER + INTRA:          -4.296
REMARK INTER:                  -4.296
REMARK INTRA:                   0.000
REMARK UNBOUND:                 0.000
REMARK SMILES CC(C)=C1CC[C@@H](C)CC1=O
REMARK SMILES IDX 8 1 7 2 6 3 5 4 4 5 2 6 1 7 3 8 10 9 11 10 9 11
REMARK H PARENT
REMARK Flexibility Score: inf
ROOT
ATOM      1  C   UNL     1      -1.564  -0.759  26.618  1.00  0.00     0.008 C 
ATOM      2  C   UNL     1      -1.742   0.395  27.610  1.00  0.00    -0.006 C 
ATOM      3  C   UNL     1      -0.613   0.390  28.654  1.00  0.00     0.008 C 
ATOM      4  C   UNL     1      -0.717   1.597  29.595  1.00  0.00     0.039 C 
ATOM      5  C   UNL     1      -2.097   1.728  30.227  1.00  0.00    -0.006 C 
ATOM      6  C   UNL     1      -2.257   2.247  31.479  1.00  0.00    -0.070 C 
ATOM      7  C   UNL     1      -1.072   2.733  32.284  1.00  0.00     0.039 C 
ATOM      8  C   UNL     1      -3.614   2.330  32.139  1.00  0.00     0.039 C 
ATOM      9  C   UNL     1      -3.254   1.365  29.356  1.00  0.00     0.159 C 
ATOM     10  O   UNL     1      -4.367   1.945  29.471  1.00  0.00    -0.295 OA
ATOM     11  C   UNL     1      -3.104   0.296  28.312  1.00  0.00     0.084 C 
ENDROOT
TORSDOF 0
ENDMDL
