MODEL 1
REMARK VINA RESULT:    39.698      0.000      0.000
REMARK INTER + INTRA:          63.166
REMARK INTER:                  59.425
REMARK INTRA:                   3.742
REMARK UNBOUND:                 3.742
REMARK SMILES C=C(CC[C@H](C(=O)[O-])[C@H]1[C@H](O)C[C@]2(C)C3=C(CC[C@]12C)[C@@]1(C)CC[C@H](OC(C)=O)C(C)(C)[C@@H]1CC3)C(C)C
REMARK SMILES IDX 4 1 5 2 6 3 7 4 8 5 9 6 10 7 19 8 12 9 13 10 18 11 20 12
REMARK SMILES IDX 14 13 15 14 17 15 16 16 35 17 21 18 34 19 33 20 23 21 22 22
REMARK SMILES IDX 30 23 24 24 25 25 31 26 32 27 11 28 26 30 27 31 29 32 28 33
REMARK SMILES IDX 3 34 2 35 1 36 36 37 37 38 38 39
REMARK H PARENT 11 29
REMARK Flexibility Score: inf
ROOT
ATOM      1  C   UNL     1       6.834 -34.146  16.648  1.00  0.00     0.014 C 
ENDROOT
BRANCH   1   2
ATOM      2  C   UNL     1       7.332 -34.577  15.245  1.00  0.00     0.042 C 
BRANCH   2   3
ATOM      3  C   UNL     1       6.850 -35.981  14.941  1.00  0.00     0.045 C 
ATOM      4  O   UNL     1       5.952 -36.530  15.631  1.00  0.00    -0.550 OA
ATOM      5  O   UNL     1       7.318 -36.634  13.806  1.00  0.00    -0.550 OA
ENDBRANCH   2   3
BRANCH   2   6
ATOM      6  C   UNL     1       8.879 -34.325  15.081  1.00  0.00     0.033 C 
ATOM      7  C   UNL     1       9.507 -34.869  13.778  1.00  0.00     0.119 C 
ATOM      8  C   UNL     1       9.446 -32.855  15.277  1.00  0.00    -0.017 C 
ATOM      9  C   UNL     1      10.649 -33.921  13.440  1.00  0.00     0.043 C 
ATOM     10  C   UNL     1      10.221 -32.532  13.943  1.00  0.00    -0.003 C 
ATOM     11  C   UNL     1      10.462 -32.896  16.449  1.00  0.00     0.012 C 
ATOM     12  C   UNL     1       8.365 -31.788  15.629  1.00  0.00     0.013 C 
ATOM     13  C   UNL     1       9.276 -31.888  12.884  1.00  0.00     0.017 C 
ATOM     14  C   UNL     1      11.469 -31.622  14.104  1.00  0.00    -0.064 C 
ATOM     15  C   UNL     1      11.226 -31.591  16.607  1.00  0.00     0.032 C 
ATOM     16  C   UNL     1      11.886 -31.131  15.318  1.00  0.00    -0.064 C 
ATOM     17  C   UNL     1      12.362 -31.447  12.875  1.00  0.00     0.032 C 
ATOM     18  C   UNL     1      12.831 -29.899  15.379  1.00  0.00    -0.008 C 
ATOM     19  C   UNL     1      13.203 -30.175  12.875  1.00  0.00     0.009 C 
ATOM     20  C   UNL     1      13.903 -30.015  14.237  1.00  0.00     0.009 C 
ATOM     21  C   UNL     1      13.585 -29.832  16.739  1.00  0.00     0.015 C 
ATOM     22  C   UNL     1      11.896 -28.664  15.253  1.00  0.00     0.016 C 
ATOM     23  C   UNL     1      15.099 -28.975  14.258  1.00  0.00     0.005 C 
ATOM     24  C   UNL     1      14.654 -28.735  16.787  1.00  0.00     0.047 C 
ATOM     25  C   UNL     1      15.714 -28.933  15.692  1.00  0.00     0.182 C 
ATOM     26  C   UNL     1      16.221 -29.472  13.300  1.00  0.00     0.015 C 
ATOM     27  C   UNL     1      14.702 -27.547  13.785  1.00  0.00     0.015 C 
BRANCH   7  28
ATOM     28  O   UNL     1      10.014 -36.168  13.960  1.00  0.00    -0.393 OA
ATOM     29  H   UNL     1       9.901 -36.654  13.103  1.00  0.00     0.210 HD
ENDBRANCH   7  28
BRANCH  25  30
ATOM     30  O   UNL     1      16.693 -27.893  15.774  1.00  0.00    -0.462 OA
BRANCH  30  31
ATOM     31  C   UNL     1      16.732 -26.940  16.796  1.00  0.00     0.302 C 
ATOM     32  O   UNL     1      15.812 -26.870  17.653  1.00  0.00    -0.253 OA
ATOM     33  C   UNL     1      17.889 -26.002  16.870  1.00  0.00     0.139 C 
ENDBRANCH  30  31
ENDBRANCH  25  30
ENDBRANCH   2   6
ENDBRANCH   1   2
BRANCH   1  34
ATOM     34  C   UNL     1       7.843 -34.481  17.761  1.00  0.00     0.031 C 
BRANCH  34  35
ATOM     35  C   UNL     1       7.857 -33.408  18.831  1.00  0.00    -0.075 C 
ATOM     36  C   UNL     1       6.966 -33.470  19.838  1.00  0.00     0.008 C 
BRANCH  35  37
ATOM     37  C   UNL     1       8.857 -32.263  18.740  1.00  0.00     0.008 C 
ATOM     38  C   UNL     1       9.332 -31.823  20.130  1.00  0.00     0.012 C 
ATOM     39  C   UNL     1       8.277 -31.079  17.954  1.00  0.00     0.012 C 
ENDBRANCH  35  37
ENDBRANCH  34  35
ENDBRANCH   1  34
TORSDOF 9
ENDMDL
