MODEL 1
REMARK VINA RESULT:    -5.354      0.000      0.000
REMARK INTER + INTRA:         -11.095
REMARK INTER:                  -9.737
REMARK INTRA:                  -1.359
REMARK UNBOUND:                -1.359
REMARK SMILES CCCCCCCCCCCCCCCC(=O)[O-]
REMARK SMILES IDX 9 1 10 2 11 3 12 4 13 5 14 6 15 7 16 8 17 9 18 10 8 11 7 12
REMARK SMILES IDX 6 13 5 14 4 15 3 16 2 17 1 18
REMARK H PARENT
REMARK Flexibility Score: inf
ROOT
ATOM      1  C   UNL     1      22.849  13.823   8.789  1.00  0.00     0.000 C 
ENDROOT
BRANCH   1   2
ATOM      2  C   UNL     1      24.139  13.166   8.262  1.00  0.00     0.000 C 
BRANCH   2   3
ATOM      3  C   UNL     1      25.313  14.154   8.147  1.00  0.00     0.000 C 
BRANCH   3   4
ATOM      4  C   UNL     1      26.640  13.569   8.663  1.00  0.00     0.000 C 
BRANCH   4   5
ATOM      5  C   UNL     1      26.887  13.728  10.178  1.00  0.00     0.000 C 
BRANCH   5   6
ATOM      6  C   UNL     1      26.700  12.444  11.011  1.00  0.00     0.006 C 
BRANCH   6   7
ATOM      7  C   UNL     1      25.391  12.395  11.815  1.00  0.00     0.053 C 
BRANCH   7   8
ATOM      8  C   UNL     1      25.581  11.745  13.151  1.00  0.00     0.041 C 
ATOM      9  O   UNL     1      26.241  12.327  14.052  1.00  0.00    -0.550 OA
ATOM     10  O   UNL     1      25.002  10.510  13.412  1.00  0.00    -0.550 OA
ENDBRANCH   7   8
ENDBRANCH   6   7
ENDBRANCH   5   6
ENDBRANCH   4   5
ENDBRANCH   3   4
ENDBRANCH   2   3
ENDBRANCH   1   2
BRANCH   1  11
ATOM     11  C   UNL     1      22.329  13.281  10.132  1.00  0.00     0.000 C 
BRANCH  11  12
ATOM     12  C   UNL     1      22.033  11.773  10.100  1.00  0.00    -0.000 C 
BRANCH  12  13
ATOM     13  C   UNL     1      21.955  11.149  11.503  1.00  0.00    -0.000 C 
BRANCH  13  14
ATOM     14  C   UNL     1      21.947   9.605  11.495  1.00  0.00    -0.000 C 
BRANCH  14  15
ATOM     15  C   UNL     1      21.813   9.021  12.913  1.00  0.00    -0.000 C 
BRANCH  15  16
ATOM     16  C   UNL     1      20.690   7.977  13.020  1.00  0.00    -0.000 C 
BRANCH  16  17
ATOM     17  C   UNL     1      19.631   8.354  14.066  1.00  0.00    -0.003 C 
ATOM     18  C   UNL     1      19.017   9.717  13.759  1.00  0.00     0.004 C 
ENDBRANCH  16  17
ENDBRANCH  15  16
ENDBRANCH  14  15
ENDBRANCH  13  14
ENDBRANCH  12  13
ENDBRANCH  11  12
ENDBRANCH   1  11
TORSDOF 14
ENDMDL
MODEL 2
REMARK VINA RESULT:    -5.276      2.349      6.004
REMARK INTER + INTRA:         -10.953
REMARK INTER:                  -9.636
REMARK INTRA:                  -1.317
REMARK UNBOUND:                -1.359
REMARK SMILES CCCCCCCCCCCCCCCC(=O)[O-]
REMARK SMILES IDX 9 1 10 2 11 3 12 4 13 5 14 6 15 7 16 8 17 9 18 10 8 11 7 12
REMARK SMILES IDX 6 13 5 14 4 15 3 16 2 17 1 18
REMARK H PARENT
REMARK Flexibility Score: inf
ROOT
ATOM      1  C   UNL     1      22.290  13.493  10.056  1.00  0.00     0.000 C 
ENDROOT
BRANCH   1   2
ATOM      2  C   UNL     1      22.546  12.019  10.423  1.00  0.00     0.000 C 
BRANCH   2   3
ATOM      3  C   UNL     1      21.263  11.265  10.813  1.00  0.00     0.000 C 
BRANCH   3   4
ATOM      4  C   UNL     1      21.496   9.758  11.026  1.00  0.00     0.000 C 
BRANCH   4   5
ATOM      5  C   UNL     1      22.417   9.392  12.208  1.00  0.00     0.000 C 
BRANCH   5   6
ATOM      6  C   UNL     1      21.863   8.314  13.161  1.00  0.00     0.006 C 
BRANCH   6   7
ATOM      7  C   UNL     1      20.374   7.992  12.958  1.00  0.00     0.053 C 
BRANCH   7   8
ATOM      8  C   UNL     1      19.498   8.815  13.853  1.00  0.00     0.041 C 
ATOM      9  O   UNL     1      19.133   9.967  13.498  1.00  0.00    -0.550 OA
ATOM     10  O   UNL     1      19.059   8.297  15.064  1.00  0.00    -0.550 OA
ENDBRANCH   7   8
ENDBRANCH   6   7
ENDBRANCH   5   6
ENDBRANCH   4   5
ENDBRANCH   3   4
ENDBRANCH   2   3
ENDBRANCH   1   2
BRANCH   1  11
ATOM     11  C   UNL     1      22.773  13.923   8.659  1.00  0.00     0.000 C 
BRANCH  11  12
ATOM     12  C   UNL     1      24.049  13.192   8.211  1.00  0.00    -0.000 C 
BRANCH  12  13
ATOM     13  C   UNL     1      25.320  14.034   8.409  1.00  0.00    -0.000 C 
BRANCH  13  14
ATOM     14  C   UNL     1      26.436  13.299   9.181  1.00  0.00    -0.000 C 
BRANCH  14  15
ATOM     15  C   UNL     1      26.116  13.177  10.682  1.00  0.00    -0.000 C 
BRANCH  15  16
ATOM     16  C   UNL     1      26.866  12.017  11.355  1.00  0.00    -0.000 C 
BRANCH  16  17
ATOM     17  C   UNL     1      26.487  11.847  12.833  1.00  0.00    -0.003 C 
ATOM     18  C   UNL     1      24.976  11.946  13.027  1.00  0.00     0.004 C 
ENDBRANCH  16  17
ENDBRANCH  15  16
ENDBRANCH  14  15
ENDBRANCH  13  14
ENDBRANCH  12  13
ENDBRANCH  11  12
ENDBRANCH   1  11
TORSDOF 14
ENDMDL
MODEL 3
REMARK VINA RESULT:    -5.189      1.957      3.408
REMARK INTER + INTRA:         -10.794
REMARK INTER:                  -9.689
REMARK INTRA:                  -1.105
REMARK UNBOUND:                -1.359
REMARK SMILES CCCCCCCCCCCCCCCC(=O)[O-]
REMARK SMILES IDX 9 1 10 2 11 3 12 4 13 5 14 6 15 7 16 8 17 9 18 10 8 11 7 12
REMARK SMILES IDX 6 13 5 14 4 15 3 16 2 17 1 18
REMARK H PARENT
REMARK Flexibility Score: inf
ROOT
ATOM      1  C   UNL     1      26.332  11.818  12.172  1.00  0.00     0.000 C 
ENDROOT
BRANCH   1   2
ATOM      2  C   UNL     1      27.110  12.364  10.960  1.00  0.00     0.000 C 
BRANCH   2   3
ATOM      3  C   UNL     1      26.478  13.632  10.362  1.00  0.00     0.000 C 
BRANCH   3   4
ATOM      4  C   UNL     1      26.737  13.775   8.851  1.00  0.00     0.000 C 
BRANCH   4   5
ATOM      5  C   UNL     1      25.508  13.553   7.946  1.00  0.00     0.000 C 
BRANCH   5   6
ATOM      6  C   UNL     1      24.170  14.057   8.522  1.00  0.00     0.006 C 
BRANCH   6   7
ATOM      7  C   UNL     1      23.048  13.006   8.534  1.00  0.00     0.053 C 
BRANCH   7   8
ATOM      8  C   UNL     1      22.259  13.048   9.807  1.00  0.00     0.041 C 
ATOM      9  O   UNL     1      22.005  14.150  10.360  1.00  0.00    -0.550 OA
ATOM     10  O   UNL     1      21.775  11.872  10.364  1.00  0.00    -0.550 OA
ENDBRANCH   7   8
ENDBRANCH   6   7
ENDBRANCH   5   6
ENDBRANCH   4   5
ENDBRANCH   3   4
ENDBRANCH   2   3
ENDBRANCH   1   2
BRANCH   1  11
ATOM     11  C   UNL     1      24.806  11.726  11.994  1.00  0.00     0.000 C 
BRANCH  11  12
ATOM     12  C   UNL     1      24.075  11.294  13.276  1.00  0.00    -0.000 C 
BRANCH  12  13
ATOM     13  C   UNL     1      24.004   9.767  13.438  1.00  0.00    -0.000 C 
BRANCH  13  14
ATOM     14  C   UNL     1      23.074   9.078  12.416  1.00  0.00    -0.000 C 
BRANCH  14  15
ATOM     15  C   UNL     1      21.588   9.344  12.718  1.00  0.00    -0.000 C 
BRANCH  15  16
ATOM     16  C   UNL     1      20.816   8.063  13.072  1.00  0.00    -0.000 C 
BRANCH  16  17
ATOM     17  C   UNL     1      19.642   8.325  14.025  1.00  0.00    -0.003 C 
ATOM     18  C   UNL     1      19.090   9.736  13.841  1.00  0.00     0.004 C 
ENDBRANCH  16  17
ENDBRANCH  15  16
ENDBRANCH  14  15
ENDBRANCH  13  14
ENDBRANCH  12  13
ENDBRANCH  11  12
ENDBRANCH   1  11
TORSDOF 14
ENDMDL
MODEL 4
REMARK VINA RESULT:    -5.113      3.515      4.337
REMARK INTER + INTRA:         -10.656
REMARK INTER:                  -9.937
REMARK INTRA:                  -0.719
REMARK UNBOUND:                -1.359
REMARK SMILES CCCCCCCCCCCCCCCC(=O)[O-]
REMARK SMILES IDX 9 1 10 2 11 3 12 4 13 5 14 6 15 7 16 8 17 9 18 10 8 11 7 12
REMARK SMILES IDX 6 13 5 14 4 15 3 16 2 17 1 18
REMARK H PARENT
REMARK Flexibility Score: inf
ROOT
ATOM      1  C   UNL     1      22.852  13.538   8.775  1.00  0.00     0.000 C 
ENDROOT
BRANCH   1   2
ATOM      2  C   UNL     1      24.308  13.488   8.276  1.00  0.00     0.000 C 
BRANCH   2   3
ATOM      3  C   UNL     1      25.337  13.500   9.420  1.00  0.00     0.000 C 
BRANCH   3   4
ATOM      4  C   UNL     1      26.655  14.193   9.032  1.00  0.00     0.000 C 
BRANCH   4   5
ATOM      5  C   UNL     1      26.587  15.090   7.779  1.00  0.00     0.000 C 
BRANCH   5   6
ATOM      6  C   UNL     1      27.398  16.398   7.864  1.00  0.00     0.006 C 
BRANCH   6   7
ATOM      7  C   UNL     1      26.606  17.601   8.401  1.00  0.00     0.053 C 
BRANCH   7   8
ATOM      8  C   UNL     1      25.590  18.086   7.411  1.00  0.00     0.041 C 
ATOM      9  O   UNL     1      25.857  19.054   6.652  1.00  0.00    -0.550 OA
ATOM     10  O   UNL     1      24.362  17.447   7.307  1.00  0.00    -0.550 OA
ENDBRANCH   7   8
ENDBRANCH   6   7
ENDBRANCH   5   6
ENDBRANCH   4   5
ENDBRANCH   3   4
ENDBRANCH   2   3
ENDBRANCH   1   2
BRANCH   1  11
ATOM     11  C   UNL     1      22.591  12.853  10.129  1.00  0.00     0.000 C 
BRANCH  11  12
ATOM     12  C   UNL     1      22.081  11.409   9.986  1.00  0.00    -0.000 C 
BRANCH  12  13
ATOM     13  C   UNL     1      21.465  10.863  11.284  1.00  0.00    -0.000 C 
BRANCH  13  14
ATOM     14  C   UNL     1      22.473  10.106  12.177  1.00  0.00    -0.000 C 
BRANCH  14  15
ATOM     15  C   UNL     1      21.792   9.462  13.398  1.00  0.00    -0.000 C 
BRANCH  15  16
ATOM     16  C   UNL     1      20.981   8.209  13.032  1.00  0.00    -0.000 C 
BRANCH  16  17
ATOM     17  C   UNL     1      19.521   8.293  13.500  1.00  0.00    -0.003 C 
ATOM     18  C   UNL     1      19.122   9.737  13.797  1.00  0.00     0.004 C 
ENDBRANCH  16  17
ENDBRANCH  15  16
ENDBRANCH  14  15
ENDBRANCH  13  14
ENDBRANCH  12  13
ENDBRANCH  11  12
ENDBRANCH   1  11
TORSDOF 14
ENDMDL
MODEL 5
REMARK VINA RESULT:    -5.035      2.799      7.681
REMARK INTER + INTRA:         -10.514
REMARK INTER:                  -9.785
REMARK INTRA:                  -0.728
REMARK UNBOUND:                -1.359
REMARK SMILES CCCCCCCCCCCCCCCC(=O)[O-]
REMARK SMILES IDX 9 1 10 2 11 3 12 4 13 5 14 6 15 7 16 8 17 9 18 10 8 11 7 12
REMARK SMILES IDX 6 13 5 14 4 15 3 16 2 17 1 18
REMARK H PARENT
REMARK Flexibility Score: inf
ROOT
ATOM      1  C   UNL     1      22.830  13.070   8.682  1.00  0.00     0.000 C 
ENDROOT
BRANCH   1   2
ATOM      2  C   UNL     1      22.449  12.586  10.094  1.00  0.00     0.000 C 
BRANCH   2   3
ATOM      3  C   UNL     1      21.767  11.207  10.094  1.00  0.00     0.000 C 
BRANCH   3   4
ATOM      4  C   UNL     1      21.424  10.709  11.509  1.00  0.00     0.000 C 
BRANCH   4   5
ATOM      5  C   UNL     1      22.271   9.523  12.016  1.00  0.00     0.000 C 
BRANCH   5   6
ATOM      6  C   UNL     1      21.815   8.917  13.358  1.00  0.00     0.006 C 
BRANCH   6   7
ATOM      7  C   UNL     1      20.493   8.137  13.285  1.00  0.00     0.053 C 
BRANCH   7   8
ATOM      8  C   UNL     1      19.409   8.800  14.078  1.00  0.00     0.041 C 
ATOM      9  O   UNL     1      18.950   8.247  15.112  1.00  0.00    -0.550 OA
ATOM     10  O   UNL     1      18.928  10.045  13.694  1.00  0.00    -0.550 OA
ENDBRANCH   7   8
ENDBRANCH   6   7
ENDBRANCH   5   6
ENDBRANCH   4   5
ENDBRANCH   3   4
ENDBRANCH   2   3
ENDBRANCH   1   2
BRANCH   1  11
ATOM     11  C   UNL     1      24.160  13.838   8.580  1.00  0.00     0.000 C 
BRANCH  11  12
ATOM     12  C   UNL     1      25.254  13.275   9.502  1.00  0.00    -0.000 C 
BRANCH  12  13
ATOM     13  C   UNL     1      26.635  13.900   9.242  1.00  0.00    -0.000 C 
BRANCH  13  14
ATOM     14  C   UNL     1      26.699  14.742   7.949  1.00  0.00    -0.000 C 
BRANCH  14  15
ATOM     15  C   UNL     1      27.994  15.569   7.862  1.00  0.00    -0.000 C 
BRANCH  15  16
ATOM     16  C   UNL     1      27.735  17.041   7.507  1.00  0.00    -0.000 C 
BRANCH  16  17
ATOM     17  C   UNL     1      26.611  17.663   8.349  1.00  0.00    -0.003 C 
ATOM     18  C   UNL     1      25.421  18.051   7.475  1.00  0.00     0.004 C 
ENDBRANCH  16  17
ENDBRANCH  15  16
ENDBRANCH  14  15
ENDBRANCH  13  14
ENDBRANCH  12  13
ENDBRANCH  11  12
ENDBRANCH   1  11
TORSDOF 14
ENDMDL
MODEL 6
REMARK VINA RESULT:    -4.842      3.685      5.109
REMARK INTER + INTRA:         -10.164
REMARK INTER:                  -9.010
REMARK INTRA:                  -1.154
REMARK UNBOUND:                -1.359
REMARK SMILES CCCCCCCCCCCCCCCC(=O)[O-]
REMARK SMILES IDX 9 1 10 2 11 3 12 4 13 5 14 6 15 7 16 8 17 9 18 10 8 11 7 12
REMARK SMILES IDX 6 13 5 14 4 15 3 16 2 17 1 18
REMARK H PARENT
REMARK Flexibility Score: inf
ROOT
ATOM      1  C   UNL     1      22.800  12.388   8.920  1.00  0.00     0.000 C 
ENDROOT
BRANCH   1   2
ATOM      2  C   UNL     1      23.574  13.702   8.707  1.00  0.00     0.000 C 
BRANCH   2   3
ATOM      3  C   UNL     1      25.100  13.518   8.764  1.00  0.00     0.000 C 
BRANCH   3   4
ATOM      4  C   UNL     1      25.855  14.478   7.827  1.00  0.00     0.000 C 
BRANCH   4   5
ATOM      5  C   UNL     1      27.016  15.260   8.477  1.00  0.00     0.000 C 
BRANCH   5   6
ATOM      6  C   UNL     1      27.346  16.613   7.817  1.00  0.00     0.006 C 
BRANCH   6   7
ATOM      7  C   UNL     1      26.595  17.812   8.419  1.00  0.00     0.053 C 
BRANCH   7   8
ATOM      8  C   UNL     1      25.611  18.397   7.452  1.00  0.00     0.041 C 
ATOM      9  O   UNL     1      25.881  19.463   6.839  1.00  0.00    -0.550 OA
ATOM     10  O   UNL     1      24.410  17.746   7.203  1.00  0.00    -0.550 OA
ENDBRANCH   7   8
ENDBRANCH   6   7
ENDBRANCH   5   6
ENDBRANCH   4   5
ENDBRANCH   3   4
ENDBRANCH   2   3
ENDBRANCH   1   2
BRANCH   1  11
ATOM     11  C   UNL     1      22.120  12.233  10.292  1.00  0.00     0.000 C 
BRANCH  11  12
ATOM     12  C   UNL     1      21.378  10.896  10.450  1.00  0.00    -0.000 C 
BRANCH  12  13
ATOM     13  C   UNL     1      21.422  10.356  11.889  1.00  0.00    -0.000 C 
BRANCH  13  14
ATOM     14  C   UNL     1      22.627   9.433  12.168  1.00  0.00    -0.000 C 
BRANCH  14  15
ATOM     15  C   UNL     1      23.214   9.657  13.573  1.00  0.00    -0.000 C 
BRANCH  15  16
ATOM     16  C   UNL     1      24.612  10.294  13.537  1.00  0.00    -0.000 C 
BRANCH  16  17
ATOM     17  C   UNL     1      24.586  11.751  13.052  1.00  0.00    -0.003 C 
ATOM     18  C   UNL     1      25.620  11.982  11.952  1.00  0.00     0.004 C 
ENDBRANCH  16  17
ENDBRANCH  15  16
ENDBRANCH  14  15
ENDBRANCH  13  14
ENDBRANCH  12  13
ENDBRANCH  11  12
ENDBRANCH   1  11
TORSDOF 14
ENDMDL
MODEL 7
REMARK VINA RESULT:    -4.841      2.263      7.121
REMARK INTER + INTRA:         -10.162
REMARK INTER:                  -8.969
REMARK INTRA:                  -1.192
REMARK UNBOUND:                -1.359
REMARK SMILES CCCCCCCCCCCCCCCC(=O)[O-]
REMARK SMILES IDX 9 1 10 2 11 3 12 4 13 5 14 6 15 7 16 8 17 9 18 10 8 11 7 12
REMARK SMILES IDX 6 13 5 14 4 15 3 16 2 17 1 18
REMARK H PARENT
REMARK Flexibility Score: inf
ROOT
ATOM      1  C   UNL     1      23.709  13.762   8.640  1.00  0.00     0.000 C 
ENDROOT
BRANCH   1   2
ATOM      2  C   UNL     1      23.573  13.048   9.999  1.00  0.00     0.000 C 
BRANCH   2   3
ATOM      3  C   UNL     1      22.113  12.743  10.374  1.00  0.00     0.000 C 
BRANCH   3   4
ATOM      4  C   UNL     1      21.774  11.243  10.292  1.00  0.00     0.000 C 
BRANCH   4   5
ATOM      5  C   UNL     1      20.801  10.725  11.371  1.00  0.00     0.000 C 
BRANCH   5   6
ATOM      6  C   UNL     1      21.464   9.994  12.555  1.00  0.00     0.006 C 
BRANCH   6   7
ATOM      7  C   UNL     1      22.874   9.456  12.259  1.00  0.00     0.053 C 
BRANCH   7   8
ATOM      8  C   UNL     1      23.905  10.074  13.154  1.00  0.00     0.041 C 
ATOM      9  O   UNL     1      24.187  11.296  13.047  1.00  0.00    -0.550 OA
ATOM     10  O   UNL     1      24.530   9.305  14.127  1.00  0.00    -0.550 OA
ENDBRANCH   7   8
ENDBRANCH   6   7
ENDBRANCH   5   6
ENDBRANCH   4   5
ENDBRANCH   3   4
ENDBRANCH   2   3
ENDBRANCH   1   2
BRANCH   1  11
ATOM     11  C   UNL     1      25.142  13.871   8.089  1.00  0.00     0.000 C 
BRANCH  11  12
ATOM     12  C   UNL     1      26.215  13.847   9.189  1.00  0.00    -0.000 C 
BRANCH  12  13
ATOM     13  C   UNL     1      27.349  14.855   8.939  1.00  0.00    -0.000 C 
BRANCH  13  14
ATOM     14  C   UNL     1      26.993  15.941   7.900  1.00  0.00    -0.000 C 
BRANCH  14  15
ATOM     15  C   UNL     1      27.068  17.358   8.498  1.00  0.00    -0.000 C 
BRANCH  15  16
ATOM     16  C   UNL     1      25.997  18.300   7.926  1.00  0.00    -0.000 C 
BRANCH  16  17
ATOM     17  C   UNL     1      24.779  17.545   7.375  1.00  0.00    -0.003 C 
ATOM     18  C   UNL     1      23.845  18.487   6.620  1.00  0.00     0.004 C 
ENDBRANCH  16  17
ENDBRANCH  15  16
ENDBRANCH  14  15
ENDBRANCH  13  14
ENDBRANCH  12  13
ENDBRANCH  11  12
ENDBRANCH   1  11
TORSDOF 14
ENDMDL
MODEL 8
REMARK VINA RESULT:    -4.830      1.583      6.552
REMARK INTER + INTRA:         -10.142
REMARK INTER:                  -8.818
REMARK INTRA:                  -1.324
REMARK UNBOUND:                -1.359
REMARK SMILES CCCCCCCCCCCCCCCC(=O)[O-]
REMARK SMILES IDX 9 1 10 2 11 3 12 4 13 5 14 6 15 7 16 8 17 9 18 10 8 11 7 12
REMARK SMILES IDX 6 13 5 14 4 15 3 16 2 17 1 18
REMARK H PARENT
REMARK Flexibility Score: inf
ROOT
ATOM      1  C   UNL     1      21.786  12.304  10.387  1.00  0.00     0.000 C 
ENDROOT
BRANCH   1   2
ATOM      2  C   UNL     1      21.601  10.790  10.607  1.00  0.00     0.000 C 
BRANCH   2   3
ATOM      3  C   UNL     1      20.760  10.462  11.852  1.00  0.00     0.000 C 
BRANCH   3   4
ATOM      4  C   UNL     1      21.482   9.518  12.831  1.00  0.00     0.000 C 
BRANCH   4   5
ATOM      5  C   UNL     1      22.950   9.200  12.480  1.00  0.00     0.000 C 
BRANCH   5   6
ATOM      6  C   UNL     1      23.999   9.835  13.414  1.00  0.00     0.006 C 
BRANCH   6   7
ATOM      7  C   UNL     1      24.185  11.349  13.221  1.00  0.00     0.053 C 
BRANCH   7   8
ATOM      8  C   UNL     1      25.634  11.732  13.180  1.00  0.00     0.041 C 
ATOM      9  O   UNL     1      26.331  11.469  12.166  1.00  0.00    -0.550 OA
ATOM     10  O   UNL     1      26.204  12.409  14.250  1.00  0.00    -0.550 OA
ENDBRANCH   7   8
ENDBRANCH   6   7
ENDBRANCH   5   6
ENDBRANCH   4   5
ENDBRANCH   3   4
ENDBRANCH   2   3
ENDBRANCH   1   2
BRANCH   1  11
ATOM     11  C   UNL     1      23.226  12.760  10.091  1.00  0.00     0.000 C 
BRANCH  11  12
ATOM     12  C   UNL     1      23.356  13.525   8.764  1.00  0.00    -0.000 C 
BRANCH  12  13
ATOM     13  C   UNL     1      24.799  13.565   8.236  1.00  0.00    -0.000 C 
BRANCH  13  14
ATOM     14  C   UNL     1      25.867  13.475   9.348  1.00  0.00    -0.000 C 
BRANCH  14  15
ATOM     15  C   UNL     1      26.832  14.674   9.321  1.00  0.00    -0.000 C 
BRANCH  15  16
ATOM     16  C   UNL     1      27.349  14.986   7.908  1.00  0.00    -0.000 C 
BRANCH  16  17
ATOM     17  C   UNL     1      27.415  16.493   7.622  1.00  0.00    -0.003 C 
ATOM     18  C   UNL     1      26.064  17.159   7.871  1.00  0.00     0.004 C 
ENDBRANCH  16  17
ENDBRANCH  15  16
ENDBRANCH  14  15
ENDBRANCH  13  14
ENDBRANCH  12  13
ENDBRANCH  11  12
ENDBRANCH   1  11
TORSDOF 14
ENDMDL
MODEL 9
REMARK VINA RESULT:    -4.749      9.316     12.977
REMARK INTER + INTRA:          -9.994
REMARK INTER:                  -8.114
REMARK INTRA:                  -1.880
REMARK UNBOUND:                -1.359
REMARK SMILES CCCCCCCCCCCCCCCC(=O)[O-]
REMARK SMILES IDX 9 1 10 2 11 3 12 4 13 5 14 6 15 7 16 8 17 9 18 10 8 11 7 12
REMARK SMILES IDX 6 13 5 14 4 15 3 16 2 17 1 18
REMARK H PARENT
REMARK Flexibility Score: inf
ROOT
ATOM      1  C   UNL     1      26.679  21.834   3.884  1.00  0.00     0.000 C 
ENDROOT
BRANCH   1   2
ATOM      2  C   UNL     1      27.362  21.483   5.219  1.00  0.00     0.000 C 
BRANCH   2   3
ATOM      3  C   UNL     1      27.143  20.019   5.639  1.00  0.00     0.000 C 
BRANCH   3   4
ATOM      4  C   UNL     1      26.291  19.883   6.914  1.00  0.00     0.000 C 
BRANCH   4   5
ATOM      5  C   UNL     1      25.579  18.526   7.091  1.00  0.00     0.000 C 
BRANCH   5   6
ATOM      6  C   UNL     1      24.041  18.575   7.004  1.00  0.00     0.006 C 
BRANCH   6   7
ATOM      7  C   UNL     1      23.499  19.171   5.695  1.00  0.00     0.053 C 
BRANCH   7   8
ATOM      8  C   UNL     1      22.160  19.817   5.888  1.00  0.00     0.041 C 
ATOM      9  O   UNL     1      21.669  19.925   7.042  1.00  0.00    -0.550 OA
ATOM     10  O   UNL     1      21.471  20.328   4.796  1.00  0.00    -0.550 OA
ENDBRANCH   7   8
ENDBRANCH   6   7
ENDBRANCH   5   6
ENDBRANCH   4   5
ENDBRANCH   3   4
ENDBRANCH   2   3
ENDBRANCH   1   2
BRANCH   1  11
ATOM     11  C   UNL     1      25.141  21.785   3.893  1.00  0.00     0.000 C 
BRANCH  11  12
ATOM     12  C   UNL     1      24.500  23.061   4.462  1.00  0.00    -0.000 C 
BRANCH  12  13
ATOM     13  C   UNL     1      24.039  22.898   5.920  1.00  0.00    -0.000 C 
BRANCH  13  14
ATOM     14  C   UNL     1      24.846  23.749   6.924  1.00  0.00    -0.000 C 
BRANCH  14  15
ATOM     15  C   UNL     1      25.827  24.701   6.216  1.00  0.00    -0.000 C 
BRANCH  15  16
ATOM     16  C   UNL     1      25.769  26.132   6.773  1.00  0.00    -0.000 C 
BRANCH  16  17
ATOM     17  C   UNL     1      24.906  26.240   8.038  1.00  0.00    -0.003 C 
ATOM     18  C   UNL     1      25.711  26.802   9.207  1.00  0.00     0.004 C 
ENDBRANCH  16  17
ENDBRANCH  15  16
ENDBRANCH  14  15
ENDBRANCH  13  14
ENDBRANCH  12  13
ENDBRANCH  11  12
ENDBRANCH   1  11
TORSDOF 14
ENDMDL
