MODEL 1
REMARK VINA RESULT:     7.966      0.000      0.000
REMARK INTER + INTRA:          14.014
REMARK INTER:                  14.485
REMARK INTRA:                  -0.471
REMARK UNBOUND:                -0.471
REMARK SMILES CCCCCC=CCC=CCCCCCCCC(=O)[O-]
REMARK SMILES IDX 11 1 12 2 13 3 14 4 15 5 16 6 17 7 18 8 19 9 20 10 10 11
REMARK SMILES IDX 9 12 8 13 7 14 6 15 5 16 4 17 3 18 2 19 1 20
REMARK H PARENT
REMARK Flexibility Score: inf
ROOT
ATOM      1  C   UNL     1      38.675   0.279  18.947  1.00  0.00     0.027 C 
ENDROOT
BRANCH   1   2
ATOM      2  C   UNL     1      39.676  -0.889  18.931  1.00  0.00     0.004 C 
BRANCH   2   3
ATOM      3  C   UNL     1      41.006  -0.581  19.651  1.00  0.00     0.000 C 
BRANCH   3   4
ATOM      4  C   UNL     1      41.945  -1.790  19.815  1.00  0.00     0.000 C 
BRANCH   4   5
ATOM      5  C   UNL     1      42.790  -1.745  21.108  1.00  0.00     0.000 C 
BRANCH   5   6
ATOM      6  C   UNL     1      43.661  -3.001  21.274  1.00  0.00     0.006 C 
BRANCH   6   7
ATOM      7  C   UNL     1      43.411  -3.709  22.612  1.00  0.00     0.053 C 
BRANCH   7   8
ATOM      8  C   UNL     1      44.687  -4.195  23.228  1.00  0.00     0.041 C 
ATOM      9  O   UNL     1      45.114  -3.678  24.293  1.00  0.00    -0.550 OA
ATOM     10  O   UNL     1      45.422  -5.197  22.605  1.00  0.00    -0.550 OA
ENDBRANCH   7   8
ENDBRANCH   6   7
ENDBRANCH   5   6
ENDBRANCH   4   5
ENDBRANCH   3   4
ENDBRANCH   2   3
ENDBRANCH   1   2
BRANCH   1  11
ATOM     11  C   UNL     1      37.394  -0.058  18.223  1.00  0.00    -0.031 C 
ATOM     12  C   UNL     1      36.611   0.833  17.588  1.00  0.00    -0.027 C 
BRANCH  12  13
ATOM     13  C   UNL     1      36.882   2.313  17.524  1.00  0.00     0.054 C 
BRANCH  13  14
ATOM     14  C   UNL     1      37.113   2.767  16.105  1.00  0.00    -0.027 C 
ATOM     15  C   UNL     1      36.674   3.946  15.635  1.00  0.00    -0.031 C 
BRANCH  15  16
ATOM     16  C   UNL     1      35.919   4.938  16.485  1.00  0.00     0.027 C 
BRANCH  16  17
ATOM     17  C   UNL     1      34.643   4.312  17.066  1.00  0.00     0.004 C 
BRANCH  17  18
ATOM     18  C   UNL     1      34.069   5.110  18.251  1.00  0.00     0.000 C 
BRANCH  18  19
ATOM     19  C   UNL     1      34.123   4.386  19.608  1.00  0.00    -0.003 C 
ATOM     20  C   UNL     1      33.883   2.881  19.493  1.00  0.00     0.004 C 
ENDBRANCH  18  19
ENDBRANCH  17  18
ENDBRANCH  16  17
ENDBRANCH  15  16
ENDBRANCH  13  14
ENDBRANCH  12  13
ENDBRANCH   1  11
TORSDOF 14
ENDMDL
MODEL 2
REMARK VINA RESULT:     8.150      0.856      2.366
REMARK INTER + INTRA:          14.349
REMARK INTER:                  15.410
REMARK INTRA:                  -1.061
REMARK UNBOUND:                -0.471
REMARK SMILES CCCCCC=CCC=CCCCCCCCC(=O)[O-]
REMARK SMILES IDX 11 1 12 2 13 3 14 4 15 5 16 6 17 7 18 8 19 9 20 10 10 11
REMARK SMILES IDX 9 12 8 13 7 14 6 15 5 16 4 17 3 18 2 19 1 20
REMARK H PARENT
REMARK Flexibility Score: inf
ROOT
ATOM      1  C   UNL     1      38.766   0.313  18.561  1.00  0.00     0.027 C 
ENDROOT
BRANCH   1   2
ATOM      2  C   UNL     1      39.560  -0.871  19.140  1.00  0.00     0.004 C 
BRANCH   2   3
ATOM      3  C   UNL     1      41.078  -0.614  19.241  1.00  0.00     0.000 C 
BRANCH   3   4
ATOM      4  C   UNL     1      41.711  -1.014  20.587  1.00  0.00     0.000 C 
BRANCH   4   5
ATOM      5  C   UNL     1      42.799  -2.103  20.458  1.00  0.00     0.000 C 
BRANCH   5   6
ATOM      6  C   UNL     1      43.115  -2.768  21.808  1.00  0.00     0.006 C 
BRANCH   6   7
ATOM      7  C   UNL     1      44.601  -3.120  21.949  1.00  0.00     0.053 C 
BRANCH   7   8
ATOM      8  C   UNL     1      44.890  -3.795  23.255  1.00  0.00     0.041 C 
ATOM      9  O   UNL     1      44.664  -5.025  23.397  1.00  0.00    -0.550 OA
ATOM     10  O   UNL     1      45.378  -3.056  24.326  1.00  0.00    -0.550 OA
ENDBRANCH   7   8
ENDBRANCH   6   7
ENDBRANCH   5   6
ENDBRANCH   4   5
ENDBRANCH   3   4
ENDBRANCH   2   3
ENDBRANCH   1   2
BRANCH   1  11
ATOM     11  C   UNL     1      37.497  -0.132  17.877  1.00  0.00    -0.031 C 
ATOM     12  C   UNL     1      36.366   0.594  17.803  1.00  0.00    -0.027 C 
BRANCH  12  13
ATOM     13  C   UNL     1      36.186   1.957  18.419  1.00  0.00     0.054 C 
BRANCH  13  14
ATOM     14  C   UNL     1      34.809   2.113  19.011  1.00  0.00    -0.027 C 
ATOM     15  C   UNL     1      34.125   3.269  18.976  1.00  0.00    -0.031 C 
BRANCH  15  16
ATOM     16  C   UNL     1      34.664   4.520  18.327  1.00  0.00     0.027 C 
BRANCH  16  17
ATOM     17  C   UNL     1      34.060   4.725  16.930  1.00  0.00     0.004 C 
BRANCH  17  18
ATOM     18  C   UNL     1      35.110   5.116  15.874  1.00  0.00     0.000 C 
BRANCH  18  19
ATOM     19  C   UNL     1      35.910   3.940  15.288  1.00  0.00    -0.003 C 
ATOM     20  C   UNL     1      37.385   3.961  15.687  1.00  0.00     0.004 C 
ENDBRANCH  18  19
ENDBRANCH  17  18
ENDBRANCH  16  17
ENDBRANCH  15  16
ENDBRANCH  13  14
ENDBRANCH  12  13
ENDBRANCH   1  11
TORSDOF 14
ENDMDL
MODEL 3
REMARK VINA RESULT:     9.014      7.308     12.177
REMARK INTER + INTRA:          15.921
REMARK INTER:                  16.824
REMARK INTRA:                  -0.903
REMARK UNBOUND:                -0.471
REMARK SMILES CCCCCC=CCC=CCCCCCCCC(=O)[O-]
REMARK SMILES IDX 11 1 12 2 13 3 14 4 15 5 16 6 17 7 18 8 19 9 20 10 10 11
REMARK SMILES IDX 9 12 8 13 7 14 6 15 5 16 4 17 3 18 2 19 1 20
REMARK H PARENT
REMARK Flexibility Score: inf
ROOT
ATOM      1  C   UNL     1      44.648  -3.327  22.373  1.00  0.00     0.027 C 
ENDROOT
BRANCH   1   2
ATOM      2  C   UNL     1      43.173  -3.012  22.071  1.00  0.00     0.004 C 
BRANCH   2   3
ATOM      3  C   UNL     1      42.954  -2.264  20.739  1.00  0.00     0.000 C 
BRANCH   3   4
ATOM      4  C   UNL     1      43.347  -3.060  19.481  1.00  0.00     0.000 C 
BRANCH   4   5
ATOM      5  C   UNL     1      43.718  -2.166  18.276  1.00  0.00     0.000 C 
BRANCH   5   6
ATOM      6  C   UNL     1      45.192  -2.329  17.867  1.00  0.00     0.006 C 
BRANCH   6   7
ATOM      7  C   UNL     1      46.077  -2.755  19.045  1.00  0.00     0.053 C 
BRANCH   7   8
ATOM      8  C   UNL     1      47.523  -2.457  18.788  1.00  0.00     0.041 C 
ATOM      9  O   UNL     1      47.857  -1.395  18.201  1.00  0.00    -0.550 OA
ATOM     10  O   UNL     1      48.499  -3.371  19.166  1.00  0.00    -0.550 OA
ENDBRANCH   7   8
ENDBRANCH   6   7
ENDBRANCH   5   6
ENDBRANCH   4   5
ENDBRANCH   3   4
ENDBRANCH   2   3
ENDBRANCH   1   2
BRANCH   1  11
ATOM     11  C   UNL     1      44.805  -4.212  23.585  1.00  0.00    -0.031 C 
ATOM     12  C   UNL     1      45.332  -3.821  24.761  1.00  0.00    -0.027 C 
BRANCH  12  13
ATOM     13  C   UNL     1      45.870  -2.442  25.037  1.00  0.00     0.054 C 
BRANCH  13  14
ATOM     14  C   UNL     1      45.511  -1.983  26.428  1.00  0.00    -0.027 C 
ATOM     15  C   UNL     1      46.183  -2.374  27.523  1.00  0.00    -0.031 C 
BRANCH  15  16
ATOM     16  C   UNL     1      47.373  -3.301  27.466  1.00  0.00     0.027 C 
BRANCH  16  17
ATOM     17  C   UNL     1      47.452  -4.181  28.721  1.00  0.00     0.004 C 
BRANCH  17  18
ATOM     18  C   UNL     1      48.237  -5.485  28.491  1.00  0.00     0.000 C 
BRANCH  18  19
ATOM     19  C   UNL     1      47.576  -6.751  29.064  1.00  0.00    -0.003 C 
ATOM     20  C   UNL     1      46.057  -6.632  29.182  1.00  0.00     0.004 C 
ENDBRANCH  18  19
ENDBRANCH  17  18
ENDBRANCH  16  17
ENDBRANCH  15  16
ENDBRANCH  13  14
ENDBRANCH  12  13
ENDBRANCH   1  11
TORSDOF 14
ENDMDL
MODEL 4
REMARK VINA RESULT:     9.264      4.771     11.081
REMARK INTER + INTRA:          16.376
REMARK INTER:                  17.081
REMARK INTRA:                  -0.705
REMARK UNBOUND:                -0.471
REMARK SMILES CCCCCC=CCC=CCCCCCCCC(=O)[O-]
REMARK SMILES IDX 11 1 12 2 13 3 14 4 15 5 16 6 17 7 18 8 19 9 20 10 10 11
REMARK SMILES IDX 9 12 8 13 7 14 6 15 5 16 4 17 3 18 2 19 1 20
REMARK H PARENT
REMARK Flexibility Score: inf
ROOT
ATOM      1  C   UNL     1      40.974  -0.588  19.498  1.00  0.00     0.027 C 
ENDROOT
BRANCH   1   2
ATOM      2  C   UNL     1      39.573   0.048  19.496  1.00  0.00     0.004 C 
BRANCH   2   3
ATOM      3  C   UNL     1      38.748  -0.263  18.231  1.00  0.00     0.000 C 
BRANCH   3   4
ATOM      4  C   UNL     1      37.266   0.146  18.311  1.00  0.00     0.000 C 
BRANCH   4   5
ATOM      5  C   UNL     1      36.864   1.215  17.270  1.00  0.00     0.000 C 
BRANCH   5   6
ATOM      6  C   UNL     1      36.453   2.541  17.933  1.00  0.00     0.006 C 
BRANCH   6   7
ATOM      7  C   UNL     1      35.878   3.542  16.922  1.00  0.00     0.053 C 
BRANCH   7   8
ATOM      8  C   UNL     1      36.685   3.581  15.661  1.00  0.00     0.041 C 
ATOM      9  O   UNL     1      37.803   4.158  15.641  1.00  0.00    -0.550 OA
ATOM     10  O   UNL     1      36.184   3.009  14.497  1.00  0.00    -0.550 OA
ENDBRANCH   7   8
ENDBRANCH   6   7
ENDBRANCH   5   6
ENDBRANCH   4   5
ENDBRANCH   3   4
ENDBRANCH   2   3
ENDBRANCH   1   2
BRANCH   1  11
ATOM     11  C   UNL     1      41.647  -0.481  20.845  1.00  0.00    -0.031 C 
ATOM     12  C   UNL     1      42.488  -1.397  21.360  1.00  0.00    -0.027 C 
BRANCH  12  13
ATOM     13  C   UNL     1      42.867  -2.686  20.679  1.00  0.00     0.054 C 
BRANCH  13  14
ATOM     14  C   UNL     1      44.337  -2.978  20.837  1.00  0.00    -0.027 C 
ATOM     15  C   UNL     1      44.836  -3.673  21.873  1.00  0.00    -0.031 C 
BRANCH  15  16
ATOM     16  C   UNL     1      43.971  -4.242  22.970  1.00  0.00     0.027 C 
BRANCH  16  17
ATOM     17  C   UNL     1      44.723  -4.276  24.309  1.00  0.00     0.004 C 
BRANCH  17  18
ATOM     18  C   UNL     1      45.623  -3.045  24.522  1.00  0.00     0.000 C 
BRANCH  18  19
ATOM     19  C   UNL     1      46.202  -2.904  25.941  1.00  0.00    -0.003 C 
ATOM     20  C   UNL     1      45.628  -1.711  26.705  1.00  0.00     0.004 C 
ENDBRANCH  18  19
ENDBRANCH  17  18
ENDBRANCH  16  17
ENDBRANCH  15  16
ENDBRANCH  13  14
ENDBRANCH  12  13
ENDBRANCH   1  11
TORSDOF 14
ENDMDL
MODEL 5
REMARK VINA RESULT:     9.368      4.943     10.937
REMARK INTER + INTRA:          16.565
REMARK INTER:                  17.122
REMARK INTRA:                  -0.557
REMARK UNBOUND:                -0.471
REMARK SMILES CCCCCC=CCC=CCCCCCCCC(=O)[O-]
REMARK SMILES IDX 11 1 12 2 13 3 14 4 15 5 16 6 17 7 18 8 19 9 20 10 10 11
REMARK SMILES IDX 9 12 8 13 7 14 6 15 5 16 4 17 3 18 2 19 1 20
REMARK H PARENT
REMARK Flexibility Score: inf
ROOT
ATOM      1  C   UNL     1      38.565  -0.671  18.747  1.00  0.00     0.027 C 
ENDROOT
BRANCH   1   2
ATOM      2  C   UNL     1      37.358  -0.075  18.000  1.00  0.00     0.004 C 
BRANCH   2   3
ATOM      3  C   UNL     1      37.037   1.381  18.393  1.00  0.00     0.000 C 
BRANCH   3   4
ATOM      4  C   UNL     1      36.539   2.266  17.237  1.00  0.00     0.000 C 
BRANCH   4   5
ATOM      5  C   UNL     1      35.417   3.247  17.648  1.00  0.00     0.000 C 
BRANCH   5   6
ATOM      6  C   UNL     1      35.632   4.651  17.059  1.00  0.00     0.006 C 
BRANCH   6   7
ATOM      7  C   UNL     1      35.098   4.767  15.626  1.00  0.00     0.053 C 
BRANCH   7   8
ATOM      8  C   UNL     1      36.054   4.186  14.629  1.00  0.00     0.041 C 
ATOM      9  O   UNL     1      35.695   3.236  13.885  1.00  0.00    -0.550 OA
ATOM     10  O   UNL     1      37.354   4.672  14.547  1.00  0.00    -0.550 OA
ENDBRANCH   7   8
ENDBRANCH   6   7
ENDBRANCH   5   6
ENDBRANCH   4   5
ENDBRANCH   3   4
ENDBRANCH   2   3
ENDBRANCH   1   2
BRANCH   1  11
ATOM     11  C   UNL     1      39.818   0.144  18.546  1.00  0.00    -0.031 C 
ATOM     12  C   UNL     1      41.012  -0.128  19.105  1.00  0.00    -0.027 C 
BRANCH  12  13
ATOM     13  C   UNL     1      41.272  -1.279  20.042  1.00  0.00     0.054 C 
BRANCH  13  14
ATOM     14  C   UNL     1      42.256  -2.256  19.449  1.00  0.00    -0.027 C 
ATOM     15  C   UNL     1      43.158  -2.922  20.187  1.00  0.00    -0.031 C 
BRANCH  15  16
ATOM     16  C   UNL     1      43.265  -2.769  21.685  1.00  0.00     0.027 C 
BRANCH  16  17
ATOM     17  C   UNL     1      44.674  -3.126  22.180  1.00  0.00     0.004 C 
BRANCH  17  18
ATOM     18  C   UNL     1      44.692  -4.359  23.102  1.00  0.00     0.000 C 
BRANCH  18  19
ATOM     19  C   UNL     1      44.805  -4.044  24.604  1.00  0.00    -0.003 C 
ATOM     20  C   UNL     1      45.640  -2.797  24.893  1.00  0.00     0.004 C 
ENDBRANCH  18  19
ENDBRANCH  17  18
ENDBRANCH  16  17
ENDBRANCH  15  16
ENDBRANCH  13  14
ENDBRANCH  12  13
ENDBRANCH   1  11
TORSDOF 14
ENDMDL
MODEL 6
REMARK VINA RESULT:     9.507      4.537     10.631
REMARK INTER + INTRA:          16.816
REMARK INTER:                  17.522
REMARK INTRA:                  -0.705
REMARK UNBOUND:                -0.471
REMARK SMILES CCCCCC=CCC=CCCCCCCCC(=O)[O-]
REMARK SMILES IDX 11 1 12 2 13 3 14 4 15 5 16 6 17 7 18 8 19 9 20 10 10 11
REMARK SMILES IDX 9 12 8 13 7 14 6 15 5 16 4 17 3 18 2 19 1 20
REMARK H PARENT
REMARK Flexibility Score: inf
ROOT
ATOM      1  C   UNL     1      38.485  -0.283  18.961  1.00  0.00     0.027 C 
ENDROOT
BRANCH   1   2
ATOM      2  C   UNL     1      37.237  -0.110  18.079  1.00  0.00     0.004 C 
BRANCH   2   3
ATOM      3  C   UNL     1      37.414   0.916  16.941  1.00  0.00     0.000 C 
BRANCH   3   4
ATOM      4  C   UNL     1      37.141   2.377  17.342  1.00  0.00     0.000 C 
BRANCH   4   5
ATOM      5  C   UNL     1      36.055   3.061  16.482  1.00  0.00     0.000 C 
BRANCH   5   6
ATOM      6  C   UNL     1      35.654   4.437  17.042  1.00  0.00     0.006 C 
BRANCH   6   7
ATOM      7  C   UNL     1      34.239   4.432  17.635  1.00  0.00     0.053 C 
BRANCH   7   8
ATOM      8  C   UNL     1      34.229   3.908  19.039  1.00  0.00     0.041 C 
ATOM      9  O   UNL     1      34.180   2.669  19.253  1.00  0.00    -0.550 OA
ATOM     10  O   UNL     1      34.237   4.793  20.111  1.00  0.00    -0.550 OA
ENDBRANCH   7   8
ENDBRANCH   6   7
ENDBRANCH   5   6
ENDBRANCH   4   5
ENDBRANCH   3   4
ENDBRANCH   2   3
ENDBRANCH   1   2
BRANCH   1  11
ATOM     11  C   UNL     1      39.743   0.175  18.266  1.00  0.00    -0.031 C 
ATOM     12  C   UNL     1      40.994  -0.138  18.651  1.00  0.00    -0.027 C 
BRANCH  12  13
ATOM     13  C   UNL     1      41.330  -0.976  19.858  1.00  0.00     0.054 C 
BRANCH  13  14
ATOM     14  C   UNL     1      42.104  -2.210  19.469  1.00  0.00    -0.027 C 
ATOM     15  C   UNL     1      42.975  -2.815  20.292  1.00  0.00    -0.031 C 
BRANCH  15  16
ATOM     16  C   UNL     1      43.254  -2.327  21.693  1.00  0.00     0.027 C 
BRANCH  16  17
ATOM     17  C   UNL     1      44.653  -2.754  22.161  1.00  0.00     0.004 C 
BRANCH  17  18
ATOM     18  C   UNL     1      44.662  -4.138  22.836  1.00  0.00     0.000 C 
BRANCH  18  19
ATOM     19  C   UNL     1      44.817  -4.112  24.367  1.00  0.00    -0.003 C 
ATOM     20  C   UNL     1      45.734  -2.993  24.857  1.00  0.00     0.004 C 
ENDBRANCH  18  19
ENDBRANCH  17  18
ENDBRANCH  16  17
ENDBRANCH  15  16
ENDBRANCH  13  14
ENDBRANCH  12  13
ENDBRANCH   1  11
TORSDOF 14
ENDMDL
MODEL 7
REMARK VINA RESULT:     9.526      4.812     10.313
REMARK INTER + INTRA:          16.851
REMARK INTER:                  18.013
REMARK INTRA:                  -1.162
REMARK UNBOUND:                -0.471
REMARK SMILES CCCCCC=CCC=CCCCCCCCC(=O)[O-]
REMARK SMILES IDX 11 1 12 2 13 3 14 4 15 5 16 6 17 7 18 8 19 9 20 10 10 11
REMARK SMILES IDX 9 12 8 13 7 14 6 15 5 16 4 17 3 18 2 19 1 20
REMARK H PARENT
REMARK Flexibility Score: inf
ROOT
ATOM      1  C   UNL     1      37.259   0.898  16.997  1.00  0.00     0.027 C 
ENDROOT
BRANCH   1   2
ATOM      2  C   UNL     1      36.846   2.249  17.606  1.00  0.00     0.004 C 
BRANCH   2   3
ATOM      3  C   UNL     1      35.564   2.184  18.460  1.00  0.00     0.000 C 
BRANCH   3   4
ATOM      4  C   UNL     1      34.683   3.445  18.399  1.00  0.00     0.000 C 
BRANCH   4   5
ATOM      5  C   UNL     1      35.230   4.535  17.450  1.00  0.00     0.000 C 
BRANCH   5   6
ATOM      6  C   UNL     1      34.472   4.572  16.113  1.00  0.00     0.006 C 
BRANCH   6   7
ATOM      7  C   UNL     1      35.334   5.125  14.971  1.00  0.00     0.053 C 
BRANCH   7   8
ATOM      8  C   UNL     1      36.338   4.119  14.497  1.00  0.00     0.041 C 
ATOM      9  O   UNL     1      35.963   2.979  14.117  1.00  0.00    -0.550 OA
ATOM     10  O   UNL     1      37.693   4.431  14.509  1.00  0.00    -0.550 OA
ENDBRANCH   7   8
ENDBRANCH   6   7
ENDBRANCH   5   6
ENDBRANCH   4   5
ENDBRANCH   3   4
ENDBRANCH   2   3
ENDBRANCH   1   2
BRANCH   1  11
ATOM     11  C   UNL     1      37.228  -0.218  18.012  1.00  0.00    -0.031 C 
ATOM     12  C   UNL     1      38.289  -0.642  18.723  1.00  0.00    -0.027 C 
BRANCH  12  13
ATOM     13  C   UNL     1      39.681  -0.082  18.594  1.00  0.00     0.054 C 
BRANCH  13  14
ATOM     14  C   UNL     1      40.328   0.093  19.945  1.00  0.00    -0.027 C 
ATOM     15  C   UNL     1      41.431  -0.577  20.319  1.00  0.00    -0.031 C 
BRANCH  15  16
ATOM     16  C   UNL     1      42.138  -1.558  19.417  1.00  0.00     0.027 C 
BRANCH  16  17
ATOM     17  C   UNL     1      42.515  -2.838  20.177  1.00  0.00     0.004 C 
BRANCH  17  18
ATOM     18  C   UNL     1      43.456  -2.574  21.366  1.00  0.00     0.000 C 
BRANCH  18  19
ATOM     19  C   UNL     1      44.138  -3.826  21.944  1.00  0.00    -0.003 C 
ATOM     20  C   UNL     1      44.780  -3.582  23.309  1.00  0.00     0.004 C 
ENDBRANCH  18  19
ENDBRANCH  17  18
ENDBRANCH  16  17
ENDBRANCH  15  16
ENDBRANCH  13  14
ENDBRANCH  12  13
ENDBRANCH   1  11
TORSDOF 14
ENDMDL
