MODEL 1
REMARK VINA RESULT:    -6.396      0.000      0.000
REMARK INTER + INTRA:         -13.022
REMARK INTER:                 -11.069
REMARK INTRA:                  -1.953
REMARK UNBOUND:                -1.953
REMARK SMILES OC[C@@H]1O[C@@H](O[C@@H]2[C@@H](O)[C@@H](O)[C@H](O[C@@H]3[C@@H](O)[C@H](O)[C@H](O)O[C@@H]3CO)O[C@H]2CO)[C@@H](O)[C@@H](O)[C@H]1O
REMARK SMILES IDX 7 1 26 2 25 3 12 4 10 5 8 6 6 7 5 8 3 9 33 10 4 11 31 12
REMARK SMILES IDX 29 13 2 14 1 15 34 17 32 19 30 21 27 23 28 24 9 26 11 28
REMARK SMILES IDX 13 30 14 31 22 32 15 33 21 34 17 35 19 36 23 37 24 38 16 40
REMARK SMILES IDX 18 42 20 44
REMARK H PARENT 1 16 34 18 32 20 30 22 28 25 9 27 11 29 24 39 16 41 18 43
REMARK H PARENT 20 45
REMARK Flexibility Score: inf
ROOT
ATOM      1  C   UNL     1      37.350   3.678  43.684  1.00  0.00     0.184 C 
ATOM      2  C   UNL     1      37.171   3.844  42.152  1.00  0.00     0.178 C 
ATOM      3  O   UNL     1      36.287   4.932  41.896  1.00  0.00    -0.341 OA
ATOM      4  C   UNL     1      35.014   4.885  42.545  1.00  0.00     0.282 C 
ATOM      5  C   UNL     1      35.042   4.482  44.062  1.00  0.00     0.202 C 
ATOM      6  C   UNL     1      35.982   3.273  44.289  1.00  0.00     0.180 C 
ENDROOT
BRANCH   1   7
ATOM      7  O   UNL     1      38.567   3.217  44.272  1.00  0.00    -0.341 OA
BRANCH   7   8
ATOM      8  C   UNL     1      38.952   1.856  44.371  1.00  0.00     0.282 C 
ATOM      9  C   UNL     1      37.578  -0.163  44.336  1.00  0.00     0.178 C 
ATOM     10  C   UNL     1      38.461  -0.723  45.500  1.00  0.00     0.177 C 
ATOM     11  O   UNL     1      38.171   0.936  43.638  1.00  0.00    -0.341 OA
ATOM     12  C   UNL     1      38.942   0.370  46.462  1.00  0.00     0.179 C 
ATOM     13  C   UNL     1      39.725   1.397  45.635  1.00  0.00     0.202 C 
BRANCH   9  14
ATOM     14  C   UNL     1      37.311  -1.282  43.279  1.00  0.00     0.191 C 
BRANCH  14  15
ATOM     15  O   UNL     1      36.465  -2.298  43.759  1.00  0.00    -0.394 OA
ATOM     16  H   UNL     1      36.766  -2.516  44.680  1.00  0.00     0.210 HD
ENDBRANCH  14  15
ENDBRANCH   9  14
BRANCH  10  17
ATOM     17  O   UNL     1      37.756  -1.696  46.246  1.00  0.00    -0.387 OA
ATOM     18  H   UNL     1      36.844  -1.786  45.855  1.00  0.00     0.211 HD
ENDBRANCH  10  17
BRANCH  12  19
ATOM     19  O   UNL     1      37.865   0.966  47.153  1.00  0.00    -0.387 OA
ATOM     20  H   UNL     1      37.828   0.524  48.024  1.00  0.00     0.211 HD
ENDBRANCH  12  19
BRANCH  13  21
ATOM     21  O   UNL     1      40.125   2.483  46.433  1.00  0.00    -0.385 OA
ATOM     22  H   UNL     1      40.595   2.081  47.212  1.00  0.00     0.211 HD
ENDBRANCH  13  21
ENDBRANCH   7   8
ENDBRANCH   1   7
BRANCH   2  23
ATOM     23  C   UNL     1      38.466   4.145  41.380  1.00  0.00     0.191 C 
BRANCH  23  24
ATOM     24  O   UNL     1      39.315   4.987  42.102  1.00  0.00    -0.394 OA
ATOM     25  H   UNL     1      39.420   5.798  41.549  1.00  0.00     0.210 HD
ENDBRANCH  23  24
ENDBRANCH   2  23
BRANCH   6  26
ATOM     26  O   UNL     1      36.060   2.946  45.655  1.00  0.00    -0.387 OA
ATOM     27  H   UNL     1      35.290   3.373  46.127  1.00  0.00     0.211 HD
ENDBRANCH   6  26
BRANCH   5  28
ATOM     28  O   UNL     1      35.377   5.561  44.917  1.00  0.00    -0.385 OA
ATOM     29  H   UNL     1      34.546   5.990  45.246  1.00  0.00     0.211 HD
ENDBRANCH   5  28
BRANCH   4  30
ATOM     30  O   UNL     1      34.128   4.028  41.829  1.00  0.00    -0.341 OA
BRANCH  30  31
ATOM     31  C   UNL     1      33.377   3.159  42.691  1.00  0.00     0.184 C 
ATOM     32  C   UNL     1      31.930   3.740  42.853  1.00  0.00     0.178 C 
ATOM     33  C   UNL     1      33.312   1.701  42.160  1.00  0.00     0.180 C 
ATOM     34  O   UNL     1      31.040   2.872  43.567  1.00  0.00    -0.342 OA
ATOM     35  C   UNL     1      32.370   0.887  43.036  1.00  0.00     0.201 C 
ATOM     36  C   UNL     1      30.983   1.543  43.064  1.00  0.00     0.279 C 
BRANCH  32  37
ATOM     37  C   UNL     1      31.291   4.273  41.549  1.00  0.00     0.191 C 
BRANCH  37  38
ATOM     38  O   UNL     1      31.330   5.675  41.538  1.00  0.00    -0.394 OA
ATOM     39  H   UNL     1      32.249   5.941  41.302  1.00  0.00     0.210 HD
ENDBRANCH  37  38
ENDBRANCH  32  37
BRANCH  33  40
ATOM     40  O   UNL     1      34.569   1.079  42.235  1.00  0.00    -0.387 OA
ATOM     41  H   UNL     1      34.997   1.100  41.339  1.00  0.00     0.211 HD
ENDBRANCH  33  40
BRANCH  35  42
ATOM     42  O   UNL     1      32.252  -0.419  42.530  1.00  0.00    -0.385 OA
ATOM     43  H   UNL     1      31.538  -0.880  43.035  1.00  0.00     0.211 HD
ENDBRANCH  35  42
BRANCH  36  44
ATOM     44  O   UNL     1      30.388   1.496  41.792  1.00  0.00    -0.366 OA
ATOM     45  H   UNL     1      30.477   2.397  41.396  1.00  0.00     0.213 HD
ENDBRANCH  36  44
ENDBRANCH  30  31
ENDBRANCH   4  30
TORSDOF 18
ENDMDL
MODEL 2
REMARK VINA RESULT:    -6.322      2.437      5.712
REMARK INTER + INTRA:         -12.894
REMARK INTER:                 -10.644
REMARK INTRA:                  -2.250
REMARK UNBOUND:                -1.953
REMARK SMILES OC[C@@H]1O[C@@H](O[C@@H]2[C@@H](O)[C@@H](O)[C@H](O[C@@H]3[C@@H](O)[C@H](O)[C@H](O)O[C@@H]3CO)O[C@H]2CO)[C@@H](O)[C@@H](O)[C@H]1O
REMARK SMILES IDX 7 1 26 2 25 3 12 4 10 5 8 6 6 7 5 8 3 9 33 10 4 11 31 12
REMARK SMILES IDX 29 13 2 14 1 15 34 17 32 19 30 21 27 23 28 24 9 26 11 28
REMARK SMILES IDX 13 30 14 31 22 32 15 33 21 34 17 35 19 36 23 37 24 38 16 40
REMARK SMILES IDX 18 42 20 44
REMARK H PARENT 1 16 34 18 32 20 30 22 28 25 9 27 11 29 24 39 16 41 18 43
REMARK H PARENT 20 45
REMARK Flexibility Score: inf
ROOT
ATOM      1  C   UNL     1      35.717   0.750  42.504  1.00  0.00     0.184 C 
ATOM      2  C   UNL     1      35.423   2.202  42.967  1.00  0.00     0.178 C 
ATOM      3  O   UNL     1      35.087   2.998  41.835  1.00  0.00    -0.341 OA
ATOM      4  C   UNL     1      36.025   2.998  40.755  1.00  0.00     0.282 C 
ATOM      5  C   UNL     1      36.591   1.591  40.350  1.00  0.00     0.202 C 
ATOM      6  C   UNL     1      36.980   0.776  41.607  1.00  0.00     0.180 C 
ENDROOT
BRANCH   1   7
ATOM      7  O   UNL     1      35.427  -0.390  43.314  1.00  0.00    -0.341 OA
BRANCH   7   8
ATOM      8  C   UNL     1      36.176  -0.787  44.450  1.00  0.00     0.282 C 
ATOM      9  C   UNL     1      37.979   0.377  45.616  1.00  0.00     0.178 C 
ATOM     10  C   UNL     1      38.732  -0.992  45.714  1.00  0.00     0.177 C 
ATOM     11  O   UNL     1      36.587   0.251  45.315  1.00  0.00    -0.341 OA
ATOM     12  C   UNL     1      38.491  -1.892  44.496  1.00  0.00     0.179 C 
ATOM     13  C   UNL     1      36.978  -2.113  44.380  1.00  0.00     0.202 C 
BRANCH   9  14
ATOM     14  C   UNL     1      38.084   1.144  46.973  1.00  0.00     0.191 C 
BRANCH  14  15
ATOM     15  O   UNL     1      37.101   2.140  47.117  1.00  0.00    -0.394 OA
ATOM     16  H   UNL     1      36.220   1.696  47.008  1.00  0.00     0.210 HD
ENDBRANCH  14  15
ENDBRANCH   9  14
BRANCH  10  17
ATOM     17  O   UNL     1      40.125  -0.795  45.855  1.00  0.00    -0.387 OA
ATOM     18  H   UNL     1      40.325  -0.670  46.824  1.00  0.00     0.211 HD
ENDBRANCH  10  17
BRANCH  12  19
ATOM     19  O   UNL     1      39.029  -1.330  43.319  1.00  0.00    -0.387 OA
ATOM     20  H   UNL     1      39.965  -1.136  43.519  1.00  0.00     0.211 HD
ENDBRANCH  12  19
BRANCH  13  21
ATOM     21  O   UNL     1      36.667  -2.858  43.230  1.00  0.00    -0.385 OA
ATOM     22  H   UNL     1      36.417  -2.189  42.539  1.00  0.00     0.211 HD
ENDBRANCH  13  21
ENDBRANCH   7   8
ENDBRANCH   1   7
BRANCH   2  23
ATOM     23  C   UNL     1      34.255   2.339  43.957  1.00  0.00     0.191 C 
BRANCH  23  24
ATOM     24  O   UNL     1      34.682   2.213  45.281  1.00  0.00    -0.394 OA
ATOM     25  H   UNL     1      34.990   1.281  45.375  1.00  0.00     0.210 HD
ENDBRANCH  23  24
ENDBRANCH   2  23
BRANCH   6  26
ATOM     26  O   UNL     1      37.429  -0.510  41.254  1.00  0.00    -0.387 OA
ATOM     27  H   UNL     1      36.879  -1.183  41.744  1.00  0.00     0.211 HD
ENDBRANCH   6  26
BRANCH   5  28
ATOM     28  O   UNL     1      35.712   0.860  39.514  1.00  0.00    -0.385 OA
ATOM     29  H   UNL     1      35.028   1.473  39.139  1.00  0.00     0.211 HD
ENDBRANCH   5  28
BRANCH   4  30
ATOM     30  O   UNL     1      37.098   3.893  41.037  1.00  0.00    -0.341 OA
BRANCH  30  31
ATOM     31  C   UNL     1      37.286   4.111  42.444  1.00  0.00     0.184 C 
ATOM     32  C   UNL     1      38.719   3.619  42.843  1.00  0.00     0.178 C 
ATOM     33  C   UNL     1      37.100   5.599  42.848  1.00  0.00     0.180 C 
ATOM     34  O   UNL     1      39.078   3.931  44.195  1.00  0.00    -0.342 OA
ATOM     35  C   UNL     1      37.472   5.774  44.314  1.00  0.00     0.201 C 
ATOM     36  C   UNL     1      38.912   5.298  44.549  1.00  0.00     0.279 C 
BRANCH  32  37
ATOM     37  C   UNL     1      39.841   4.000  41.848  1.00  0.00     0.191 C 
BRANCH  37  38
ATOM     38  O   UNL     1      39.828   3.120  40.755  1.00  0.00    -0.394 OA
ATOM     39  H   UNL     1      38.959   2.655  40.764  1.00  0.00     0.210 HD
ENDBRANCH  37  38
ENDBRANCH  32  37
BRANCH  33  40
ATOM     40  O   UNL     1      35.756   5.992  42.725  1.00  0.00    -0.387 OA
ATOM     41  H   UNL     1      35.197   5.190  42.547  1.00  0.00     0.211 HD
ENDBRANCH  33  40
BRANCH  35  42
ATOM     42  O   UNL     1      37.368   7.128  44.677  1.00  0.00    -0.385 OA
ATOM     43  H   UNL     1      36.408   7.357  44.734  1.00  0.00     0.211 HD
ENDBRANCH  35  42
BRANCH  36  44
ATOM     44  O   UNL     1      39.822   6.123  43.867  1.00  0.00    -0.366 OA
ATOM     45  H   UNL     1      39.291   6.731  43.296  1.00  0.00     0.213 HD
ENDBRANCH  36  44
ENDBRANCH  30  31
ENDBRANCH   4  30
TORSDOF 18
ENDMDL
MODEL 3
REMARK VINA RESULT:    -6.239      1.966      5.191
REMARK INTER + INTRA:         -12.751
REMARK INTER:                 -10.142
REMARK INTRA:                  -2.609
REMARK UNBOUND:                -1.953
REMARK SMILES OC[C@@H]1O[C@@H](O[C@@H]2[C@@H](O)[C@@H](O)[C@H](O[C@@H]3[C@@H](O)[C@H](O)[C@H](O)O[C@@H]3CO)O[C@H]2CO)[C@@H](O)[C@@H](O)[C@H]1O
REMARK SMILES IDX 7 1 26 2 25 3 12 4 10 5 8 6 6 7 5 8 3 9 33 10 4 11 31 12
REMARK SMILES IDX 29 13 2 14 1 15 34 17 32 19 30 21 27 23 28 24 9 26 11 28
REMARK SMILES IDX 13 30 14 31 22 32 15 33 21 34 17 35 19 36 23 37 24 38 16 40
REMARK SMILES IDX 18 42 20 44
REMARK H PARENT 1 16 34 18 32 20 30 22 28 25 9 27 11 29 24 39 16 41 18 43
REMARK H PARENT 20 45
REMARK Flexibility Score: inf
ROOT
ATOM      1  C   UNL     1      38.181   1.885  42.308  1.00  0.00     0.184 C 
ATOM      2  C   UNL     1      37.751   1.828  43.798  1.00  0.00     0.178 C 
ATOM      3  O   UNL     1      36.828   0.758  43.982  1.00  0.00    -0.341 OA
ATOM      4  C   UNL     1      35.680   0.754  43.130  1.00  0.00     0.282 C 
ATOM      5  C   UNL     1      35.960   1.048  41.614  1.00  0.00     0.202 C 
ATOM      6  C   UNL     1      36.934   2.241  41.459  1.00  0.00     0.180 C 
ENDROOT
BRANCH   1   7
ATOM      7  O   UNL     1      39.482   2.307  41.898  1.00  0.00    -0.341 OA
BRANCH   7   8
ATOM      8  C   UNL     1      39.954   3.643  41.956  1.00  0.00     0.282 C 
ATOM      9  C   UNL     1      39.048   5.569  43.154  1.00  0.00     0.178 C 
ATOM     10  C   UNL     1      39.341   6.434  41.882  1.00  0.00     0.177 C 
ATOM     11  O   UNL     1      39.746   4.321  43.178  1.00  0.00    -0.341 OA
ATOM     12  C   UNL     1      39.156   5.653  40.576  1.00  0.00     0.179 C 
ATOM     13  C   UNL     1      40.090   4.438  40.631  1.00  0.00     0.202 C 
BRANCH   9  14
ATOM     14  C   UNL     1      39.467   6.350  44.441  1.00  0.00     0.191 C 
BRANCH  14  15
ATOM     15  O   UNL     1      39.404   5.562  45.605  1.00  0.00    -0.394 OA
ATOM     16  H   UNL     1      40.018   4.794  45.469  1.00  0.00     0.210 HD
ENDBRANCH  14  15
ENDBRANCH   9  14
BRANCH  10  17
ATOM     17  O   UNL     1      38.505   7.574  41.843  1.00  0.00    -0.387 OA
ATOM     18  H   UNL     1      37.894   7.484  41.061  1.00  0.00     0.211 HD
ENDBRANCH  10  17
BRANCH  12  19
ATOM     19  O   UNL     1      37.811   5.270  40.384  1.00  0.00    -0.387 OA
ATOM     20  H   UNL     1      37.827   4.304  40.236  1.00  0.00     0.211 HD
ENDBRANCH  12  19
BRANCH  13  21
ATOM     21  O   UNL     1      39.914   3.618  39.503  1.00  0.00    -0.385 OA
ATOM     22  H   UNL     1      39.103   3.967  39.045  1.00  0.00     0.211 HD
ENDBRANCH  13  21
ENDBRANCH   7   8
ENDBRANCH   1   7
BRANCH   2  23
ATOM     23  C   UNL     1      38.898   1.589  44.792  1.00  0.00     0.191 C 
BRANCH  23  24
ATOM     24  O   UNL     1      39.133   2.711  45.591  1.00  0.00    -0.394 OA
ATOM     25  H   UNL     1      38.697   2.520  46.455  1.00  0.00     0.210 HD
ENDBRANCH  23  24
ENDBRANCH   2  23
BRANCH   6  26
ATOM     26  O   UNL     1      37.239   2.469  40.105  1.00  0.00    -0.387 OA
ATOM     27  H   UNL     1      36.600   3.148  39.747  1.00  0.00     0.211 HD
ENDBRANCH   6  26
BRANCH   5  28
ATOM     28  O   UNL     1      36.423  -0.089  40.905  1.00  0.00    -0.385 OA
ATOM     29  H   UNL     1      36.040  -0.908  41.312  1.00  0.00     0.211 HD
ENDBRANCH   5  28
BRANCH   4  30
ATOM     30  O   UNL     1      34.695   1.657  43.627  1.00  0.00    -0.341 OA
BRANCH  30  31
ATOM     31  C   UNL     1      33.618   1.870  42.702  1.00  0.00     0.184 C 
ATOM     32  C   UNL     1      32.415   0.951  43.110  1.00  0.00     0.178 C 
ATOM     33  C   UNL     1      33.163   3.353  42.646  1.00  0.00     0.180 C 
ATOM     34  O   UNL     1      31.224   1.193  42.351  1.00  0.00    -0.342 OA
ATOM     35  C   UNL     1      31.921   3.467  41.773  1.00  0.00     0.201 C 
ATOM     36  C   UNL     1      30.814   2.554  42.316  1.00  0.00     0.279 C 
BRANCH  32  37
ATOM     37  C   UNL     1      32.127   0.890  44.629  1.00  0.00     0.191 C 
BRANCH  37  38
ATOM     38  O   UNL     1      32.579   2.065  45.248  1.00  0.00    -0.394 OA
ATOM     39  H   UNL     1      33.563   2.048  45.225  1.00  0.00     0.210 HD
ENDBRANCH  37  38
ENDBRANCH  32  37
BRANCH  33  40
ATOM     40  O   UNL     1      34.147   4.162  42.053  1.00  0.00    -0.387 OA
ATOM     41  H   UNL     1      33.801   4.517  41.191  1.00  0.00     0.211 HD
ENDBRANCH  33  40
BRANCH  35  42
ATOM     42  O   UNL     1      31.461   4.795  41.764  1.00  0.00    -0.385 OA
ATOM     43  H   UNL     1      32.231   5.385  41.567  1.00  0.00     0.211 HD
ENDBRANCH  35  42
BRANCH  36  44
ATOM     44  O   UNL     1      30.383   2.998  43.578  1.00  0.00    -0.366 OA
ATOM     45  H   UNL     1      29.841   2.270  43.972  1.00  0.00     0.213 HD
ENDBRANCH  36  44
ENDBRANCH  30  31
ENDBRANCH   4  30
TORSDOF 18
ENDMDL
MODEL 4
REMARK VINA RESULT:    -6.131      3.215      6.939
REMARK INTER + INTRA:         -12.564
REMARK INTER:                 -10.373
REMARK INTRA:                  -2.191
REMARK UNBOUND:                -1.953
REMARK SMILES OC[C@@H]1O[C@@H](O[C@@H]2[C@@H](O)[C@@H](O)[C@H](O[C@@H]3[C@@H](O)[C@H](O)[C@H](O)O[C@@H]3CO)O[C@H]2CO)[C@@H](O)[C@@H](O)[C@H]1O
REMARK SMILES IDX 7 1 26 2 25 3 12 4 10 5 8 6 6 7 5 8 3 9 33 10 4 11 31 12
REMARK SMILES IDX 29 13 2 14 1 15 34 17 32 19 30 21 27 23 28 24 9 26 11 28
REMARK SMILES IDX 13 30 14 31 22 32 15 33 21 34 17 35 19 36 23 37 24 38 16 40
REMARK SMILES IDX 18 42 20 44
REMARK H PARENT 1 16 34 18 32 20 30 22 28 25 9 27 11 29 24 39 16 41 18 43
REMARK H PARENT 20 45
REMARK Flexibility Score: inf
ROOT
ATOM      1  C   UNL     1      38.082   3.913  42.919  1.00  0.00     0.184 C 
ATOM      2  C   UNL     1      37.696   2.683  42.055  1.00  0.00     0.178 C 
ATOM      3  O   UNL     1      36.908   1.788  42.835  1.00  0.00    -0.341 OA
ATOM      4  C   UNL     1      37.466   1.368  44.082  1.00  0.00     0.282 C 
ATOM      5  C   UNL     1      38.118   2.502  44.949  1.00  0.00     0.202 C 
ATOM      6  C   UNL     1      38.996   3.426  44.071  1.00  0.00     0.180 C 
ENDROOT
BRANCH   1   7
ATOM      7  O   UNL     1      38.245   5.220  42.367  1.00  0.00    -0.341 OA
BRANCH   7   8
ATOM      8  C   UNL     1      37.772   6.415  42.967  1.00  0.00     0.282 C 
ATOM      9  C   UNL     1      38.141   7.283  45.220  1.00  0.00     0.178 C 
ATOM     10  C   UNL     1      36.629   7.687  45.257  1.00  0.00     0.177 C 
ATOM     11  O   UNL     1      38.637   7.022  43.904  1.00  0.00    -0.341 OA
ATOM     12  C   UNL     1      35.732   6.705  44.494  1.00  0.00     0.179 C 
ATOM     13  C   UNL     1      36.241   6.646  43.049  1.00  0.00     0.202 C 
BRANCH   9  14
ATOM     14  C   UNL     1      39.017   8.431  45.817  1.00  0.00     0.191 C 
BRANCH  14  15
ATOM     15  O   UNL     1      38.494   8.953  47.014  1.00  0.00    -0.394 OA
ATOM     16  H   UNL     1      38.774   9.905  47.062  1.00  0.00     0.210 HD
ENDBRANCH  14  15
ENDBRANCH   9  14
BRANCH  10  17
ATOM     17  O   UNL     1      36.162   7.776  46.589  1.00  0.00    -0.387 OA
ATOM     18  H   UNL     1      36.630   7.081  47.129  1.00  0.00     0.211 HD
ENDBRANCH  10  17
BRANCH  12  19
ATOM     19  O   UNL     1      35.724   5.430  45.099  1.00  0.00    -0.387 OA
ATOM     20  H   UNL     1      34.878   5.369  45.584  1.00  0.00     0.211 HD
ENDBRANCH  12  19
BRANCH  13  21
ATOM     21  O   UNL     1      35.523   5.695  42.304  1.00  0.00    -0.385 OA
ATOM     22  H   UNL     1      35.929   4.816  42.532  1.00  0.00     0.211 HD
ENDBRANCH  13  21
ENDBRANCH   7   8
ENDBRANCH   1   7
BRANCH   2  23
ATOM     23  C   UNL     1      36.871   3.009  40.800  1.00  0.00     0.191 C 
BRANCH  23  24
ATOM     24  O   UNL     1      37.611   3.743  39.870  1.00  0.00    -0.394 OA
ATOM     25  H   UNL     1      37.466   4.691  40.102  1.00  0.00     0.210 HD
ENDBRANCH  23  24
ENDBRANCH   2  23
BRANCH   6  26
ATOM     26  O   UNL     1      39.532   4.482  44.831  1.00  0.00    -0.387 OA
ATOM     27  H   UNL     1      39.873   5.180  44.204  1.00  0.00     0.211 HD
ENDBRANCH   6  26
BRANCH   5  28
ATOM     28  O   UNL     1      37.167   3.249  45.689  1.00  0.00    -0.385 OA
ATOM     29  H   UNL     1      37.457   3.303  46.636  1.00  0.00     0.211 HD
ENDBRANCH   5  28
BRANCH   4  30
ATOM     30  O   UNL     1      38.406   0.317  43.869  1.00  0.00    -0.341 OA
BRANCH  30  31
ATOM     31  C   UNL     1      38.040  -0.900  44.538  1.00  0.00     0.184 C 
ATOM     32  C   UNL     1      37.369  -1.863  43.500  1.00  0.00     0.178 C 
ATOM     33  C   UNL     1      39.252  -1.601  45.211  1.00  0.00     0.180 C 
ATOM     34  O   UNL     1      37.103  -3.173  44.018  1.00  0.00    -0.342 OA
ATOM     35  C   UNL     1      38.815  -2.954  45.754  1.00  0.00     0.201 C 
ATOM     36  C   UNL     1      38.224  -3.806  44.623  1.00  0.00     0.279 C 
BRANCH  32  37
ATOM     37  C   UNL     1      38.064  -1.921  42.119  1.00  0.00     0.191 C 
BRANCH  37  38
ATOM     38  O   UNL     1      37.702  -0.802  41.355  1.00  0.00    -0.394 OA
ATOM     39  H   UNL     1      37.579  -1.110  40.426  1.00  0.00     0.210 HD
ENDBRANCH  37  38
ENDBRANCH  32  37
BRANCH  33  40
ATOM     40  O   UNL     1      39.720  -0.858  46.309  1.00  0.00    -0.387 OA
ATOM     41  H   UNL     1      39.360  -1.255  47.146  1.00  0.00     0.211 HD
ENDBRANCH  33  40
BRANCH  35  42
ATOM     42  O   UNL     1      39.917  -3.626  46.310  1.00  0.00    -0.385 OA
ATOM     43  H   UNL     1      39.858  -3.549  47.294  1.00  0.00     0.211 HD
ENDBRANCH  35  42
BRANCH  36  44
ATOM     44  O   UNL     1      39.212  -4.123  43.676  1.00  0.00    -0.366 OA
ATOM     45  H   UNL     1      40.084  -4.081  44.140  1.00  0.00     0.213 HD
ENDBRANCH  36  44
ENDBRANCH  30  31
ENDBRANCH   4  30
TORSDOF 18
ENDMDL
MODEL 5
REMARK VINA RESULT:    -5.984      4.228      7.162
REMARK INTER + INTRA:         -12.309
REMARK INTER:                 -10.314
REMARK INTRA:                  -1.995
REMARK UNBOUND:                -1.953
REMARK SMILES OC[C@@H]1O[C@@H](O[C@@H]2[C@@H](O)[C@@H](O)[C@H](O[C@@H]3[C@@H](O)[C@H](O)[C@H](O)O[C@@H]3CO)O[C@H]2CO)[C@@H](O)[C@@H](O)[C@H]1O
REMARK SMILES IDX 7 1 26 2 25 3 12 4 10 5 8 6 6 7 5 8 3 9 33 10 4 11 31 12
REMARK SMILES IDX 29 13 2 14 1 15 34 17 32 19 30 21 27 23 28 24 9 26 11 28
REMARK SMILES IDX 13 30 14 31 22 32 15 33 21 34 17 35 19 36 23 37 24 38 16 40
REMARK SMILES IDX 18 42 20 44
REMARK H PARENT 1 16 34 18 32 20 30 22 28 25 9 27 11 29 24 39 16 41 18 43
REMARK H PARENT 20 45
REMARK Flexibility Score: inf
ROOT
ATOM      1  C   UNL     1      36.513   0.997  40.601  1.00  0.00     0.184 C 
ATOM      2  C   UNL     1      36.829   2.504  40.417  1.00  0.00     0.178 C 
ATOM      3  O   UNL     1      38.023   2.826  41.124  1.00  0.00    -0.341 OA
ATOM      4  C   UNL     1      38.057   2.474  42.509  1.00  0.00     0.282 C 
ATOM      5  C   UNL     1      37.523   1.040  42.858  1.00  0.00     0.202 C 
ATOM      6  C   UNL     1      36.206   0.748  42.099  1.00  0.00     0.180 C 
ENDROOT
BRANCH   1   7
ATOM      7  O   UNL     1      35.875   0.214  39.591  1.00  0.00    -0.341 OA
BRANCH   7   8
ATOM      8  C   UNL     1      36.553  -0.630  38.674  1.00  0.00     0.282 C 
ATOM      9  C   UNL     1      35.992  -1.194  36.365  1.00  0.00     0.178 C 
ATOM     10  C   UNL     1      36.381  -2.676  36.686  1.00  0.00     0.177 C 
ATOM     11  O   UNL     1      36.487  -0.248  37.316  1.00  0.00    -0.341 OA
ATOM     12  C   UNL     1      36.040  -3.083  38.125  1.00  0.00     0.179 C 
ATOM     13  C   UNL     1      36.774  -2.115  39.061  1.00  0.00     0.202 C 
BRANCH   9  14
ATOM     14  C   UNL     1      36.565  -0.780  34.971  1.00  0.00     0.191 C 
BRANCH  14  15
ATOM     15  O   UNL     1      37.381  -1.772  34.398  1.00  0.00    -0.394 OA
ATOM     16  H   UNL     1      36.778  -2.485  34.061  1.00  0.00     0.210 HD
ENDBRANCH  14  15
ENDBRANCH   9  14
BRANCH  10  17
ATOM     17  O   UNL     1      35.733  -3.571  35.804  1.00  0.00    -0.387 OA
ATOM     18  H   UNL     1      35.919  -3.275  34.870  1.00  0.00     0.211 HD
ENDBRANCH  10  17
BRANCH  12  19
ATOM     19  O   UNL     1      34.647  -3.074  38.352  1.00  0.00    -0.387 OA
ATOM     20  H   UNL     1      34.481  -3.766  39.022  1.00  0.00     0.211 HD
ENDBRANCH  12  19
BRANCH  13  21
ATOM     21  O   UNL     1      36.440  -2.367  40.403  1.00  0.00    -0.385 OA
ATOM     22  H   UNL     1      36.241  -3.340  40.450  1.00  0.00     0.211 HD
ENDBRANCH  13  21
ENDBRANCH   7   8
ENDBRANCH   1   7
BRANCH   2  23
ATOM     23  C   UNL     1      37.054   2.943  38.960  1.00  0.00     0.191 C 
BRANCH  23  24
ATOM     24  O   UNL     1      35.938   2.681  38.163  1.00  0.00    -0.394 OA
ATOM     25  H   UNL     1      35.962   3.353  37.440  1.00  0.00     0.210 HD
ENDBRANCH  23  24
ENDBRANCH   2  23
BRANCH   6  26
ATOM     26  O   UNL     1      35.755  -0.560  42.358  1.00  0.00    -0.387 OA
ATOM     27  H   UNL     1      34.853  -0.506  42.782  1.00  0.00     0.211 HD
ENDBRANCH   6  26
BRANCH   5  28
ATOM     28  O   UNL     1      38.483   0.022  42.632  1.00  0.00    -0.385 OA
ATOM     29  H   UNL     1      39.097   0.304  41.906  1.00  0.00     0.211 HD
ENDBRANCH   5  28
BRANCH   4  30
ATOM     30  O   UNL     1      37.364   3.453  43.281  1.00  0.00    -0.341 OA
BRANCH  30  31
ATOM     31  C   UNL     1      38.076   4.696  43.372  1.00  0.00     0.184 C 
ATOM     32  C   UNL     1      37.061   5.874  43.175  1.00  0.00     0.178 C 
ATOM     33  C   UNL     1      38.827   4.858  44.722  1.00  0.00     0.180 C 
ATOM     34  O   UNL     1      37.632   7.169  43.402  1.00  0.00    -0.342 OA
ATOM     35  C   UNL     1      39.417   6.258  44.807  1.00  0.00     0.201 C 
ATOM     36  C   UNL     1      38.307   7.305  44.646  1.00  0.00     0.279 C 
BRANCH  32  37
ATOM     37  C   UNL     1      35.712   5.702  43.913  1.00  0.00     0.191 C 
BRANCH  37  38
ATOM     38  O   UNL     1      35.884   4.880  45.036  1.00  0.00    -0.394 OA
ATOM     39  H   UNL     1      35.428   5.318  45.792  1.00  0.00     0.210 HD
ENDBRANCH  37  38
ENDBRANCH  32  37
BRANCH  33  40
ATOM     40  O   UNL     1      39.905   3.961  44.812  1.00  0.00    -0.387 OA
ATOM     41  H   UNL     1      40.520   4.262  45.533  1.00  0.00     0.211 HD
ENDBRANCH  33  40
BRANCH  35  42
ATOM     42  O   UNL     1      40.046   6.439  46.050  1.00  0.00    -0.385 OA
ATOM     43  H   UNL     1      40.625   5.655  46.218  1.00  0.00     0.211 HD
ENDBRANCH  35  42
BRANCH  36  44
ATOM     44  O   UNL     1      37.415   7.248  45.729  1.00  0.00    -0.366 OA
ATOM     45  H   UNL     1      37.676   7.964  46.359  1.00  0.00     0.213 HD
ENDBRANCH  36  44
ENDBRANCH  30  31
ENDBRANCH   4  30
TORSDOF 18
ENDMDL
MODEL 6
REMARK VINA RESULT:    -5.980      2.698      6.533
REMARK INTER + INTRA:         -12.303
REMARK INTER:                 -10.402
REMARK INTRA:                  -1.901
REMARK UNBOUND:                -1.953
REMARK SMILES OC[C@@H]1O[C@@H](O[C@@H]2[C@@H](O)[C@@H](O)[C@H](O[C@@H]3[C@@H](O)[C@H](O)[C@H](O)O[C@@H]3CO)O[C@H]2CO)[C@@H](O)[C@@H](O)[C@H]1O
REMARK SMILES IDX 7 1 26 2 25 3 12 4 10 5 8 6 6 7 5 8 3 9 33 10 4 11 31 12
REMARK SMILES IDX 29 13 2 14 1 15 34 17 32 19 30 21 27 23 28 24 9 26 11 28
REMARK SMILES IDX 13 30 14 31 22 32 15 33 21 34 17 35 19 36 23 37 24 38 16 40
REMARK SMILES IDX 18 42 20 44
REMARK H PARENT 1 16 34 18 32 20 30 22 28 25 9 27 11 29 24 39 16 41 18 43
REMARK H PARENT 20 45
REMARK Flexibility Score: inf
ROOT
ATOM      1  C   UNL     1      35.142   2.164  41.708  1.00  0.00     0.184 C 
ATOM      2  C   UNL     1      34.277   1.407  42.750  1.00  0.00     0.178 C 
ATOM      3  O   UNL     1      34.217   2.166  43.954  1.00  0.00    -0.341 OA
ATOM      4  C   UNL     1      35.469   2.550  44.528  1.00  0.00     0.282 C 
ATOM      5  C   UNL     1      36.534   3.110  43.520  1.00  0.00     0.202 C 
ATOM      6  C   UNL     1      36.594   2.234  42.246  1.00  0.00     0.180 C 
ENDROOT
BRANCH   1   7
ATOM      7  O   UNL     1      34.892   2.095  40.304  1.00  0.00    -0.341 OA
BRANCH   7   8
ATOM      8  C   UNL     1      35.313   1.037  39.458  1.00  0.00     0.282 C 
ATOM      9  C   UNL     1      36.761  -0.868  39.944  1.00  0.00     0.178 C 
ATOM     10  C   UNL     1      37.444  -0.638  38.553  1.00  0.00     0.177 C 
ATOM     11  O   UNL     1      35.495  -0.218  40.080  1.00  0.00    -0.341 OA
ATOM     12  C   UNL     1      37.520   0.843  38.166  1.00  0.00     0.179 C 
ATOM     13  C   UNL     1      36.088   1.391  38.162  1.00  0.00     0.202 C 
BRANCH   9  14
ATOM     14  C   UNL     1      36.516  -2.394  40.174  1.00  0.00     0.191 C 
BRANCH  14  15
ATOM     15  O   UNL     1      37.133  -2.878  41.342  1.00  0.00    -0.394 OA
ATOM     16  H   UNL     1      36.495  -3.508  41.767  1.00  0.00     0.210 HD
ENDBRANCH  14  15
ENDBRANCH   9  14
BRANCH  10  17
ATOM     17  O   UNL     1      38.754  -1.171  38.540  1.00  0.00    -0.387 OA
ATOM     18  H   UNL     1      39.240  -0.779  37.763  1.00  0.00     0.211 HD
ENDBRANCH  10  17
BRANCH  12  19
ATOM     19  O   UNL     1      38.355   1.569  39.042  1.00  0.00    -0.387 OA
ATOM     20  H   UNL     1      39.101   0.975  39.253  1.00  0.00     0.211 HD
ENDBRANCH  12  19
BRANCH  13  21
ATOM     21  O   UNL     1      36.079   2.772  37.902  1.00  0.00    -0.385 OA
ATOM     22  H   UNL     1      36.163   3.210  38.790  1.00  0.00     0.211 HD
ENDBRANCH  13  21
ENDBRANCH   7   8
ENDBRANCH   1   7
BRANCH   2  23
ATOM     23  C   UNL     1      32.822   1.156  42.321  1.00  0.00     0.191 C 
BRANCH  23  24
ATOM     24  O   UNL     1      32.092   0.508  43.320  1.00  0.00    -0.394 OA
ATOM     25  H   UNL     1      31.237   0.995  43.385  1.00  0.00     0.210 HD
ENDBRANCH  23  24
ENDBRANCH   2  23
BRANCH   6  26
ATOM     26  O   UNL     1      37.501   2.766  41.311  1.00  0.00    -0.387 OA
ATOM     27  H   UNL     1      37.921   2.011  40.812  1.00  0.00     0.211 HD
ENDBRANCH   6  26
BRANCH   5  28
ATOM     28  O   UNL     1      36.326   4.474  43.196  1.00  0.00    -0.385 OA
ATOM     29  H   UNL     1      35.656   4.541  42.468  1.00  0.00     0.211 HD
ENDBRANCH   5  28
BRANCH   4  30
ATOM     30  O   UNL     1      36.023   1.464  45.269  1.00  0.00    -0.341 OA
BRANCH  30  31
ATOM     31  C   UNL     1      37.247   0.972  44.701  1.00  0.00     0.184 C 
ATOM     32  C   UNL     1      38.437   1.395  45.628  1.00  0.00     0.178 C 
ATOM     33  C   UNL     1      37.239  -0.570  44.511  1.00  0.00     0.180 C 
ATOM     34  O   UNL     1      39.695   0.824  45.246  1.00  0.00    -0.342 OA
ATOM     35  C   UNL     1      38.619  -1.029  44.062  1.00  0.00     0.201 C 
ATOM     36  C   UNL     1      39.676  -0.589  45.084  1.00  0.00     0.279 C 
BRANCH  32  37
ATOM     37  C   UNL     1      38.172   1.238  47.144  1.00  0.00     0.191 C 
BRANCH  37  38
ATOM     38  O   UNL     1      39.362   1.437  47.860  1.00  0.00    -0.394 OA
ATOM     39  H   UNL     1      39.450   0.688  48.495  1.00  0.00     0.210 HD
ENDBRANCH  37  38
ENDBRANCH  32  37
BRANCH  33  40
ATOM     40  O   UNL     1      36.340  -0.950  43.500  1.00  0.00    -0.387 OA
ATOM     41  H   UNL     1      36.654  -0.583  42.631  1.00  0.00     0.211 HD
ENDBRANCH  33  40
BRANCH  35  42
ATOM     42  O   UNL     1      38.645  -2.429  43.946  1.00  0.00    -0.385 OA
ATOM     43  H   UNL     1      38.274  -2.670  43.061  1.00  0.00     0.211 HD
ENDBRANCH  35  42
BRANCH  36  44
ATOM     44  O   UNL     1      39.482  -1.248  46.309  1.00  0.00    -0.366 OA
ATOM     45  H   UNL     1      40.340  -1.676  46.548  1.00  0.00     0.213 HD
ENDBRANCH  36  44
ENDBRANCH  30  31
ENDBRANCH   4  30
TORSDOF 18
ENDMDL
MODEL 7
REMARK VINA RESULT:    -5.885      1.493      2.429
REMARK INTER + INTRA:         -12.138
REMARK INTER:                 -10.074
REMARK INTRA:                  -2.064
REMARK UNBOUND:                -1.953
REMARK SMILES OC[C@@H]1O[C@@H](O[C@@H]2[C@@H](O)[C@@H](O)[C@H](O[C@@H]3[C@@H](O)[C@H](O)[C@H](O)O[C@@H]3CO)O[C@H]2CO)[C@@H](O)[C@@H](O)[C@H]1O
REMARK SMILES IDX 7 1 26 2 25 3 12 4 10 5 8 6 6 7 5 8 3 9 33 10 4 11 31 12
REMARK SMILES IDX 29 13 2 14 1 15 34 17 32 19 30 21 27 23 28 24 9 26 11 28
REMARK SMILES IDX 13 30 14 31 22 32 15 33 21 34 17 35 19 36 23 37 24 38 16 40
REMARK SMILES IDX 18 42 20 44
REMARK H PARENT 1 16 34 18 32 20 30 22 28 25 9 27 11 29 24 39 16 41 18 43
REMARK H PARENT 20 45
REMARK Flexibility Score: inf
ROOT
ATOM      1  C   UNL     1      37.859   4.029  42.962  1.00  0.00     0.184 C 
ATOM      2  C   UNL     1      36.824   3.098  42.278  1.00  0.00     0.178 C 
ATOM      3  O   UNL     1      35.819   3.890  41.653  1.00  0.00    -0.341 OA
ATOM      4  C   UNL     1      35.157   4.850  42.480  1.00  0.00     0.282 C 
ATOM      5  C   UNL     1      36.092   5.698  43.414  1.00  0.00     0.202 C 
ATOM      6  C   UNL     1      37.142   4.793  44.103  1.00  0.00     0.180 C 
ENDROOT
BRANCH   1   7
ATOM      7  O   UNL     1      39.242   3.692  43.074  1.00  0.00    -0.341 OA
BRANCH   7   8
ATOM      8  C   UNL     1      39.746   2.559  43.764  1.00  0.00     0.282 C 
ATOM      9  C   UNL     1      38.723   0.371  44.128  1.00  0.00     0.178 C 
ATOM     10  C   UNL     1      39.251   0.426  45.601  1.00  0.00     0.177 C 
ATOM     11  O   UNL     1      39.364   1.300  43.250  1.00  0.00    -0.341 OA
ATOM     12  C   UNL     1      39.256   1.847  46.179  1.00  0.00     0.179 C 
ATOM     13  C   UNL     1      40.125   2.713  45.260  1.00  0.00     0.202 C 
BRANCH   9  14
ATOM     14  C   UNL     1      38.952  -1.054  43.530  1.00  0.00     0.191 C 
BRANCH  14  15
ATOM     15  O   UNL     1      38.056  -2.012  44.037  1.00  0.00    -0.394 OA
ATOM     16  H   UNL     1      38.164  -2.830  43.486  1.00  0.00     0.210 HD
ENDBRANCH  14  15
ENDBRANCH   9  14
BRANCH  10  17
ATOM     17  O   UNL     1      38.474  -0.398  46.448  1.00  0.00    -0.387 OA
ATOM     18  H   UNL     1      38.284  -1.249  45.964  1.00  0.00     0.211 HD
ENDBRANCH  10  17
BRANCH  12  19
ATOM     19  O   UNL     1      37.949   2.363  46.302  1.00  0.00    -0.387 OA
ATOM     20  H   UNL     1      37.584   2.387  45.396  1.00  0.00     0.211 HD
ENDBRANCH  12  19
BRANCH  13  21
ATOM     21  O   UNL     1      40.108   4.056  45.674  1.00  0.00    -0.385 OA
ATOM     22  H   UNL     1      39.397   4.492  45.131  1.00  0.00     0.211 HD
ENDBRANCH  13  21
ENDBRANCH   7   8
ENDBRANCH   1   7
BRANCH   2  23
ATOM     23  C   UNL     1      37.401   2.184  41.185  1.00  0.00     0.191 C 
BRANCH  23  24
ATOM     24  O   UNL     1      38.502   2.766  40.552  1.00  0.00    -0.394 OA
ATOM     25  H   UNL     1      38.872   2.066  39.963  1.00  0.00     0.210 HD
ENDBRANCH  23  24
ENDBRANCH   2  23
BRANCH   6  26
ATOM     26  O   UNL     1      38.022   5.556  44.893  1.00  0.00    -0.387 OA
ATOM     27  H   UNL     1      38.760   4.961  45.208  1.00  0.00     0.211 HD
ENDBRANCH   6  26
BRANCH   5  28
ATOM     28  O   UNL     1      36.709   6.782  42.743  1.00  0.00    -0.385 OA
ATOM     29  H   UNL     1      37.552   6.472  42.322  1.00  0.00     0.211 HD
ENDBRANCH   5  28
BRANCH   4  30
ATOM     30  O   UNL     1      34.142   4.215  43.254  1.00  0.00    -0.341 OA
BRANCH  30  31
ATOM     31  C   UNL     1      33.537   3.105  42.573  1.00  0.00     0.184 C 
ATOM     32  C   UNL     1      33.996   1.777  43.268  1.00  0.00     0.178 C 
ATOM     33  C   UNL     1      31.986   3.188  42.554  1.00  0.00     0.180 C 
ATOM     34  O   UNL     1      33.331   0.609  42.772  1.00  0.00    -0.342 OA
ATOM     35  C   UNL     1      31.419   1.905  41.963  1.00  0.00     0.201 C 
ATOM     36  C   UNL     1      31.911   0.696  42.769  1.00  0.00     0.279 C 
BRANCH  32  37
ATOM     37  C   UNL     1      34.008   1.820  44.815  1.00  0.00     0.191 C 
BRANCH  37  38
ATOM     38  O   UNL     1      35.241   2.311  45.269  1.00  0.00    -0.394 OA
ATOM     39  H   UNL     1      35.158   2.455  46.240  1.00  0.00     0.210 HD
ENDBRANCH  37  38
ENDBRANCH  32  37
BRANCH  33  40
ATOM     40  O   UNL     1      31.547   4.239  41.730  1.00  0.00    -0.387 OA
ATOM     41  H   UNL     1      32.171   5.007  41.821  1.00  0.00     0.211 HD
ENDBRANCH  33  40
BRANCH  35  42
ATOM     42  O   UNL     1      30.014   1.942  41.997  1.00  0.00    -0.385 OA
ATOM     43  H   UNL     1      29.702   2.446  41.206  1.00  0.00     0.211 HD
ENDBRANCH  35  42
BRANCH  36  44
ATOM     44  O   UNL     1      31.392   0.727  44.074  1.00  0.00    -0.366 OA
ATOM     45  H   UNL     1      32.136   0.515  44.688  1.00  0.00     0.213 HD
ENDBRANCH  36  44
ENDBRANCH  30  31
ENDBRANCH   4  30
TORSDOF 18
ENDMDL
MODEL 8
REMARK VINA RESULT:    -5.830      2.005      2.923
REMARK INTER + INTRA:         -12.043
REMARK INTER:                  -9.887
REMARK INTRA:                  -2.155
REMARK UNBOUND:                -1.953
REMARK SMILES OC[C@@H]1O[C@@H](O[C@@H]2[C@@H](O)[C@@H](O)[C@H](O[C@@H]3[C@@H](O)[C@H](O)[C@H](O)O[C@@H]3CO)O[C@H]2CO)[C@@H](O)[C@@H](O)[C@H]1O
REMARK SMILES IDX 7 1 26 2 25 3 12 4 10 5 8 6 6 7 5 8 3 9 33 10 4 11 31 12
REMARK SMILES IDX 29 13 2 14 1 15 34 17 32 19 30 21 27 23 28 24 9 26 11 28
REMARK SMILES IDX 13 30 14 31 22 32 15 33 21 34 17 35 19 36 23 37 24 38 16 40
REMARK SMILES IDX 18 42 20 44
REMARK H PARENT 1 16 34 18 32 20 30 22 28 25 9 27 11 29 24 39 16 41 18 43
REMARK H PARENT 20 45
REMARK Flexibility Score: inf
ROOT
ATOM      1  C   UNL     1      37.913   3.041  43.819  1.00  0.00     0.184 C 
ATOM      2  C   UNL     1      37.722   3.033  42.279  1.00  0.00     0.178 C 
ATOM      3  O   UNL     1      36.765   4.024  41.918  1.00  0.00    -0.341 OA
ATOM      4  C   UNL     1      35.499   3.959  42.578  1.00  0.00     0.282 C 
ATOM      5  C   UNL     1      35.556   3.719  44.128  1.00  0.00     0.202 C 
ATOM      6  C   UNL     1      36.577   2.608  44.473  1.00  0.00     0.180 C 
ENDROOT
BRANCH   1   7
ATOM      7  O   UNL     1      39.160   2.729  44.442  1.00  0.00    -0.341 OA
BRANCH   7   8
ATOM      8  C   UNL     1      39.699   1.423  44.562  1.00  0.00     0.282 C 
ATOM      9  C   UNL     1      38.767  -0.722  43.859  1.00  0.00     0.178 C 
ATOM     10  C   UNL     1      39.264  -1.325  45.216  1.00  0.00     0.177 C 
ATOM     11  O   UNL     1      39.383   0.523  43.520  1.00  0.00    -0.341 OA
ATOM     12  C   UNL     1      39.195  -0.322  46.374  1.00  0.00     0.179 C 
ATOM     13  C   UNL     1      40.042   0.893  45.979  1.00  0.00     0.202 C 
BRANCH   9  14
ATOM     14  C   UNL     1      39.071  -1.713  42.689  1.00  0.00     0.191 C 
BRANCH  14  15
ATOM     15  O   UNL     1      37.908  -2.259  42.118  1.00  0.00    -0.394 OA
ATOM     16  H   UNL     1      37.917  -3.233  42.315  1.00  0.00     0.210 HD
ENDBRANCH  14  15
ENDBRANCH   9  14
BRANCH  10  17
ATOM     17  O   UNL     1      38.508  -2.467  45.568  1.00  0.00    -0.387 OA
ATOM     18  H   UNL     1      38.397  -3.031  44.753  1.00  0.00     0.211 HD
ENDBRANCH  10  17
BRANCH  12  19
ATOM     19  O   UNL     1      37.863   0.042  46.668  1.00  0.00    -0.387 OA
ATOM     20  H   UNL     1      37.447  -0.755  47.051  1.00  0.00     0.211 HD
ENDBRANCH  12  19
BRANCH  13  21
ATOM     21  O   UNL     1      39.958   1.901  46.955  1.00  0.00    -0.385 OA
ATOM     22  H   UNL     1      40.135   2.753  46.473  1.00  0.00     0.211 HD
ENDBRANCH  13  21
ENDBRANCH   7   8
ENDBRANCH   1   7
BRANCH   2  23
ATOM     23  C   UNL     1      38.993   3.339  41.469  1.00  0.00     0.191 C 
BRANCH  23  24
ATOM     24  O   UNL     1      39.785   2.201  41.299  1.00  0.00    -0.394 OA
ATOM     25  H   UNL     1      40.326   2.126  42.120  1.00  0.00     0.210 HD
ENDBRANCH  23  24
ENDBRANCH   2  23
BRANCH   6  26
ATOM     26  O   UNL     1      36.679   2.432  45.865  1.00  0.00    -0.387 OA
ATOM     27  H   UNL     1      36.300   3.239  46.314  1.00  0.00     0.211 HD
ENDBRANCH   6  26
BRANCH   5  28
ATOM     28  O   UNL     1      35.816   4.902  44.863  1.00  0.00    -0.385 OA
ATOM     29  H   UNL     1      36.302   4.672  45.696  1.00  0.00     0.211 HD
ENDBRANCH   5  28
BRANCH   4  30
ATOM     30  O   UNL     1      34.675   2.972  41.962  1.00  0.00    -0.341 OA
BRANCH  30  31
ATOM     31  C   UNL     1      35.430   1.889  41.399  1.00  0.00     0.184 C 
ATOM     32  C   UNL     1      34.984   0.553  42.087  1.00  0.00     0.178 C 
ATOM     33  C   UNL     1      35.262   1.779  39.859  1.00  0.00     0.180 C 
ATOM     34  O   UNL     1      35.559  -0.619  41.494  1.00  0.00    -0.342 OA
ATOM     35  C   UNL     1      35.957   0.519  39.363  1.00  0.00     0.201 C 
ATOM     36  C   UNL     1      35.389  -0.710  40.085  1.00  0.00     0.279 C 
BRANCH  32  37
ATOM     37  C   UNL     1      33.458   0.403  42.293  1.00  0.00     0.191 C 
BRANCH  37  38
ATOM     38  O   UNL     1      33.083   0.984  43.513  1.00  0.00    -0.394 OA
ATOM     39  H   UNL     1      32.246   0.549  43.799  1.00  0.00     0.210 HD
ENDBRANCH  37  38
ENDBRANCH  32  37
BRANCH  33  40
ATOM     40  O   UNL     1      35.876   2.861  39.205  1.00  0.00    -0.387 OA
ATOM     41  H   UNL     1      35.388   3.050  38.360  1.00  0.00     0.211 HD
ENDBRANCH  33  40
BRANCH  35  42
ATOM     42  O   UNL     1      35.759   0.375  37.979  1.00  0.00    -0.385 OA
ATOM     43  H   UNL     1      36.363   1.006  37.516  1.00  0.00     0.211 HD
ENDBRANCH  35  42
BRANCH  36  44
ATOM     44  O   UNL     1      34.042  -0.908  39.738  1.00  0.00    -0.366 OA
ATOM     45  H   UNL     1      33.563  -1.160  40.565  1.00  0.00     0.213 HD
ENDBRANCH  36  44
ENDBRANCH  30  31
ENDBRANCH   4  30
TORSDOF 18
ENDMDL
MODEL 9
REMARK VINA RESULT:    -5.826      2.126      4.720
REMARK INTER + INTRA:         -12.035
REMARK INTER:                  -9.641
REMARK INTRA:                  -2.394
REMARK UNBOUND:                -1.953
REMARK SMILES OC[C@@H]1O[C@@H](O[C@@H]2[C@@H](O)[C@@H](O)[C@H](O[C@@H]3[C@@H](O)[C@H](O)[C@H](O)O[C@@H]3CO)O[C@H]2CO)[C@@H](O)[C@@H](O)[C@H]1O
REMARK SMILES IDX 7 1 26 2 25 3 12 4 10 5 8 6 6 7 5 8 3 9 33 10 4 11 31 12
REMARK SMILES IDX 29 13 2 14 1 15 34 17 32 19 30 21 27 23 28 24 9 26 11 28
REMARK SMILES IDX 13 30 14 31 22 32 15 33 21 34 17 35 19 36 23 37 24 38 16 40
REMARK SMILES IDX 18 42 20 44
REMARK H PARENT 1 16 34 18 32 20 30 22 28 25 9 27 11 29 24 39 16 41 18 43
REMARK H PARENT 20 45
REMARK Flexibility Score: inf
ROOT
ATOM      1  C   UNL     1      39.191   0.087  44.961  1.00  0.00     0.184 C 
ATOM      2  C   UNL     1      38.887   1.366  44.138  1.00  0.00     0.178 C 
ATOM      3  O   UNL     1      38.592   2.440  45.026  1.00  0.00    -0.341 OA
ATOM      4  C   UNL     1      37.558   2.207  45.986  1.00  0.00     0.282 C 
ATOM      5  C   UNL     1      37.617   0.821  46.721  1.00  0.00     0.202 C 
ATOM      6  C   UNL     1      37.900  -0.321  45.714  1.00  0.00     0.180 C 
ENDROOT
BRANCH   1   7
ATOM      7  O   UNL     1      40.120  -0.906  44.526  1.00  0.00    -0.341 OA
BRANCH   7   8
ATOM      8  C   UNL     1      39.868  -1.859  43.507  1.00  0.00     0.282 C 
ATOM      9  C   UNL     1      38.004  -2.006  41.934  1.00  0.00     0.178 C 
ATOM     10  C   UNL     1      37.979  -3.551  42.188  1.00  0.00     0.177 C 
ATOM     11  O   UNL     1      39.217  -1.372  42.352  1.00  0.00    -0.341 OA
ATOM     12  C   UNL     1      38.351  -3.924  43.629  1.00  0.00     0.179 C 
ATOM     13  C   UNL     1      39.747  -3.353  43.904  1.00  0.00     0.202 C 
BRANCH   9  14
ATOM     14  C   UNL     1      37.838  -1.711  40.409  1.00  0.00     0.191 C 
BRANCH  14  15
ATOM     15  O   UNL     1      36.514  -1.870  39.962  1.00  0.00    -0.394 OA
ATOM     16  H   UNL     1      36.105  -0.966  39.937  1.00  0.00     0.210 HD
ENDBRANCH  14  15
ENDBRANCH   9  14
BRANCH  10  17
ATOM     17  O   UNL     1      36.703  -4.089  41.903  1.00  0.00    -0.387 OA
ATOM     18  H   UNL     1      36.107  -3.342  41.618  1.00  0.00     0.211 HD
ENDBRANCH  10  17
BRANCH  12  19
ATOM     19  O   UNL     1      37.398  -3.445  44.553  1.00  0.00    -0.387 OA
ATOM     20  H   UNL     1      37.444  -4.048  45.321  1.00  0.00     0.211 HD
ENDBRANCH  12  19
BRANCH  13  21
ATOM     21  O   UNL     1      40.125  -3.576  45.240  1.00  0.00    -0.385 OA
ATOM     22  H   UNL     1      39.920  -2.729  45.719  1.00  0.00     0.211 HD
ENDBRANCH  13  21
ENDBRANCH   7   8
ENDBRANCH   1   7
BRANCH   2  23
ATOM     23  C   UNL     1      40.041   1.847  43.243  1.00  0.00     0.191 C 
BRANCH  23  24
ATOM     24  O   UNL     1      39.827   1.520  41.902  1.00  0.00    -0.394 OA
ATOM     25  H   UNL     1      38.893   1.208  41.849  1.00  0.00     0.210 HD
ENDBRANCH  23  24
ENDBRANCH   2  23
BRANCH   6  26
ATOM     26  O   UNL     1      38.016  -1.557  46.375  1.00  0.00    -0.387 OA
ATOM     27  H   UNL     1      38.677  -1.459  47.116  1.00  0.00     0.211 HD
ENDBRANCH   6  26
BRANCH   5  28
ATOM     28  O   UNL     1      38.542   0.801  47.794  1.00  0.00    -0.385 OA
ATOM     29  H   UNL     1      39.455   0.644  47.438  1.00  0.00     0.211 HD
ENDBRANCH   5  28
BRANCH   4  30
ATOM     30  O   UNL     1      36.278   2.385  45.383  1.00  0.00    -0.341 OA
BRANCH  30  31
ATOM     31  C   UNL     1      36.353   3.018  44.096  1.00  0.00     0.184 C 
ATOM     32  C   UNL     1      35.350   2.305  43.125  1.00  0.00     0.178 C 
ATOM     33  C   UNL     1      36.046   4.539  44.160  1.00  0.00     0.180 C 
ATOM     34  O   UNL     1      35.223   2.953  41.853  1.00  0.00    -0.342 OA
ATOM     35  C   UNL     1      35.986   5.101  42.746  1.00  0.00     0.201 C 
ATOM     36  C   UNL     1      34.933   4.343  41.927  1.00  0.00     0.279 C 
BRANCH  32  37
ATOM     37  C   UNL     1      33.971   1.972  43.742  1.00  0.00     0.191 C 
BRANCH  37  38
ATOM     38  O   UNL     1      34.099   0.915  44.655  1.00  0.00    -0.394 OA
ATOM     39  H   UNL     1      35.009   0.551  44.555  1.00  0.00     0.210 HD
ENDBRANCH  37  38
ENDBRANCH  32  37
BRANCH  33  40
ATOM     40  O   UNL     1      37.070   5.234  44.825  1.00  0.00    -0.387 OA
ATOM     41  H   UNL     1      37.353   6.008  44.270  1.00  0.00     0.211 HD
ENDBRANCH  33  40
BRANCH  35  42
ATOM     42  O   UNL     1      35.647   6.464  42.786  1.00  0.00    -0.385 OA
ATOM     43  H   UNL     1      35.140   6.629  43.619  1.00  0.00     0.211 HD
ENDBRANCH  35  42
BRANCH  36  44
ATOM     44  O   UNL     1      33.646   4.577  42.440  1.00  0.00    -0.366 OA
ATOM     45  H   UNL     1      33.271   3.699  42.694  1.00  0.00     0.213 HD
ENDBRANCH  36  44
ENDBRANCH  30  31
ENDBRANCH   4  30
TORSDOF 18
ENDMDL
