MODEL 1
REMARK VINA RESULT:    -3.372      0.000      0.000
REMARK INTER + INTRA:          -5.240
REMARK INTER:                  -4.751
REMARK INTRA:                  -0.489
REMARK UNBOUND:                -0.489
REMARK SMILES C=CCCCCCCC(=O)[O-]
REMARK SMILES IDX 6 1 7 2 8 3 9 4 10 5 11 6 5 7 4 8 3 9 2 10 1 11
REMARK H PARENT
REMARK Flexibility Score: inf
ROOT
ATOM      1  C   UNL     1     171.193 186.177  32.171  1.00  0.00     0.000 C 
ENDROOT
BRANCH   1   2
ATOM      2  C   UNL     1     170.187 185.131  31.657  1.00  0.00     0.006 C 
BRANCH   2   3
ATOM      3  C   UNL     1     169.662 185.400  30.237  1.00  0.00     0.053 C 
BRANCH   3   4
ATOM      4  C   UNL     1     168.251 185.903  30.244  1.00  0.00     0.041 C 
ATOM      5  O   UNL     1     167.358 185.273  30.869  1.00  0.00    -0.550 OA
ATOM      6  O   UNL     1     167.917 187.047  29.532  1.00  0.00    -0.550 OA
ENDBRANCH   3   4
ENDBRANCH   2   3
ENDBRANCH   1   2
BRANCH   1   7
ATOM      7  C   UNL     1     171.662 185.897  33.606  1.00  0.00     0.000 C 
BRANCH   7   8
ATOM      8  C   UNL     1     171.327 184.456  34.022  1.00  0.00     0.004 C 
BRANCH   8   9
ATOM      9  C   UNL     1     172.561 183.697  34.534  1.00  0.00     0.027 C 
BRANCH   9  10
ATOM     10  C   UNL     1     173.124 182.755  33.504  1.00  0.00    -0.035 C 
ATOM     11  C   UNL     1     173.668 183.198  32.367  1.00  0.00     0.004 C 
ENDBRANCH   9  10
ENDBRANCH   8   9
ENDBRANCH   7   8
ENDBRANCH   1   7
TORSDOF 7
ENDMDL
MODEL 2
REMARK VINA RESULT:    -3.315      3.394      5.916
REMARK INTER + INTRA:          -5.161
REMARK INTER:                  -4.849
REMARK INTRA:                  -0.312
REMARK UNBOUND:                -0.489
REMARK SMILES C=CCCCCCCC(=O)[O-]
REMARK SMILES IDX 6 1 7 2 8 3 9 4 10 5 11 6 5 7 4 8 3 9 2 10 1 11
REMARK H PARENT
REMARK Flexibility Score: inf
ROOT
ATOM      1  C   UNL     1     171.498 185.659  32.116  1.00  0.00     0.000 C 
ENDROOT
BRANCH   1   2
ATOM      2  C   UNL     1     172.033 185.202  33.485  1.00  0.00     0.006 C 
BRANCH   2   3
ATOM      3  C   UNL     1     172.260 183.686  33.604  1.00  0.00     0.053 C 
BRANCH   3   4
ATOM      4  C   UNL     1     173.657 183.294  33.231  1.00  0.00     0.041 C 
ATOM      5  O   UNL     1     173.984 183.194  32.019  1.00  0.00    -0.550 OA
ATOM      6  O   UNL     1     174.587 183.006  34.222  1.00  0.00    -0.550 OA
ENDBRANCH   3   4
ENDBRANCH   2   3
ENDBRANCH   1   2
BRANCH   1   7
ATOM      7  C   UNL     1     170.544 184.637  31.479  1.00  0.00     0.000 C 
BRANCH   7   8
ATOM      8  C   UNL     1     169.749 185.272  30.327  1.00  0.00     0.004 C 
BRANCH   8   9
ATOM      9  C   UNL     1     168.319 185.644  30.746  1.00  0.00     0.027 C 
BRANCH   9  10
ATOM     10  C   UNL     1     167.926 187.023  30.285  1.00  0.00    -0.035 C 
ATOM     11  C   UNL     1     167.719 187.301  28.994  1.00  0.00     0.004 C 
ENDBRANCH   9  10
ENDBRANCH   8   9
ENDBRANCH   7   8
ENDBRANCH   1   7
TORSDOF 7
ENDMDL
MODEL 3
REMARK VINA RESULT:    -3.277      2.722      4.941
REMARK INTER + INTRA:          -5.107
REMARK INTER:                  -4.530
REMARK INTRA:                  -0.577
REMARK UNBOUND:                -0.489
REMARK SMILES C=CCCCCCCC(=O)[O-]
REMARK SMILES IDX 6 1 7 2 8 3 9 4 10 5 11 6 5 7 4 8 3 9 2 10 1 11
REMARK H PARENT
REMARK Flexibility Score: inf
ROOT
ATOM      1  C   UNL     1     171.249 186.242  33.920  1.00  0.00     0.000 C 
ENDROOT
BRANCH   1   2
ATOM      2  C   UNL     1     171.018 184.740  34.165  1.00  0.00     0.006 C 
BRANCH   2   3
ATOM      3  C   UNL     1     172.305 183.901  34.215  1.00  0.00     0.053 C 
BRANCH   3   4
ATOM      4  C   UNL     1     172.521 183.124  32.953  1.00  0.00     0.041 C 
ATOM      5  O   UNL     1     171.582 182.447  32.458  1.00  0.00    -0.550 OA
ATOM      6  O   UNL     1     173.770 183.119  32.344  1.00  0.00    -0.550 OA
ENDBRANCH   3   4
ENDBRANCH   2   3
ENDBRANCH   1   2
BRANCH   1   7
ATOM      7  C   UNL     1     170.614 186.737  32.613  1.00  0.00     0.000 C 
BRANCH   7   8
ATOM      8  C   UNL     1     171.189 185.984  31.403  1.00  0.00     0.004 C 
BRANCH   8   9
ATOM      9  C   UNL     1     170.094 185.296  30.574  1.00  0.00     0.027 C 
BRANCH   9  10
ATOM     10  C   UNL     1     168.735 185.404  31.215  1.00  0.00    -0.035 C 
ATOM     11  C   UNL     1     167.653 185.758  30.515  1.00  0.00     0.004 C 
ENDBRANCH   9  10
ENDBRANCH   8   9
ENDBRANCH   7   8
ENDBRANCH   1   7
TORSDOF 7
ENDMDL
MODEL 4
REMARK VINA RESULT:    -3.270      1.392      1.871
REMARK INTER + INTRA:          -5.098
REMARK INTER:                  -4.386
REMARK INTRA:                  -0.712
REMARK UNBOUND:                -0.489
REMARK SMILES C=CCCCCCCC(=O)[O-]
REMARK SMILES IDX 6 1 7 2 8 3 9 4 10 5 11 6 5 7 4 8 3 9 2 10 1 11
REMARK H PARENT
REMARK Flexibility Score: inf
ROOT
ATOM      1  C   UNL     1     171.288 185.680  31.363  1.00  0.00     0.000 C 
ENDROOT
BRANCH   1   2
ATOM      2  C   UNL     1     169.994 185.319  30.612  1.00  0.00     0.006 C 
BRANCH   2   3
ATOM      3  C   UNL     1     168.713 185.884  31.246  1.00  0.00     0.053 C 
BRANCH   3   4
ATOM      4  C   UNL     1     167.858 186.600  30.247  1.00  0.00     0.041 C 
ATOM      5  O   UNL     1     167.448 186.000  29.219  1.00  0.00    -0.550 OA
ATOM      6  O   UNL     1     167.544 187.940  30.434  1.00  0.00    -0.550 OA
ENDBRANCH   3   4
ENDBRANCH   2   3
ENDBRANCH   1   2
BRANCH   1   7
ATOM      7  C   UNL     1     171.052 186.673  32.511  1.00  0.00     0.000 C 
BRANCH   7   8
ATOM      8  C   UNL     1     171.432 186.049  33.863  1.00  0.00     0.004 C 
BRANCH   8   9
ATOM      9  C   UNL     1     171.934 184.605  33.715  1.00  0.00     0.027 C 
BRANCH   9  10
ATOM     10  C   UNL     1     171.031 183.611  34.398  1.00  0.00    -0.035 C 
ATOM     11  C   UNL     1     169.926 183.145  33.810  1.00  0.00     0.004 C 
ENDBRANCH   9  10
ENDBRANCH   8   9
ENDBRANCH   7   8
ENDBRANCH   1   7
TORSDOF 7
ENDMDL
MODEL 5
REMARK VINA RESULT:    -3.257      1.760      2.545
REMARK INTER + INTRA:          -5.079
REMARK INTER:                  -4.290
REMARK INTRA:                  -0.790
REMARK UNBOUND:                -0.489
REMARK SMILES C=CCCCCCCC(=O)[O-]
REMARK SMILES IDX 6 1 7 2 8 3 9 4 10 5 11 6 5 7 4 8 3 9 2 10 1 11
REMARK H PARENT
REMARK Flexibility Score: inf
ROOT
ATOM      1  C   UNL     1     168.075 186.089  33.598  1.00  0.00     0.000 C 
ENDROOT
BRANCH   1   2
ATOM      2  C   UNL     1     168.124 184.912  32.608  1.00  0.00     0.006 C 
BRANCH   2   3
ATOM      3  C   UNL     1     167.410 185.176  31.272  1.00  0.00     0.053 C 
BRANCH   3   4
ATOM      4  C   UNL     1     168.318 185.814  30.266  1.00  0.00     0.041 C 
ATOM      5  O   UNL     1     169.506 185.416  30.144  1.00  0.00    -0.550 OA
ATOM      6  O   UNL     1     167.861 186.870  29.488  1.00  0.00    -0.550 OA
ENDBRANCH   3   4
ENDBRANCH   2   3
ENDBRANCH   1   2
BRANCH   1   7
ATOM      7  C   UNL     1     169.466 186.496  34.108  1.00  0.00     0.000 C 
BRANCH   7   8
ATOM      8  C   UNL     1     170.198 187.364  33.074  1.00  0.00     0.004 C 
BRANCH   8   9
ATOM      9  C   UNL     1     171.534 186.744  32.637  1.00  0.00     0.027 C 
BRANCH   9  10
ATOM     10  C   UNL     1     171.799 185.421  33.306  1.00  0.00    -0.035 C 
ATOM     11  C   UNL     1     172.043 184.313  32.601  1.00  0.00     0.004 C 
ENDBRANCH   9  10
ENDBRANCH   8   9
ENDBRANCH   7   8
ENDBRANCH   1   7
TORSDOF 7
ENDMDL
MODEL 6
REMARK VINA RESULT:    -3.203      1.765      3.282
REMARK INTER + INTRA:          -5.003
REMARK INTER:                  -4.274
REMARK INTRA:                  -0.729
REMARK UNBOUND:                -0.489
REMARK SMILES C=CCCCCCCC(=O)[O-]
REMARK SMILES IDX 6 1 7 2 8 3 9 4 10 5 11 6 5 7 4 8 3 9 2 10 1 11
REMARK H PARENT
REMARK Flexibility Score: inf
ROOT
ATOM      1  C   UNL     1     171.752 185.000  32.466  1.00  0.00     0.000 C 
ENDROOT
BRANCH   1   2
ATOM      2  C   UNL     1     170.463 184.555  31.751  1.00  0.00     0.006 C 
BRANCH   2   3
ATOM      3  C   UNL     1     170.088 185.409  30.529  1.00  0.00     0.053 C 
BRANCH   3   4
ATOM      4  C   UNL     1     168.634 185.766  30.516  1.00  0.00     0.041 C 
ATOM      5  O   UNL     1     167.811 185.095  31.193  1.00  0.00    -0.550 OA
ATOM      6  O   UNL     1     168.182 186.818  29.729  1.00  0.00    -0.550 OA
ENDBRANCH   3   4
ENDBRANCH   2   3
ENDBRANCH   1   2
BRANCH   1   7
ATOM      7  C   UNL     1     171.590 186.336  33.207  1.00  0.00     0.000 C 
BRANCH   7   8
ATOM      8  C   UNL     1     171.081 186.110  34.640  1.00  0.00     0.004 C 
BRANCH   8   9
ATOM      9  C   UNL     1     169.894 187.023  34.984  1.00  0.00     0.027 C 
BRANCH   9  10
ATOM     10  C   UNL     1     169.273 187.643  33.760  1.00  0.00    -0.035 C 
ATOM     11  C   UNL     1     167.948 187.708  33.599  1.00  0.00     0.004 C 
ENDBRANCH   9  10
ENDBRANCH   8   9
ENDBRANCH   7   8
ENDBRANCH   1   7
TORSDOF 7
ENDMDL
MODEL 7
REMARK VINA RESULT:    -3.186      3.137      5.434
REMARK INTER + INTRA:          -4.979
REMARK INTER:                  -4.368
REMARK INTRA:                  -0.611
REMARK UNBOUND:                -0.489
REMARK SMILES C=CCCCCCCC(=O)[O-]
REMARK SMILES IDX 6 1 7 2 8 3 9 4 10 5 11 6 5 7 4 8 3 9 2 10 1 11
REMARK H PARENT
REMARK Flexibility Score: inf
ROOT
ATOM      1  C   UNL     1     171.440 185.962  32.903  1.00  0.00     0.000 C 
ENDROOT
BRANCH   1   2
ATOM      2  C   UNL     1     171.177 184.588  33.544  1.00  0.00     0.006 C 
BRANCH   2   3
ATOM      3  C   UNL     1     172.406 183.956  34.218  1.00  0.00     0.053 C 
BRANCH   3   4
ATOM      4  C   UNL     1     173.052 182.918  33.353  1.00  0.00     0.041 C 
ATOM      5  O   UNL     1     173.608 183.250  32.274  1.00  0.00    -0.550 OA
ATOM      6  O   UNL     1     173.007 181.580  33.722  1.00  0.00    -0.550 OA
ENDBRANCH   3   4
ENDBRANCH   2   3
ENDBRANCH   1   2
BRANCH   1   7
ATOM      7  C   UNL     1     171.293 185.944  31.374  1.00  0.00     0.000 C 
BRANCH   7   8
ATOM      8  C   UNL     1     170.170 184.988  30.942  1.00  0.00     0.004 C 
BRANCH   8   9
ATOM      9  C   UNL     1     168.973 185.735  30.336  1.00  0.00     0.027 C 
BRANCH   9  10
ATOM     10  C   UNL     1     167.670 185.357  30.989  1.00  0.00    -0.035 C 
ATOM     11  C   UNL     1     167.604 184.997  32.274  1.00  0.00     0.004 C 
ENDBRANCH   9  10
ENDBRANCH   8   9
ENDBRANCH   7   8
ENDBRANCH   1   7
TORSDOF 7
ENDMDL
MODEL 8
REMARK VINA RESULT:    -3.154     20.800     22.175
REMARK INTER + INTRA:          -4.934
REMARK INTER:                  -4.324
REMARK INTRA:                  -0.610
REMARK UNBOUND:                -0.489
REMARK SMILES C=CCCCCCCC(=O)[O-]
REMARK SMILES IDX 6 1 7 2 8 3 9 4 10 5 11 6 5 7 4 8 3 9 2 10 1 11
REMARK H PARENT
REMARK Flexibility Score: inf
ROOT
ATOM      1  C   UNL     1     163.104 169.157  18.614  1.00  0.00     0.000 C 
ENDROOT
BRANCH   1   2
ATOM      2  C   UNL     1     162.356 170.501  18.563  1.00  0.00     0.006 C 
BRANCH   2   3
ATOM      3  C   UNL     1     160.893 170.431  19.031  1.00  0.00     0.053 C 
BRANCH   3   4
ATOM      4  C   UNL     1     160.713 171.000  20.405  1.00  0.00     0.041 C 
ATOM      5  O   UNL     1     160.366 172.201  20.552  1.00  0.00    -0.550 OA
ATOM      6  O   UNL     1     160.963 170.213  21.522  1.00  0.00    -0.550 OA
ENDBRANCH   3   4
ENDBRANCH   2   3
ENDBRANCH   1   2
BRANCH   1   7
ATOM      7  C   UNL     1     164.168 169.026  17.514  1.00  0.00     0.000 C 
BRANCH   7   8
ATOM      8  C   UNL     1     164.617 170.409  17.017  1.00  0.00     0.004 C 
BRANCH   8   9
ATOM      9  C   UNL     1     164.647 170.492  15.483  1.00  0.00     0.027 C 
BRANCH   9  10
ATOM     10  C   UNL     1     163.275 170.378  14.875  1.00  0.00    -0.035 C 
ATOM     11  C   UNL     1     162.389 171.375  14.944  1.00  0.00     0.004 C 
ENDBRANCH   9  10
ENDBRANCH   8   9
ENDBRANCH   7   8
ENDBRANCH   1   7
TORSDOF 7
ENDMDL
MODEL 9
REMARK VINA RESULT:    -3.082      3.054      5.313
REMARK INTER + INTRA:          -4.832
REMARK INTER:                  -4.103
REMARK INTRA:                  -0.729
REMARK UNBOUND:                -0.489
REMARK SMILES C=CCCCCCCC(=O)[O-]
REMARK SMILES IDX 6 1 7 2 8 3 9 4 10 5 11 6 5 7 4 8 3 9 2 10 1 11
REMARK H PARENT
REMARK Flexibility Score: inf
ROOT
ATOM      1  C   UNL     1     170.084 184.997  31.021  1.00  0.00     0.000 C 
ENDROOT
BRANCH   1   2
ATOM      2  C   UNL     1     171.246 185.929  31.410  1.00  0.00     0.006 C 
BRANCH   2   3
ATOM      3  C   UNL     1     171.540 185.980  32.918  1.00  0.00     0.053 C 
BRANCH   3   4
ATOM      4  C   UNL     1     172.037 184.667  33.440  1.00  0.00     0.041 C 
ATOM      5  O   UNL     1     171.684 184.265  34.580  1.00  0.00    -0.550 OA
ATOM      6  O   UNL     1     172.918 183.905  32.683  1.00  0.00    -0.550 OA
ENDBRANCH   3   4
ENDBRANCH   2   3
ENDBRANCH   1   2
BRANCH   1   7
ATOM      7  C   UNL     1     168.967 185.726  30.261  1.00  0.00     0.000 C 
BRANCH   7   8
ATOM      8  C   UNL     1     167.823 186.118  31.209  1.00  0.00     0.004 C 
BRANCH   8   9
ATOM      9  C   UNL     1     167.770 187.633  31.459  1.00  0.00     0.027 C 
BRANCH   9  10
ATOM     10  C   UNL     1     168.366 188.017  32.787  1.00  0.00    -0.035 C 
ATOM     11  C   UNL     1     168.177 187.278  33.884  1.00  0.00     0.004 C 
ENDBRANCH   9  10
ENDBRANCH   8   9
ENDBRANCH   7   8
ENDBRANCH   1   7
TORSDOF 7
ENDMDL
