MODEL 1
REMARK VINA RESULT:    -4.554      0.000      0.000
REMARK INTER + INTRA:          -6.328
REMARK INTER:                  -5.885
REMARK INTRA:                  -0.442
REMARK UNBOUND:                -0.442
REMARK SMILES CCCCCCC(=O)[O-]
REMARK SMILES IDX 5 1 6 2 7 3 8 4 9 5 4 6 3 7 2 8 1 9
REMARK H PARENT
REMARK Flexibility Score: inf
ROOT
ATOM      1  C   UNL     1     -22.464  37.099   9.238  1.00  0.00     0.006 C 
ENDROOT
BRANCH   1   2
ATOM      2  C   UNL     1     -23.433  37.540   8.133  1.00  0.00     0.053 C 
BRANCH   2   3
ATOM      3  C   UNL     1     -22.790  38.498   7.178  1.00  0.00     0.041 C 
ATOM      4  O   UNL     1     -22.828  38.280   5.939  1.00  0.00    -0.550 OA
ATOM      5  O   UNL     1     -22.120  39.616   7.661  1.00  0.00    -0.550 OA
ENDBRANCH   2   3
ENDBRANCH   1   2
BRANCH   1   6
ATOM      6  C   UNL     1     -21.669  35.845   8.849  1.00  0.00     0.000 C 
BRANCH   6   7
ATOM      7  C   UNL     1     -20.181  36.175   8.658  1.00  0.00    -0.000 C 
BRANCH   7   8
ATOM      8  C   UNL     1     -19.769  36.208   7.178  1.00  0.00    -0.003 C 
ATOM      9  C   UNL     1     -20.759  35.477   6.271  1.00  0.00     0.004 C 
ENDBRANCH   7   8
ENDBRANCH   6   7
ENDBRANCH   1   6
TORSDOF 5
ENDMDL
MODEL 2
REMARK VINA RESULT:    -4.554      0.879      1.741
REMARK INTER + INTRA:          -6.327
REMARK INTER:                  -5.994
REMARK INTRA:                  -0.333
REMARK UNBOUND:                -0.442
REMARK SMILES CCCCCCC(=O)[O-]
REMARK SMILES IDX 5 1 6 2 7 3 8 4 9 5 4 6 3 7 2 8 1 9
REMARK H PARENT
REMARK Flexibility Score: inf
ROOT
ATOM      1  C   UNL     1     -23.346  36.272   7.370  1.00  0.00     0.006 C 
ENDROOT
BRANCH   1   2
ATOM      2  C   UNL     1     -23.346  37.716   7.891  1.00  0.00     0.053 C 
BRANCH   2   3
ATOM      3  C   UNL     1     -22.660  38.650   6.942  1.00  0.00     0.041 C 
ATOM      4  O   UNL     1     -22.077  39.679   7.375  1.00  0.00    -0.550 OA
ATOM      5  O   UNL     1     -22.693  38.402   5.575  1.00  0.00    -0.550 OA
ENDBRANCH   2   3
ENDBRANCH   1   2
BRANCH   1   6
ATOM      6  C   UNL     1     -22.005  35.566   7.615  1.00  0.00     0.000 C 
BRANCH   6   7
ATOM      7  C   UNL     1     -21.473  35.871   9.023  1.00  0.00    -0.000 C 
BRANCH   7   8
ATOM      8  C   UNL     1     -19.985  36.256   9.021  1.00  0.00    -0.003 C 
ATOM      9  C   UNL     1     -19.373  36.245   7.621  1.00  0.00     0.004 C 
ENDBRANCH   7   8
ENDBRANCH   6   7
ENDBRANCH   1   6
TORSDOF 5
ENDMDL
MODEL 3
REMARK VINA RESULT:    -4.491      1.950      3.561
REMARK INTER + INTRA:          -6.246
REMARK INTER:                  -5.788
REMARK INTRA:                  -0.458
REMARK UNBOUND:                -0.442
REMARK SMILES CCCCCCC(=O)[O-]
REMARK SMILES IDX 5 1 6 2 7 3 8 4 9 5 4 6 3 7 2 8 1 9
REMARK H PARENT
REMARK Flexibility Score: inf
ROOT
ATOM      1  C   UNL     1     -21.351  35.878   9.168  1.00  0.00     0.006 C 
ENDROOT
BRANCH   1   2
ATOM      2  C   UNL     1     -19.920  36.167   8.694  1.00  0.00     0.053 C 
BRANCH   2   3
ATOM      3  C   UNL     1     -19.824  36.193   7.200  1.00  0.00     0.041 C 
ATOM      4  O   UNL     1     -18.977  36.932   6.632  1.00  0.00    -0.550 OA
ATOM      5  O   UNL     1     -20.692  35.425   6.432  1.00  0.00    -0.550 OA
ENDBRANCH   2   3
ENDBRANCH   1   2
BRANCH   1   6
ATOM      6  C   UNL     1     -22.216  37.146   9.215  1.00  0.00     0.000 C 
BRANCH   6   7
ATOM      7  C   UNL     1     -23.323  37.094   8.152  1.00  0.00    -0.000 C 
BRANCH   7   8
ATOM      8  C   UNL     1     -23.056  38.045   6.975  1.00  0.00    -0.003 C 
ATOM      9  C   UNL     1     -22.162  39.225   7.358  1.00  0.00     0.004 C 
ENDBRANCH   7   8
ENDBRANCH   6   7
ENDBRANCH   1   6
TORSDOF 5
ENDMDL
MODEL 4
REMARK VINA RESULT:    -4.423      1.176      2.408
REMARK INTER + INTRA:          -6.157
REMARK INTER:                  -5.769
REMARK INTRA:                  -0.389
REMARK UNBOUND:                -0.442
REMARK SMILES CCCCCCC(=O)[O-]
REMARK SMILES IDX 5 1 6 2 7 3 8 4 9 5 4 6 3 7 2 8 1 9
REMARK H PARENT
REMARK Flexibility Score: inf
ROOT
ATOM      1  C   UNL     1     -21.094  37.409   5.661  1.00  0.00     0.006 C 
ENDROOT
BRANCH   1   2
ATOM      2  C   UNL     1     -22.490  38.041   5.753  1.00  0.00     0.053 C 
BRANCH   2   3
ATOM      3  C   UNL     1     -22.798  38.510   7.141  1.00  0.00     0.041 C 
ATOM      4  O   UNL     1     -22.134  39.448   7.656  1.00  0.00    -0.550 OA
ATOM      5  O   UNL     1     -23.799  37.889   7.880  1.00  0.00    -0.550 OA
ENDBRANCH   2   3
ENDBRANCH   1   2
BRANCH   1   6
ATOM      6  C   UNL     1     -20.961  36.162   6.547  1.00  0.00     0.000 C 
BRANCH   6   7
ATOM      7  C   UNL     1     -19.656  36.200   7.355  1.00  0.00    -0.000 C 
BRANCH   7   8
ATOM      8  C   UNL     1     -19.899  36.157   8.872  1.00  0.00    -0.003 C 
ATOM      9  C   UNL     1     -21.345  35.811   9.230  1.00  0.00     0.004 C 
ENDBRANCH   7   8
ENDBRANCH   6   7
ENDBRANCH   1   6
TORSDOF 5
ENDMDL
MODEL 5
REMARK VINA RESULT:    -4.392      1.631      2.517
REMARK INTER + INTRA:          -6.118
REMARK INTER:                  -5.788
REMARK INTRA:                  -0.330
REMARK UNBOUND:                -0.442
REMARK SMILES CCCCCCC(=O)[O-]
REMARK SMILES IDX 5 1 6 2 7 3 8 4 9 5 4 6 3 7 2 8 1 9
REMARK H PARENT
REMARK Flexibility Score: inf
ROOT
ATOM      1  C   UNL     1     -23.092  37.771   7.065  1.00  0.00     0.006 C 
ENDROOT
BRANCH   1   2
ATOM      2  C   UNL     1     -22.290  37.872   5.760  1.00  0.00     0.053 C 
BRANCH   2   3
ATOM      3  C   UNL     1     -21.118  38.795   5.898  1.00  0.00     0.041 C 
ATOM      4  O   UNL     1     -21.300  40.028   6.081  1.00  0.00    -0.550 OA
ATOM      5  O   UNL     1     -19.824  38.299   5.790  1.00  0.00    -0.550 OA
ENDBRANCH   2   3
ENDBRANCH   1   2
BRANCH   1   6
ATOM      6  C   UNL     1     -23.348  36.315   7.479  1.00  0.00     0.000 C 
BRANCH   6   7
ATOM      7  C   UNL     1     -22.025  35.568   7.704  1.00  0.00    -0.000 C 
BRANCH   7   8
ATOM      8  C   UNL     1     -21.364  35.928   9.044  1.00  0.00    -0.003 C 
ATOM      9  C   UNL     1     -19.866  36.201   8.911  1.00  0.00     0.004 C 
ENDBRANCH   7   8
ENDBRANCH   6   7
ENDBRANCH   1   6
TORSDOF 5
ENDMDL
MODEL 6
REMARK VINA RESULT:    -4.365      1.461      2.661
REMARK INTER + INTRA:          -6.083
REMARK INTER:                  -5.730
REMARK INTRA:                  -0.353
REMARK UNBOUND:                -0.442
REMARK SMILES CCCCCCC(=O)[O-]
REMARK SMILES IDX 5 1 6 2 7 3 8 4 9 5 4 6 3 7 2 8 1 9
REMARK H PARENT
REMARK Flexibility Score: inf
ROOT
ATOM      1  C   UNL     1     -22.748  36.866   5.872  1.00  0.00     0.006 C 
ENDROOT
BRANCH   1   2
ATOM      2  C   UNL     1     -21.588  37.868   5.821  1.00  0.00     0.053 C 
BRANCH   2   3
ATOM      3  C   UNL     1     -22.041  39.261   6.134  1.00  0.00     0.041 C 
ATOM      4  O   UNL     1     -22.080  39.661   7.327  1.00  0.00    -0.550 OA
ATOM      5  O   UNL     1     -22.452  40.106   5.110  1.00  0.00    -0.550 OA
ENDBRANCH   2   3
ENDBRANCH   1   2
BRANCH   1   6
ATOM      6  C   UNL     1     -22.939  36.268   7.274  1.00  0.00     0.000 C 
BRANCH   6   7
ATOM      7  C   UNL     1     -21.672  35.530   7.732  1.00  0.00    -0.000 C 
BRANCH   7   8
ATOM      8  C   UNL     1     -21.199  35.977   9.125  1.00  0.00    -0.003 C 
ATOM      9  C   UNL     1     -22.092  37.060   9.733  1.00  0.00     0.004 C 
ENDBRANCH   7   8
ENDBRANCH   6   7
ENDBRANCH   1   6
TORSDOF 5
ENDMDL
MODEL 7
REMARK VINA RESULT:    -4.357     13.258     14.207
REMARK INTER + INTRA:          -6.073
REMARK INTER:                  -5.706
REMARK INTRA:                  -0.367
REMARK UNBOUND:                -0.442
REMARK SMILES CCCCCCC(=O)[O-]
REMARK SMILES IDX 5 1 6 2 7 3 8 4 9 5 4 6 3 7 2 8 1 9
REMARK H PARENT
REMARK Flexibility Score: inf
ROOT
ATOM      1  C   UNL     1     -17.888  43.483  -5.366  1.00  0.00     0.006 C 
ENDROOT
BRANCH   1   2
ATOM      2  C   UNL     1     -18.607  42.528  -6.328  1.00  0.00     0.053 C 
BRANCH   2   3
ATOM      3  C   UNL     1     -19.936  42.094  -5.791  1.00  0.00     0.041 C 
ATOM      4  O   UNL     1     -20.888  42.915  -5.716  1.00  0.00    -0.550 OA
ATOM      5  O   UNL     1     -20.115  40.791  -5.343  1.00  0.00    -0.550 OA
ENDBRANCH   2   3
ENDBRANCH   1   2
BRANCH   1   6
ATOM      6  C   UNL     1     -17.578  42.824  -4.014  1.00  0.00     0.000 C 
BRANCH   6   7
ATOM      7  C   UNL     1     -16.075  42.548  -3.870  1.00  0.00    -0.000 C 
BRANCH   7   8
ATOM      8  C   UNL     1     -15.701  41.105  -4.243  1.00  0.00    -0.003 C 
ATOM      9  C   UNL     1     -16.855  40.123  -4.038  1.00  0.00     0.004 C 
ENDBRANCH   7   8
ENDBRANCH   6   7
ENDBRANCH   1   6
TORSDOF 5
ENDMDL
MODEL 8
REMARK VINA RESULT:    -4.327      1.930      2.701
REMARK INTER + INTRA:          -6.034
REMARK INTER:                  -5.698
REMARK INTRA:                  -0.336
REMARK UNBOUND:                -0.442
REMARK SMILES CCCCCCC(=O)[O-]
REMARK SMILES IDX 5 1 6 2 7 3 8 4 9 5 4 6 3 7 2 8 1 9
REMARK H PARENT
REMARK Flexibility Score: inf
ROOT
ATOM      1  C   UNL     1     -22.395  38.794   7.419  1.00  0.00     0.006 C 
ENDROOT
BRANCH   1   2
ATOM      2  C   UNL     1     -22.281  39.114   5.922  1.00  0.00     0.053 C 
BRANCH   2   3
ATOM      3  C   UNL     1     -20.907  39.585   5.557  1.00  0.00     0.041 C 
ATOM      4  O   UNL     1     -19.922  38.807   5.657  1.00  0.00    -0.550 OA
ATOM      5  O   UNL     1     -20.709  40.896   5.138  1.00  0.00    -0.550 OA
ENDBRANCH   2   3
ENDBRANCH   1   2
BRANCH   1   6
ATOM      6  C   UNL     1     -23.483  37.750   7.709  1.00  0.00     0.000 C 
BRANCH   6   7
ATOM      7  C   UNL     1     -23.179  36.427   6.993  1.00  0.00    -0.000 C 
BRANCH   7   8
ATOM      8  C   UNL     1     -21.850  35.802   7.446  1.00  0.00    -0.003 C 
ATOM      9  C   UNL     1     -20.932  35.449   6.274  1.00  0.00     0.004 C 
ENDBRANCH   7   8
ENDBRANCH   6   7
ENDBRANCH   1   6
TORSDOF 5
ENDMDL
MODEL 9
REMARK VINA RESULT:    -4.283      2.286      3.447
REMARK INTER + INTRA:          -5.978
REMARK INTER:                  -5.568
REMARK INTRA:                  -0.410
REMARK UNBOUND:                -0.442
REMARK SMILES CCCCCCC(=O)[O-]
REMARK SMILES IDX 5 1 6 2 7 3 8 4 9 5 4 6 3 7 2 8 1 9
REMARK H PARENT
REMARK Flexibility Score: inf
ROOT
ATOM      1  C   UNL     1     -23.106  36.631   7.217  1.00  0.00     0.006 C 
ENDROOT
BRANCH   1   2
ATOM      2  C   UNL     1     -21.983  35.843   7.905  1.00  0.00     0.053 C 
BRANCH   2   3
ATOM      3  C   UNL     1     -20.765  35.739   7.040  1.00  0.00     0.041 C 
ATOM      4  O   UNL     1     -20.817  35.118   5.946  1.00  0.00    -0.550 OA
ATOM      5  O   UNL     1     -19.564  36.298   7.459  1.00  0.00    -0.550 OA
ENDBRANCH   2   3
ENDBRANCH   1   2
BRANCH   1   6
ATOM      6  C   UNL     1     -23.253  38.051   7.783  1.00  0.00     0.000 C 
BRANCH   6   7
ATOM      7  C   UNL     1     -22.376  39.044   7.006  1.00  0.00    -0.000 C 
BRANCH   7   8
ATOM      8  C   UNL     1     -22.381  38.778   5.492  1.00  0.00    -0.003 C 
ATOM      9  C   UNL     1     -20.983  38.831   4.878  1.00  0.00     0.004 C 
ENDBRANCH   7   8
ENDBRANCH   6   7
ENDBRANCH   1   6
TORSDOF 5
ENDMDL
