MODEL 1
REMARK VINA RESULT:    -4.218      0.000      0.000
REMARK INTER + INTRA:          -7.459
REMARK INTER:                  -6.438
REMARK INTRA:                  -1.021
REMARK UNBOUND:                -1.021
REMARK SMILES CCCCCCCCCCC(=O)[O-]
REMARK SMILES IDX 7 1 8 2 9 3 10 4 11 5 12 6 13 7 6 8 5 9 4 10 3 11 2 12 1 13
REMARK H PARENT
REMARK Flexibility Score: inf
ROOT
ATOM      1  C   UNL     1      -8.869   3.808  -7.627  1.00  0.00     0.000 C 
ENDROOT
BRANCH   1   2
ATOM      2  C   UNL     1     -10.165   3.444  -8.375  1.00  0.00     0.000 C 
BRANCH   2   3
ATOM      3  C   UNL     1     -10.058   2.233  -9.323  1.00  0.00     0.006 C 
BRANCH   3   4
ATOM      4  C   UNL     1      -8.955   1.229  -8.955  1.00  0.00     0.053 C 
BRANCH   4   5
ATOM      5  C   UNL     1      -7.829   1.248  -9.944  1.00  0.00     0.041 C 
ATOM      6  O   UNL     1      -6.762   1.863  -9.678  1.00  0.00    -0.550 OA
ATOM      7  O   UNL     1      -7.971   0.615 -11.171  1.00  0.00    -0.550 OA
ENDBRANCH   4   5
ENDBRANCH   3   4
ENDBRANCH   2   3
ENDBRANCH   1   2
BRANCH   1   8
ATOM      8  C   UNL     1      -8.062   4.913  -8.328  1.00  0.00     0.000 C 
BRANCH   8   9
ATOM      9  C   UNL     1      -8.841   6.234  -8.433  1.00  0.00    -0.000 C 
BRANCH   9  10
ATOM     10  C   UNL     1      -9.059   6.681  -9.889  1.00  0.00    -0.000 C 
BRANCH  10  11
ATOM     11  C   UNL     1      -7.843   6.395 -10.788  1.00  0.00    -0.000 C 
BRANCH  11  12
ATOM     12  C   UNL     1      -8.176   5.702 -12.122  1.00  0.00    -0.003 C 
ATOM     13  C   UNL     1      -9.020   4.441 -11.946  1.00  0.00     0.004 C 
ENDBRANCH  11  12
ENDBRANCH  10  11
ENDBRANCH   9  10
ENDBRANCH   8   9
ENDBRANCH   1   8
TORSDOF 9
ENDMDL
MODEL 2
REMARK VINA RESULT:    -3.829      2.436      4.475
REMARK INTER + INTRA:          -6.864
REMARK INTER:                  -5.796
REMARK INTRA:                  -1.069
REMARK UNBOUND:                -1.021
REMARK SMILES CCCCCCCCCCC(=O)[O-]
REMARK SMILES IDX 7 1 8 2 9 3 10 4 11 5 12 6 13 7 6 8 5 9 4 10 3 11 2 12 1 13
REMARK H PARENT
REMARK Flexibility Score: inf
ROOT
ATOM      1  C   UNL     1     -10.672   4.179  -8.248  1.00  0.00     0.000 C 
ENDROOT
BRANCH   1   2
ATOM      2  C   UNL     1     -11.041   5.273  -9.266  1.00  0.00     0.000 C 
BRANCH   2   3
ATOM      3  C   UNL     1     -10.106   6.499  -9.282  1.00  0.00     0.006 C 
BRANCH   3   4
ATOM      4  C   UNL     1      -9.230   6.619 -10.538  1.00  0.00     0.053 C 
BRANCH   4   5
ATOM      5  C   UNL     1      -7.771   6.654 -10.201  1.00  0.00     0.041 C 
ATOM      6  O   UNL     1      -6.911   6.357 -11.072  1.00  0.00    -0.550 OA
ATOM      7  O   UNL     1      -7.362   6.984  -8.916  1.00  0.00    -0.550 OA
ENDBRANCH   4   5
ENDBRANCH   3   4
ENDBRANCH   2   3
ENDBRANCH   1   2
BRANCH   1   8
ATOM      8  C   UNL     1      -9.410   4.517  -7.437  1.00  0.00     0.000 C 
BRANCH   8   9
ATOM      9  C   UNL     1      -8.225   3.601  -7.785  1.00  0.00    -0.000 C 
BRANCH   9  10
ATOM     10  C   UNL     1      -8.190   3.215  -9.274  1.00  0.00    -0.000 C 
BRANCH  10  11
ATOM     11  C   UNL     1      -7.951   1.710  -9.494  1.00  0.00    -0.000 C 
BRANCH  11  12
ATOM     12  C   UNL     1      -8.975   0.788  -8.808  1.00  0.00    -0.003 C 
ATOM     13  C   UNL     1     -10.305   0.713  -9.555  1.00  0.00     0.004 C 
ENDBRANCH  11  12
ENDBRANCH  10  11
ENDBRANCH   9  10
ENDBRANCH   8   9
ENDBRANCH   1   8
TORSDOF 9
ENDMDL
MODEL 3
REMARK VINA RESULT:    -3.813      1.999      4.403
REMARK INTER + INTRA:          -6.841
REMARK INTER:                  -5.845
REMARK INTRA:                  -0.996
REMARK UNBOUND:                -1.021
REMARK SMILES CCCCCCCCCCC(=O)[O-]
REMARK SMILES IDX 7 1 8 2 9 3 10 4 11 5 12 6 13 7 6 8 5 9 4 10 3 11 2 12 1 13
REMARK H PARENT
REMARK Flexibility Score: inf
ROOT
ATOM      1  C   UNL     1      -8.498   4.002  -7.690  1.00  0.00     0.000 C 
ENDROOT
BRANCH   1   2
ATOM      2  C   UNL     1      -7.382   4.766  -8.427  1.00  0.00     0.000 C 
BRANCH   2   3
ATOM      3  C   UNL     1      -7.686   6.248  -8.722  1.00  0.00     0.006 C 
BRANCH   3   4
ATOM      4  C   UNL     1      -7.432   6.675 -10.176  1.00  0.00     0.053 C 
BRANCH   4   5
ATOM      5  C   UNL     1      -8.312   5.937 -11.138  1.00  0.00     0.041 C 
ATOM      6  O   UNL     1      -9.566   6.011 -11.036  1.00  0.00    -0.550 OA
ATOM      7  O   UNL     1      -7.748   5.140 -12.125  1.00  0.00    -0.550 OA
ENDBRANCH   4   5
ENDBRANCH   3   4
ENDBRANCH   2   3
ENDBRANCH   1   2
BRANCH   1   8
ATOM      8  C   UNL     1      -9.885   4.638  -7.879  1.00  0.00     0.000 C 
BRANCH   8   9
ATOM      9  C   UNL     1     -10.863   3.709  -8.617  1.00  0.00    -0.000 C 
BRANCH   9  10
ATOM     10  C   UNL     1     -10.183   2.901  -9.737  1.00  0.00    -0.000 C 
BRANCH  10  11
ATOM     11  C   UNL     1     -10.253   1.382  -9.501  1.00  0.00    -0.000 C 
BRANCH  11  12
ATOM     12  C   UNL     1      -8.950   0.750  -8.980  1.00  0.00    -0.003 C 
ATOM     13  C   UNL     1      -7.746   1.037  -9.876  1.00  0.00     0.004 C 
ENDBRANCH  11  12
ENDBRANCH  10  11
ENDBRANCH   9  10
ENDBRANCH   8   9
ENDBRANCH   1   8
TORSDOF 9
ENDMDL
MODEL 4
REMARK VINA RESULT:    -3.735      1.366      2.675
REMARK INTER + INTRA:          -6.721
REMARK INTER:                  -5.609
REMARK INTRA:                  -1.112
REMARK UNBOUND:                -1.021
REMARK SMILES CCCCCCCCCCC(=O)[O-]
REMARK SMILES IDX 7 1 8 2 9 3 10 4 11 5 12 6 13 7 6 8 5 9 4 10 3 11 2 12 1 13
REMARK H PARENT
REMARK Flexibility Score: inf
ROOT
ATOM      1  C   UNL     1     -10.723   3.829 -10.630  1.00  0.00     0.000 C 
ENDROOT
BRANCH   1   2
ATOM      2  C   UNL     1     -10.435   2.685 -11.619  1.00  0.00     0.000 C 
BRANCH   2   3
ATOM      3  C   UNL     1      -9.768   1.438 -11.005  1.00  0.00     0.006 C 
BRANCH   3   4
ATOM      4  C   UNL     1      -8.251   1.349 -11.228  1.00  0.00     0.053 C 
BRANCH   4   5
ATOM      5  C   UNL     1      -7.508   1.153  -9.942  1.00  0.00     0.041 C 
ATOM      6  O   UNL     1      -6.249   1.200  -9.923  1.00  0.00    -0.550 OA
ATOM      7  O   UNL     1      -8.203   0.885  -8.771  1.00  0.00    -0.550 OA
ENDBRANCH   4   5
ENDBRANCH   3   4
ENDBRANCH   2   3
ENDBRANCH   1   2
BRANCH   1   8
ATOM      8  C   UNL     1     -10.775   3.357  -9.167  1.00  0.00     0.000 C 
BRANCH   8   9
ATOM      9  C   UNL     1     -10.314   4.442  -8.181  1.00  0.00    -0.000 C 
BRANCH   9  10
ATOM     10  C   UNL     1      -8.925   4.151  -7.585  1.00  0.00    -0.000 C 
BRANCH  10  11
ATOM     11  C   UNL     1      -7.777   4.505  -8.547  1.00  0.00    -0.000 C 
BRANCH  11  12
ATOM     12  C   UNL     1      -7.706   5.990  -8.945  1.00  0.00    -0.003 C 
ATOM     13  C   UNL     1      -7.853   6.214 -10.450  1.00  0.00     0.004 C 
ENDBRANCH  11  12
ENDBRANCH  10  11
ENDBRANCH   9  10
ENDBRANCH   8   9
ENDBRANCH   1   8
TORSDOF 9
ENDMDL
MODEL 5
REMARK VINA RESULT:    -3.624      1.596      3.153
REMARK INTER + INTRA:          -6.552
REMARK INTER:                  -5.787
REMARK INTRA:                  -0.765
REMARK UNBOUND:                -1.021
REMARK SMILES CCCCCCCCCCC(=O)[O-]
REMARK SMILES IDX 7 1 8 2 9 3 10 4 11 5 12 6 13 7 6 8 5 9 4 10 3 11 2 12 1 13
REMARK H PARENT
REMARK Flexibility Score: inf
ROOT
ATOM      1  C   UNL     1      -8.940   3.682 -11.002  1.00  0.00     0.000 C 
ENDROOT
BRANCH   1   2
ATOM      2  C   UNL     1      -8.725   2.523 -11.992  1.00  0.00     0.000 C 
BRANCH   2   3
ATOM      3  C   UNL     1      -8.719   1.115 -11.364  1.00  0.00     0.006 C 
BRANCH   3   4
ATOM      4  C   UNL     1      -8.062   1.036  -9.978  1.00  0.00     0.053 C 
BRANCH   4   5
ATOM      5  C   UNL     1      -9.054   0.699  -8.907  1.00  0.00     0.041 C 
ATOM      6  O   UNL     1      -8.659   0.291  -7.782  1.00  0.00    -0.550 OA
ATOM      7  O   UNL     1     -10.414   0.804  -9.162  1.00  0.00    -0.550 OA
ENDBRANCH   4   5
ENDBRANCH   3   4
ENDBRANCH   2   3
ENDBRANCH   1   2
BRANCH   1   8
ATOM      8  C   UNL     1      -8.955   5.059 -11.686  1.00  0.00     0.000 C 
BRANCH   8   9
ATOM      9  C   UNL     1      -8.008   6.063 -11.009  1.00  0.00    -0.000 C 
BRANCH   9  10
ATOM     10  C   UNL     1      -7.734   5.719  -9.534  1.00  0.00    -0.000 C 
BRANCH  10  11
ATOM     11  C   UNL     1      -8.807   6.278  -8.582  1.00  0.00    -0.000 C 
BRANCH  11  12
ATOM     12  C   UNL     1      -9.588   5.211  -7.794  1.00  0.00    -0.003 C 
ATOM     13  C   UNL     1      -8.724   4.021  -7.380  1.00  0.00     0.004 C 
ENDBRANCH  11  12
ENDBRANCH  10  11
ENDBRANCH   9  10
ENDBRANCH   8   9
ENDBRANCH   1   8
TORSDOF 9
ENDMDL
MODEL 6
REMARK VINA RESULT:    -3.607      1.785      4.472
REMARK INTER + INTRA:          -6.527
REMARK INTER:                  -5.630
REMARK INTRA:                  -0.896
REMARK UNBOUND:                -1.021
REMARK SMILES CCCCCCCCCCC(=O)[O-]
REMARK SMILES IDX 7 1 8 2 9 3 10 4 11 5 12 6 13 7 6 8 5 9 4 10 3 11 2 12 1 13
REMARK H PARENT
REMARK Flexibility Score: inf
ROOT
ATOM      1  C   UNL     1      -8.294   5.963 -11.247  1.00  0.00     0.000 C 
ENDROOT
BRANCH   1   2
ATOM      2  C   UNL     1      -9.056   6.719 -10.143  1.00  0.00     0.000 C 
BRANCH   2   3
ATOM      3  C   UNL     1      -8.546   6.475  -8.708  1.00  0.00     0.006 C 
BRANCH   3   4
ATOM      4  C   UNL     1      -9.206   5.288  -7.989  1.00  0.00     0.053 C 
BRANCH   4   5
ATOM      5  C   UNL     1      -8.223   4.196  -7.695  1.00  0.00     0.041 C 
ATOM      6  O   UNL     1      -8.475   3.338  -6.807  1.00  0.00    -0.550 OA
ATOM      7  O   UNL     1      -7.015   4.146  -8.377  1.00  0.00    -0.550 OA
ENDBRANCH   4   5
ENDBRANCH   3   4
ENDBRANCH   2   3
ENDBRANCH   1   2
BRANCH   1   8
ATOM      8  C   UNL     1      -9.140   4.864 -11.911  1.00  0.00     0.000 C 
BRANCH   8   9
ATOM      9  C   UNL     1      -8.814   3.462 -11.369  1.00  0.00    -0.000 C 
BRANCH   9  10
ATOM     10  C   UNL     1     -10.064   2.572 -11.237  1.00  0.00    -0.000 C 
BRANCH  10  11
ATOM     11  C   UNL     1     -10.367   2.186  -9.778  1.00  0.00    -0.000 C 
BRANCH  11  12
ATOM     12  C   UNL     1     -10.178   0.693  -9.454  1.00  0.00    -0.003 C 
ATOM     13  C   UNL     1      -9.150   0.447  -8.351  1.00  0.00     0.004 C 
ENDBRANCH  11  12
ENDBRANCH  10  11
ENDBRANCH   9  10
ENDBRANCH   8   9
ENDBRANCH   1   8
TORSDOF 9
ENDMDL
MODEL 7
REMARK VINA RESULT:    -3.480      1.619      2.684
REMARK INTER + INTRA:          -6.333
REMARK INTER:                  -5.809
REMARK INTRA:                  -0.523
REMARK UNBOUND:                -1.021
REMARK SMILES CCCCCCCCCCC(=O)[O-]
REMARK SMILES IDX 7 1 8 2 9 3 10 4 11 5 12 6 13 7 6 8 5 9 4 10 3 11 2 12 1 13
REMARK H PARENT
REMARK Flexibility Score: inf
ROOT
ATOM      1  C   UNL     1      -9.236   1.381  -8.372  1.00  0.00     0.000 C 
ENDROOT
BRANCH   1   2
ATOM      2  C   UNL     1      -9.939   0.407  -9.336  1.00  0.00     0.000 C 
BRANCH   2   3
ATOM      3  C   UNL     1     -10.428   1.031 -10.658  1.00  0.00     0.006 C 
BRANCH   3   4
ATOM      4  C   UNL     1      -9.535   0.736 -11.873  1.00  0.00     0.053 C 
BRANCH   4   5
ATOM      5  C   UNL     1      -8.229   1.467 -11.798  1.00  0.00     0.041 C 
ATOM      6  O   UNL     1      -7.151   0.828 -11.672  1.00  0.00    -0.550 OA
ATOM      7  O   UNL     1      -8.207   2.854 -11.833  1.00  0.00    -0.550 OA
ENDBRANCH   4   5
ENDBRANCH   3   4
ENDBRANCH   2   3
ENDBRANCH   1   2
BRANCH   1   8
ATOM      8  C   UNL     1      -9.682   2.840  -8.564  1.00  0.00     0.000 C 
BRANCH   8   9
ATOM      9  C   UNL     1      -8.695   3.843  -7.944  1.00  0.00    -0.000 C 
BRANCH   9  10
ATOM     10  C   UNL     1      -9.302   5.248  -7.780  1.00  0.00    -0.000 C 
BRANCH  10  11
ATOM     11  C   UNL     1      -9.792   5.844  -9.112  1.00  0.00    -0.000 C 
BRANCH  11  12
ATOM     12  C   UNL     1      -8.803   6.811  -9.788  1.00  0.00    -0.003 C 
ATOM     13  C   UNL     1      -7.450   6.873  -9.080  1.00  0.00     0.004 C 
ENDBRANCH  11  12
ENDBRANCH  10  11
ENDBRANCH   9  10
ENDBRANCH   8   9
ENDBRANCH   1   8
TORSDOF 9
ENDMDL
MODEL 8
REMARK VINA RESULT:    -3.458     13.204     15.565
REMARK INTER + INTRA:          -6.298
REMARK INTER:                  -5.718
REMARK INTRA:                  -0.581
REMARK UNBOUND:                -1.021
REMARK SMILES CCCCCCCCCCC(=O)[O-]
REMARK SMILES IDX 7 1 8 2 9 3 10 4 11 5 12 6 13 7 6 8 5 9 4 10 3 11 2 12 1 13
REMARK H PARENT
REMARK Flexibility Score: inf
ROOT
ATOM      1  C   UNL     1      -2.267 -10.175 -10.722  1.00  0.00     0.000 C 
ENDROOT
BRANCH   1   2
ATOM      2  C   UNL     1      -1.530 -10.689  -9.472  1.00  0.00     0.000 C 
BRANCH   2   3
ATOM      3  C   UNL     1      -1.530 -12.220  -9.292  1.00  0.00     0.006 C 
BRANCH   3   4
ATOM      4  C   UNL     1      -0.133 -12.856  -9.227  1.00  0.00     0.053 C 
BRANCH   4   5
ATOM      5  C   UNL     1       0.738 -12.412 -10.362  1.00  0.00     0.041 C 
ATOM      6  O   UNL     1       1.795 -11.766 -10.135  1.00  0.00    -0.550 OA
ATOM      7  O   UNL     1       0.364 -12.682 -11.671  1.00  0.00    -0.550 OA
ENDBRANCH   4   5
ENDBRANCH   3   4
ENDBRANCH   2   3
ENDBRANCH   1   2
BRANCH   1   8
ATOM      8  C   UNL     1      -1.705  -8.841 -11.242  1.00  0.00     0.000 C 
BRANCH   8   9
ATOM      9  C   UNL     1      -0.485  -8.364 -10.438  1.00  0.00    -0.000 C 
BRANCH   9  10
ATOM     10  C   UNL     1      -0.135  -6.889 -10.710  1.00  0.00    -0.000 C 
BRANCH  10  11
ATOM     11  C   UNL     1      -1.369  -6.040 -11.061  1.00  0.00    -0.000 C 
BRANCH  11  12
ATOM     12  C   UNL     1      -1.142  -4.518 -11.004  1.00  0.00    -0.003 C 
ATOM     13  C   UNL     1       0.295  -4.116 -11.331  1.00  0.00     0.004 C 
ENDBRANCH  11  12
ENDBRANCH  10  11
ENDBRANCH   9  10
ENDBRANCH   8   9
ENDBRANCH   1   8
TORSDOF 9
ENDMDL
MODEL 9
REMARK VINA RESULT:    -3.403      1.432      2.178
REMARK INTER + INTRA:          -6.215
REMARK INTER:                  -4.912
REMARK INTRA:                  -1.303
REMARK UNBOUND:                -1.021
REMARK SMILES CCCCCCCCCCC(=O)[O-]
REMARK SMILES IDX 7 1 8 2 9 3 10 4 11 5 12 6 13 7 6 8 5 9 4 10 3 11 2 12 1 13
REMARK H PARENT
REMARK Flexibility Score: inf
ROOT
ATOM      1  C   UNL     1     -10.048   4.520  -7.392  1.00  0.00     0.000 C 
ENDROOT
BRANCH   1   2
ATOM      2  C   UNL     1      -8.755   3.739  -7.689  1.00  0.00     0.000 C 
BRANCH   2   3
ATOM      3  C   UNL     1      -8.937   2.461  -8.532  1.00  0.00     0.006 C 
BRANCH   3   4
ATOM      4  C   UNL     1      -8.096   2.417  -9.817  1.00  0.00     0.053 C 
BRANCH   4   5
ATOM      5  C   UNL     1      -7.458   1.077 -10.022  1.00  0.00     0.041 C 
ATOM      6  O   UNL     1      -7.607   0.165  -9.165  1.00  0.00    -0.550 OA
ATOM      7  O   UNL     1      -6.673   0.845 -11.143  1.00  0.00    -0.550 OA
ENDBRANCH   4   5
ENDBRANCH   3   4
ENDBRANCH   2   3
ENDBRANCH   1   2
BRANCH   1   8
ATOM      8  C   UNL     1     -11.115   4.348  -8.486  1.00  0.00     0.000 C 
BRANCH   8   9
ATOM      9  C   UNL     1     -11.125   5.514  -9.487  1.00  0.00    -0.000 C 
BRANCH   9  10
ATOM     10  C   UNL     1     -10.371   5.185 -10.789  1.00  0.00    -0.000 C 
BRANCH  10  11
ATOM     11  C   UNL     1      -9.019   5.913 -10.894  1.00  0.00    -0.000 C 
BRANCH  11  12
ATOM     12  C   UNL     1      -8.787   6.999  -9.829  1.00  0.00    -0.003 C 
ATOM     13  C   UNL     1      -7.453   6.845  -9.100  1.00  0.00     0.004 C 
ENDBRANCH  11  12
ENDBRANCH  10  11
ENDBRANCH   9  10
ENDBRANCH   8   9
ENDBRANCH   1   8
TORSDOF 9
ENDMDL
