MODEL 1
REMARK VINA RESULT:    -4.365      0.000      0.000
REMARK INTER + INTRA:          -5.849
REMARK INTER:                  -5.640
REMARK INTRA:                  -0.209
REMARK UNBOUND:                -0.209
REMARK SMILES CCCCCCC(=O)[O-]
REMARK SMILES IDX 5 1 6 2 7 3 8 4 9 5 4 6 3 7 2 8 1 9
REMARK H PARENT
REMARK Flexibility Score: inf
ROOT
ATOM      1  C   UNL     1       1.818  22.640 -19.151  1.00  0.00     0.006 C 
ENDROOT
BRANCH   1   2
ATOM      2  C   UNL     1       2.666  23.204 -18.003  1.00  0.00     0.053 C 
BRANCH   2   3
ATOM      3  C   UNL     1       2.831  22.180 -16.925  1.00  0.00     0.041 C 
ATOM      4  O   UNL     1       3.945  22.031 -16.358  1.00  0.00    -0.550 OA
ATOM      5  O   UNL     1       1.768  21.356 -16.579  1.00  0.00    -0.550 OA
ENDBRANCH   2   3
ENDBRANCH   1   2
BRANCH   1   6
ATOM      6  C   UNL     1       2.533  21.519 -19.922  1.00  0.00     0.000 C 
BRANCH   6   7
ATOM      7  C   UNL     1       1.692  20.233 -20.007  1.00  0.00    -0.000 C 
BRANCH   7   8
ATOM      8  C   UNL     1       2.432  19.094 -20.727  1.00  0.00    -0.003 C 
ATOM      9  C   UNL     1       3.829  19.499 -21.199  1.00  0.00     0.004 C 
ENDBRANCH   7   8
ENDBRANCH   6   7
ENDBRANCH   1   6
TORSDOF 5
ENDMDL
MODEL 2
REMARK VINA RESULT:    -4.324      2.611      4.385
REMARK INTER + INTRA:          -5.797
REMARK INTER:                  -5.570
REMARK INTRA:                  -0.227
REMARK UNBOUND:                -0.209
REMARK SMILES CCCCCCC(=O)[O-]
REMARK SMILES IDX 5 1 6 2 7 3 8 4 9 5 4 6 3 7 2 8 1 9
REMARK H PARENT
REMARK Flexibility Score: inf
ROOT
ATOM      1  C   UNL     1       1.322  21.510 -19.445  1.00  0.00     0.006 C 
ENDROOT
BRANCH   1   2
ATOM      2  C   UNL     1       1.770  20.108 -19.879  1.00  0.00     0.053 C 
BRANCH   2   3
ATOM      3  C   UNL     1       2.989  20.194 -20.741  1.00  0.00     0.041 C 
ATOM      4  O   UNL     1       3.623  19.150 -21.047  1.00  0.00    -0.550 OA
ATOM      5  O   UNL     1       3.456  21.431 -21.166  1.00  0.00    -0.550 OA
ENDBRANCH   2   3
ENDBRANCH   1   2
BRANCH   1   6
ATOM      6  C   UNL     1       1.492  21.747 -17.936  1.00  0.00     0.000 C 
BRANCH   6   7
ATOM      7  C   UNL     1       2.639  22.722 -17.617  1.00  0.00    -0.000 C 
BRANCH   7   8
ATOM      8  C   UNL     1       3.623  22.154 -16.581  1.00  0.00    -0.003 C 
ATOM      9  C   UNL     1       2.920  21.533 -15.375  1.00  0.00     0.004 C 
ENDBRANCH   7   8
ENDBRANCH   6   7
ENDBRANCH   1   6
TORSDOF 5
ENDMDL
MODEL 3
REMARK VINA RESULT:    -4.007      9.409     10.427
REMARK INTER + INTRA:          -5.387
REMARK INTER:                  -5.173
REMARK INTRA:                  -0.214
REMARK UNBOUND:                -0.209
REMARK SMILES CCCCCCC(=O)[O-]
REMARK SMILES IDX 5 1 6 2 7 3 8 4 9 5 4 6 3 7 2 8 1 9
REMARK H PARENT
REMARK Flexibility Score: inf
ROOT
ATOM      1  C   UNL     1       8.872  24.649 -12.418  1.00  0.00     0.006 C 
ENDROOT
BRANCH   1   2
ATOM      2  C   UNL     1       8.972  24.330 -10.921  1.00  0.00     0.053 C 
BRANCH   2   3
ATOM      3  C   UNL     1       7.740  23.619 -10.456  1.00  0.00     0.041 C 
ATOM      4  O   UNL     1       6.662  23.733 -11.097  1.00  0.00    -0.550 OA
ATOM      5  O   UNL     1       7.768  22.872  -9.285  1.00  0.00    -0.550 OA
ENDBRANCH   2   3
ENDBRANCH   1   2
BRANCH   1   6
ATOM      6  C   UNL     1       8.931  26.158 -12.708  1.00  0.00     0.000 C 
BRANCH   6   7
ATOM      7  C   UNL     1       7.559  26.740 -13.090  1.00  0.00    -0.000 C 
BRANCH   7   8
ATOM      8  C   UNL     1       7.532  28.275 -13.023  1.00  0.00    -0.003 C 
ATOM      9  C   UNL     1       8.931  28.891 -12.977  1.00  0.00     0.004 C 
ENDBRANCH   7   8
ENDBRANCH   6   7
ENDBRANCH   1   6
TORSDOF 5
ENDMDL
MODEL 4
REMARK VINA RESULT:    -3.989     12.493     13.762
REMARK INTER + INTRA:          -5.364
REMARK INTER:                  -5.095
REMARK INTRA:                  -0.269
REMARK UNBOUND:                -0.209
REMARK SMILES CCCCCCC(=O)[O-]
REMARK SMILES IDX 5 1 6 2 7 3 8 4 9 5 4 6 3 7 2 8 1 9
REMARK H PARENT
REMARK Flexibility Score: inf
ROOT
ATOM      1  C   UNL     1      -4.637  31.515 -18.954  1.00  0.00     0.006 C 
ENDROOT
BRANCH   1   2
ATOM      2  C   UNL     1      -3.814  32.810 -18.919  1.00  0.00     0.053 C 
BRANCH   2   3
ATOM      3  C   UNL     1      -2.520  32.586 -18.202  1.00  0.00     0.041 C 
ATOM      4  O   UNL     1      -1.432  32.609 -18.836  1.00  0.00    -0.550 OA
ATOM      5  O   UNL     1      -2.518  32.302 -16.842  1.00  0.00    -0.550 OA
ENDBRANCH   2   3
ENDBRANCH   1   2
BRANCH   1   6
ATOM      6  C   UNL     1      -6.063  31.704 -18.411  1.00  0.00     0.000 C 
BRANCH   6   7
ATOM      7  C   UNL     1      -6.110  31.740 -16.874  1.00  0.00    -0.000 C 
BRANCH   7   8
ATOM      8  C   UNL     1      -7.250  32.624 -16.341  1.00  0.00    -0.003 C 
ATOM      9  C   UNL     1      -7.980  33.381 -17.450  1.00  0.00     0.004 C 
ENDBRANCH   7   8
ENDBRANCH   6   7
ENDBRANCH   1   6
TORSDOF 5
ENDMDL
MODEL 5
REMARK VINA RESULT:    -3.978      9.085     10.128
REMARK INTER + INTRA:          -5.349
REMARK INTER:                  -5.148
REMARK INTRA:                  -0.202
REMARK UNBOUND:                -0.209
REMARK SMILES CCCCCCC(=O)[O-]
REMARK SMILES IDX 5 1 6 2 7 3 8 4 9 5 4 6 3 7 2 8 1 9
REMARK H PARENT
REMARK Flexibility Score: inf
ROOT
ATOM      1  C   UNL     1       6.974  26.081 -12.977  1.00  0.00     0.006 C 
ENDROOT
BRANCH   1   2
ATOM      2  C   UNL     1       8.075  27.146 -13.068  1.00  0.00     0.053 C 
BRANCH   2   3
ATOM      3  C   UNL     1       7.479  28.490 -13.345  1.00  0.00     0.041 C 
ATOM      4  O   UNL     1       7.764  29.473 -12.612  1.00  0.00    -0.550 OA
ATOM      5  O   UNL     1       6.568  28.647 -14.383  1.00  0.00    -0.550 OA
ENDBRANCH   2   3
ENDBRANCH   1   2
BRANCH   1   6
ATOM      6  C   UNL     1       7.526  24.684 -12.648  1.00  0.00     0.000 C 
BRANCH   6   7
ATOM      7  C   UNL     1       8.814  24.741 -11.808  1.00  0.00    -0.000 C 
BRANCH   7   8
ATOM      8  C   UNL     1       8.659  24.046 -10.446  1.00  0.00    -0.003 C 
ATOM      9  C   UNL     1       7.434  23.133 -10.383  1.00  0.00     0.004 C 
ENDBRANCH   7   8
ENDBRANCH   6   7
ENDBRANCH   1   6
TORSDOF 5
ENDMDL
MODEL 6
REMARK VINA RESULT:    -3.897     13.089     14.016
REMARK INTER + INTRA:          -5.245
REMARK INTER:                  -4.997
REMARK INTRA:                  -0.248
REMARK UNBOUND:                -0.209
REMARK SMILES CCCCCCC(=O)[O-]
REMARK SMILES IDX 5 1 6 2 7 3 8 4 9 5 4 6 3 7 2 8 1 9
REMARK H PARENT
REMARK Flexibility Score: inf
ROOT
ATOM      1  C   UNL     1      -6.156  31.830 -18.464  1.00  0.00     0.006 C 
ENDROOT
BRANCH   1   2
ATOM      2  C   UNL     1      -6.119  31.814 -16.930  1.00  0.00     0.053 C 
BRANCH   2   3
ATOM      3  C   UNL     1      -7.376  32.401 -16.371  1.00  0.00     0.041 C 
ATOM      4  O   UNL     1      -8.126  33.103 -17.099  1.00  0.00    -0.550 OA
ATOM      5  O   UNL     1      -7.695  32.216 -15.032  1.00  0.00    -0.550 OA
ENDBRANCH   2   3
ENDBRANCH   1   2
BRANCH   1   6
ATOM      6  C   UNL     1      -4.792  31.509 -19.094  1.00  0.00     0.000 C 
BRANCH   6   7
ATOM      7  C   UNL     1      -3.832  32.712 -19.068  1.00  0.00    -0.000 C 
BRANCH   7   8
ATOM      8  C   UNL     1      -2.484  32.374 -18.410  1.00  0.00    -0.003 C 
ATOM      9  C   UNL     1      -2.453  32.705 -16.918  1.00  0.00     0.004 C 
ENDBRANCH   7   8
ENDBRANCH   6   7
ENDBRANCH   1   6
TORSDOF 5
ENDMDL
MODEL 7
REMARK VINA RESULT:    -3.835      8.874     10.507
REMARK INTER + INTRA:          -5.164
REMARK INTER:                  -4.971
REMARK INTRA:                  -0.193
REMARK UNBOUND:                -0.209
REMARK SMILES CCCCCCC(=O)[O-]
REMARK SMILES IDX 5 1 6 2 7 3 8 4 9 5 4 6 3 7 2 8 1 9
REMARK H PARENT
REMARK Flexibility Score: inf
ROOT
ATOM      1  C   UNL     1       6.989  26.082 -13.074  1.00  0.00     0.006 C 
ENDROOT
BRANCH   1   2
ATOM      2  C   UNL     1       8.202  25.339 -12.501  1.00  0.00     0.053 C 
BRANCH   2   3
ATOM      3  C   UNL     1       7.760  24.286 -11.535  1.00  0.00     0.041 C 
ATOM      4  O   UNL     1       6.555  23.922 -11.502  1.00  0.00    -0.550 OA
ATOM      5  O   UNL     1       8.668  23.741 -10.636  1.00  0.00    -0.550 OA
ENDBRANCH   2   3
ENDBRANCH   1   2
BRANCH   1   6
ATOM      6  C   UNL     1       7.221  27.598 -13.189  1.00  0.00     0.000 C 
BRANCH   6   7
ATOM      7  C   UNL     1       8.706  27.979 -13.059  1.00  0.00    -0.000 C 
BRANCH   7   8
ATOM      8  C   UNL     1       8.917  29.498 -12.961  1.00  0.00    -0.003 C 
ATOM      9  C   UNL     1       7.603  30.273 -12.858  1.00  0.00     0.004 C 
ENDBRANCH   7   8
ENDBRANCH   6   7
ENDBRANCH   1   6
TORSDOF 5
ENDMDL
MODEL 8
REMARK VINA RESULT:    -3.807     10.661     12.181
REMARK INTER + INTRA:          -5.128
REMARK INTER:                  -4.700
REMARK INTRA:                  -0.428
REMARK UNBOUND:                -0.209
REMARK SMILES CCCCCCC(=O)[O-]
REMARK SMILES IDX 5 1 6 2 7 3 8 4 9 5 4 6 3 7 2 8 1 9
REMARK H PARENT
REMARK Flexibility Score: inf
ROOT
ATOM      1  C   UNL     1       1.545  21.473  -8.038  1.00  0.00     0.006 C 
ENDROOT
BRANCH   1   2
ATOM      2  C   UNL     1       2.860  20.815  -7.600  1.00  0.00     0.053 C 
BRANCH   2   3
ATOM      3  C   UNL     1       3.016  19.476  -8.250  1.00  0.00     0.041 C 
ATOM      4  O   UNL     1       2.950  18.425  -7.560  1.00  0.00    -0.550 OA
ATOM      5  O   UNL     1       3.283  19.390  -9.610  1.00  0.00    -0.550 OA
ENDBRANCH   2   3
ENDBRANCH   1   2
BRANCH   1   6
ATOM      6  C   UNL     1       0.353  21.057  -7.161  1.00  0.00     0.000 C 
BRANCH   6   7
ATOM      7  C   UNL     1       0.726  20.943  -5.672  1.00  0.00    -0.000 C 
BRANCH   7   8
ATOM      8  C   UNL     1       0.436  19.547  -5.099  1.00  0.00    -0.003 C 
ATOM      9  C   UNL     1      -0.213  18.611  -6.118  1.00  0.00     0.004 C 
ENDBRANCH   7   8
ENDBRANCH   6   7
ENDBRANCH   1   6
TORSDOF 5
ENDMDL
MODEL 9
REMARK VINA RESULT:    -3.687      8.562     10.103
REMARK INTER + INTRA:          -4.974
REMARK INTER:                  -4.716
REMARK INTRA:                  -0.257
REMARK UNBOUND:                -0.209
REMARK SMILES CCCCCCC(=O)[O-]
REMARK SMILES IDX 5 1 6 2 7 3 8 4 9 5 4 6 3 7 2 8 1 9
REMARK H PARENT
REMARK Flexibility Score: inf
ROOT
ATOM      1  C   UNL     1       8.600  26.972 -13.196  1.00  0.00     0.006 C 
ENDROOT
BRANCH   1   2
ATOM      2  C   UNL     1       7.131  26.592 -12.971  1.00  0.00     0.053 C 
BRANCH   2   3
ATOM      3  C   UNL     1       7.002  25.120 -12.739  1.00  0.00     0.041 C 
ATOM      4  O   UNL     1       5.867  24.604 -12.560  1.00  0.00    -0.550 OA
ATOM      5  O   UNL     1       8.138  24.324 -12.671  1.00  0.00    -0.550 OA
ENDBRANCH   2   3
ENDBRANCH   1   2
BRANCH   1   6
ATOM      6  C   UNL     1       8.857  28.478 -13.024  1.00  0.00     0.000 C 
BRANCH   6   7
ATOM      7  C   UNL     1       7.556  29.299 -12.989  1.00  0.00    -0.000 C 
BRANCH   7   8
ATOM      8  C   UNL     1       7.322  30.085 -14.289  1.00  0.00    -0.003 C 
ATOM      9  C   UNL     1       6.287  29.428 -15.202  1.00  0.00     0.004 C 
ENDBRANCH   7   8
ENDBRANCH   6   7
ENDBRANCH   1   6
TORSDOF 5
ENDMDL
