MODEL 1
REMARK VINA RESULT:    -4.823      0.000      0.000
REMARK INTER + INTRA:          -7.796
REMARK INTER:                  -7.361
REMARK INTRA:                  -0.435
REMARK UNBOUND:                -0.435
REMARK SMILES O=C([O-])CCCCCCCCC(=O)[O-]
REMARK SMILES IDX 7 1 6 2 5 3 4 4 2 5 1 6 3 7 8 8 9 9 10 10 11 11 12 12 13 13
REMARK SMILES IDX 14 14
REMARK H PARENT
REMARK Flexibility Score: inf
ROOT
ATOM      1  C   UNL     1       0.168 -26.889   9.132  1.00  0.00     0.000 C 
ENDROOT
BRANCH   1   2
ATOM      2  C   UNL     1      -0.847 -27.014  10.282  1.00  0.00     0.000 C 
BRANCH   2   3
ATOM      3  C   UNL     1      -2.237 -26.477   9.903  1.00  0.00     0.006 C 
BRANCH   3   4
ATOM      4  C   UNL     1      -2.787 -25.479  10.930  1.00  0.00     0.053 C 
BRANCH   4   5
ATOM      5  C   UNL     1      -4.216 -25.155  10.629  1.00  0.00     0.041 C 
ATOM      6  O   UNL     1      -4.691 -24.032  10.943  1.00  0.00    -0.550 OA
ATOM      7  O   UNL     1      -5.010 -26.074   9.955  1.00  0.00    -0.550 OA
ENDBRANCH   4   5
ENDBRANCH   3   4
ENDBRANCH   2   3
ENDBRANCH   1   2
BRANCH   1   8
ATOM      8  C   UNL     1      -0.500 -26.935   7.748  1.00  0.00     0.000 C 
BRANCH   8   9
ATOM      9  C   UNL     1      -0.591 -28.359   7.179  1.00  0.00     0.000 C 
BRANCH   9  10
ATOM     10  C   UNL     1      -0.095 -28.401   5.725  1.00  0.00     0.006 C 
BRANCH  10  11
ATOM     11  C   UNL     1       0.035 -27.000   5.115  1.00  0.00     0.053 C 
BRANCH  11  12
ATOM     12  C   UNL     1      -0.944 -26.787   4.000  1.00  0.00     0.041 C 
ATOM     13  O   UNL     1      -1.538 -25.684   3.879  1.00  0.00    -0.550 OA
ATOM     14  O   UNL     1      -1.224 -27.820   3.114  1.00  0.00    -0.550 OA
ENDBRANCH  11  12
ENDBRANCH  10  11
ENDBRANCH   9  10
ENDBRANCH   8   9
ENDBRANCH   1   8
TORSDOF 9
ENDMDL
MODEL 2
REMARK VINA RESULT:    -4.797      0.817      6.612
REMARK INTER + INTRA:          -7.755
REMARK INTER:                  -7.489
REMARK INTRA:                  -0.266
REMARK UNBOUND:                -0.435
REMARK SMILES O=C([O-])CCCCCCCCC(=O)[O-]
REMARK SMILES IDX 7 1 6 2 5 3 4 4 2 5 1 6 3 7 8 8 9 9 10 10 11 11 12 12 13 13
REMARK SMILES IDX 14 14
REMARK H PARENT
REMARK Flexibility Score: inf
ROOT
ATOM      1  C   UNL     1      -0.507 -27.365   7.616  1.00  0.00     0.000 C 
ENDROOT
BRANCH   1   2
ATOM      2  C   UNL     1       0.304 -27.312   6.308  1.00  0.00     0.000 C 
BRANCH   2   3
ATOM      3  C   UNL     1      -0.535 -26.830   5.114  1.00  0.00     0.006 C 
BRANCH   3   4
ATOM      4  C   UNL     1      -0.581 -27.854   3.972  1.00  0.00     0.053 C 
BRANCH   4   5
ATOM      5  C   UNL     1      -1.271 -27.272   2.778  1.00  0.00     0.041 C 
ATOM      6  O   UNL     1      -1.881 -28.021   1.971  1.00  0.00    -0.550 OA
ATOM      7  O   UNL     1      -1.281 -25.897   2.584  1.00  0.00    -0.550 OA
ENDBRANCH   4   5
ENDBRANCH   3   4
ENDBRANCH   2   3
ENDBRANCH   1   2
BRANCH   1   8
ATOM      8  C   UNL     1       0.158 -26.574   8.754  1.00  0.00     0.000 C 
BRANCH   8   9
ATOM      9  C   UNL     1      -0.610 -26.683  10.080  1.00  0.00     0.000 C 
BRANCH   9  10
ATOM     10  C   UNL     1      -2.118 -26.495   9.858  1.00  0.00     0.006 C 
BRANCH  10  11
ATOM     11  C   UNL     1      -2.740 -25.534  10.880  1.00  0.00     0.053 C 
BRANCH  11  12
ATOM     12  C   UNL     1      -4.157 -25.193  10.531  1.00  0.00     0.041 C 
ATOM     13  O   UNL     1      -4.639 -24.076  10.855  1.00  0.00    -0.550 OA
ATOM     14  O   UNL     1      -4.956 -26.124   9.878  1.00  0.00    -0.550 OA
ENDBRANCH  11  12
ENDBRANCH  10  11
ENDBRANCH   9  10
ENDBRANCH   8   9
ENDBRANCH   1   8
TORSDOF 9
ENDMDL
MODEL 3
REMARK VINA RESULT:    -4.732      3.960      7.123
REMARK INTER + INTRA:          -7.656
REMARK INTER:                  -6.940
REMARK INTRA:                  -0.716
REMARK UNBOUND:                -0.435
REMARK SMILES O=C([O-])CCCCCCCCC(=O)[O-]
REMARK SMILES IDX 7 1 6 2 5 3 4 4 2 5 1 6 3 7 8 8 9 9 10 10 11 11 12 12 13 13
REMARK SMILES IDX 14 14
REMARK H PARENT
REMARK Flexibility Score: inf
ROOT
ATOM      1  C   UNL     1       0.217 -29.508   1.558  1.00  0.00     0.000 C 
ENDROOT
BRANCH   1   2
ATOM      2  C   UNL     1      -0.225 -28.038   1.670  1.00  0.00     0.000 C 
BRANCH   2   3
ATOM      3  C   UNL     1      -1.752 -27.876   1.613  1.00  0.00     0.006 C 
BRANCH   3   4
ATOM      4  C   UNL     1      -2.211 -26.458   1.976  1.00  0.00     0.053 C 
BRANCH   4   5
ATOM      5  C   UNL     1      -2.180 -25.574   0.770  1.00  0.00     0.041 C 
ATOM      6  O   UNL     1      -2.399 -26.054  -0.373  1.00  0.00    -0.550 OA
ATOM      7  O   UNL     1      -1.958 -24.210   0.913  1.00  0.00    -0.550 OA
ENDBRANCH   4   5
ENDBRANCH   3   4
ENDBRANCH   2   3
ENDBRANCH   1   2
BRANCH   1   8
ATOM      8  C   UNL     1       0.591 -30.117   2.919  1.00  0.00     0.000 C 
BRANCH   8   9
ATOM      9  C   UNL     1       1.542 -29.223   3.729  1.00  0.00     0.000 C 
BRANCH   9  10
ATOM     10  C   UNL     1       1.266 -29.351   5.235  1.00  0.00     0.006 C 
BRANCH  10  11
ATOM     11  C   UNL     1      -0.198 -29.057   5.585  1.00  0.00     0.053 C 
BRANCH  11  12
ATOM     12  C   UNL     1      -0.397 -27.628   5.991  1.00  0.00     0.041 C 
ATOM     13  O   UNL     1      -0.516 -27.325   7.207  1.00  0.00    -0.550 OA
ATOM     14  O   UNL     1      -0.483 -26.636   5.022  1.00  0.00    -0.550 OA
ENDBRANCH  11  12
ENDBRANCH  10  11
ENDBRANCH   9  10
ENDBRANCH   8   9
ENDBRANCH   1   8
TORSDOF 9
ENDMDL
MODEL 4
REMARK VINA RESULT:    -4.717      5.928      7.565
REMARK INTER + INTRA:          -7.634
REMARK INTER:                  -7.100
REMARK INTRA:                  -0.534
REMARK UNBOUND:                -0.435
REMARK SMILES O=C([O-])CCCCCCCCC(=O)[O-]
REMARK SMILES IDX 7 1 6 2 5 3 4 4 2 5 1 6 3 7 8 8 9 9 10 10 11 11 12 12 13 13
REMARK SMILES IDX 14 14
REMARK H PARENT
REMARK Flexibility Score: inf
ROOT
ATOM      1  C   UNL     1      -1.278 -25.701   3.664  1.00  0.00     0.000 C 
ENDROOT
BRANCH   1   2
ATOM      2  C   UNL     1      -0.564 -26.645   4.648  1.00  0.00     0.000 C 
BRANCH   2   3
ATOM      3  C   UNL     1      -0.404 -28.068   4.088  1.00  0.00     0.006 C 
BRANCH   3   4
ATOM      4  C   UNL     1       0.885 -28.243   3.276  1.00  0.00     0.053 C 
BRANCH   4   5
ATOM      5  C   UNL     1       0.800 -29.468   2.421  1.00  0.00     0.041 C 
ATOM      6  O   UNL     1       1.354 -30.537   2.788  1.00  0.00    -0.550 OA
ATOM      7  O   UNL     1       0.067 -29.443   1.241  1.00  0.00    -0.550 OA
ENDBRANCH   4   5
ENDBRANCH   3   4
ENDBRANCH   2   3
ENDBRANCH   1   2
BRANCH   1   8
ATOM      8  C   UNL     1      -0.304 -24.765   2.932  1.00  0.00     0.000 C 
BRANCH   8   9
ATOM      9  C   UNL     1      -0.791 -24.383   1.526  1.00  0.00     0.000 C 
BRANCH   9  10
ATOM     10  C   UNL     1      -1.123 -25.636   0.700  1.00  0.00     0.006 C 
BRANCH  10  11
ATOM     11  C   UNL     1      -2.609 -25.707   0.326  1.00  0.00     0.053 C 
BRANCH  11  12
ATOM     12  C   UNL     1      -2.852 -25.236  -1.076  1.00  0.00     0.041 C 
ATOM     13  O   UNL     1      -3.593 -25.899  -1.848  1.00  0.00    -0.550 OA
ATOM     14  O   UNL     1      -2.231 -24.083  -1.539  1.00  0.00    -0.550 OA
ENDBRANCH  11  12
ENDBRANCH  10  11
ENDBRANCH   9  10
ENDBRANCH   8   9
ENDBRANCH   1   8
TORSDOF 9
ENDMDL
MODEL 5
REMARK VINA RESULT:    -4.703      5.652      7.515
REMARK INTER + INTRA:          -7.613
REMARK INTER:                  -6.721
REMARK INTRA:                  -0.892
REMARK UNBOUND:                -0.435
REMARK SMILES O=C([O-])CCCCCCCCC(=O)[O-]
REMARK SMILES IDX 7 1 6 2 5 3 4 4 2 5 1 6 3 7 8 8 9 9 10 10 11 11 12 12 13 13
REMARK SMILES IDX 14 14
REMARK H PARENT
REMARK Flexibility Score: inf
ROOT
ATOM      1  C   UNL     1      -1.614 -25.876   3.377  1.00  0.00     0.000 C 
ENDROOT
BRANCH   1   2
ATOM      2  C   UNL     1      -0.741 -25.006   2.456  1.00  0.00     0.000 C 
BRANCH   2   3
ATOM      3  C   UNL     1      -0.869 -25.400   0.976  1.00  0.00     0.006 C 
BRANCH   3   4
ATOM      4  C   UNL     1      -2.296 -25.817   0.596  1.00  0.00     0.053 C 
BRANCH   4   5
ATOM      5  C   UNL     1      -2.699 -25.178  -0.696  1.00  0.00     0.041 C 
ATOM      6  O   UNL     1      -3.386 -25.820  -1.533  1.00  0.00    -0.550 OA
ATOM      7  O   UNL     1      -2.357 -23.857  -0.954  1.00  0.00    -0.550 OA
ENDBRANCH   4   5
ENDBRANCH   3   4
ENDBRANCH   2   3
ENDBRANCH   1   2
BRANCH   1   8
ATOM      8  C   UNL     1      -0.830 -26.443   4.571  1.00  0.00     0.000 C 
BRANCH   8   9
ATOM      9  C   UNL     1       0.690 -26.421   4.348  1.00  0.00     0.000 C 
BRANCH   9  10
ATOM     10  C   UNL     1       1.247 -27.846   4.220  1.00  0.00     0.006 C 
BRANCH  10  11
ATOM     11  C   UNL     1       1.485 -28.247   2.758  1.00  0.00     0.053 C 
BRANCH  11  12
ATOM     12  C   UNL     1       0.483 -29.258   2.289  1.00  0.00     0.041 C 
ATOM     13  O   UNL     1      -0.582 -28.884   1.732  1.00  0.00    -0.550 OA
ATOM     14  O   UNL     1       0.712 -30.612   2.498  1.00  0.00    -0.550 OA
ENDBRANCH  11  12
ENDBRANCH  10  11
ENDBRANCH   9  10
ENDBRANCH   8   9
ENDBRANCH   1   8
TORSDOF 9
ENDMDL
MODEL 6
REMARK VINA RESULT:    -4.675      1.833      2.718
REMARK INTER + INTRA:          -7.569
REMARK INTER:                  -7.212
REMARK INTRA:                  -0.358
REMARK UNBOUND:                -0.435
REMARK SMILES O=C([O-])CCCCCCCCC(=O)[O-]
REMARK SMILES IDX 7 1 6 2 5 3 4 4 2 5 1 6 3 7 8 8 9 9 10 10 11 11 12 12 13 13
REMARK SMILES IDX 14 14
REMARK H PARENT
REMARK Flexibility Score: inf
ROOT
ATOM      1  C   UNL     1      -0.491 -27.200   6.997  1.00  0.00     0.000 C 
ENDROOT
BRANCH   1   2
ATOM      2  C   UNL     1       0.629 -26.893   8.008  1.00  0.00     0.000 C 
BRANCH   2   3
ATOM      3  C   UNL     1       0.087 -26.597   9.416  1.00  0.00     0.006 C 
BRANCH   3   4
ATOM      4  C   UNL     1      -1.418 -26.871   9.541  1.00  0.00     0.053 C 
BRANCH   4   5
ATOM      5  C   UNL     1      -2.001 -26.074  10.664  1.00  0.00     0.041 C 
ATOM      6  O   UNL     1      -3.111 -25.497  10.523  1.00  0.00    -0.550 OA
ATOM      7  O   UNL     1      -1.342 -26.009  11.886  1.00  0.00    -0.550 OA
ENDBRANCH   4   5
ENDBRANCH   3   4
ENDBRANCH   2   3
ENDBRANCH   1   2
BRANCH   1   8
ATOM      8  C   UNL     1       0.050 -27.735   5.662  1.00  0.00     0.000 C 
BRANCH   8   9
ATOM      9  C   UNL     1       0.168 -26.643   4.588  1.00  0.00     0.000 C 
BRANCH   9  10
ATOM     10  C   UNL     1      -1.215 -26.088   4.216  1.00  0.00     0.006 C 
BRANCH  10  11
ATOM     11  C   UNL     1      -1.230 -25.455   2.819  1.00  0.00     0.053 C 
BRANCH  11  12
ATOM     12  C   UNL     1      -2.044 -26.260   1.852  1.00  0.00     0.041 C 
ATOM     13  O   UNL     1      -2.711 -25.686   0.952  1.00  0.00    -0.550 OA
ATOM     14  O   UNL     1      -2.090 -27.644   1.966  1.00  0.00    -0.550 OA
ENDBRANCH  11  12
ENDBRANCH  10  11
ENDBRANCH   9  10
ENDBRANCH   8   9
ENDBRANCH   1   8
TORSDOF 9
ENDMDL
MODEL 7
REMARK VINA RESULT:    -4.649      4.664      6.818
REMARK INTER + INTRA:          -7.529
REMARK INTER:                  -6.785
REMARK INTRA:                  -0.744
REMARK UNBOUND:                -0.435
REMARK SMILES O=C([O-])CCCCCCCCC(=O)[O-]
REMARK SMILES IDX 7 1 6 2 5 3 4 4 2 5 1 6 3 7 8 8 9 9 10 10 11 11 12 12 13 13
REMARK SMILES IDX 14 14
REMARK H PARENT
REMARK Flexibility Score: inf
ROOT
ATOM      1  C   UNL     1      -0.040 -29.331   1.767  1.00  0.00     0.000 C 
ENDROOT
BRANCH   1   2
ATOM      2  C   UNL     1       1.205 -29.236   2.667  1.00  0.00     0.000 C 
BRANCH   2   3
ATOM      3  C   UNL     1       1.509 -27.793   3.100  1.00  0.00     0.006 C 
BRANCH   3   4
ATOM      4  C   UNL     1       1.401 -27.595   4.618  1.00  0.00     0.053 C 
BRANCH   4   5
ATOM      5  C   UNL     1      -0.034 -27.592   5.041  1.00  0.00     0.041 C 
ATOM      6  O   UNL     1      -0.495 -28.541   5.728  1.00  0.00    -0.550 OA
ATOM      7  O   UNL     1      -0.852 -26.516   4.720  1.00  0.00    -0.550 OA
ENDBRANCH   4   5
ENDBRANCH   3   4
ENDBRANCH   2   3
ENDBRANCH   1   2
BRANCH   1   8
ATOM      8  C   UNL     1      -0.508 -27.958   1.259  1.00  0.00     0.000 C 
BRANCH   8   9
ATOM      9  C   UNL     1      -1.985 -27.679   1.577  1.00  0.00     0.000 C 
BRANCH   9  10
ATOM     10  C   UNL     1      -2.353 -26.226   1.240  1.00  0.00     0.006 C 
BRANCH  10  11
ATOM     11  C   UNL     1      -1.521 -25.670   0.077  1.00  0.00     0.053 C 
BRANCH  11  12
ATOM     12  C   UNL     1      -2.370 -24.930  -0.911  1.00  0.00     0.041 C 
ATOM     13  O   UNL     1      -3.426 -25.451  -1.356  1.00  0.00    -0.550 OA
ATOM     14  O   UNL     1      -1.976 -23.677  -1.364  1.00  0.00    -0.550 OA
ENDBRANCH  11  12
ENDBRANCH  10  11
ENDBRANCH   9  10
ENDBRANCH   8   9
ENDBRANCH   1   8
TORSDOF 9
ENDMDL
MODEL 8
REMARK VINA RESULT:    -4.586      1.619      6.955
REMARK INTER + INTRA:          -7.433
REMARK INTER:                  -7.003
REMARK INTRA:                  -0.430
REMARK UNBOUND:                -0.435
REMARK SMILES O=C([O-])CCCCCCCCC(=O)[O-]
REMARK SMILES IDX 7 1 6 2 5 3 4 4 2 5 1 6 3 7 8 8 9 9 10 10 11 11 12 12 13 13
REMARK SMILES IDX 14 14
REMARK H PARENT
REMARK Flexibility Score: inf
ROOT
ATOM      1  C   UNL     1      -0.202 -28.616   6.442  1.00  0.00     0.000 C 
ENDROOT
BRANCH   1   2
ATOM      2  C   UNL     1       0.090 -28.488   4.936  1.00  0.00     0.000 C 
BRANCH   2   3
ATOM      3  C   UNL     1      -0.478 -27.193   4.333  1.00  0.00     0.006 C 
BRANCH   3   4
ATOM      4  C   UNL     1      -0.098 -27.011   2.858  1.00  0.00     0.053 C 
BRANCH   4   5
ATOM      5  C   UNL     1      -0.771 -28.046   2.014  1.00  0.00     0.041 C 
ATOM      6  O   UNL     1      -2.017 -28.004   1.833  1.00  0.00    -0.550 OA
ATOM      7  O   UNL     1      -0.017 -29.030   1.387  1.00  0.00    -0.550 OA
ENDBRANCH   4   5
ENDBRANCH   3   4
ENDBRANCH   2   3
ENDBRANCH   1   2
BRANCH   1   8
ATOM      8  C   UNL     1      -0.488 -27.260   7.105  1.00  0.00     0.000 C 
BRANCH   8   9
ATOM      9  C   UNL     1       0.566 -26.879   8.156  1.00  0.00     0.000 C 
BRANCH   9  10
ATOM     10  C   UNL     1      -0.095 -26.559   9.505  1.00  0.00     0.006 C 
BRANCH  10  11
ATOM     11  C   UNL     1      -1.611 -26.788   9.478  1.00  0.00     0.053 C 
BRANCH  11  12
ATOM     12  C   UNL     1      -2.296 -26.110  10.625  1.00  0.00     0.041 C 
ATOM     13  O   UNL     1      -3.530 -25.863  10.571  1.00  0.00    -0.550 OA
ATOM     14  O   UNL     1      -1.565 -25.721  11.740  1.00  0.00    -0.550 OA
ENDBRANCH  11  12
ENDBRANCH  10  11
ENDBRANCH   9  10
ENDBRANCH   8   9
ENDBRANCH   1   8
TORSDOF 9
ENDMDL
MODEL 9
REMARK VINA RESULT:    -4.490      5.164      7.216
REMARK INTER + INTRA:          -7.287
REMARK INTER:                  -6.333
REMARK INTRA:                  -0.953
REMARK UNBOUND:                -0.435
REMARK SMILES O=C([O-])CCCCCCCCC(=O)[O-]
REMARK SMILES IDX 7 1 6 2 5 3 4 4 2 5 1 6 3 7 8 8 9 9 10 10 11 11 12 12 13 13
REMARK SMILES IDX 14 14
REMARK H PARENT
REMARK Flexibility Score: inf
ROOT
ATOM      1  C   UNL     1      -1.588 -27.169   1.121  1.00  0.00     0.000 C 
ENDROOT
BRANCH   1   2
ATOM      2  C   UNL     1      -1.269 -28.446   1.917  1.00  0.00     0.000 C 
BRANCH   2   3
ATOM      3  C   UNL     1       0.240 -28.730   1.997  1.00  0.00     0.006 C 
BRANCH   3   4
ATOM      4  C   UNL     1       0.907 -28.049   3.199  1.00  0.00     0.053 C 
BRANCH   4   5
ATOM      5  C   UNL     1       0.167 -28.370   4.458  1.00  0.00     0.041 C 
ATOM      6  O   UNL     1       0.193 -29.537   4.929  1.00  0.00    -0.550 OA
ATOM      7  O   UNL     1      -0.513 -27.369   5.140  1.00  0.00    -0.550 OA
ENDBRANCH   4   5
ENDBRANCH   3   4
ENDBRANCH   2   3
ENDBRANCH   1   2
BRANCH   1   8
ATOM      8  C   UNL     1      -2.234 -26.078   1.989  1.00  0.00     0.000 C 
BRANCH   8   9
ATOM      9  C   UNL     1      -1.208 -25.089   2.563  1.00  0.00     0.000 C 
BRANCH   9  10
ATOM     10  C   UNL     1      -0.199 -24.659   1.487  1.00  0.00     0.006 C 
BRANCH  10  11
ATOM     11  C   UNL     1      -0.738 -23.525   0.606  1.00  0.00     0.053 C 
BRANCH  11  12
ATOM     12  C   UNL     1      -0.936 -23.968  -0.811  1.00  0.00     0.041 C 
ATOM     13  O   UNL     1       0.015 -23.908  -1.634  1.00  0.00    -0.550 OA
ATOM     14  O   UNL     1      -2.182 -24.417  -1.231  1.00  0.00    -0.550 OA
ENDBRANCH  11  12
ENDBRANCH  10  11
ENDBRANCH   9  10
ENDBRANCH   8   9
ENDBRANCH   1   8
TORSDOF 9
ENDMDL
