MODEL 1
REMARK VINA RESULT:    -3.105      0.000      0.000
REMARK INTER + INTRA:          -3.509
REMARK INTER:                  -3.468
REMARK INTRA:                  -0.041
REMARK UNBOUND:                -0.041
REMARK SMILES CC(C)CC=O
REMARK SMILES IDX 4 1 2 2 1 3 3 4 5 5 6 6
REMARK H PARENT
REMARK Flexibility Score: inf
ROOT
ATOM      1  C   UNL     1      20.567  43.143   1.412  1.00  0.00     0.075 C 
ENDROOT
BRANCH   1   2
ATOM      2  C   UNL     1      19.405  44.158   1.324  1.00  0.00    -0.010 C 
ATOM      3  C   UNL     1      18.067  43.547   1.761  1.00  0.00     0.008 C 
ATOM      4  C   UNL     1      19.295  44.795  -0.068  1.00  0.00     0.008 C 
ENDBRANCH   1   2
BRANCH   1   5
ATOM      5  C   UNL     1      20.553  42.094   0.333  1.00  0.00     0.224 C 
ATOM      6  O   UNL     1      21.526  41.955  -0.389  1.00  0.00    -0.303 OA
ENDBRANCH   1   5
TORSDOF 2
ENDMDL
MODEL 2
REMARK VINA RESULT:    -3.093      2.527      3.350
REMARK INTER + INTRA:          -3.495
REMARK INTER:                  -3.456
REMARK INTRA:                  -0.039
REMARK UNBOUND:                -0.041
REMARK SMILES CC(C)CC=O
REMARK SMILES IDX 4 1 2 2 1 3 3 4 5 5 6 6
REMARK H PARENT
REMARK Flexibility Score: inf
ROOT
ATOM      1  C   UNL     1      18.687  43.548   2.212  1.00  0.00     0.075 C 
ENDROOT
BRANCH   1   2
ATOM      2  C   UNL     1      19.812  43.856   1.198  1.00  0.00    -0.010 C 
ATOM      3  C   UNL     1      19.311  44.689   0.011  1.00  0.00     0.008 C 
ATOM      4  C   UNL     1      20.528  42.585   0.722  1.00  0.00     0.008 C 
ENDBRANCH   1   2
BRANCH   1   5
ATOM      5  C   UNL     1      17.331  43.353   1.588  1.00  0.00     0.224 C 
ATOM      6  O   UNL     1      16.388  44.025   1.969  1.00  0.00    -0.303 OA
ENDBRANCH   1   5
TORSDOF 2
ENDMDL
MODEL 3
REMARK VINA RESULT:    -3.058     15.680     16.889
REMARK INTER + INTRA:          -3.457
REMARK INTER:                  -3.431
REMARK INTRA:                  -0.026
REMARK UNBOUND:                -0.041
REMARK SMILES CC(C)CC=O
REMARK SMILES IDX 4 1 2 2 1 3 3 4 5 5 6 6
REMARK H PARENT
REMARK Flexibility Score: inf
ROOT
ATOM      1  C   UNL     1      23.939  56.795  -8.961  1.00  0.00     0.075 C 
ENDROOT
BRANCH   1   2
ATOM      2  C   UNL     1      23.993  55.315  -8.520  1.00  0.00    -0.010 C 
ATOM      3  C   UNL     1      22.940  54.990  -7.452  1.00  0.00     0.008 C 
ATOM      4  C   UNL     1      25.397  54.897  -8.060  1.00  0.00     0.008 C 
ENDBRANCH   1   2
BRANCH   1   5
ATOM      5  C   UNL     1      25.288  57.413  -9.215  1.00  0.00     0.224 C 
ATOM      6  O   UNL     1      25.387  58.623  -9.328  1.00  0.00    -0.303 OA
ENDBRANCH   1   5
TORSDOF 2
ENDMDL
MODEL 4
REMARK VINA RESULT:    -3.040      0.844      1.686
REMARK INTER + INTRA:          -3.436
REMARK INTER:                  -3.387
REMARK INTRA:                  -0.048
REMARK UNBOUND:                -0.041
REMARK SMILES CC(C)CC=O
REMARK SMILES IDX 4 1 2 2 1 3 3 4 5 5 6 6
REMARK H PARENT
REMARK Flexibility Score: inf
ROOT
ATOM      1  C   UNL     1      19.966  43.646   1.418  1.00  0.00     0.075 C 
ENDROOT
BRANCH   1   2
ATOM      2  C   UNL     1      18.922  43.903   0.307  1.00  0.00    -0.010 C 
ATOM      3  C   UNL     1      19.133  45.256  -0.386  1.00  0.00     0.008 C 
ATOM      4  C   UNL     1      17.482  43.762   0.821  1.00  0.00     0.008 C 
ENDBRANCH   1   2
BRANCH   1   5
ATOM      5  C   UNL     1      20.820  42.428   1.192  1.00  0.00     0.224 C 
ATOM      6  O   UNL     1      21.134  42.111   0.057  1.00  0.00    -0.303 OA
ENDBRANCH   1   5
TORSDOF 2
ENDMDL
MODEL 5
REMARK VINA RESULT:    -3.036      2.459      3.360
REMARK INTER + INTRA:          -3.432
REMARK INTER:                  -3.396
REMARK INTRA:                  -0.035
REMARK UNBOUND:                -0.041
REMARK SMILES CC(C)CC=O
REMARK SMILES IDX 4 1 2 2 1 3 3 4 5 5 6 6
REMARK H PARENT
REMARK Flexibility Score: inf
ROOT
ATOM      1  C   UNL     1      19.177  44.625  -0.008  1.00  0.00     0.075 C 
ENDROOT
BRANCH   1   2
ATOM      2  C   UNL     1      19.795  43.907   1.213  1.00  0.00    -0.010 C 
ATOM      3  C   UNL     1      20.635  42.689   0.806  1.00  0.00     0.008 C 
ATOM      4  C   UNL     1      18.737  43.527   2.259  1.00  0.00     0.008 C 
ENDBRANCH   1   2
BRANCH   1   5
ATOM      5  C   UNL     1      17.697  44.405  -0.170  1.00  0.00     0.224 C 
ATOM      6  O   UNL     1      16.984  45.327  -0.528  1.00  0.00    -0.303 OA
ENDBRANCH   1   5
TORSDOF 2
ENDMDL
MODEL 6
REMARK VINA RESULT:    -2.916     14.653     15.507
REMARK INTER + INTRA:          -3.298
REMARK INTER:                  -3.244
REMARK INTRA:                  -0.054
REMARK UNBOUND:                -0.041
REMARK SMILES CC(C)CC=O
REMARK SMILES IDX 4 1 2 2 1 3 3 4 5 5 6 6
REMARK H PARENT
REMARK Flexibility Score: inf
ROOT
ATOM      1  C   UNL     1      14.558  42.020 -13.883  1.00  0.00     0.075 C 
ENDROOT
BRANCH   1   2
ATOM      2  C   UNL     1      14.633  43.326 -14.706  1.00  0.00    -0.010 C 
ATOM      3  C   UNL     1      16.002  43.512 -15.375  1.00  0.00     0.008 C 
ATOM      4  C   UNL     1      14.250  44.558 -13.875  1.00  0.00     0.008 C 
ENDBRANCH   1   2
BRANCH   1   5
ATOM      5  C   UNL     1      15.883  41.556 -13.340  1.00  0.00     0.224 C 
ATOM      6  O   UNL     1      16.063  41.518 -12.134  1.00  0.00    -0.303 OA
ENDBRANCH   1   5
TORSDOF 2
ENDMDL
MODEL 7
REMARK VINA RESULT:    -2.879     14.580     15.858
REMARK INTER + INTRA:          -3.256
REMARK INTER:                  -3.220
REMARK INTRA:                  -0.036
REMARK UNBOUND:                -0.041
REMARK SMILES CC(C)CC=O
REMARK SMILES IDX 4 1 2 2 1 3 3 4 5 5 6 6
REMARK H PARENT
REMARK Flexibility Score: inf
ROOT
ATOM      1  C   UNL     1      23.117  55.829  -8.314  1.00  0.00     0.075 C 
ENDROOT
BRANCH   1   2
ATOM      2  C   UNL     1      24.542  55.907  -8.908  1.00  0.00    -0.010 C 
ATOM      3  C   UNL     1      25.545  55.055  -8.119  1.00  0.00     0.008 C 
ATOM      4  C   UNL     1      25.033  57.354  -9.049  1.00  0.00     0.008 C 
ENDBRANCH   1   2
BRANCH   1   5
ATOM      5  C   UNL     1      22.837  54.567  -7.542  1.00  0.00     0.224 C 
ATOM      6  O   UNL     1      22.476  54.636  -6.380  1.00  0.00    -0.303 OA
ENDBRANCH   1   5
TORSDOF 2
ENDMDL
MODEL 8
REMARK VINA RESULT:    -2.845      1.955      2.660
REMARK INTER + INTRA:          -3.219
REMARK INTER:                  -3.159
REMARK INTRA:                  -0.060
REMARK UNBOUND:                -0.041
REMARK SMILES CC(C)CC=O
REMARK SMILES IDX 4 1 2 2 1 3 3 4 5 5 6 6
REMARK H PARENT
REMARK Flexibility Score: inf
ROOT
ATOM      1  C   UNL     1      18.224  42.434   0.982  1.00  0.00     0.075 C 
ENDROOT
BRANCH   1   2
ATOM      2  C   UNL     1      19.381  43.444   1.157  1.00  0.00    -0.010 C 
ATOM      3  C   UNL     1      19.344  44.557   0.102  1.00  0.00     0.008 C 
ATOM      4  C   UNL     1      20.752  42.755   1.189  1.00  0.00     0.008 C 
ENDBRANCH   1   2
BRANCH   1   5
ATOM      5  C   UNL     1      17.711  42.321  -0.429  1.00  0.00     0.224 C 
ATOM      6  O   UNL     1      17.936  41.312  -1.075  1.00  0.00    -0.303 OA
ENDBRANCH   1   5
TORSDOF 2
ENDMDL
MODEL 9
REMARK VINA RESULT:    -2.799      2.268      2.755
REMARK INTER + INTRA:          -3.167
REMARK INTER:                  -3.129
REMARK INTRA:                  -0.038
REMARK UNBOUND:                -0.041
REMARK SMILES CC(C)CC=O
REMARK SMILES IDX 4 1 2 2 1 3 3 4 5 5 6 6
REMARK H PARENT
REMARK Flexibility Score: inf
ROOT
ATOM      1  C   UNL     1      18.404  42.702   0.216  1.00  0.00     0.075 C 
ENDROOT
BRANCH   1   2
ATOM      2  C   UNL     1      19.536  43.741   0.382  1.00  0.00    -0.010 C 
ATOM      3  C   UNL     1      19.909  43.961   1.854  1.00  0.00     0.008 C 
ATOM      4  C   UNL     1      19.209  45.071  -0.312  1.00  0.00     0.008 C 
ENDBRANCH   1   2
BRANCH   1   5
ATOM      5  C   UNL     1      17.500  42.578   1.412  1.00  0.00     0.224 C 
ATOM      6  O   UNL     1      17.229  41.474   1.854  1.00  0.00    -0.303 OA
ENDBRANCH   1   5
TORSDOF 2
ENDMDL
