MODEL 1
REMARK VINA RESULT:    -5.348      0.000      0.000
REMARK INTER + INTRA:          -6.578
REMARK INTER:                  -6.286
REMARK INTRA:                  -0.293
REMARK UNBOUND:                -0.293
REMARK SMILES O=c1cc(-c2ccc(O)c(O)c2)oc2cc(O)cc(O)c12
REMARK SMILES IDX 4 1 3 2 2 3 1 4 21 5 19 6 18 7 16 8 15 9 14 10 13 11 5 12
REMARK SMILES IDX 6 13 7 14 8 15 12 16 10 17 9 18 11 20 20 22 17 24
REMARK H PARENT 9 19 11 21 20 23 17 25
REMARK Flexibility Score: inf
ROOT
ATOM      1  C   UNL     1      28.805  23.272 -13.958  1.00  0.00     0.138 A 
ATOM      2  C   UNL     1      28.322  22.035 -14.406  1.00  0.00     0.100 A 
ATOM      3  C   UNL     1      28.885  21.443 -15.538  1.00  0.00     0.197 A 
ATOM      4  O   UNL     1      28.473  20.305 -15.880  1.00  0.00    -0.289 OA
ATOM      5  C   UNL     1      29.916  22.110 -16.241  1.00  0.00     0.107 A 
ATOM      6  C   UNL     1      30.537  21.623 -17.429  1.00  0.00     0.134 A 
ATOM      7  C   UNL     1      31.628  22.312 -17.972  1.00  0.00     0.093 A 
ATOM      8  C   UNL     1      32.081  23.506 -17.403  1.00  0.00     0.123 A 
ATOM      9  C   UNL     1      31.447  24.019 -16.274  1.00  0.00     0.094 A 
ATOM     10  C   UNL     1      30.379  23.335 -15.689  1.00  0.00     0.146 A 
ATOM     11  O   UNL     1      29.811  23.851 -14.604  1.00  0.00    -0.456 OA
ENDROOT
BRANCH   1  12
ATOM     12  C   UNL     1      28.242  23.946 -12.761  1.00  0.00     0.021 A 
ATOM     13  C   UNL     1      28.528  25.293 -12.466  1.00  0.00     0.016 A 
ATOM     14  C   UNL     1      27.992  25.898 -11.326  1.00  0.00     0.051 A 
ATOM     15  C   UNL     1      27.169  25.170 -10.458  1.00  0.00     0.157 A 
ATOM     16  C   UNL     1      27.424  23.218 -11.877  1.00  0.00     0.062 A 
ATOM     17  C   UNL     1      26.886  23.822 -10.736  1.00  0.00     0.158 A 
BRANCH  15  18
ATOM     18  O   UNL     1      26.634  25.778  -9.323  1.00  0.00    -0.504 OA
ATOM     19  H   UNL     1      27.200  25.958  -8.501  1.00  0.00     0.293 HD
ENDBRANCH  15  18
BRANCH  17  20
ATOM     20  O   UNL     1      26.073  23.069  -9.890  1.00  0.00    -0.504 OA
ATOM     21  H   UNL     1      25.650  23.461  -9.058  1.00  0.00     0.293 HD
ENDBRANCH  17  20
ENDBRANCH   1  12
BRANCH   6  22
ATOM     22  O   UNL     1      30.108  20.487 -18.125  1.00  0.00    -0.507 OA
ATOM     23  H   UNL     1      30.232  20.336 -19.114  1.00  0.00     0.293 HD
ENDBRANCH   6  22
BRANCH   8  24
ATOM     24  O   UNL     1      33.157  24.195 -17.959  1.00  0.00    -0.508 OA
ATOM     25  H   UNL     1      34.026  23.724 -18.188  1.00  0.00     0.293 HD
ENDBRANCH   8  24
TORSDOF 5
ENDMDL
MODEL 2
REMARK VINA RESULT:    -5.307      1.781      2.428
REMARK INTER + INTRA:          -6.530
REMARK INTER:                  -6.267
REMARK INTRA:                  -0.263
REMARK UNBOUND:                -0.293
REMARK SMILES O=c1cc(-c2ccc(O)c(O)c2)oc2cc(O)cc(O)c12
REMARK SMILES IDX 4 1 3 2 2 3 1 4 21 5 19 6 18 7 16 8 15 9 14 10 13 11 5 12
REMARK SMILES IDX 6 13 7 14 8 15 12 16 10 17 9 18 11 20 20 22 17 24
REMARK H PARENT 9 19 11 21 20 23 17 25
REMARK Flexibility Score: inf
ROOT
ATOM      1  C   UNL     1      27.320  23.090 -13.534  1.00  0.00     0.138 A 
ATOM      2  C   UNL     1      26.432  22.006 -13.577  1.00  0.00     0.100 A 
ATOM      3  C   UNL     1      26.654  20.967 -14.482  1.00  0.00     0.197 A 
ATOM      4  O   UNL     1      25.875  19.979 -14.455  1.00  0.00    -0.289 OA
ATOM      5  C   UNL     1      27.754  21.031 -15.370  1.00  0.00     0.107 A 
ATOM      6  C   UNL     1      28.055  20.052 -16.363  1.00  0.00     0.134 A 
ATOM      7  C   UNL     1      29.237  20.163 -17.106  1.00  0.00     0.093 A 
ATOM      8  C   UNL     1      30.096  21.251 -16.935  1.00  0.00     0.123 A 
ATOM      9  C   UNL     1      29.784  22.241 -16.006  1.00  0.00     0.094 A 
ATOM     10  C   UNL     1      28.630  22.141 -15.225  1.00  0.00     0.146 A 
ATOM     11  O   UNL     1      28.375  23.099 -14.340  1.00  0.00    -0.456 OA
ENDROOT
BRANCH   1  12
ATOM     12  C   UNL     1      27.131  24.221 -12.591  1.00  0.00     0.021 A 
ATOM     13  C   UNL     1      26.401  25.370 -12.951  1.00  0.00     0.016 A 
ATOM     14  C   UNL     1      26.248  26.425 -12.047  1.00  0.00     0.051 A 
ATOM     15  C   UNL     1      26.825  26.354 -10.773  1.00  0.00     0.157 A 
ATOM     16  C   UNL     1      27.718  24.164 -11.314  1.00  0.00     0.062 A 
ATOM     17  C   UNL     1      27.566  25.218 -10.406  1.00  0.00     0.158 A 
BRANCH  15  18
ATOM     18  O   UNL     1      26.668  27.408  -9.873  1.00  0.00    -0.504 OA
ATOM     19  H   UNL     1      27.402  28.091  -9.722  1.00  0.00     0.293 HD
ENDBRANCH  15  18
BRANCH  17  20
ATOM     20  O   UNL     1      28.156  25.119  -9.147  1.00  0.00    -0.504 OA
ATOM     21  H   UNL     1      27.675  24.709  -8.357  1.00  0.00     0.293 HD
ENDBRANCH  17  20
ENDBRANCH   1  12
BRANCH   6  22
ATOM     22  O   UNL     1      27.222  18.972 -16.672  1.00  0.00    -0.507 OA
ATOM     23  H   UNL     1      27.299  18.050 -16.271  1.00  0.00     0.293 HD
ENDBRANCH   6  22
BRANCH   8  24
ATOM     24  O   UNL     1      31.262  21.362 -17.690  1.00  0.00    -0.508 OA
ATOM     25  H   UNL     1      32.077  20.791 -17.493  1.00  0.00     0.293 HD
ENDBRANCH   8  24
TORSDOF 5
ENDMDL
MODEL 3
REMARK VINA RESULT:    -5.283      1.924      3.506
REMARK INTER + INTRA:          -6.503
REMARK INTER:                  -6.239
REMARK INTRA:                  -0.263
REMARK UNBOUND:                -0.293
REMARK SMILES O=c1cc(-c2ccc(O)c(O)c2)oc2cc(O)cc(O)c12
REMARK SMILES IDX 4 1 3 2 2 3 1 4 21 5 19 6 18 7 16 8 15 9 14 10 13 11 5 12
REMARK SMILES IDX 6 13 7 14 8 15 12 16 10 17 9 18 11 20 20 22 17 24
REMARK H PARENT 9 19 11 21 20 23 17 25
REMARK Flexibility Score: inf
ROOT
ATOM      1  C   UNL     1      27.847  23.508 -13.644  1.00  0.00     0.138 A 
ATOM      2  C   UNL     1      29.080  23.709 -14.281  1.00  0.00     0.100 A 
ATOM      3  C   UNL     1      29.483  22.840 -15.295  1.00  0.00     0.197 A 
ATOM      4  O   UNL     1      30.566  23.082 -15.889  1.00  0.00    -0.289 OA
ATOM      5  C   UNL     1      28.660  21.746 -15.653  1.00  0.00     0.107 A 
ATOM      6  C   UNL     1      28.985  20.773 -16.643  1.00  0.00     0.134 A 
ATOM      7  C   UNL     1      28.040  19.801 -16.994  1.00  0.00     0.093 A 
ATOM      8  C   UNL     1      26.804  19.731 -16.346  1.00  0.00     0.123 A 
ATOM      9  C   UNL     1      26.497  20.644 -15.340  1.00  0.00     0.094 A 
ATOM     10  C   UNL     1      27.405  21.647 -14.991  1.00  0.00     0.146 A 
ATOM     11  O   UNL     1      27.068  22.506 -14.036  1.00  0.00    -0.456 OA
ENDROOT
BRANCH   1  12
ATOM     12  C   UNL     1      27.371  24.402 -12.558  1.00  0.00     0.021 A 
ATOM     13  C   UNL     1      26.363  25.360 -12.777  1.00  0.00     0.016 A 
ATOM     14  C   UNL     1      25.942  26.196 -11.739  1.00  0.00     0.051 A 
ATOM     15  C   UNL     1      26.524  26.095 -10.469  1.00  0.00     0.157 A 
ATOM     16  C   UNL     1      27.960  24.317 -11.283  1.00  0.00     0.062 A 
ATOM     17  C   UNL     1      27.540  25.152 -10.242  1.00  0.00     0.158 A 
BRANCH  15  18
ATOM     18  O   UNL     1      26.100  26.930  -9.435  1.00  0.00    -0.504 OA
ATOM     19  H   UNL     1      26.759  27.359  -8.796  1.00  0.00     0.293 HD
ENDBRANCH  15  18
BRANCH  17  20
ATOM     20  O   UNL     1      28.142  25.029  -8.991  1.00  0.00    -0.504 OA
ATOM     21  H   UNL     1      29.058  24.616  -8.871  1.00  0.00     0.293 HD
ENDBRANCH  17  20
ENDBRANCH   1  12
BRANCH   6  22
ATOM     22  O   UNL     1      30.223  20.701 -17.290  1.00  0.00    -0.507 OA
ATOM     23  H   UNL     1      31.101  20.993 -16.889  1.00  0.00     0.293 HD
ENDBRANCH   6  22
BRANCH   8  24
ATOM     24  O   UNL     1      25.875  18.751 -16.691  1.00  0.00    -0.508 OA
ATOM     25  H   UNL     1      26.038  17.772 -16.485  1.00  0.00     0.293 HD
ENDBRANCH   8  24
TORSDOF 5
ENDMDL
MODEL 4
REMARK VINA RESULT:    -4.931      1.873      7.407
REMARK INTER + INTRA:          -6.088
REMARK INTER:                  -5.816
REMARK INTRA:                  -0.272
REMARK UNBOUND:                -0.293
REMARK SMILES O=c1cc(-c2ccc(O)c(O)c2)oc2cc(O)cc(O)c12
REMARK SMILES IDX 4 1 3 2 2 3 1 4 21 5 19 6 18 7 16 8 15 9 14 10 13 11 5 12
REMARK SMILES IDX 6 13 7 14 8 15 12 16 10 17 9 18 11 20 20 22 17 24
REMARK H PARENT 9 19 11 21 20 23 17 25
REMARK Flexibility Score: inf
ROOT
ATOM      1  C   UNL     1      29.032  24.645 -14.270  1.00  0.00     0.138 A 
ATOM      2  C   UNL     1      28.422  25.792 -14.799  1.00  0.00     0.100 A 
ATOM      3  C   UNL     1      27.656  26.611 -13.969  1.00  0.00     0.197 A 
ATOM      4  O   UNL     1      27.172  27.665 -14.457  1.00  0.00    -0.289 OA
ATOM      5  C   UNL     1      27.476  26.263 -12.609  1.00  0.00     0.107 A 
ATOM      6  C   UNL     1      26.683  26.999 -11.680  1.00  0.00     0.134 A 
ATOM      7  C   UNL     1      26.673  26.624 -10.331  1.00  0.00     0.093 A 
ATOM      8  C   UNL     1      27.379  25.501  -9.890  1.00  0.00     0.123 A 
ATOM      9  C   UNL     1      28.112  24.743 -10.800  1.00  0.00     0.094 A 
ATOM     10  C   UNL     1      28.170  25.112 -12.146  1.00  0.00     0.146 A 
ATOM     11  O   UNL     1      28.892  24.371 -12.979  1.00  0.00    -0.456 OA
ENDROOT
BRANCH   1  12
ATOM     12  C   UNL     1      29.856  23.739 -15.110  1.00  0.00     0.021 A 
ATOM     13  C   UNL     1      29.673  22.343 -15.092  1.00  0.00     0.016 A 
ATOM     14  C   UNL     1      30.471  21.513 -15.884  1.00  0.00     0.051 A 
ATOM     15  C   UNL     1      31.468  22.060 -16.701  1.00  0.00     0.157 A 
ATOM     16  C   UNL     1      30.869  24.279 -15.923  1.00  0.00     0.062 A 
ATOM     17  C   UNL     1      31.669  23.450 -16.718  1.00  0.00     0.158 A 
BRANCH  15  18
ATOM     18  O   UNL     1      32.261  21.229 -17.491  1.00  0.00    -0.504 OA
ATOM     19  H   UNL     1      31.885  20.395 -17.927  1.00  0.00     0.293 HD
ENDBRANCH  15  18
BRANCH  17  20
ATOM     20  O   UNL     1      32.656  24.025 -17.517  1.00  0.00    -0.504 OA
ATOM     21  H   UNL     1      33.117  23.511 -18.257  1.00  0.00     0.293 HD
ENDBRANCH  17  20
ENDBRANCH   1  12
BRANCH   6  22
ATOM     22  O   UNL     1      25.875  28.085 -12.031  1.00  0.00    -0.507 OA
ATOM     23  H   UNL     1      25.855  28.969 -11.547  1.00  0.00     0.293 HD
ENDBRANCH   6  22
BRANCH   8  24
ATOM     24  O   UNL     1      27.350  25.124  -8.549  1.00  0.00    -0.508 OA
ATOM     25  H   UNL     1      28.076  25.414  -7.902  1.00  0.00     0.293 HD
ENDBRANCH   8  24
TORSDOF 5
ENDMDL
MODEL 5
REMARK VINA RESULT:    -4.853     10.365     11.798
REMARK INTER + INTRA:          -5.996
REMARK INTER:                  -5.725
REMARK INTRA:                  -0.272
REMARK UNBOUND:                -0.293
REMARK SMILES O=c1cc(-c2ccc(O)c(O)c2)oc2cc(O)cc(O)c12
REMARK SMILES IDX 4 1 3 2 2 3 1 4 21 5 19 6 18 7 16 8 15 9 14 10 13 11 5 12
REMARK SMILES IDX 6 13 7 14 8 15 12 16 10 17 9 18 11 20 20 22 17 24
REMARK H PARENT 9 19 11 21 20 23 17 25
REMARK Flexibility Score: inf
ROOT
ATOM      1  C   UNL     1      30.610  34.759 -11.020  1.00  0.00     0.138 A 
ATOM      2  C   UNL     1      29.750  35.402 -11.922  1.00  0.00     0.100 A 
ATOM      3  C   UNL     1      29.930  35.222 -13.294  1.00  0.00     0.197 A 
ATOM      4  O   UNL     1      29.106  35.762 -14.077  1.00  0.00    -0.289 OA
ATOM      5  C   UNL     1      30.996  34.419 -13.764  1.00  0.00     0.107 A 
ATOM      6  C   UNL     1      31.301  34.198 -15.140  1.00  0.00     0.134 A 
ATOM      7  C   UNL     1      32.309  33.289 -15.486  1.00  0.00     0.093 A 
ATOM      8  C   UNL     1      33.063  32.641 -14.505  1.00  0.00     0.123 A 
ATOM      9  C   UNL     1      32.810  32.892 -13.159  1.00  0.00     0.094 A 
ATOM     10  C   UNL     1      31.788  33.767 -12.781  1.00  0.00     0.146 A 
ATOM     11  O   UNL     1      31.568  33.967 -11.486  1.00  0.00    -0.456 OA
ENDROOT
BRANCH   1  12
ATOM     12  C   UNL     1      30.463  34.917  -9.551  1.00  0.00     0.021 A 
ATOM     13  C   UNL     1      30.793  36.121  -8.899  1.00  0.00     0.016 A 
ATOM     14  C   UNL     1      30.656  36.238  -7.513  1.00  0.00     0.051 A 
ATOM     15  C   UNL     1      30.194  35.155  -6.754  1.00  0.00     0.157 A 
ATOM     16  C   UNL     1      30.013  33.830  -8.779  1.00  0.00     0.062 A 
ATOM     17  C   UNL     1      29.874  33.945  -7.391  1.00  0.00     0.158 A 
BRANCH  15  18
ATOM     18  O   UNL     1      30.057  35.276  -5.372  1.00  0.00    -0.504 OA
ATOM     19  H   UNL     1      30.551  34.663  -4.733  1.00  0.00     0.293 HD
ENDBRANCH  15  18
BRANCH  17  20
ATOM     20  O   UNL     1      29.416  32.847  -6.663  1.00  0.00    -0.504 OA
ATOM     21  H   UNL     1      30.048  32.183  -6.234  1.00  0.00     0.293 HD
ENDBRANCH  17  20
ENDBRANCH   1  12
BRANCH   6  22
ATOM     22  O   UNL     1      30.665  34.857 -16.197  1.00  0.00    -0.507 OA
ATOM     23  H   UNL     1      30.347  34.414 -17.045  1.00  0.00     0.293 HD
ENDBRANCH   6  22
BRANCH   8  24
ATOM     24  O   UNL     1      34.075  31.751 -14.858  1.00  0.00    -0.508 OA
ATOM     25  H   UNL     1      34.615  31.873 -15.708  1.00  0.00     0.293 HD
ENDBRANCH   8  24
TORSDOF 5
ENDMDL
MODEL 6
REMARK VINA RESULT:    -4.656      3.401      5.346
REMARK INTER + INTRA:          -5.765
REMARK INTER:                  -5.492
REMARK INTRA:                  -0.273
REMARK UNBOUND:                -0.293
REMARK SMILES O=c1cc(-c2ccc(O)c(O)c2)oc2cc(O)cc(O)c12
REMARK SMILES IDX 4 1 3 2 2 3 1 4 21 5 19 6 18 7 16 8 15 9 14 10 13 11 5 12
REMARK SMILES IDX 6 13 7 14 8 15 12 16 10 17 9 18 11 20 20 22 17 24
REMARK H PARENT 9 19 11 21 20 23 17 25
REMARK Flexibility Score: inf
ROOT
ATOM      1  C   UNL     1      28.097  25.497 -13.762  1.00  0.00     0.138 A 
ATOM      2  C   UNL     1      27.256  25.148 -12.695  1.00  0.00     0.100 A 
ATOM      3  C   UNL     1      27.401  23.904 -12.080  1.00  0.00     0.197 A 
ATOM      4  O   UNL     1      26.674  23.644 -11.087  1.00  0.00    -0.289 OA
ATOM      5  C   UNL     1      28.373  22.993 -12.557  1.00  0.00     0.107 A 
ATOM      6  C   UNL     1      28.584  21.682 -12.036  1.00  0.00     0.134 A 
ATOM      7  C   UNL     1      29.654  20.913 -12.511  1.00  0.00     0.093 A 
ATOM      8  C   UNL     1      30.483  21.385 -13.532  1.00  0.00     0.123 A 
ATOM      9  C   UNL     1      30.252  22.642 -14.086  1.00  0.00     0.094 A 
ATOM     10  C   UNL     1      29.215  23.447 -13.609  1.00  0.00     0.146 A 
ATOM     11  O   UNL     1      29.037  24.646 -14.154  1.00  0.00    -0.456 OA
ENDROOT
BRANCH   1  12
ATOM     12  C   UNL     1      27.984  26.807 -14.452  1.00  0.00     0.021 A 
ATOM     13  C   UNL     1      27.987  26.906 -15.856  1.00  0.00     0.016 A 
ATOM     14  C   UNL     1      27.890  28.154 -16.479  1.00  0.00     0.051 A 
ATOM     15  C   UNL     1      27.797  29.322 -15.712  1.00  0.00     0.157 A 
ATOM     16  C   UNL     1      27.903  27.987 -13.689  1.00  0.00     0.062 A 
ATOM     17  C   UNL     1      27.805  29.237 -14.310  1.00  0.00     0.158 A 
BRANCH  15  18
ATOM     18  O   UNL     1      27.699  30.565 -16.337  1.00  0.00    -0.504 OA
ATOM     19  H   UNL     1      26.803  31.015 -16.486  1.00  0.00     0.293 HD
ENDBRANCH  15  18
BRANCH  17  20
ATOM     20  O   UNL     1      27.718  30.381 -13.518  1.00  0.00    -0.504 OA
ATOM     21  H   UNL     1      27.650  30.335 -12.510  1.00  0.00     0.293 HD
ENDBRANCH  17  20
ENDBRANCH   1  12
BRANCH   6  22
ATOM     22  O   UNL     1      27.763  21.083 -11.075  1.00  0.00    -0.507 OA
ATOM     23  H   UNL     1      26.761  21.184 -11.028  1.00  0.00     0.293 HD
ENDBRANCH   6  22
BRANCH   8  24
ATOM     24  O   UNL     1      31.535  20.607 -14.010  1.00  0.00    -0.508 OA
ATOM     25  H   UNL     1      31.373  19.706 -14.445  1.00  0.00     0.293 HD
ENDBRANCH   8  24
TORSDOF 5
ENDMDL
MODEL 7
REMARK VINA RESULT:    -4.625      3.487      4.764
REMARK INTER + INTRA:          -5.729
REMARK INTER:                  -5.412
REMARK INTRA:                  -0.317
REMARK UNBOUND:                -0.293
REMARK SMILES O=c1cc(-c2ccc(O)c(O)c2)oc2cc(O)cc(O)c12
REMARK SMILES IDX 4 1 3 2 2 3 1 4 21 5 19 6 18 7 16 8 15 9 14 10 13 11 5 12
REMARK SMILES IDX 6 13 7 14 8 15 12 16 10 17 9 18 11 20 20 22 17 24
REMARK H PARENT 9 19 11 21 20 23 17 25
REMARK Flexibility Score: inf
ROOT
ATOM      1  C   UNL     1      28.910  25.530 -15.152  1.00  0.00     0.138 A 
ATOM      2  C   UNL     1      29.554  25.003 -16.281  1.00  0.00     0.100 A 
ATOM      3  C   UNL     1      30.143  23.740 -16.212  1.00  0.00     0.197 A 
ATOM      4  O   UNL     1      30.660  23.268 -17.257  1.00  0.00    -0.289 OA
ATOM      5  C   UNL     1      30.113  23.015 -14.996  1.00  0.00     0.107 A 
ATOM      6  C   UNL     1      30.715  21.738 -14.797  1.00  0.00     0.134 A 
ATOM      7  C   UNL     1      30.519  21.064 -13.585  1.00  0.00     0.093 A 
ATOM      8  C   UNL     1      29.795  21.649 -12.543  1.00  0.00     0.123 A 
ATOM      9  C   UNL     1      29.248  22.920 -12.709  1.00  0.00     0.094 A 
ATOM     10  C   UNL     1      29.396  23.603 -13.918  1.00  0.00     0.146 A 
ATOM     11  O   UNL     1      28.848  24.807 -14.041  1.00  0.00    -0.456 OA
ENDROOT
BRANCH   1  12
ATOM     12  C   UNL     1      28.268  26.869 -15.171  1.00  0.00     0.021 A 
ATOM     13  C   UNL     1      28.149  27.616 -16.359  1.00  0.00     0.016 A 
ATOM     14  C   UNL     1      27.550  28.879 -16.345  1.00  0.00     0.051 A 
ATOM     15  C   UNL     1      27.067  29.420 -15.147  1.00  0.00     0.157 A 
ATOM     16  C   UNL     1      27.792  27.426 -13.970  1.00  0.00     0.062 A 
ATOM     17  C   UNL     1      27.191  28.690 -13.954  1.00  0.00     0.158 A 
BRANCH  15  18
ATOM     18  O   UNL     1      26.469  30.679 -15.138  1.00  0.00    -0.504 OA
ATOM     19  H   UNL     1      25.643  30.879 -15.691  1.00  0.00     0.293 HD
ENDBRANCH  15  18
BRANCH  17  20
ATOM     20  O   UNL     1      26.724  29.202 -12.744  1.00  0.00    -0.504 OA
ATOM     21  H   UNL     1      27.345  29.608 -12.055  1.00  0.00     0.293 HD
ENDBRANCH  17  20
ENDBRANCH   1  12
BRANCH   6  22
ATOM     22  O   UNL     1      31.528  21.101 -15.740  1.00  0.00    -0.507 OA
ATOM     23  H   UNL     1      32.373  21.490 -16.128  1.00  0.00     0.293 HD
ENDBRANCH   6  22
BRANCH   8  24
ATOM     24  O   UNL     1      29.618  20.979 -11.335  1.00  0.00    -0.508 OA
ATOM     25  H   UNL     1      30.227  21.148 -10.541  1.00  0.00     0.293 HD
ENDBRANCH   8  24
TORSDOF 5
ENDMDL
MODEL 8
REMARK VINA RESULT:    -4.530      1.908      7.040
REMARK INTER + INTRA:          -5.617
REMARK INTER:                  -5.303
REMARK INTRA:                  -0.314
REMARK UNBOUND:                -0.293
REMARK SMILES O=c1cc(-c2ccc(O)c(O)c2)oc2cc(O)cc(O)c12
REMARK SMILES IDX 4 1 3 2 2 3 1 4 21 5 19 6 18 7 16 8 15 9 14 10 13 11 5 12
REMARK SMILES IDX 6 13 7 14 8 15 12 16 10 17 9 18 11 20 20 22 17 24
REMARK H PARENT 9 19 11 21 20 23 17 25
REMARK Flexibility Score: inf
ROOT
ATOM      1  C   UNL     1      29.295  23.949 -14.345  1.00  0.00     0.138 A 
ATOM      2  C   UNL     1      28.828  23.232 -13.234  1.00  0.00     0.100 A 
ATOM      3  C   UNL     1      27.937  23.838 -12.347  1.00  0.00     0.197 A 
ATOM      4  O   UNL     1      27.488  23.150 -11.394  1.00  0.00    -0.289 OA
ATOM      5  C   UNL     1      27.537  25.179 -12.558  1.00  0.00     0.107 A 
ATOM      6  C   UNL     1      26.667  25.912 -11.698  1.00  0.00     0.134 A 
ATOM      7  C   UNL     1      26.248  27.195 -12.071  1.00  0.00     0.093 A 
ATOM      8  C   UNL     1      26.718  27.795 -13.242  1.00  0.00     0.123 A 
ATOM      9  C   UNL     1      27.611  27.109 -14.061  1.00  0.00     0.094 A 
ATOM     10  C   UNL     1      28.020  25.813 -13.735  1.00  0.00     0.146 A 
ATOM     11  O   UNL     1      28.861  25.187 -14.550  1.00  0.00    -0.456 OA
ENDROOT
BRANCH   1  12
ATOM     12  C   UNL     1      30.244  23.352 -15.319  1.00  0.00     0.021 A 
ATOM     13  C   UNL     1      30.469  21.964 -15.378  1.00  0.00     0.016 A 
ATOM     14  C   UNL     1      31.377  21.431 -16.298  1.00  0.00     0.051 A 
ATOM     15  C   UNL     1      32.079  22.274 -17.168  1.00  0.00     0.157 A 
ATOM     16  C   UNL     1      30.963  24.193 -16.189  1.00  0.00     0.062 A 
ATOM     17  C   UNL     1      31.871  23.662 -17.111  1.00  0.00     0.158 A 
BRANCH  15  18
ATOM     18  O   UNL     1      32.982  21.738 -18.086  1.00  0.00    -0.504 OA
ATOM     19  H   UNL     1      33.751  21.148 -17.791  1.00  0.00     0.293 HD
ENDBRANCH  15  18
BRANCH  17  20
ATOM     20  O   UNL     1      32.558  24.528 -17.961  1.00  0.00    -0.504 OA
ATOM     21  H   UNL     1      33.422  24.979 -17.688  1.00  0.00     0.293 HD
ENDBRANCH  17  20
ENDBRANCH   1  12
BRANCH   6  22
ATOM     22  O   UNL     1      26.207  25.440 -10.465  1.00  0.00    -0.507 OA
ATOM     23  H   UNL     1      25.544  25.918  -9.875  1.00  0.00     0.293 HD
ENDBRANCH   6  22
BRANCH   8  24
ATOM     24  O   UNL     1      26.308  29.079 -13.597  1.00  0.00    -0.508 OA
ATOM     25  H   UNL     1      26.222  29.357 -14.569  1.00  0.00     0.293 HD
ENDBRANCH   8  24
TORSDOF 5
ENDMDL
