MODEL 1
REMARK VINA RESULT:    -6.552      0.000      0.000
REMARK INTER + INTRA:          -6.552
REMARK INTER:                  -6.552
REMARK INTRA:                   0.000
REMARK UNBOUND:                 0.000
REMARK SMILES Cc1cc2cc3c(C)cc(=O)oc3c(C)c2o1
REMARK SMILES IDX 8 1 7 2 9 3 10 4 11 5 12 6 13 7 6 8 5 9 4 10 3 11 2 12 17 13
REMARK SMILES IDX 16 14 14 15 15 16 1 17
REMARK H PARENT
REMARK Flexibility Score: inf
ROOT
ATOM      1  C   UNL     1     -61.288 -80.617 225.073  1.00  0.00     0.045 C 
ATOM      2  C   UNL     1     -62.250 -79.490 224.799  1.00  0.00    -0.033 A 
ATOM      3  C   UNL     1     -63.278 -79.228 225.714  1.00  0.00     0.098 A 
ATOM      4  C   UNL     1     -64.174 -78.186 225.466  1.00  0.00     0.336 A 
ATOM      5  O   UNL     1     -65.099 -77.948 226.285  1.00  0.00    -0.246 OA
ATOM      6  O   UNL     1     -64.059 -77.444 224.373  1.00  0.00    -0.422 OA
ATOM      7  C   UNL     1     -63.108 -77.636 223.463  1.00  0.00     0.145 A 
ATOM      8  C   UNL     1     -62.150 -78.686 223.641  1.00  0.00     0.022 A 
ATOM      9  C   UNL     1     -61.147 -78.890 222.663  1.00  0.00     0.024 A 
ATOM     10  C   UNL     1     -61.135 -78.053 221.553  1.00  0.00     0.022 A 
ATOM     11  C   UNL     1     -60.298 -78.030 220.461  1.00  0.00     0.054 A 
ATOM     12  C   UNL     1     -60.781 -76.984 219.684  1.00  0.00     0.102 A 
ATOM     13  O   UNL     1     -61.825 -76.415 220.258  1.00  0.00    -0.461 OA
ATOM     14  C   UNL     1     -62.050 -77.050 221.384  1.00  0.00     0.140 A 
ATOM     15  C   UNL     1     -63.052 -76.798 222.324  1.00  0.00     0.036 A 
ATOM     16  C   UNL     1     -64.065 -75.710 222.108  1.00  0.00     0.052 C 
ATOM     17  C   UNL     1     -60.202 -76.540 218.383  1.00  0.00     0.087 C 
ENDROOT
TORSDOF 0
ENDMDL
MODEL 2
REMARK VINA RESULT:    -6.196      0.859      5.215
REMARK INTER + INTRA:          -6.196
REMARK INTER:                  -6.196
REMARK INTRA:                   0.000
REMARK UNBOUND:                 0.000
REMARK SMILES Cc1cc2cc3c(C)cc(=O)oc3c(C)c2o1
REMARK SMILES IDX 8 1 7 2 9 3 10 4 11 5 12 6 13 7 6 8 5 9 4 10 3 11 2 12 17 13
REMARK SMILES IDX 16 14 14 15 15 16 1 17
REMARK H PARENT
REMARK Flexibility Score: inf
ROOT
ATOM      1  C   UNL     1     -59.020 -79.327 220.681  1.00  0.00     0.045 C 
ATOM      2  C   UNL     1     -60.143 -78.332 220.535  1.00  0.00    -0.033 A 
ATOM      3  C   UNL     1     -60.220 -77.553 219.373  1.00  0.00     0.098 A 
ATOM      4  C   UNL     1     -61.256 -76.627 219.230  1.00  0.00     0.336 A 
ATOM      5  O   UNL     1     -61.328 -75.924 218.189  1.00  0.00    -0.246 OA
ATOM      6  O   UNL     1     -62.166 -76.482 220.184  1.00  0.00    -0.422 OA
ATOM      7  C   UNL     1     -62.154 -77.189 221.311  1.00  0.00     0.145 A 
ATOM      8  C   UNL     1     -61.124 -78.157 221.537  1.00  0.00     0.022 A 
ATOM      9  C   UNL     1     -61.113 -78.899 222.743  1.00  0.00     0.024 A 
ATOM     10  C   UNL     1     -62.116 -78.650 223.673  1.00  0.00     0.022 A 
ATOM     11  C   UNL     1     -62.342 -79.204 224.912  1.00  0.00     0.054 A 
ATOM     12  C   UNL     1     -63.481 -78.554 225.373  1.00  0.00     0.102 A 
ATOM     13  O   UNL     1     -63.914 -77.679 224.485  1.00  0.00    -0.461 OA
ATOM     14  C   UNL     1     -63.101 -77.725 223.457  1.00  0.00     0.140 A 
ATOM     15  C   UNL     1     -63.165 -76.976 222.279  1.00  0.00     0.036 A 
ATOM     16  C   UNL     1     -64.238 -75.945 222.071  1.00  0.00     0.052 C 
ATOM     17  C   UNL     1     -64.146 -78.809 226.683  1.00  0.00     0.087 C 
ENDROOT
TORSDOF 0
ENDMDL
MODEL 3
REMARK VINA RESULT:    -6.176      2.741      2.943
REMARK INTER + INTRA:          -6.176
REMARK INTER:                  -6.176
REMARK INTRA:                   0.000
REMARK UNBOUND:                 0.000
REMARK SMILES Cc1cc2cc3c(C)cc(=O)oc3c(C)c2o1
REMARK SMILES IDX 8 1 7 2 9 3 10 4 11 5 12 6 13 7 6 8 5 9 4 10 3 11 2 12 17 13
REMARK SMILES IDX 16 14 14 15 15 16 1 17
REMARK H PARENT
REMARK Flexibility Score: inf
ROOT
ATOM      1  C   UNL     1     -66.429 -80.495 222.121  1.00  0.00     0.045 C 
ATOM      2  C   UNL     1     -66.180 -79.051 222.477  1.00  0.00    -0.033 A 
ATOM      3  C   UNL     1     -67.054 -78.403 223.359  1.00  0.00     0.098 A 
ATOM      4  C   UNL     1     -66.832 -77.066 223.692  1.00  0.00     0.336 A 
ATOM      5  O   UNL     1     -67.615 -76.479 224.484  1.00  0.00    -0.246 OA
ATOM      6  O   UNL     1     -65.801 -76.406 223.181  1.00  0.00    -0.422 OA
ATOM      7  C   UNL     1     -64.933 -76.959 222.338  1.00  0.00     0.145 A 
ATOM      8  C   UNL     1     -65.091 -78.326 221.944  1.00  0.00     0.022 A 
ATOM      9  C   UNL     1     -64.168 -78.904 221.039  1.00  0.00     0.024 A 
ATOM     10  C   UNL     1     -63.133 -78.108 220.562  1.00  0.00     0.022 A 
ATOM     11  C   UNL     1     -62.116 -78.398 219.682  1.00  0.00     0.054 A 
ATOM     12  C   UNL     1     -61.401 -77.210 219.584  1.00  0.00     0.102 A 
ATOM     13  O   UNL     1     -61.937 -76.275 220.346  1.00  0.00    -0.461 OA
ATOM     14  C   UNL     1     -62.981 -76.801 220.940  1.00  0.00     0.140 A 
ATOM     15  C   UNL     1     -63.856 -76.186 221.840  1.00  0.00     0.036 A 
ATOM     16  C   UNL     1     -63.691 -74.743 222.221  1.00  0.00     0.052 C 
ATOM     17  C   UNL     1     -60.182 -77.005 218.749  1.00  0.00     0.087 C 
ENDROOT
TORSDOF 0
ENDMDL
MODEL 4
REMARK VINA RESULT:    -6.105      1.707      4.695
REMARK INTER + INTRA:          -6.105
REMARK INTER:                  -6.105
REMARK INTRA:                   0.000
REMARK UNBOUND:                 0.000
REMARK SMILES Cc1cc2cc3c(C)cc(=O)oc3c(C)c2o1
REMARK SMILES IDX 8 1 7 2 9 3 10 4 11 5 12 6 13 7 6 8 5 9 4 10 3 11 2 12 17 13
REMARK SMILES IDX 16 14 14 15 15 16 1 17
REMARK H PARENT
REMARK Flexibility Score: inf
ROOT
ATOM      1  C   UNL     1     -61.011 -76.967 219.938  1.00  0.00     0.045 C 
ATOM      2  C   UNL     1     -61.887 -76.922 221.163  1.00  0.00    -0.033 A 
ATOM      3  C   UNL     1     -62.776 -75.853 221.332  1.00  0.00     0.098 A 
ATOM      4  C   UNL     1     -63.589 -75.802 222.465  1.00  0.00     0.336 A 
ATOM      5  O   UNL     1     -64.388 -74.843 222.621  1.00  0.00    -0.246 OA
ATOM      6  O   UNL     1     -63.527 -76.759 223.382  1.00  0.00    -0.422 OA
ATOM      7  C   UNL     1     -62.708 -77.803 223.286  1.00  0.00     0.145 A 
ATOM      8  C   UNL     1     -61.839 -77.928 222.155  1.00  0.00     0.022 A 
ATOM      9  C   UNL     1     -60.963 -79.037 222.066  1.00  0.00     0.024 A 
ATOM     10  C   UNL     1     -60.981 -79.970 223.096  1.00  0.00     0.022 A 
ATOM     11  C   UNL     1     -60.244 -81.118 223.273  1.00  0.00     0.054 A 
ATOM     12  C   UNL     1     -60.694 -81.627 224.486  1.00  0.00     0.102 A 
ATOM     13  O   UNL     1     -61.631 -80.853 225.002  1.00  0.00    -0.461 OA
ATOM     14  C   UNL     1     -61.813 -79.851 224.176  1.00  0.00     0.140 A 
ATOM     15  C   UNL     1     -62.705 -78.783 224.307  1.00  0.00     0.036 A 
ATOM     16  C   UNL     1     -63.590 -78.654 225.514  1.00  0.00     0.052 C 
ATOM     17  C   UNL     1     -60.207 -82.884 225.126  1.00  0.00     0.087 C 
ENDROOT
TORSDOF 0
ENDMDL
MODEL 5
REMARK VINA RESULT:    -5.787      1.826      6.019
REMARK INTER + INTRA:          -5.787
REMARK INTER:                  -5.787
REMARK INTRA:                   0.000
REMARK UNBOUND:                 0.000
REMARK SMILES Cc1cc2cc3c(C)cc(=O)oc3c(C)c2o1
REMARK SMILES IDX 8 1 7 2 9 3 10 4 11 5 12 6 13 7 6 8 5 9 4 10 3 11 2 12 17 13
REMARK SMILES IDX 16 14 14 15 15 16 1 17
REMARK H PARENT
REMARK Flexibility Score: inf
ROOT
ATOM      1  C   UNL     1     -63.447 -75.519 221.903  1.00  0.00     0.045 C 
ATOM      2  C   UNL     1     -62.676 -76.777 222.210  1.00  0.00    -0.033 A 
ATOM      3  C   UNL     1     -61.491 -77.042 221.512  1.00  0.00     0.098 A 
ATOM      4  C   UNL     1     -60.773 -78.207 221.788  1.00  0.00     0.336 A 
ATOM      5  O   UNL     1     -59.708 -78.449 221.163  1.00  0.00    -0.246 OA
ATOM      6  O   UNL     1     -61.203 -79.062 222.707  1.00  0.00    -0.422 OA
ATOM      7  C   UNL     1     -62.318 -78.873 223.407  1.00  0.00     0.145 A 
ATOM      8  C   UNL     1     -63.114 -77.705 223.182  1.00  0.00     0.022 A 
ATOM      9  C   UNL     1     -64.305 -77.516 223.925  1.00  0.00     0.024 A 
ATOM     10  C   UNL     1     -64.658 -78.489 224.853  1.00  0.00     0.022 A 
ATOM     11  C   UNL     1     -65.746 -78.570 225.691  1.00  0.00     0.054 A 
ATOM     12  C   UNL     1     -65.561 -79.767 226.374  1.00  0.00     0.102 A 
ATOM     13  O   UNL     1     -64.449 -80.363 225.985  1.00  0.00    -0.461 OA
ATOM     14  C   UNL     1     -63.896 -79.605 225.069  1.00  0.00     0.140 A 
ATOM     15  C   UNL     1     -62.706 -79.833 224.372  1.00  0.00     0.036 A 
ATOM     16  C   UNL     1     -61.897 -81.078 224.602  1.00  0.00     0.052 C 
ATOM     17  C   UNL     1     -66.476 -80.311 227.419  1.00  0.00     0.087 C 
ENDROOT
TORSDOF 0
ENDMDL
MODEL 6
REMARK VINA RESULT:    -5.707      2.690      5.356
REMARK INTER + INTRA:          -5.707
REMARK INTER:                  -5.707
REMARK INTRA:                   0.000
REMARK UNBOUND:                 0.000
REMARK SMILES Cc1cc2cc3c(C)cc(=O)oc3c(C)c2o1
REMARK SMILES IDX 8 1 7 2 9 3 10 4 11 5 12 6 13 7 6 8 5 9 4 10 3 11 2 12 17 13
REMARK SMILES IDX 16 14 14 15 15 16 1 17
REMARK H PARENT
REMARK Flexibility Score: inf
ROOT
ATOM      1  C   UNL     1     -64.008 -75.919 222.506  1.00  0.00     0.045 C 
ATOM      2  C   UNL     1     -63.020 -76.399 221.474  1.00  0.00    -0.033 A 
ATOM      3  C   UNL     1     -63.080 -75.880 220.175  1.00  0.00     0.098 A 
ATOM      4  C   UNL     1     -62.169 -76.321 219.213  1.00  0.00     0.336 A 
ATOM      5  O   UNL     1     -62.220 -75.858 218.044  1.00  0.00    -0.246 OA
ATOM      6  O   UNL     1     -61.249 -77.225 219.520  1.00  0.00    -0.422 OA
ATOM      7  C   UNL     1     -61.134 -77.759 220.733  1.00  0.00     0.145 A 
ATOM      8  C   UNL     1     -62.031 -77.362 221.776  1.00  0.00     0.022 A 
ATOM      9  C   UNL     1     -61.909 -77.942 223.062  1.00  0.00     0.024 A 
ATOM     10  C   UNL     1     -60.910 -78.889 223.261  1.00  0.00     0.022 A 
ATOM     11  C   UNL     1     -60.574 -79.610 224.383  1.00  0.00     0.054 A 
ATOM     12  C   UNL     1     -59.505 -80.399 223.973  1.00  0.00     0.102 A 
ATOM     13  O   UNL     1     -59.213 -80.173 222.705  1.00  0.00    -0.461 OA
ATOM     14  C   UNL     1     -60.052 -79.267 222.264  1.00  0.00     0.140 A 
ATOM     15  C   UNL     1     -60.122 -78.716 220.981  1.00  0.00     0.036 A 
ATOM     16  C   UNL     1     -59.189 -79.164 219.892  1.00  0.00     0.052 C 
ATOM     17  C   UNL     1     -58.766 -81.364 224.838  1.00  0.00     0.087 C 
ENDROOT
TORSDOF 0
ENDMDL
MODEL 7
REMARK VINA RESULT:    -5.692      1.751      3.564
REMARK INTER + INTRA:          -5.692
REMARK INTER:                  -5.692
REMARK INTRA:                   0.000
REMARK UNBOUND:                 0.000
REMARK SMILES Cc1cc2cc3c(C)cc(=O)oc3c(C)c2o1
REMARK SMILES IDX 8 1 7 2 9 3 10 4 11 5 12 6 13 7 6 8 5 9 4 10 3 11 2 12 17 13
REMARK SMILES IDX 16 14 14 15 15 16 1 17
REMARK H PARENT
REMARK Flexibility Score: inf
ROOT
ATOM      1  C   UNL     1     -63.854 -75.768 222.115  1.00  0.00     0.045 C 
ATOM      2  C   UNL     1     -62.947 -76.929 222.431  1.00  0.00    -0.033 A 
ATOM      3  C   UNL     1     -63.141 -77.646 223.619  1.00  0.00     0.098 A 
ATOM      4  C   UNL     1     -62.303 -78.721 223.921  1.00  0.00     0.336 A 
ATOM      5  O   UNL     1     -62.473 -79.367 224.987  1.00  0.00    -0.246 OA
ATOM      6  O   UNL     1     -61.328 -79.070 223.092  1.00  0.00    -0.422 OA
ATOM      7  C   UNL     1     -61.088 -78.435 221.948  1.00  0.00     0.145 A 
ATOM      8  C   UNL     1     -61.900 -77.319 221.566  1.00  0.00     0.022 A 
ATOM      9  C   UNL     1     -61.632 -76.642 220.351  1.00  0.00     0.024 A 
ATOM     10  C   UNL     1     -60.574 -77.094 219.570  1.00  0.00     0.022 A 
ATOM     11  C   UNL     1     -60.089 -76.630 218.370  1.00  0.00     0.054 A 
ATOM     12  C   UNL     1     -59.021 -77.472 218.085  1.00  0.00     0.102 A 
ATOM     13  O   UNL     1     -58.871 -78.378 219.034  1.00  0.00    -0.461 OA
ATOM     14  C   UNL     1     -59.799 -78.161 219.935  1.00  0.00     0.140 A 
ATOM     15  C   UNL     1     -60.029 -78.871 221.117  1.00  0.00     0.036 A 
ATOM     16  C   UNL     1     -59.150 -80.023 221.515  1.00  0.00     0.052 C 
ATOM     17  C   UNL     1     -58.159 -77.390 216.870  1.00  0.00     0.087 C 
ENDROOT
TORSDOF 0
ENDMDL
MODEL 8
REMARK VINA RESULT:    -5.665      1.732      5.902
REMARK INTER + INTRA:          -5.665
REMARK INTER:                  -5.665
REMARK INTRA:                   0.000
REMARK UNBOUND:                 0.000
REMARK SMILES Cc1cc2cc3c(C)cc(=O)oc3c(C)c2o1
REMARK SMILES IDX 8 1 7 2 9 3 10 4 11 5 12 6 13 7 6 8 5 9 4 10 3 11 2 12 17 13
REMARK SMILES IDX 16 14 14 15 15 16 1 17
REMARK H PARENT
REMARK Flexibility Score: inf
ROOT
ATOM      1  C   UNL     1     -62.376 -76.253 219.188  1.00  0.00     0.045 C 
ATOM      2  C   UNL     1     -61.396 -77.147 219.904  1.00  0.00    -0.033 A 
ATOM      3  C   UNL     1     -60.202 -77.504 219.264  1.00  0.00     0.098 A 
ATOM      4  C   UNL     1     -59.289 -78.334 219.918  1.00  0.00     0.336 A 
ATOM      5  O   UNL     1     -58.216 -78.659 219.347  1.00  0.00    -0.246 OA
ATOM      6  O   UNL     1     -59.544 -78.784 221.140  1.00  0.00    -0.422 OA
ATOM      7  C   UNL     1     -60.656 -78.485 221.806  1.00  0.00     0.145 A 
ATOM      8  C   UNL     1     -61.644 -77.642 221.204  1.00  0.00     0.022 A 
ATOM      9  C   UNL     1     -62.829 -77.335 221.915  1.00  0.00     0.024 A 
ATOM     10  C   UNL     1     -62.988 -77.876 223.186  1.00  0.00     0.022 A 
ATOM     11  C   UNL     1     -64.023 -77.758 224.084  1.00  0.00     0.054 A 
ATOM     12  C   UNL     1     -63.621 -78.524 225.171  1.00  0.00     0.102 A 
ATOM     13  O   UNL     1     -62.435 -79.062 224.954  1.00  0.00    -0.461 OA
ATOM     14  C   UNL     1     -62.042 -78.681 223.762  1.00  0.00     0.140 A 
ATOM     15  C   UNL     1     -60.850 -79.004 223.108  1.00  0.00     0.036 A 
ATOM     16  C   UNL     1     -59.837 -79.912 223.744  1.00  0.00     0.052 C 
ATOM     17  C   UNL     1     -64.402 -78.712 226.428  1.00  0.00     0.087 C 
ENDROOT
TORSDOF 0
ENDMDL
MODEL 9
REMARK VINA RESULT:    -5.629      1.452      2.774
REMARK INTER + INTRA:          -5.629
REMARK INTER:                  -5.629
REMARK INTRA:                   0.000
REMARK UNBOUND:                 0.000
REMARK SMILES Cc1cc2cc3c(C)cc(=O)oc3c(C)c2o1
REMARK SMILES IDX 8 1 7 2 9 3 10 4 11 5 12 6 13 7 6 8 5 9 4 10 3 11 2 12 17 13
REMARK SMILES IDX 16 14 14 15 15 16 1 17
REMARK H PARENT
REMARK Flexibility Score: inf
ROOT
ATOM      1  C   UNL     1     -66.502 -77.289 223.256  1.00  0.00     0.045 C 
ATOM      2  C   UNL     1     -65.223 -77.911 223.756  1.00  0.00    -0.033 A 
ATOM      3  C   UNL     1     -65.216 -78.554 225.001  1.00  0.00     0.098 A 
ATOM      4  C   UNL     1     -64.035 -79.131 225.473  1.00  0.00     0.336 A 
ATOM      5  O   UNL     1     -64.023 -79.709 226.590  1.00  0.00    -0.246 OA
ATOM      6  O   UNL     1     -62.923 -79.076 224.751  1.00  0.00    -0.422 OA
ATOM      7  C   UNL     1     -62.859 -78.482 223.563  1.00  0.00     0.145 A 
ATOM      8  C   UNL     1     -64.025 -77.864 223.009  1.00  0.00     0.022 A 
ATOM      9  C   UNL     1     -63.946 -77.226 221.747  1.00  0.00     0.024 A 
ATOM     10  C   UNL     1     -62.721 -77.224 221.090  1.00  0.00     0.022 A 
ATOM     11  C   UNL     1     -62.357 -76.680 219.880  1.00  0.00     0.054 A 
ATOM     12  C   UNL     1     -61.007 -76.988 219.760  1.00  0.00     0.102 A 
ATOM     13  O   UNL     1     -60.585 -77.668 220.810  1.00  0.00    -0.461 OA
ATOM     14  C   UNL     1     -61.606 -77.816 221.620  1.00  0.00     0.140 A 
ATOM     15  C   UNL     1     -61.633 -78.469 222.855  1.00  0.00     0.036 A 
ATOM     16  C   UNL     1     -60.393 -79.089 223.433  1.00  0.00     0.052 C 
ATOM     17  C   UNL     1     -60.141 -76.624 218.601  1.00  0.00     0.087 C 
ENDROOT
TORSDOF 0
ENDMDL
