MODEL 1
REMARK VINA RESULT:    -4.883      0.000      0.000
REMARK INTER + INTRA:          -6.440
REMARK INTER:                  -6.881
REMARK INTRA:                   0.441
REMARK UNBOUND:                 0.441
REMARK SMILES CC1=CCC(=C(C)C)C(=O)CC(C)=CCC1
REMARK SMILES IDX 12 1 14 2 13 3 15 4 16 5 2 6 1 7 3 8 11 10 9 11 10 12 5 13
REMARK SMILES IDX 6 14 7 15 8 16 4 17
REMARK H PARENT
REMARK Flexibility Score: 60.00
ROOT
ATOM      1  C   UNL     1     -12.972 -33.329  30.825  1.00  0.00    -0.070 C 
ATOM      2  C   UNL     1     -13.845 -32.991  29.850  1.00  0.00    -0.027 C 
ATOM      3  C   UNL     1     -13.512 -33.525  32.219  1.00  0.00     0.039 C 
ENDROOT
BRANCH   2   4
ATOM      4  C   UNL     1     -13.485 -32.659  28.418  1.00  0.00     0.032 C 
BRANCH   4   5
ATOM      5  C   UNL     1     -13.784 -33.778  27.399  1.00  0.00     0.034 C 
BRANCH   5   6
ATOM      6  C   UNL     1     -12.572 -34.633  27.077  1.00  0.00    -0.077 C 
ATOM      7  C   UNL     1     -11.772 -34.280  25.849  1.00  0.00     0.039 C 
ATOM      8  C   UNL     1     -12.203 -35.732  27.780  1.00  0.00    -0.023 CG0
ATOM      9  G   UNL     1     -12.841 -36.262  29.049  1.00  0.00     0.000 G0
ENDBRANCH   5   6
ENDBRANCH   4   5
ENDBRANCH   2   4
BRANCH   1  10
ATOM     10  C   UNL     1     -11.477 -33.429  30.603  1.00  0.00     0.111 C 
BRANCH  10  11
ATOM     11  C   UNL     1     -11.061 -34.831  30.241  1.00  0.00     0.163 C 
ATOM     12  O   UNL     1      -9.886 -35.013  29.826  1.00  0.00    -0.294 OA
BRANCH  11  13
ATOM     13  C   UNL     1     -12.005 -35.986  30.298  1.00  0.00    -0.002 C 
ATOM     14  C   UNL     1     -12.047 -36.801  31.395  1.00  0.00    -0.069 C 
ATOM     15  C   UNL     1     -11.260 -36.475  32.645  1.00  0.00     0.039 C 
ATOM     16  C   UNL     1     -12.874 -38.068  31.421  1.00  0.00     0.039 C 
BRANCH  13  17
ATOM     17  C   UNL     1     -12.837 -36.268  29.056  1.00  0.00     0.066 CG0
ATOM     18  G   UNL     1     -12.189 -35.732  27.795  1.00  0.00     0.000 G0
ENDBRANCH  13  17
ENDBRANCH  11  13
ENDBRANCH  10  11
ENDBRANCH   1  10
TORSDOF 0
ENDMDL
MODEL 2
REMARK VINA RESULT:    -4.868      1.344      3.866
REMARK INTER + INTRA:          -6.419
REMARK INTER:                  -6.726
REMARK INTRA:                   0.307
REMARK UNBOUND:                 0.441
REMARK SMILES CC1=CCC(=C(C)C)C(=O)CC(C)=CCC1
REMARK SMILES IDX 12 1 14 2 13 3 15 4 16 5 2 6 1 7 3 8 11 10 9 11 10 12 5 13
REMARK SMILES IDX 6 14 7 15 8 16 4 17
REMARK H PARENT
REMARK Flexibility Score: 60.00
ROOT
ATOM      1  C   UNL     1     -12.082 -34.363  32.159  1.00  0.00    -0.070 C 
ATOM      2  C   UNL     1     -12.023 -35.703  32.320  1.00  0.00    -0.027 C 
ATOM      3  C   UNL     1     -11.327 -33.501  33.139  1.00  0.00     0.039 C 
ENDROOT
BRANCH   2   4
ATOM      4  C   UNL     1     -12.786 -36.725  31.505  1.00  0.00     0.032 C 
BRANCH   4   5
ATOM      5  C   UNL     1     -12.175 -37.036  30.122  1.00  0.00     0.034 C 
BRANCH   5   6
ATOM      6  C   UNL     1     -13.193 -36.998  28.997  1.00  0.00    -0.077 C 
ATOM      7  C   UNL     1     -14.260 -38.063  28.981  1.00  0.00     0.039 C 
ATOM      8  C   UNL     1     -13.164 -36.114  27.969  1.00  0.00    -0.023 CG0
ATOM      9  G   UNL     1     -12.204 -34.955  27.787  1.00  0.00     0.000 G0
ENDBRANCH   5   6
ENDBRANCH   4   5
ENDBRANCH   2   4
BRANCH   1  10
ATOM     10  C   UNL     1     -12.938 -33.689  31.107  1.00  0.00     0.111 C 
BRANCH  10  11
ATOM     11  C   UNL     1     -12.160 -33.420  29.845  1.00  0.00     0.163 C 
ATOM     12  O   UNL     1     -11.022 -32.889  29.952  1.00  0.00    -0.294 OA
BRANCH  11  13
ATOM     13  C   UNL     1     -12.714 -33.701  28.488  1.00  0.00    -0.002 C 
ATOM     14  C   UNL     1     -13.689 -32.907  27.952  1.00  0.00    -0.069 C 
ATOM     15  C   UNL     1     -14.129 -31.633  28.639  1.00  0.00     0.039 C 
ATOM     16  C   UNL     1     -14.381 -33.256  26.652  1.00  0.00     0.039 C 
BRANCH  13  17
ATOM     17  C   UNL     1     -12.217 -34.953  27.779  1.00  0.00     0.066 CG0
ATOM     18  G   UNL     1     -13.155 -36.130  27.967  1.00  0.00     0.000 G0
ENDBRANCH  13  17
ENDBRANCH  11  13
ENDBRANCH  10  11
ENDBRANCH   1  10
TORSDOF 0
ENDMDL
MODEL 3
REMARK VINA RESULT:    -4.807      1.736      3.665
REMARK INTER + INTRA:          -6.333
REMARK INTER:                  -7.389
REMARK INTRA:                   1.056
REMARK UNBOUND:                 0.441
REMARK SMILES CC1=CCC(=C(C)C)C(=O)CC(C)=CCC1
REMARK SMILES IDX 12 1 14 2 13 3 15 4 16 5 2 6 1 7 3 8 11 10 9 11 10 12 5 13
REMARK SMILES IDX 6 14 7 15 8 16 4 17
REMARK H PARENT
REMARK Flexibility Score: 60.00
ROOT
ATOM      1  C   UNL     1     -13.128 -33.037  29.313  1.00  0.00    -0.070 C 
ATOM      2  C   UNL     1     -13.972 -32.949  30.364  1.00  0.00    -0.027 C 
ATOM      3  C   UNL     1     -13.712 -32.923  27.927  1.00  0.00     0.039 C 
ENDROOT
BRANCH   2   4
ATOM      4  C   UNL     1     -13.594 -33.135  31.818  1.00  0.00     0.032 C 
BRANCH   4   5
ATOM      5  C   UNL     1     -13.037 -34.531  32.168  1.00  0.00     0.034 C 
BRANCH   5   6
ATOM      6  C   UNL     1     -11.561 -34.514  32.520  1.00  0.00    -0.077 C 
ATOM      7  C   UNL     1     -11.092 -33.499  33.531  1.00  0.00     0.039 C 
ATOM      8  C   UNL     1     -10.626 -35.303  31.935  1.00  0.00    -0.023 CG0
ATOM      9  G   UNL     1     -10.864 -36.400  30.916  1.00  0.00     0.000 G0
ENDBRANCH   5   6
ENDBRANCH   4   5
ENDBRANCH   2   4
BRANCH   1  10
ATOM     10  C   UNL     1     -11.650 -33.335  29.456  1.00  0.00     0.111 C 
BRANCH  10  11
ATOM     11  C   UNL     1     -11.315 -34.728  28.988  1.00  0.00     0.163 C 
ATOM     12  O   UNL     1     -10.702 -34.856  27.895  1.00  0.00    -0.294 OA
BRANCH  11  13
ATOM     13  C   UNL     1     -11.736 -35.947  29.740  1.00  0.00    -0.002 C 
ATOM     14  C   UNL     1     -12.912 -36.578  29.446  1.00  0.00    -0.069 C 
ATOM     15  C   UNL     1     -13.749 -36.163  28.256  1.00  0.00     0.039 C 
ATOM     16  C   UNL     1     -13.443 -37.717  30.290  1.00  0.00     0.039 C 
BRANCH  13  17
ATOM     17  C   UNL     1     -10.853 -36.391  30.897  1.00  0.00     0.066 CG0
ATOM     18  G   UNL     1     -10.634 -35.286  31.911  1.00  0.00     0.000 G0
ENDBRANCH  13  17
ENDBRANCH  11  13
ENDBRANCH  10  11
ENDBRANCH   1  10
TORSDOF 0
ENDMDL
MODEL 4
REMARK VINA RESULT:    -4.792      1.970      4.467
REMARK INTER + INTRA:          -6.312
REMARK INTER:                  -7.134
REMARK INTRA:                   0.823
REMARK UNBOUND:                 0.441
REMARK SMILES CC1=CCC(=C(C)C)C(=O)CC(C)=CCC1
REMARK SMILES IDX 12 1 14 2 13 3 15 4 16 5 2 6 1 7 3 8 11 10 9 11 10 12 5 13
REMARK SMILES IDX 6 14 7 15 8 16 4 17
REMARK H PARENT
REMARK Flexibility Score: 60.00
ROOT
ATOM      1  C   UNL     1     -13.449 -34.304  31.635  1.00  0.00    -0.070 C 
ATOM      2  C   UNL     1     -12.429 -34.746  32.403  1.00  0.00    -0.027 C 
ATOM      3  C   UNL     1     -14.462 -33.384  32.268  1.00  0.00     0.039 C 
ENDROOT
BRANCH   2   4
ATOM      4  C   UNL     1     -11.374 -35.746  31.980  1.00  0.00     0.032 C 
BRANCH   4   5
ATOM      5  C   UNL     1     -10.012 -35.128  31.600  1.00  0.00     0.034 C 
BRANCH   5   6
ATOM      6  C   UNL     1     -10.113 -33.674  31.176  1.00  0.00    -0.077 C 
ATOM      7  C   UNL     1      -9.889 -32.620  32.231  1.00  0.00     0.039 C 
ATOM      8  C   UNL     1     -10.458 -33.262  29.932  1.00  0.00    -0.023 CG0
ATOM      9  G   UNL     1     -10.709 -34.134  28.717  1.00  0.00     0.000 G0
ENDBRANCH   5   6
ENDBRANCH   4   5
ENDBRANCH   2   4
BRANCH   1  10
ATOM     10  C   UNL     1     -13.672 -34.759  30.207  1.00  0.00     0.111 C 
BRANCH  10  11
ATOM     11  C   UNL     1     -13.220 -33.719  29.215  1.00  0.00     0.163 C 
ATOM     12  O   UNL     1     -13.804 -32.603  29.217  1.00  0.00    -0.294 OA
BRANCH  11  13
ATOM     13  C   UNL     1     -12.158 -33.989  28.202  1.00  0.00    -0.002 C 
ATOM     14  C   UNL     1     -12.479 -34.188  26.888  1.00  0.00    -0.069 C 
ATOM     15  C   UNL     1     -13.893 -33.989  26.387  1.00  0.00     0.039 C 
ATOM     16  C   UNL     1     -11.448 -34.619  25.867  1.00  0.00     0.039 C 
BRANCH  13  17
ATOM     17  C   UNL     1     -10.730 -34.125  28.709  1.00  0.00     0.066 CG0
ATOM     18  G   UNL     1     -10.468 -33.264  29.929  1.00  0.00     0.000 G0
ENDBRANCH  13  17
ENDBRANCH  11  13
ENDBRANCH  10  11
ENDBRANCH   1  10
TORSDOF 0
ENDMDL
MODEL 5
REMARK VINA RESULT:    -4.687      1.631      3.251
REMARK INTER + INTRA:          -6.164
REMARK INTER:                  -7.255
REMARK INTRA:                   1.091
REMARK UNBOUND:                 0.441
REMARK SMILES CC1=CCC(=C(C)C)C(=O)CC(C)=CCC1
REMARK SMILES IDX 12 1 14 2 13 3 15 4 16 5 2 6 1 7 3 8 11 10 9 11 10 12 5 13
REMARK SMILES IDX 6 14 7 15 8 16 4 17
REMARK H PARENT
REMARK Flexibility Score: 60.00
ROOT
ATOM      1  C   UNL     1     -12.518 -37.391  30.425  1.00  0.00    -0.070 C 
ATOM      2  C   UNL     1     -13.498 -37.382  29.494  1.00  0.00    -0.027 C 
ATOM      3  C   UNL     1     -12.708 -38.263  31.641  1.00  0.00     0.039 C 
ENDROOT
BRANCH   2   4
ATOM      4  C   UNL     1     -13.537 -36.506  28.261  1.00  0.00     0.032 C 
BRANCH   4   5
ATOM      5  C   UNL     1     -13.460 -34.990  28.541  1.00  0.00     0.034 C 
BRANCH   5   6
ATOM      6  C   UNL     1     -12.215 -34.339  27.969  1.00  0.00    -0.077 C 
ATOM      7  C   UNL     1     -11.860 -34.643  26.535  1.00  0.00     0.039 C 
ATOM      8  C   UNL     1     -11.364 -33.558  28.680  1.00  0.00    -0.023 CG0
ATOM      9  G   UNL     1     -11.525 -33.105  30.118  1.00  0.00     0.000 G0
ENDBRANCH   5   6
ENDBRANCH   4   5
ENDBRANCH   2   4
BRANCH   1  10
ATOM     10  C   UNL     1     -11.292 -36.506  30.349  1.00  0.00     0.111 C 
BRANCH  10  11
ATOM     11  C   UNL     1     -11.370 -35.363  31.328  1.00  0.00     0.163 C 
ATOM     12  O   UNL     1     -10.795 -35.494  32.441  1.00  0.00    -0.294 OA
BRANCH  11  13
ATOM     13  C   UNL     1     -12.150 -34.121  31.047  1.00  0.00    -0.002 C 
ATOM     14  C   UNL     1     -13.423 -33.972  31.523  1.00  0.00    -0.069 C 
ATOM     15  C   UNL     1     -14.027 -34.981  32.475  1.00  0.00     0.039 C 
ATOM     16  C   UNL     1     -14.294 -32.800  31.126  1.00  0.00     0.039 C 
BRANCH  13  17
ATOM     17  C   UNL     1     -11.506 -33.085  30.138  1.00  0.00     0.066 CG0
ATOM     18  G   UNL     1     -11.378 -33.573  28.709  1.00  0.00     0.000 G0
ENDBRANCH  13  17
ENDBRANCH  11  13
ENDBRANCH  10  11
ENDBRANCH   1  10
TORSDOF 0
ENDMDL
MODEL 6
REMARK VINA RESULT:    -4.593      1.755      4.832
REMARK INTER + INTRA:          -6.031
REMARK INTER:                  -6.655
REMARK INTRA:                   0.624
REMARK UNBOUND:                 0.441
REMARK SMILES CC1=CCC(=C(C)C)C(=O)CC(C)=CCC1
REMARK SMILES IDX 12 1 14 2 13 3 15 4 16 5 2 6 1 7 3 8 11 10 9 11 10 12 5 13
REMARK SMILES IDX 6 14 7 15 8 16 4 17
REMARK H PARENT
REMARK Flexibility Score: 60.00
ROOT
ATOM      1  C   UNL     1     -12.966 -36.594  29.579  1.00  0.00    -0.070 C 
ATOM      2  C   UNL     1     -13.197 -36.727  30.904  1.00  0.00    -0.027 C 
ATOM      3  C   UNL     1     -14.006 -37.124  28.625  1.00  0.00     0.039 C 
ENDROOT
BRANCH   2   4
ATOM      4  C   UNL     1     -12.237 -36.348  32.011  1.00  0.00     0.032 C 
BRANCH   4   5
ATOM      5  C   UNL     1     -12.240 -34.852  32.386  1.00  0.00     0.034 C 
BRANCH   5   6
ATOM      6  C   UNL     1     -13.508 -34.132  31.965  1.00  0.00    -0.077 C 
ATOM      7  C   UNL     1     -14.734 -34.312  32.823  1.00  0.00     0.039 C 
ATOM      8  C   UNL     1     -13.630 -33.397  30.833  1.00  0.00    -0.023 CG0
ATOM      9  G   UNL     1     -12.536 -33.066  29.836  1.00  0.00     0.000 G0
ENDBRANCH   5   6
ENDBRANCH   4   5
ENDBRANCH   2   4
BRANCH   1  10
ATOM     10  C   UNL     1     -11.682 -36.025  29.013  1.00  0.00     0.111 C 
BRANCH  10  11
ATOM     11  C   UNL     1     -11.947 -34.870  28.083  1.00  0.00     0.163 C 
ATOM     12  O   UNL     1     -11.379 -34.870  26.959  1.00  0.00    -0.294 OA
BRANCH  11  13
ATOM     13  C   UNL     1     -12.802 -33.710  28.472  1.00  0.00    -0.002 C 
ATOM     14  C   UNL     1     -13.721 -33.194  27.600  1.00  0.00    -0.069 C 
ATOM     15  C   UNL     1     -14.014 -33.871  26.279  1.00  0.00     0.039 C 
ATOM     16  C   UNL     1     -14.488 -31.925  27.902  1.00  0.00     0.039 C 
BRANCH  13  17
ATOM     17  C   UNL     1     -12.540 -33.075  29.829  1.00  0.00     0.066 CG0
ATOM     18  G   UNL     1     -13.628 -33.396  30.835  1.00  0.00     0.000 G0
ENDBRANCH  13  17
ENDBRANCH  11  13
ENDBRANCH  10  11
ENDBRANCH   1  10
TORSDOF 0
ENDMDL
MODEL 7
REMARK VINA RESULT:    -4.559      1.701      2.054
REMARK INTER + INTRA:          -5.983
REMARK INTER:                  -6.673
REMARK INTRA:                   0.690
REMARK UNBOUND:                 0.441
REMARK SMILES CC1=CCC(=C(C)C)C(=O)CC(C)=CCC1
REMARK SMILES IDX 12 1 14 2 13 3 15 4 16 5 2 6 1 7 3 8 11 10 9 11 10 12 5 13
REMARK SMILES IDX 6 14 7 15 8 16 4 17
REMARK H PARENT
REMARK Flexibility Score: 60.00
ROOT
ATOM      1  C   UNL     1     -14.599 -32.544  31.244  1.00  0.00    -0.070 C 
ATOM      2  C   UNL     1     -14.614 -32.269  29.922  1.00  0.00    -0.027 C 
ATOM      3  C   UNL     1     -15.783 -32.105  32.070  1.00  0.00     0.039 C 
ENDROOT
BRANCH   2   4
ATOM      4  C   UNL     1     -13.485 -32.540  28.950  1.00  0.00     0.032 C 
BRANCH   4   5
ATOM      5  C   UNL     1     -13.746 -33.695  27.961  1.00  0.00     0.034 C 
BRANCH   5   6
ATOM      6  C   UNL     1     -12.533 -34.582  27.746  1.00  0.00    -0.077 C 
ATOM      7  C   UNL     1     -11.655 -34.292  26.555  1.00  0.00     0.039 C 
ATOM      8  C   UNL     1     -12.227 -35.658  28.512  1.00  0.00    -0.023 CG0
ATOM      9  G   UNL     1     -12.948 -36.126  29.760  1.00  0.00     0.000 G0
ENDBRANCH   5   6
ENDBRANCH   4   5
ENDBRANCH   2   4
BRANCH   1  10
ATOM     10  C   UNL     1     -13.420 -33.185  31.947  1.00  0.00     0.111 C 
BRANCH  10  11
ATOM     11  C   UNL     1     -13.450 -34.687  31.827  1.00  0.00     0.163 C 
ATOM     12  O   UNL     1     -14.329 -35.316  32.473  1.00  0.00    -0.294 OA
BRANCH  11  13
ATOM     13  C   UNL     1     -12.445 -35.446  31.026  1.00  0.00    -0.002 C 
ATOM     14  C   UNL     1     -11.123 -35.437  31.374  1.00  0.00    -0.069 C 
ATOM     15  C   UNL     1     -10.655 -34.795  32.661  1.00  0.00     0.039 C 
ATOM     16  C   UNL     1     -10.060 -36.062  30.497  1.00  0.00     0.039 C 
BRANCH  13  17
ATOM     17  C   UNL     1     -12.939 -36.140  29.765  1.00  0.00     0.066 CG0
ATOM     18  G   UNL     1     -12.226 -35.648  28.521  1.00  0.00     0.000 G0
ENDBRANCH  13  17
ENDBRANCH  11  13
ENDBRANCH  10  11
ENDBRANCH   1  10
TORSDOF 0
ENDMDL
MODEL 8
REMARK VINA RESULT:    -4.425      2.033      3.487
REMARK INTER + INTRA:          -5.795
REMARK INTER:                  -6.309
REMARK INTRA:                   0.514
REMARK UNBOUND:                 0.441
REMARK SMILES CC1=CCC(=C(C)C)C(=O)CC(C)=CCC1
REMARK SMILES IDX 12 1 14 2 13 3 15 4 16 5 2 6 1 7 3 8 11 10 9 11 10 12 5 13
REMARK SMILES IDX 6 14 7 15 8 16 4 17
REMARK H PARENT
REMARK Flexibility Score: 60.00
ROOT
ATOM      1  C   UNL     1     -11.112 -33.953  32.193  1.00  0.00    -0.070 C 
ATOM      2  C   UNL     1     -10.231 -33.514  31.268  1.00  0.00    -0.027 C 
ATOM      3  C   UNL     1     -11.231 -33.174  33.479  1.00  0.00     0.039 C 
ENDROOT
BRANCH   2   4
ATOM      4  C   UNL     1      -9.900 -34.208  29.964  1.00  0.00     0.032 C 
BRANCH   4   5
ATOM      5  C   UNL     1     -10.409 -33.487  28.699  1.00  0.00     0.034 C 
BRANCH   5   6
ATOM      6  C   UNL     1     -11.691 -34.082  28.146  1.00  0.00    -0.077 C 
ATOM      7  C   UNL     1     -11.580 -35.018  26.970  1.00  0.00     0.039 C 
ATOM      8  C   UNL     1     -12.933 -33.773  28.595  1.00  0.00    -0.023 CG0
ATOM      9  G   UNL     1     -13.284 -32.878  29.768  1.00  0.00     0.000 G0
ENDBRANCH   5   6
ENDBRANCH   4   5
ENDBRANCH   2   4
BRANCH   1  10
ATOM     10  C   UNL     1     -11.911 -35.231  32.040  1.00  0.00     0.111 C 
BRANCH  10  11
ATOM     11  C   UNL     1     -13.142 -35.019  31.197  1.00  0.00     0.163 C 
ATOM     12  O   UNL     1     -13.640 -36.019  30.614  1.00  0.00    -0.294 OA
BRANCH  11  13
ATOM     13  C   UNL     1     -13.745 -33.670  30.985  1.00  0.00    -0.002 C 
ATOM     14  C   UNL     1     -14.729 -33.206  31.813  1.00  0.00    -0.069 C 
ATOM     15  C   UNL     1     -15.130 -33.966  33.058  1.00  0.00     0.039 C 
ATOM     16  C   UNL     1     -15.469 -31.917  31.532  1.00  0.00     0.039 C 
BRANCH  13  17
ATOM     17  C   UNL     1     -13.288 -32.888  29.763  1.00  0.00     0.066 CG0
ATOM     18  G   UNL     1     -12.936 -33.793  28.599  1.00  0.00     0.000 G0
ENDBRANCH  13  17
ENDBRANCH  11  13
ENDBRANCH  10  11
ENDBRANCH   1  10
TORSDOF 0
ENDMDL
MODEL 9
REMARK VINA RESULT:    -4.066      1.603      4.184
REMARK INTER + INTRA:          -5.289
REMARK INTER:                  -7.115
REMARK INTRA:                   1.827
REMARK UNBOUND:                 0.441
REMARK SMILES CC1=CCC(=C(C)C)C(=O)CC(C)=CCC1
REMARK SMILES IDX 12 1 14 2 13 3 15 4 16 5 2 6 1 7 3 8 11 10 9 11 10 12 5 13
REMARK SMILES IDX 6 14 7 15 8 16 4 17
REMARK H PARENT
REMARK Flexibility Score: 60.00
ROOT
ATOM      1  C   UNL     1     -13.827 -33.675  32.022  1.00  0.00    -0.070 C 
ATOM      2  C   UNL     1     -12.640 -33.525  32.648  1.00  0.00    -0.027 C 
ATOM      3  C   UNL     1     -15.067 -33.192  32.732  1.00  0.00     0.039 C 
ENDROOT
BRANCH   2   4
ATOM      4  C   UNL     1     -11.305 -34.030  32.145  1.00  0.00     0.032 C 
BRANCH   4   5
ATOM      5  C   UNL     1     -11.017 -35.514  32.453  1.00  0.00     0.034 C 
BRANCH   5   6
ATOM      6  C   UNL     1     -11.576 -36.461  31.407  1.00  0.00    -0.077 C 
ATOM      7  C   UNL     1     -12.101 -37.794  31.877  1.00  0.00     0.039 C 
ATOM      8  C   UNL     1     -11.570 -36.217  30.073  1.00  0.00    -0.023 CG0
ATOM      9  G   UNL     1     -11.114 -34.950  29.378  1.00  0.00     0.000 G0
ENDBRANCH   5   6
ENDBRANCH   4   5
ENDBRANCH   2   4
BRANCH   1  10
ATOM     10  C   UNL     1     -13.981 -34.384  30.692  1.00  0.00     0.111 C 
BRANCH  10  11
ATOM     11  C   UNL     1     -13.311 -33.624  29.576  1.00  0.00     0.163 C 
ATOM     12  O   UNL     1     -13.681 -32.439  29.360  1.00  0.00    -0.294 OA
BRANCH  11  13
ATOM     13  C   UNL     1     -12.281 -34.244  28.691  1.00  0.00    -0.002 C 
ATOM     14  C   UNL     1     -12.433 -34.240  27.332  1.00  0.00    -0.069 C 
ATOM     15  C   UNL     1     -13.560 -33.478  26.671  1.00  0.00     0.039 C 
ATOM     16  C   UNL     1     -11.492 -34.996  26.419  1.00  0.00     0.039 C 
BRANCH  13  17
ATOM     17  C   UNL     1     -11.119 -34.955  29.367  1.00  0.00     0.066 CG0
ATOM     18  G   UNL     1     -11.554 -36.224  30.073  1.00  0.00     0.000 G0
ENDBRANCH  13  17
ENDBRANCH  11  13
ENDBRANCH  10  11
ENDBRANCH   1  10
TORSDOF 0
ENDMDL
