MODEL 1
REMARK VINA RESULT:    -3.957      0.000      0.000
REMARK INTER + INTRA:          -7.976
REMARK INTER:                  -7.196
REMARK INTRA:                  -0.780
REMARK UNBOUND:                -0.780
REMARK SMILES CCCCCCCCCCCCCC[C@H](C)C(=O)[O-]
REMARK SMILES IDX 9 1 10 2 11 3 12 4 13 5 14 6 15 7 16 8 17 9 18 10 19 11 8 12
REMARK SMILES IDX 7 13 6 14 5 15 4 16 3 17 2 18 1 19
REMARK H PARENT
REMARK Flexibility Score: inf
ROOT
ATOM      1  C   UNL     1     -13.653 -20.102  20.007  1.00  0.00     0.000 C 
ENDROOT
BRANCH   1   2
ATOM      2  C   UNL     1     -13.011 -18.764  19.602  1.00  0.00     0.000 C 
BRANCH   2   3
ATOM      3  C   UNL     1     -12.003 -18.915  18.452  1.00  0.00     0.000 C 
BRANCH   3   4
ATOM      4  C   UNL     1     -11.549 -17.544  17.938  1.00  0.00     0.000 C 
BRANCH   4   5
ATOM      5  C   UNL     1     -11.419 -17.544  16.407  1.00  0.00     0.001 C 
BRANCH   5   6
ATOM      6  C   UNL     1     -11.675 -16.161  15.780  1.00  0.00     0.009 C 
BRANCH   6   7
ATOM      7  C   UNL     1     -12.203 -16.190  14.327  1.00  0.00     0.032 C 
ATOM      8  C   UNL     1     -11.226 -16.873  13.362  1.00  0.00     0.014 C 
BRANCH   7   9
ATOM      9  C   UNL     1     -12.470 -14.784  13.863  1.00  0.00     0.044 C 
ATOM     10  O   UNL     1     -12.418 -14.502  12.638  1.00  0.00    -0.550 OA
ATOM     11  O   UNL     1     -12.789 -13.790  14.781  1.00  0.00    -0.550 OA
ENDBRANCH   7   9
ENDBRANCH   6   7
ENDBRANCH   5   6
ENDBRANCH   4   5
ENDBRANCH   3   4
ENDBRANCH   2   3
ENDBRANCH   1   2
BRANCH   1  12
ATOM     12  C   UNL     1     -13.338 -21.231  19.011  1.00  0.00     0.000 C 
BRANCH  12  13
ATOM     13  C   UNL     1     -13.044 -22.576  19.702  1.00  0.00    -0.000 C 
BRANCH  13  14
ATOM     14  C   UNL     1     -12.674 -22.477  21.194  1.00  0.00    -0.000 C 
BRANCH  14  15
ATOM     15  C   UNL     1     -13.658 -23.223  22.108  1.00  0.00    -0.000 C 
BRANCH  15  16
ATOM     16  C   UNL     1     -14.552 -22.240  22.873  1.00  0.00    -0.000 C 
BRANCH  16  17
ATOM     17  C   UNL     1     -15.054 -22.860  24.185  1.00  0.00    -0.000 C 
BRANCH  17  18
ATOM     18  C   UNL     1     -16.588 -22.877  24.282  1.00  0.00    -0.003 C 
ATOM     19  C   UNL     1     -17.188 -24.238  23.933  1.00  0.00     0.004 C 
ENDBRANCH  17  18
ENDBRANCH  16  17
ENDBRANCH  15  16
ENDBRANCH  14  15
ENDBRANCH  13  14
ENDBRANCH  12  13
ENDBRANCH   1  12
TORSDOF 14
ENDMDL
MODEL 2
REMARK VINA RESULT:    -3.896      6.019     10.048
REMARK INTER + INTRA:          -7.864
REMARK INTER:                  -6.043
REMARK INTRA:                  -1.821
REMARK UNBOUND:                -0.780
REMARK SMILES CCCCCCCCCCCCCC[C@H](C)C(=O)[O-]
REMARK SMILES IDX 9 1 10 2 11 3 12 4 13 5 14 6 15 7 16 8 17 9 18 10 19 11 8 12
REMARK SMILES IDX 7 13 6 14 5 15 4 16 3 17 2 18 1 19
REMARK H PARENT
REMARK Flexibility Score: inf
ROOT
ATOM      1  C   UNL     1     -12.287 -21.617  21.837  1.00  0.00     0.000 C 
ENDROOT
BRANCH   1   2
ATOM      2  C   UNL     1     -13.805 -21.542  22.069  1.00  0.00     0.000 C 
BRANCH   2   3
ATOM      3  C   UNL     1     -14.228 -22.134  23.422  1.00  0.00     0.000 C 
BRANCH   3   4
ATOM      4  C   UNL     1     -14.618 -23.610  23.276  1.00  0.00     0.000 C 
BRANCH   4   5
ATOM      5  C   UNL     1     -15.845 -23.944  24.138  1.00  0.00     0.001 C 
BRANCH   5   6
ATOM      6  C   UNL     1     -16.873 -22.799  24.195  1.00  0.00     0.009 C 
BRANCH   6   7
ATOM      7  C   UNL     1     -17.346 -22.416  25.616  1.00  0.00     0.032 C 
ATOM      8  C   UNL     1     -16.176 -22.168  26.577  1.00  0.00     0.014 C 
BRANCH   7   9
ATOM      9  C   UNL     1     -18.225 -23.507  26.163  1.00  0.00     0.044 C 
ATOM     10  O   UNL     1     -18.001 -23.988  27.304  1.00  0.00    -0.550 OA
ATOM     11  O   UNL     1     -19.299 -23.983  25.419  1.00  0.00    -0.550 OA
ENDBRANCH   7   9
ENDBRANCH   6   7
ENDBRANCH   5   6
ENDBRANCH   4   5
ENDBRANCH   3   4
ENDBRANCH   2   3
ENDBRANCH   1   2
BRANCH   1  12
ATOM     12  C   UNL     1     -11.927 -22.320  20.516  1.00  0.00     0.000 C 
BRANCH  12  13
ATOM     13  C   UNL     1     -13.120 -22.421  19.548  1.00  0.00    -0.000 C 
BRANCH  13  14
ATOM     14  C   UNL     1     -13.157 -21.351  18.441  1.00  0.00    -0.000 C 
BRANCH  14  15
ATOM     15  C   UNL     1     -11.805 -20.651  18.237  1.00  0.00    -0.000 C 
BRANCH  15  16
ATOM     16  C   UNL     1     -11.961 -19.127  18.288  1.00  0.00    -0.000 C 
BRANCH  16  17
ATOM     17  C   UNL     1     -12.809 -18.701  19.497  1.00  0.00    -0.000 C 
BRANCH  17  18
ATOM     18  C   UNL     1     -11.971 -18.047  20.606  1.00  0.00    -0.003 C 
ATOM     19  C   UNL     1     -12.741 -17.894  21.917  1.00  0.00     0.004 C 
ENDBRANCH  17  18
ENDBRANCH  16  17
ENDBRANCH  15  16
ENDBRANCH  14  15
ENDBRANCH  13  14
ENDBRANCH  12  13
ENDBRANCH   1  12
TORSDOF 14
ENDMDL
MODEL 3
REMARK VINA RESULT:    -3.876      5.740      9.398
REMARK INTER + INTRA:          -7.829
REMARK INTER:                  -5.884
REMARK INTRA:                  -1.945
REMARK UNBOUND:                -0.780
REMARK SMILES CCCCCCCCCCCCCC[C@H](C)C(=O)[O-]
REMARK SMILES IDX 9 1 10 2 11 3 12 4 13 5 14 6 15 7 16 8 17 9 18 10 19 11 8 12
REMARK SMILES IDX 7 13 6 14 5 15 4 16 3 17 2 18 1 19
REMARK H PARENT
REMARK Flexibility Score: inf
ROOT
ATOM      1  C   UNL     1     -11.763 -22.351  20.553  1.00  0.00     0.000 C 
ENDROOT
BRANCH   1   2
ATOM      2  C   UNL     1     -11.966 -21.655  21.910  1.00  0.00     0.000 C 
BRANCH   2   3
ATOM      3  C   UNL     1     -13.440 -21.614  22.340  1.00  0.00     0.000 C 
BRANCH   3   4
ATOM      4  C   UNL     1     -13.577 -21.116  23.783  1.00  0.00     0.000 C 
BRANCH   4   5
ATOM      5  C   UNL     1     -14.632 -21.927  24.550  1.00  0.00     0.001 C 
BRANCH   5   6
ATOM      6  C   UNL     1     -15.429 -22.887  23.647  1.00  0.00     0.009 C 
BRANCH   6   7
ATOM      7  C   UNL     1     -16.893 -23.130  24.082  1.00  0.00     0.032 C 
ATOM      8  C   UNL     1     -17.239 -22.419  25.397  1.00  0.00     0.014 C 
BRANCH   7   9
ATOM      9  C   UNL     1     -17.133 -24.608  24.229  1.00  0.00     0.044 C 
ATOM     10  O   UNL     1     -16.185 -25.421  24.074  1.00  0.00    -0.550 OA
ATOM     11  O   UNL     1     -18.399 -25.085  24.551  1.00  0.00    -0.550 OA
ENDBRANCH   7   9
ENDBRANCH   6   7
ENDBRANCH   5   6
ENDBRANCH   4   5
ENDBRANCH   3   4
ENDBRANCH   2   3
ENDBRANCH   1   2
BRANCH   1  12
ATOM     12  C   UNL     1     -13.069 -22.468  19.750  1.00  0.00     0.000 C 
BRANCH  12  13
ATOM     13  C   UNL     1     -13.194 -21.401  18.648  1.00  0.00    -0.000 C 
BRANCH  13  14
ATOM     14  C   UNL     1     -11.857 -20.836  18.131  1.00  0.00    -0.000 C 
BRANCH  14  15
ATOM     15  C   UNL     1     -11.804 -19.301  18.155  1.00  0.00    -0.000 C 
BRANCH  15  16
ATOM     16  C   UNL     1     -12.765 -18.734  19.206  1.00  0.00    -0.000 C 
BRANCH  16  17
ATOM     17  C   UNL     1     -11.993 -18.160  20.404  1.00  0.00    -0.000 C 
BRANCH  17  18
ATOM     18  C   UNL     1     -12.875 -17.999  21.652  1.00  0.00    -0.003 C 
ATOM     19  C   UNL     1     -12.062 -17.761  22.924  1.00  0.00     0.004 C 
ENDBRANCH  17  18
ENDBRANCH  16  17
ENDBRANCH  15  16
ENDBRANCH  14  15
ENDBRANCH  13  14
ENDBRANCH  12  13
ENDBRANCH   1  12
TORSDOF 14
ENDMDL
MODEL 4
REMARK VINA RESULT:    -3.870      5.298     10.646
REMARK INTER + INTRA:          -7.818
REMARK INTER:                  -7.103
REMARK INTRA:                  -0.715
REMARK UNBOUND:                -0.780
REMARK SMILES CCCCCCCCCCCCCC[C@H](C)C(=O)[O-]
REMARK SMILES IDX 9 1 10 2 11 3 12 4 13 5 14 6 15 7 16 8 17 9 18 10 19 11 8 12
REMARK SMILES IDX 7 13 6 14 5 15 4 16 3 17 2 18 1 19
REMARK H PARENT
REMARK Flexibility Score: inf
ROOT
ATOM      1  C   UNL     1     -13.204 -22.199  21.024  1.00  0.00     0.000 C 
ENDROOT
BRANCH   1   2
ATOM      2  C   UNL     1     -13.339 -23.596  21.654  1.00  0.00     0.000 C 
BRANCH   2   3
ATOM      3  C   UNL     1     -13.729 -23.542  23.139  1.00  0.00     0.000 C 
BRANCH   3   4
ATOM      4  C   UNL     1     -15.103 -22.886  23.320  1.00  0.00     0.000 C 
BRANCH   4   5
ATOM      5  C   UNL     1     -15.205 -22.188  24.685  1.00  0.00     0.001 C 
BRANCH   5   6
ATOM      6  C   UNL     1     -16.128 -22.926  25.673  1.00  0.00     0.009 C 
BRANCH   6   7
ATOM      7  C   UNL     1     -17.628 -22.568  25.560  1.00  0.00     0.032 C 
ATOM      8  C   UNL     1     -18.173 -21.918  26.839  1.00  0.00     0.014 C 
BRANCH   7   9
ATOM      9  C   UNL     1     -18.417 -23.809  25.250  1.00  0.00     0.044 C 
ATOM     10  O   UNL     1     -19.151 -24.329  26.130  1.00  0.00    -0.550 OA
ATOM     11  O   UNL     1     -18.354 -24.384  23.985  1.00  0.00    -0.550 OA
ENDBRANCH   7   9
ENDBRANCH   6   7
ENDBRANCH   5   6
ENDBRANCH   4   5
ENDBRANCH   3   4
ENDBRANCH   2   3
ENDBRANCH   1   2
BRANCH   1  12
ATOM     12  C   UNL     1     -13.193 -22.245  19.487  1.00  0.00     0.000 C 
BRANCH  12  13
ATOM     13  C   UNL     1     -12.827 -20.892  18.849  1.00  0.00    -0.000 C 
BRANCH  13  14
ATOM     14  C   UNL     1     -13.411 -19.656  19.557  1.00  0.00    -0.000 C 
BRANCH  14  15
ATOM     15  C   UNL     1     -12.560 -18.392  19.361  1.00  0.00    -0.000 C 
BRANCH  15  16
ATOM     16  C   UNL     1     -11.728 -18.484  18.077  1.00  0.00    -0.000 C 
BRANCH  16  17
ATOM     17  C   UNL     1     -11.733 -17.147  17.321  1.00  0.00    -0.000 C 
BRANCH  17  18
ATOM     18  C   UNL     1     -11.321 -17.298  15.848  1.00  0.00    -0.003 C 
ATOM     19  C   UNL     1     -11.976 -16.257  14.941  1.00  0.00     0.004 C 
ENDBRANCH  17  18
ENDBRANCH  16  17
ENDBRANCH  15  16
ENDBRANCH  14  15
ENDBRANCH  13  14
ENDBRANCH  12  13
ENDBRANCH   1  12
TORSDOF 14
ENDMDL
MODEL 5
REMARK VINA RESULT:    -3.789      1.603      2.461
REMARK INTER + INTRA:          -7.671
REMARK INTER:                  -6.485
REMARK INTRA:                  -1.185
REMARK UNBOUND:                -0.780
REMARK SMILES CCCCCCCCCCCCCC[C@H](C)C(=O)[O-]
REMARK SMILES IDX 9 1 10 2 11 3 12 4 13 5 14 6 15 7 16 8 17 9 18 10 19 11 8 12
REMARK SMILES IDX 7 13 6 14 5 15 4 16 3 17 2 18 1 19
REMARK H PARENT
REMARK Flexibility Score: inf
ROOT
ATOM      1  C   UNL     1     -12.703 -18.385  19.712  1.00  0.00     0.000 C 
ENDROOT
BRANCH   1   2
ATOM      2  C   UNL     1     -12.380 -18.140  18.228  1.00  0.00     0.000 C 
BRANCH   2   3
ATOM      3  C   UNL     1     -11.059 -17.381  18.026  1.00  0.00     0.000 C 
BRANCH   3   4
ATOM      4  C   UNL     1     -11.215 -16.283  16.968  1.00  0.00     0.000 C 
BRANCH   4   5
ATOM      5  C   UNL     1     -11.402 -16.888  15.568  1.00  0.00     0.001 C 
BRANCH   5   6
ATOM      6  C   UNL     1     -12.384 -16.089  14.691  1.00  0.00     0.009 C 
BRANCH   6   7
ATOM      7  C   UNL     1     -11.870 -14.707  14.226  1.00  0.00     0.032 C 
ATOM      8  C   UNL     1     -12.749 -13.555  14.730  1.00  0.00     0.014 C 
BRANCH   7   9
ATOM      9  C   UNL     1     -11.810 -14.675  12.723  1.00  0.00     0.044 C 
ATOM     10  O   UNL     1     -11.536 -15.721  12.079  1.00  0.00    -0.550 OA
ATOM     11  O   UNL     1     -12.070 -13.495  12.035  1.00  0.00    -0.550 OA
ENDBRANCH   7   9
ENDBRANCH   6   7
ENDBRANCH   5   6
ENDBRANCH   4   5
ENDBRANCH   3   4
ENDBRANCH   2   3
ENDBRANCH   1   2
BRANCH   1  12
ATOM     12  C   UNL     1     -13.455 -19.707  19.940  1.00  0.00     0.000 C 
BRANCH  12  13
ATOM     13  C   UNL     1     -12.886 -20.871  19.109  1.00  0.00    -0.000 C 
BRANCH  13  14
ATOM     14  C   UNL     1     -11.499 -21.374  19.552  1.00  0.00    -0.000 C 
BRANCH  14  15
ATOM     15  C   UNL     1     -11.554 -22.727  20.277  1.00  0.00    -0.000 C 
BRANCH  15  16
ATOM     16  C   UNL     1     -13.002 -23.185  20.478  1.00  0.00    -0.000 C 
BRANCH  16  17
ATOM     17  C   UNL     1     -13.335 -23.323  21.971  1.00  0.00    -0.000 C 
BRANCH  17  18
ATOM     18  C   UNL     1     -14.208 -22.171  22.491  1.00  0.00    -0.003 C 
ATOM     19  C   UNL     1     -13.448 -21.227  23.423  1.00  0.00     0.004 C 
ENDBRANCH  17  18
ENDBRANCH  16  17
ENDBRANCH  15  16
ENDBRANCH  14  15
ENDBRANCH  13  14
ENDBRANCH  12  13
ENDBRANCH   1  12
TORSDOF 14
ENDMDL
MODEL 6
REMARK VINA RESULT:    -3.784      3.957      6.790
REMARK INTER + INTRA:          -7.661
REMARK INTER:                  -5.776
REMARK INTRA:                  -1.885
REMARK UNBOUND:                -0.780
REMARK SMILES CCCCCCCCCCCCCC[C@H](C)C(=O)[O-]
REMARK SMILES IDX 9 1 10 2 11 3 12 4 13 5 14 6 15 7 16 8 17 9 18 10 19 11 8 12
REMARK SMILES IDX 7 13 6 14 5 15 4 16 3 17 2 18 1 19
REMARK H PARENT
REMARK Flexibility Score: inf
ROOT
ATOM      1  C   UNL     1     -16.488 -25.012  24.151  1.00  0.00     0.000 C 
ENDROOT
BRANCH   1   2
ATOM      2  C   UNL     1     -15.076 -24.446  23.923  1.00  0.00     0.000 C 
BRANCH   2   3
ATOM      3  C   UNL     1     -15.094 -23.050  23.282  1.00  0.00     0.000 C 
BRANCH   3   4
ATOM      4  C   UNL     1     -13.693 -22.427  23.287  1.00  0.00     0.000 C 
BRANCH   4   5
ATOM      5  C   UNL     1     -13.304 -21.932  21.885  1.00  0.00     0.001 C 
BRANCH   5   6
ATOM      6  C   UNL     1     -13.881 -20.543  21.554  1.00  0.00     0.009 C 
BRANCH   6   7
ATOM      7  C   UNL     1     -13.854 -20.164  20.055  1.00  0.00     0.032 C 
ATOM      8  C   UNL     1     -13.256 -21.274  19.181  1.00  0.00     0.014 C 
BRANCH   7   9
ATOM      9  C   UNL     1     -13.063 -18.897  19.873  1.00  0.00     0.044 C 
ATOM     10  O   UNL     1     -12.645 -18.572  18.732  1.00  0.00    -0.550 OA
ATOM     11  O   UNL     1     -12.800 -18.071  20.960  1.00  0.00    -0.550 OA
ENDBRANCH   7   9
ENDBRANCH   6   7
ENDBRANCH   5   6
ENDBRANCH   4   5
ENDBRANCH   3   4
ENDBRANCH   2   3
ENDBRANCH   1   2
BRANCH   1  12
ATOM     12  C   UNL     1     -17.586 -23.953  23.955  1.00  0.00     0.000 C 
BRANCH  12  13
ATOM     13  C   UNL     1     -18.730 -24.078  24.978  1.00  0.00    -0.000 C 
BRANCH  13  14
ATOM     14  C   UNL     1     -18.514 -23.314  26.298  1.00  0.00    -0.000 C 
BRANCH  14  15
ATOM     15  C   UNL     1     -17.762 -21.989  26.109  1.00  0.00    -0.000 C 
BRANCH  15  16
ATOM     16  C   UNL     1     -16.748 -21.766  27.236  1.00  0.00    -0.000 C 
BRANCH  16  17
ATOM     17  C   UNL     1     -15.689 -22.878  27.252  1.00  0.00    -0.000 C 
BRANCH  17  18
ATOM     18  C   UNL     1     -14.267 -22.344  27.024  1.00  0.00    -0.003 C 
ATOM     19  C   UNL     1     -14.246 -20.865  26.639  1.00  0.00     0.004 C 
ENDBRANCH  17  18
ENDBRANCH  16  17
ENDBRANCH  15  16
ENDBRANCH  14  15
ENDBRANCH  13  14
ENDBRANCH  12  13
ENDBRANCH   1  12
TORSDOF 14
ENDMDL
MODEL 7
REMARK VINA RESULT:    -3.773      5.950      9.042
REMARK INTER + INTRA:          -7.641
REMARK INTER:                  -5.665
REMARK INTRA:                  -1.975
REMARK UNBOUND:                -0.780
REMARK SMILES CCCCCCCCCCCCCC[C@H](C)C(=O)[O-]
REMARK SMILES IDX 9 1 10 2 11 3 12 4 13 5 14 6 15 7 16 8 17 9 18 10 19 11 8 12
REMARK SMILES IDX 7 13 6 14 5 15 4 16 3 17 2 18 1 19
REMARK H PARENT
REMARK Flexibility Score: inf
ROOT
ATOM      1  C   UNL     1     -13.080 -22.724  19.569  1.00  0.00     0.000 C 
ENDROOT
BRANCH   1   2
ATOM      2  C   UNL     1     -11.892 -22.488  20.517  1.00  0.00     0.000 C 
BRANCH   2   3
ATOM      3  C   UNL     1     -12.214 -22.856  21.974  1.00  0.00     0.000 C 
BRANCH   3   4
ATOM      4  C   UNL     1     -13.682 -23.275  22.121  1.00  0.00     0.000 C 
BRANCH   4   5
ATOM      5  C   UNL     1     -14.471 -22.240  22.938  1.00  0.00     0.001 C 
BRANCH   5   6
ATOM      6  C   UNL     1     -15.116 -22.834  24.204  1.00  0.00     0.009 C 
BRANCH   6   7
ATOM      7  C   UNL     1     -16.659 -22.930  24.170  1.00  0.00     0.032 C 
ATOM      8  C   UNL     1     -17.308 -22.399  25.454  1.00  0.00     0.014 C 
BRANCH   7   9
ATOM      9  C   UNL     1     -17.066 -24.362  23.954  1.00  0.00     0.044 C 
ATOM     10  O   UNL     1     -18.268 -24.647  23.710  1.00  0.00    -0.550 OA
ATOM     11  O   UNL     1     -16.119 -25.378  24.007  1.00  0.00    -0.550 OA
ENDBRANCH   7   9
ENDBRANCH   6   7
ENDBRANCH   5   6
ENDBRANCH   4   5
ENDBRANCH   3   4
ENDBRANCH   2   3
ENDBRANCH   1   2
BRANCH   1  12
ATOM     12  C   UNL     1     -13.486 -21.452  18.806  1.00  0.00     0.000 C 
BRANCH  12  13
ATOM     13  C   UNL     1     -12.468 -20.307  18.964  1.00  0.00    -0.000 C 
BRANCH  13  14
ATOM     14  C   UNL     1     -13.019 -19.027  19.618  1.00  0.00    -0.000 C 
BRANCH  14  15
ATOM     15  C   UNL     1     -13.516 -19.251  21.054  1.00  0.00    -0.000 C 
BRANCH  15  16
ATOM     16  C   UNL     1     -12.676 -18.453  22.057  1.00  0.00    -0.000 C 
BRANCH  16  17
ATOM     17  C   UNL     1     -11.935 -19.390  23.023  1.00  0.00    -0.000 C 
BRANCH  17  18
ATOM     18  C   UNL     1     -12.614 -19.479  24.399  1.00  0.00    -0.003 C 
ATOM     19  C   UNL     1     -12.747 -18.118  25.081  1.00  0.00     0.004 C 
ENDBRANCH  17  18
ENDBRANCH  16  17
ENDBRANCH  15  16
ENDBRANCH  14  15
ENDBRANCH  13  14
ENDBRANCH  12  13
ENDBRANCH   1  12
TORSDOF 14
ENDMDL
MODEL 8
REMARK VINA RESULT:    -3.717      6.225      8.706
REMARK INTER + INTRA:          -7.539
REMARK INTER:                  -4.892
REMARK INTRA:                  -2.647
REMARK UNBOUND:                -0.780
REMARK SMILES CCCCCCCCCCCCCC[C@H](C)C(=O)[O-]
REMARK SMILES IDX 9 1 10 2 11 3 12 4 13 5 14 6 15 7 16 8 17 9 18 10 19 11 8 12
REMARK SMILES IDX 7 13 6 14 5 15 4 16 3 17 2 18 1 19
REMARK H PARENT
REMARK Flexibility Score: inf
ROOT
ATOM      1  C   UNL     1     -18.755 -23.561  25.912  1.00  0.00     0.000 C 
ENDROOT
BRANCH   1   2
ATOM      2  C   UNL     1     -18.317 -24.321  24.649  1.00  0.00     0.000 C 
BRANCH   2   3
ATOM      3  C   UNL     1     -17.098 -23.683  23.966  1.00  0.00     0.000 C 
BRANCH   3   4
ATOM      4  C   UNL     1     -15.912 -24.654  23.941  1.00  0.00     0.000 C 
BRANCH   4   5
ATOM      5  C   UNL     1     -14.592 -23.908  23.697  1.00  0.00     0.001 C 
BRANCH   5   6
ATOM      6  C   UNL     1     -14.787 -22.399  23.454  1.00  0.00     0.009 C 
BRANCH   6   7
ATOM      7  C   UNL     1     -14.021 -21.828  22.239  1.00  0.00     0.032 C 
ATOM      8  C   UNL     1     -13.184 -22.894  21.519  1.00  0.00     0.014 C 
BRANCH   7   9
ATOM      9  C   UNL     1     -13.126 -20.707  22.693  1.00  0.00     0.044 C 
ATOM     10  O   UNL     1     -12.349 -20.148  21.877  1.00  0.00    -0.550 OA
ATOM     11  O   UNL     1     -13.161 -20.272  24.014  1.00  0.00    -0.550 OA
ENDBRANCH   7   9
ENDBRANCH   6   7
ENDBRANCH   5   6
ENDBRANCH   4   5
ENDBRANCH   3   4
ENDBRANCH   2   3
ENDBRANCH   1   2
BRANCH   1  12
ATOM     12  C   UNL     1     -18.039 -22.208  26.063  1.00  0.00     0.000 C 
BRANCH  12  13
ATOM     13  C   UNL     1     -17.886 -21.770  27.531  1.00  0.00    -0.000 C 
BRANCH  13  14
ATOM     14  C   UNL     1     -16.440 -21.753  28.062  1.00  0.00    -0.000 C 
BRANCH  14  15
ATOM     15  C   UNL     1     -15.415 -22.238  27.027  1.00  0.00    -0.000 C 
BRANCH  15  16
ATOM     16  C   UNL     1     -14.713 -23.514  27.504  1.00  0.00    -0.000 C 
BRANCH  16  17
ATOM     17  C   UNL     1     -15.735 -24.587  27.909  1.00  0.00    -0.000 C 
BRANCH  17  18
ATOM     18  C   UNL     1     -15.425 -25.961  27.294  1.00  0.00    -0.003 C 
ATOM     19  C   UNL     1     -16.686 -26.766  26.981  1.00  0.00     0.004 C 
ENDBRANCH  17  18
ENDBRANCH  16  17
ENDBRANCH  15  16
ENDBRANCH  14  15
ENDBRANCH  13  14
ENDBRANCH  12  13
ENDBRANCH   1  12
TORSDOF 14
ENDMDL
MODEL 9
REMARK VINA RESULT:    -3.695      4.057      6.303
REMARK INTER + INTRA:          -7.500
REMARK INTER:                  -5.568
REMARK INTRA:                  -1.933
REMARK UNBOUND:                -0.780
REMARK SMILES CCCCCCCCCCCCCC[C@H](C)C(=O)[O-]
REMARK SMILES IDX 9 1 10 2 11 3 12 4 13 5 14 6 15 7 16 8 17 9 18 10 19 11 8 12
REMARK SMILES IDX 7 13 6 14 5 15 4 16 3 17 2 18 1 19
REMARK H PARENT
REMARK Flexibility Score: inf
ROOT
ATOM      1  C   UNL     1     -14.652 -22.123  24.438  1.00  0.00     0.000 C 
ENDROOT
BRANCH   1   2
ATOM      2  C   UNL     1     -13.288 -22.775  24.159  1.00  0.00     0.000 C 
BRANCH   2   3
ATOM      3  C   UNL     1     -12.541 -22.112  22.992  1.00  0.00     0.000 C 
BRANCH   3   4
ATOM      4  C   UNL     1     -12.800 -22.860  21.679  1.00  0.00     0.000 C 
BRANCH   4   5
ATOM      5  C   UNL     1     -13.167 -21.884  20.550  1.00  0.00     0.001 C 
BRANCH   5   6
ATOM      6  C   UNL     1     -13.901 -20.627  21.054  1.00  0.00     0.009 C 
BRANCH   6   7
ATOM      7  C   UNL     1     -13.499 -19.310  20.352  1.00  0.00     0.032 C 
ATOM      8  C   UNL     1     -12.662 -19.551  19.089  1.00  0.00     0.014 C 
BRANCH   7   9
ATOM      9  C   UNL     1     -12.727 -18.446  21.311  1.00  0.00     0.044 C 
ATOM     10  O   UNL     1     -12.979 -18.488  22.543  1.00  0.00    -0.550 OA
ATOM     11  O   UNL     1     -11.721 -17.607  20.846  1.00  0.00    -0.550 OA
ENDBRANCH   7   9
ENDBRANCH   6   7
ENDBRANCH   5   6
ENDBRANCH   4   5
ENDBRANCH   3   4
ENDBRANCH   2   3
ENDBRANCH   1   2
BRANCH   1  12
ATOM     12  C   UNL     1     -15.812 -22.869  23.757  1.00  0.00     0.000 C 
BRANCH  12  13
ATOM     13  C   UNL     1     -15.771 -24.389  24.000  1.00  0.00    -0.000 C 
BRANCH  13  14
ATOM     14  C   UNL     1     -17.040 -24.984  24.639  1.00  0.00    -0.000 C 
BRANCH  14  15
ATOM     15  C   UNL     1     -18.202 -23.983  24.713  1.00  0.00    -0.000 C 
BRANCH  15  16
ATOM     16  C   UNL     1     -18.563 -23.666  26.168  1.00  0.00    -0.000 C 
BRANCH  16  17
ATOM     17  C   UNL     1     -18.356 -22.175  26.475  1.00  0.00    -0.000 C 
BRANCH  17  18
ATOM     18  C   UNL     1     -17.393 -21.940  27.649  1.00  0.00    -0.003 C 
ATOM     19  C   UNL     1     -16.265 -22.970  27.703  1.00  0.00     0.004 C 
ENDBRANCH  17  18
ENDBRANCH  16  17
ENDBRANCH  15  16
ENDBRANCH  14  15
ENDBRANCH  13  14
ENDBRANCH  12  13
ENDBRANCH   1  12
TORSDOF 14
ENDMDL
