MODEL 1
REMARK VINA RESULT:    -6.556      0.000      0.000
REMARK INTER + INTRA:          -8.534
REMARK INTER:                  -8.856
REMARK INTRA:                   0.322
REMARK UNBOUND:                 0.322
REMARK SMILES O=c1c(-c2ccc(O)cc2)coc2c([C@@H]3O[C@H](CO)[C@@H](O)[C@H](O)[C@@H]3O)c(O)ccc12
REMARK SMILES IDX 3 1 11 2 12 3 13 4 30 5 2 6 1 7 29 8 28 9 26 10 14 11 4 12
REMARK SMILES IDX 5 13 6 14 7 15 10 16 9 17 8 18 15 20 24 21 16 22 22 23 17 24
REMARK SMILES IDX 20 25 25 26 23 28 18 30 19 31 21 33 27 35
REMARK H PARENT 8 19 25 27 23 29 19 32 21 34 27 36
REMARK Flexibility Score: inf
ROOT
ATOM      1  C   UNL     1      22.770  14.339   0.518  1.00  0.00     0.065 A 
ATOM      2  C   UNL     1      23.364  15.532   0.948  1.00  0.00     0.208 A 
ATOM      3  O   UNL     1      22.724  16.352   1.771  1.00  0.00    -0.463 OA
ATOM      4  C   UNL     1      21.499  16.117   2.237  1.00  0.00     0.147 A 
ATOM      5  C   UNL     1      20.830  14.929   1.858  1.00  0.00     0.066 A 
ATOM      6  C   UNL     1      21.476  14.038   0.982  1.00  0.00     0.200 A 
ATOM      7  O   UNL     1      20.894  12.985   0.598  1.00  0.00    -0.288 OA
ATOM      8  C   UNL     1      19.551  14.665   2.362  1.00  0.00     0.020 A 
ATOM      9  C   UNL     1      18.950  15.557   3.243  1.00  0.00     0.047 A 
ATOM     10  C   UNL     1      19.595  16.742   3.626  1.00  0.00     0.125 A 
ATOM     11  C   UNL     1      20.880  17.059   3.103  1.00  0.00     0.069 A 
ENDROOT
BRANCH   1  12
ATOM     12  C   UNL     1      23.506  13.439  -0.405  1.00  0.00    -0.011 A 
ATOM     13  C   UNL     1      24.909  13.370  -0.356  1.00  0.00     0.013 A 
ATOM     14  C   UNL     1      25.604  12.505  -1.205  1.00  0.00     0.047 A 
ATOM     15  C   UNL     1      24.906  11.691  -2.108  1.00  0.00     0.115 A 
ATOM     16  C   UNL     1      22.811  12.619  -1.313  1.00  0.00     0.013 A 
ATOM     17  C   UNL     1      23.509  11.752  -2.160  1.00  0.00     0.047 A 
BRANCH  15  18
ATOM     18  O   UNL     1      25.587  10.822  -2.957  1.00  0.00    -0.508 OA
ATOM     19  H   UNL     1      25.366   9.834  -2.989  1.00  0.00     0.293 HD
ENDBRANCH  15  18
ENDBRANCH   1  12
BRANCH  11  20
ATOM     20  C   UNL     1      21.698  18.315   3.473  1.00  0.00     0.188 C 
ATOM     21  C   UNL     1      21.031  19.716   3.649  1.00  0.00     0.179 C 
ATOM     22  O   UNL     1      22.668  18.033   4.468  1.00  0.00    -0.362 OA
ATOM     23  C   UNL     1      21.110  20.230   5.107  1.00  0.00     0.177 C 
ATOM     24  C   UNL     1      22.183  18.032   5.807  1.00  0.00     0.176 C 
ATOM     25  C   UNL     1      21.084  19.089   6.123  1.00  0.00     0.177 C 
BRANCH  21  26
ATOM     26  O   UNL     1      19.722  19.736   3.140  1.00  0.00    -0.387 OA
ATOM     27  H   UNL     1      19.537  20.659   2.825  1.00  0.00     0.211 HD
ENDBRANCH  21  26
BRANCH  23  28
ATOM     28  O   UNL     1      20.062  21.125   5.382  1.00  0.00    -0.387 OA
ATOM     29  H   UNL     1      20.246  21.513   6.278  1.00  0.00     0.211 HD
ENDBRANCH  23  28
BRANCH  24  30
ATOM     30  C   UNL     1      21.783  16.610   6.243  1.00  0.00     0.191 C 
BRANCH  30  31
ATOM     31  O   UNL     1      22.415  16.260   7.445  1.00  0.00    -0.394 OA
ATOM     32  H   UNL     1      23.222  15.736   7.200  1.00  0.00     0.210 HD
ENDBRANCH  30  31
ENDBRANCH  24  30
BRANCH  25  33
ATOM     33  O   UNL     1      21.298  19.627   7.405  1.00  0.00    -0.388 OA
ATOM     34  H   UNL     1      20.418  19.660   7.861  1.00  0.00     0.211 HD
ENDBRANCH  25  33
ENDBRANCH  11  20
BRANCH  10  35
ATOM     35  O   UNL     1      18.951  17.569   4.539  1.00  0.00    -0.507 OA
ATOM     36  H   UNL     1      18.121  18.098   4.298  1.00  0.00     0.293 HD
ENDBRANCH  10  35
TORSDOF 9
ENDMDL
MODEL 2
REMARK VINA RESULT:    -6.525     12.090     16.766
REMARK INTER + INTRA:          -8.493
REMARK INTER:                  -9.240
REMARK INTRA:                   0.747
REMARK UNBOUND:                 0.322
REMARK SMILES O=c1c(-c2ccc(O)cc2)coc2c([C@@H]3O[C@H](CO)[C@@H](O)[C@H](O)[C@@H]3O)c(O)ccc12
REMARK SMILES IDX 3 1 11 2 12 3 13 4 30 5 2 6 1 7 29 8 28 9 26 10 14 11 4 12
REMARK SMILES IDX 5 13 6 14 7 15 10 16 9 17 8 18 15 20 24 21 16 22 22 23 17 24
REMARK SMILES IDX 20 25 25 26 23 28 18 30 19 31 21 33 27 35
REMARK H PARENT 8 19 25 27 23 29 19 32 21 34 27 36
REMARK Flexibility Score: inf
ROOT
ATOM      1  C   UNL     1      34.604  18.555  -1.899  1.00  0.00     0.065 A 
ATOM      2  C   UNL     1      35.196  17.337  -2.254  1.00  0.00     0.208 A 
ATOM      3  O   UNL     1      36.138  17.285  -3.187  1.00  0.00    -0.463 OA
ATOM      4  C   UNL     1      36.581  18.355  -3.844  1.00  0.00     0.147 A 
ATOM      5  C   UNL     1      36.041  19.627  -3.540  1.00  0.00     0.066 A 
ATOM      6  C   UNL     1      35.035  19.719  -2.560  1.00  0.00     0.200 A 
ATOM      7  O   UNL     1      34.509  20.835  -2.289  1.00  0.00    -0.288 OA
ATOM      8  C   UNL     1      36.517  20.759  -4.212  1.00  0.00     0.020 A 
ATOM      9  C   UNL     1      37.526  20.635  -5.160  1.00  0.00     0.047 A 
ATOM     10  C   UNL     1      38.070  19.382  -5.478  1.00  0.00     0.125 A 
ATOM     11  C   UNL     1      37.583  18.207  -4.841  1.00  0.00     0.069 A 
ENDROOT
BRANCH   1  12
ATOM     12  C   UNL     1      33.550  18.586  -0.854  1.00  0.00    -0.011 A 
ATOM     13  C   UNL     1      32.220  18.266  -1.180  1.00  0.00     0.013 A 
ATOM     14  C   UNL     1      31.230  18.269  -0.194  1.00  0.00     0.047 A 
ATOM     15  C   UNL     1      31.557  18.584   1.132  1.00  0.00     0.115 A 
ATOM     16  C   UNL     1      33.871  18.901   0.479  1.00  0.00     0.013 A 
ATOM     17  C   UNL     1      32.879  18.900   1.465  1.00  0.00     0.047 A 
BRANCH  15  18
ATOM     18  O   UNL     1      30.580  18.586   2.125  1.00  0.00    -0.508 OA
ATOM     19  H   UNL     1      30.700  18.066   2.985  1.00  0.00     0.293 HD
ENDBRANCH  15  18
ENDBRANCH   1  12
BRANCH  11  20
ATOM     20  C   UNL     1      38.123  16.781  -5.088  1.00  0.00     0.188 C 
ATOM     21  C   UNL     1      38.336  15.764  -3.923  1.00  0.00     0.179 C 
ATOM     22  O   UNL     1      37.540  16.194  -6.239  1.00  0.00    -0.362 OA
ATOM     23  C   UNL     1      37.387  14.545  -4.021  1.00  0.00     0.177 C 
ATOM     24  C   UNL     1      36.259  15.606  -6.038  1.00  0.00     0.176 C 
ATOM     25  C   UNL     1      36.048  14.906  -4.663  1.00  0.00     0.177 C 
BRANCH  21  26
ATOM     26  O   UNL     1      38.280  16.391  -2.667  1.00  0.00    -0.387 OA
ATOM     27  H   UNL     1      37.353  16.723  -2.540  1.00  0.00     0.211 HD
ENDBRANCH  21  26
BRANCH  23  28
ATOM     28  O   UNL     1      37.161  13.981  -2.754  1.00  0.00    -0.387 OA
ATOM     29  H   UNL     1      38.035  13.631  -2.437  1.00  0.00     0.211 HD
ENDBRANCH  23  28
BRANCH  24  30
ATOM     30  C   UNL     1      35.138  16.609  -6.372  1.00  0.00     0.191 C 
BRANCH  30  31
ATOM     31  O   UNL     1      34.079  16.496  -5.460  1.00  0.00    -0.394 OA
ATOM     32  H   UNL     1      33.510  15.746  -5.775  1.00  0.00     0.210 HD
ENDBRANCH  30  31
ENDBRANCH  24  30
BRANCH  25  33
ATOM     33  O   UNL     1      35.305  13.725  -4.841  1.00  0.00    -0.388 OA
ATOM     34  H   UNL     1      34.452  13.979  -5.279  1.00  0.00     0.211 HD
ENDBRANCH  25  33
ENDBRANCH  11  20
BRANCH  10  35
ATOM     35  O   UNL     1      39.102  19.337  -6.408  1.00  0.00    -0.507 OA
ATOM     36  H   UNL     1      39.898  19.963  -6.363  1.00  0.00     0.293 HD
ENDBRANCH  10  35
TORSDOF 9
ENDMDL
MODEL 3
REMARK VINA RESULT:    -6.290      1.460      2.920
REMARK INTER + INTRA:          -8.175
REMARK INTER:                  -9.781
REMARK INTRA:                   1.606
REMARK UNBOUND:                 0.322
REMARK SMILES O=c1c(-c2ccc(O)cc2)coc2c([C@@H]3O[C@H](CO)[C@@H](O)[C@H](O)[C@@H]3O)c(O)ccc12
REMARK SMILES IDX 3 1 11 2 12 3 13 4 30 5 2 6 1 7 29 8 28 9 26 10 14 11 4 12
REMARK SMILES IDX 5 13 6 14 7 15 10 16 9 17 8 18 15 20 24 21 16 22 22 23 17 24
REMARK SMILES IDX 20 25 25 26 23 28 18 30 19 31 21 33 27 35
REMARK H PARENT 8 19 25 27 23 29 19 32 21 34 27 36
REMARK Flexibility Score: inf
ROOT
ATOM      1  C   UNL     1      22.997  14.423   1.130  1.00  0.00     0.065 A 
ATOM      2  C   UNL     1      23.665  15.260   2.034  1.00  0.00     0.208 A 
ATOM      3  O   UNL     1      22.991  15.982   2.919  1.00  0.00    -0.463 OA
ATOM      4  C   UNL     1      21.662  15.973   3.014  1.00  0.00     0.147 A 
ATOM      5  C   UNL     1      20.911  15.148   2.144  1.00  0.00     0.066 A 
ATOM      6  C   UNL     1      21.593  14.373   1.188  1.00  0.00     0.200 A 
ATOM      7  O   UNL     1      20.950  13.651   0.375  1.00  0.00    -0.288 OA
ATOM      8  C   UNL     1      19.516  15.117   2.254  1.00  0.00     0.020 A 
ATOM      9  C   UNL     1      18.875  15.880   3.224  1.00  0.00     0.047 A 
ATOM     10  C   UNL     1      19.602  16.708   4.091  1.00  0.00     0.125 A 
ATOM     11  C   UNL     1      21.019  16.791   3.983  1.00  0.00     0.069 A 
ENDROOT
BRANCH   1  12
ATOM     12  C   UNL     1      23.775  13.627   0.148  1.00  0.00    -0.011 A 
ATOM     13  C   UNL     1      25.181  13.676   0.153  1.00  0.00     0.013 A 
ATOM     14  C   UNL     1      25.917  12.908  -0.753  1.00  0.00     0.047 A 
ATOM     15  C   UNL     1      25.259  12.076  -1.670  1.00  0.00     0.115 A 
ATOM     16  C   UNL     1      23.122  12.789  -0.773  1.00  0.00     0.013 A 
ATOM     17  C   UNL     1      23.862  12.019  -1.677  1.00  0.00     0.047 A 
BRANCH  15  18
ATOM     18  O   UNL     1      25.983  11.302  -2.575  1.00  0.00    -0.508 OA
ATOM     19  H   UNL     1      25.550  10.542  -3.085  1.00  0.00     0.293 HD
ENDBRANCH  15  18
ENDBRANCH   1  12
BRANCH  11  20
ATOM     20  C   UNL     1      21.926  17.641   4.898  1.00  0.00     0.188 C 
ATOM     21  C   UNL     1      23.313  17.129   5.397  1.00  0.00     0.179 C 
ATOM     22  O   UNL     1      21.949  19.001   4.494  1.00  0.00    -0.362 OA
ATOM     23  C   UNL     1      24.490  17.956   4.826  1.00  0.00     0.177 C 
ATOM     24  C   UNL     1      22.846  19.303   3.430  1.00  0.00     0.176 C 
ATOM     25  C   UNL     1      24.186  18.510   3.435  1.00  0.00     0.177 C 
BRANCH  21  26
ATOM     26  O   UNL     1      23.467  15.749   5.177  1.00  0.00    -0.387 OA
ATOM     27  H   UNL     1      22.621  15.307   5.447  1.00  0.00     0.211 HD
ENDBRANCH  21  26
BRANCH  23  28
ATOM     28  O   UNL     1      25.667  17.188   4.777  1.00  0.00    -0.387 OA
ATOM     29  H   UNL     1      25.667  16.722   3.899  1.00  0.00     0.211 HD
ENDBRANCH  23  28
BRANCH  24  30
ATOM     30  C   UNL     1      22.123  19.241   2.071  1.00  0.00     0.191 C 
BRANCH  30  31
ATOM     31  O   UNL     1      22.892  18.543   1.129  1.00  0.00    -0.394 OA
ATOM     32  H   UNL     1      23.710  19.085   0.971  1.00  0.00     0.210 HD
ENDBRANCH  30  31
ENDBRANCH  24  30
BRANCH  25  33
ATOM     33  O   UNL     1      25.240  19.358   3.051  1.00  0.00    -0.388 OA
ATOM     34  H   UNL     1      26.030  18.784   2.876  1.00  0.00     0.211 HD
ENDBRANCH  25  33
ENDBRANCH  11  20
BRANCH  10  35
ATOM     35  O   UNL     1      18.899  17.414   5.061  1.00  0.00    -0.507 OA
ATOM     36  H   UNL     1      18.583  16.981   5.921  1.00  0.00     0.293 HD
ENDBRANCH  10  35
TORSDOF 9
ENDMDL
MODEL 4
REMARK VINA RESULT:    -5.693      1.829      3.406
REMARK INTER + INTRA:          -7.368
REMARK INTER:                  -9.291
REMARK INTRA:                   1.923
REMARK UNBOUND:                 0.322
REMARK SMILES O=c1c(-c2ccc(O)cc2)coc2c([C@@H]3O[C@H](CO)[C@@H](O)[C@H](O)[C@@H]3O)c(O)ccc12
REMARK SMILES IDX 3 1 11 2 12 3 13 4 30 5 2 6 1 7 29 8 28 9 26 10 14 11 4 12
REMARK SMILES IDX 5 13 6 14 7 15 10 16 9 17 8 18 15 20 24 21 16 22 22 23 17 24
REMARK SMILES IDX 20 25 25 26 23 28 18 30 19 31 21 33 27 35
REMARK H PARENT 8 19 25 27 23 29 19 32 21 34 27 36
REMARK Flexibility Score: inf
ROOT
ATOM      1  C   UNL     1      22.367  15.383   1.565  1.00  0.00     0.065 A 
ATOM      2  C   UNL     1      23.094  16.530   1.907  1.00  0.00     0.208 A 
ATOM      3  O   UNL     1      22.590  17.432   2.739  1.00  0.00    -0.463 OA
ATOM      4  C   UNL     1      21.386  17.324   3.297  1.00  0.00     0.147 A 
ATOM      5  C   UNL     1      20.589  16.190   3.012  1.00  0.00     0.066 A 
ATOM      6  C   UNL     1      21.089  15.216   2.128  1.00  0.00     0.200 A 
ATOM      7  O   UNL     1      20.390  14.209   1.827  1.00  0.00    -0.288 OA
ATOM      8  C   UNL     1      19.331  16.060   3.612  1.00  0.00     0.020 A 
ATOM      9  C   UNL     1      18.876  17.031   4.497  1.00  0.00     0.047 A 
ATOM     10  C   UNL     1      19.649  18.164   4.788  1.00  0.00     0.125 A 
ATOM     11  C   UNL     1      20.916  18.347   4.166  1.00  0.00     0.069 A 
ENDROOT
BRANCH   1  12
ATOM     12  C   UNL     1      22.953  14.390   0.630  1.00  0.00    -0.011 A 
ATOM     13  C   UNL     1      22.119  13.639  -0.218  1.00  0.00     0.013 A 
ATOM     14  C   UNL     1      22.668  12.722  -1.118  1.00  0.00     0.047 A 
ATOM     15  C   UNL     1      24.058  12.549  -1.188  1.00  0.00     0.115 A 
ATOM     16  C   UNL     1      24.346  14.212   0.553  1.00  0.00     0.013 A 
ATOM     17  C   UNL     1      24.893  13.296  -0.351  1.00  0.00     0.047 A 
BRANCH  15  18
ATOM     18  O   UNL     1      24.617  11.641  -2.084  1.00  0.00    -0.508 OA
ATOM     19  H   UNL     1      24.809  11.897  -3.045  1.00  0.00     0.293 HD
ENDBRANCH  15  18
ENDBRANCH   1  12
BRANCH  11  20
ATOM     20  C   UNL     1      21.866  19.535   4.430  1.00  0.00     0.188 C 
ATOM     21  C   UNL     1      23.417  19.363   4.465  1.00  0.00     0.179 C 
ATOM     22  O   UNL     1      21.452  20.699   3.736  1.00  0.00    -0.362 OA
ATOM     23  C   UNL     1      24.122  20.109   3.307  1.00  0.00     0.177 C 
ATOM     24  C   UNL     1      21.850  20.766   2.370  1.00  0.00     0.176 C 
ATOM     25  C   UNL     1      23.254  20.174   2.051  1.00  0.00     0.177 C 
BRANCH  21  26
ATOM     26  O   UNL     1      23.789  18.010   4.541  1.00  0.00    -0.387 OA
ATOM     27  H   UNL     1      24.359  17.812   3.753  1.00  0.00     0.211 HD
ENDBRANCH  21  26
BRANCH  23  28
ATOM     28  O   UNL     1      25.352  19.505   2.994  1.00  0.00    -0.387 OA
ATOM     29  H   UNL     1      25.312  19.258   2.033  1.00  0.00     0.211 HD
ENDBRANCH  23  28
BRANCH  24  30
ATOM     30  C   UNL     1      20.746  20.210   1.451  1.00  0.00     0.191 C 
BRANCH  30  31
ATOM     31  O   UNL     1      19.476  20.577   1.917  1.00  0.00    -0.394 OA
ATOM     32  H   UNL     1      19.612  21.012   2.800  1.00  0.00     0.210 HD
ENDBRANCH  30  31
ENDBRANCH  24  30
BRANCH  25  33
ATOM     33  O   UNL     1      23.904  20.981   1.100  1.00  0.00    -0.388 OA
ATOM     34  H   UNL     1      24.279  20.377   0.408  1.00  0.00     0.211 HD
ENDBRANCH  25  33
ENDBRANCH  11  20
BRANCH  10  35
ATOM     35  O   UNL     1      19.148  19.076   5.710  1.00  0.00    -0.507 OA
ATOM     36  H   UNL     1      19.728  19.791   6.133  1.00  0.00     0.293 HD
ENDBRANCH  10  35
TORSDOF 9
ENDMDL
MODEL 5
REMARK VINA RESULT:    -5.396     13.797     16.404
REMARK INTER + INTRA:          -6.967
REMARK INTER:                  -6.196
REMARK INTRA:                  -0.771
REMARK UNBOUND:                 0.322
REMARK SMILES O=c1c(-c2ccc(O)cc2)coc2c([C@@H]3O[C@H](CO)[C@@H](O)[C@H](O)[C@@H]3O)c(O)ccc12
REMARK SMILES IDX 3 1 11 2 12 3 13 4 30 5 2 6 1 7 29 8 28 9 26 10 14 11 4 12
REMARK SMILES IDX 5 13 6 14 7 15 10 16 9 17 8 18 15 20 24 21 16 22 22 23 17 24
REMARK SMILES IDX 20 25 25 26 23 28 18 30 19 31 21 33 27 35
REMARK H PARENT 8 19 25 27 23 29 19 32 21 34 27 36
REMARK Flexibility Score: inf
ROOT
ATOM      1  C   UNL     1      37.550  12.377  -3.360  1.00  0.00     0.065 A 
ATOM      2  C   UNL     1      36.609  12.963  -2.505  1.00  0.00     0.208 A 
ATOM      3  O   UNL     1      36.313  14.253  -2.600  1.00  0.00    -0.463 OA
ATOM      4  C   UNL     1      36.876  15.072  -3.488  1.00  0.00     0.147 A 
ATOM      5  C   UNL     1      37.832  14.558  -4.395  1.00  0.00     0.066 A 
ATOM      6  C   UNL     1      38.174  13.195  -4.319  1.00  0.00     0.200 A 
ATOM      7  O   UNL     1      39.047  12.712  -5.093  1.00  0.00    -0.288 OA
ATOM      8  C   UNL     1      38.410  15.408  -5.345  1.00  0.00     0.020 A 
ATOM      9  C   UNL     1      38.034  16.745  -5.406  1.00  0.00     0.047 A 
ATOM     10  C   UNL     1      37.092  17.273  -4.512  1.00  0.00     0.125 A 
ATOM     11  C   UNL     1      36.512  16.446  -3.510  1.00  0.00     0.069 A 
ENDROOT
BRANCH   1  12
ATOM     12  C   UNL     1      37.864  10.932  -3.232  1.00  0.00    -0.011 A 
ATOM     13  C   UNL     1      38.844  10.499  -2.320  1.00  0.00     0.013 A 
ATOM     14  C   UNL     1      39.124   9.137  -2.178  1.00  0.00     0.047 A 
ATOM     15  C   UNL     1      38.424   8.190  -2.938  1.00  0.00     0.115 A 
ATOM     16  C   UNL     1      37.165   9.976  -3.991  1.00  0.00     0.013 A 
ATOM     17  C   UNL     1      37.446   8.613  -3.844  1.00  0.00     0.047 A 
BRANCH  15  18
ATOM     18  O   UNL     1      38.692   6.830  -2.802  1.00  0.00    -0.508 OA
ATOM     19  H   UNL     1      39.547   6.421  -3.157  1.00  0.00     0.293 HD
ENDBRANCH  15  18
ENDBRANCH   1  12
BRANCH  11  20
ATOM     20  C   UNL     1      35.446  16.906  -2.492  1.00  0.00     0.188 C 
ATOM     21  C   UNL     1      35.510  18.305  -1.802  1.00  0.00     0.179 C 
ATOM     22  O   UNL     1      34.138  16.551  -2.908  1.00  0.00    -0.362 OA
ATOM     23  C   UNL     1      34.337  19.225  -2.219  1.00  0.00     0.177 C 
ATOM     24  C   UNL     1      33.537  17.440  -3.844  1.00  0.00     0.176 C 
ATOM     25  C   UNL     1      33.867  18.948  -3.646  1.00  0.00     0.177 C 
BRANCH  21  26
ATOM     26  O   UNL     1      36.763  18.916  -1.979  1.00  0.00    -0.387 OA
ATOM     27  H   UNL     1      36.763  19.758  -1.453  1.00  0.00     0.211 HD
ENDBRANCH  21  26
BRANCH  23  28
ATOM     28  O   UNL     1      34.692  20.579  -2.098  1.00  0.00    -0.387 OA
ATOM     29  H   UNL     1      35.330  20.640  -1.338  1.00  0.00     0.211 HD
ENDBRANCH  23  28
BRANCH  24  30
ATOM     30  C   UNL     1      33.783  16.962  -5.288  1.00  0.00     0.191 C 
BRANCH  30  31
ATOM     31  O   UNL     1      34.107  18.041  -6.122  1.00  0.00    -0.394 OA
ATOM     32  H   UNL     1      34.176  17.678  -7.044  1.00  0.00     0.210 HD
ENDBRANCH  30  31
ENDBRANCH  24  30
BRANCH  25  33
ATOM     33  O   UNL     1      32.718  19.721  -3.896  1.00  0.00    -0.388 OA
ATOM     34  H   UNL     1      32.331  19.403  -4.752  1.00  0.00     0.211 HD
ENDBRANCH  25  33
ENDBRANCH  11  20
BRANCH  10  35
ATOM     35  O   UNL     1      36.736  18.610  -4.655  1.00  0.00    -0.507 OA
ATOM     36  H   UNL     1      36.462  19.003  -5.547  1.00  0.00     0.293 HD
ENDBRANCH  10  35
TORSDOF 9
ENDMDL
MODEL 6
REMARK VINA RESULT:    -5.379     11.000     13.559
REMARK INTER + INTRA:          -6.944
REMARK INTER:                  -7.054
REMARK INTRA:                   0.110
REMARK UNBOUND:                 0.322
REMARK SMILES O=c1c(-c2ccc(O)cc2)coc2c([C@@H]3O[C@H](CO)[C@@H](O)[C@H](O)[C@@H]3O)c(O)ccc12
REMARK SMILES IDX 3 1 11 2 12 3 13 4 30 5 2 6 1 7 29 8 28 9 26 10 14 11 4 12
REMARK SMILES IDX 5 13 6 14 7 15 10 16 9 17 8 18 15 20 24 21 16 22 22 23 17 24
REMARK SMILES IDX 20 25 25 26 23 28 18 30 19 31 21 33 27 35
REMARK H PARENT 8 19 25 27 23 29 19 32 21 34 27 36
REMARK Flexibility Score: inf
ROOT
ATOM      1  C   UNL     1      30.577  13.250  -4.989  1.00  0.00     0.065 A 
ATOM      2  C   UNL     1      30.751  13.856  -3.739  1.00  0.00     0.208 A 
ATOM      3  O   UNL     1      31.784  14.657  -3.509  1.00  0.00    -0.463 OA
ATOM      4  C   UNL     1      32.713  14.937  -4.420  1.00  0.00     0.147 A 
ATOM      5  C   UNL     1      32.607  14.373  -5.714  1.00  0.00     0.066 A 
ATOM      6  C   UNL     1      31.528  13.514  -5.991  1.00  0.00     0.200 A 
ATOM      7  O   UNL     1      31.422  12.967  -7.125  1.00  0.00    -0.288 OA
ATOM      8  C   UNL     1      33.569  14.681  -6.683  1.00  0.00     0.020 A 
ATOM      9  C   UNL     1      34.611  15.550  -6.381  1.00  0.00     0.047 A 
ATOM     10  C   UNL     1      34.735  16.114  -5.104  1.00  0.00     0.125 A 
ATOM     11  C   UNL     1      33.796  15.794  -4.084  1.00  0.00     0.069 A 
ENDROOT
BRANCH   1  12
ATOM     12  C   UNL     1      29.414  12.357  -5.220  1.00  0.00    -0.011 A 
ATOM     13  C   UNL     1      28.482  12.129  -4.193  1.00  0.00     0.013 A 
ATOM     14  C   UNL     1      27.372  11.309  -4.415  1.00  0.00     0.047 A 
ATOM     15  C   UNL     1      27.175  10.713  -5.668  1.00  0.00     0.115 A 
ATOM     16  C   UNL     1      29.210  11.757  -6.476  1.00  0.00     0.013 A 
ATOM     17  C   UNL     1      28.096  10.939  -6.696  1.00  0.00     0.047 A 
BRANCH  15  18
ATOM     18  O   UNL     1      26.071   9.898  -5.903  1.00  0.00    -0.508 OA
ATOM     19  H   UNL     1      26.140   9.066  -6.476  1.00  0.00     0.293 HD
ENDBRANCH  15  18
ENDBRANCH   1  12
BRANCH  11  20
ATOM     20  C   UNL     1      33.814  16.375  -2.653  1.00  0.00     0.188 C 
ATOM     21  C   UNL     1      35.144  16.619  -1.874  1.00  0.00     0.179 C 
ATOM     22  O   UNL     1      32.883  17.435  -2.509  1.00  0.00    -0.362 OA
ATOM     23  C   UNL     1      35.411  18.121  -1.615  1.00  0.00     0.177 C 
ATOM     24  C   UNL     1      33.335  18.706  -2.963  1.00  0.00     0.176 C 
ATOM     25  C   UNL     1      34.844  19.008  -2.722  1.00  0.00     0.177 C 
BRANCH  21  26
ATOM     26  O   UNL     1      36.232  15.977  -2.489  1.00  0.00    -0.387 OA
ATOM     27  H   UNL     1      37.039  16.529  -2.322  1.00  0.00     0.211 HD
ENDBRANCH  21  26
BRANCH  23  28
ATOM     28  O   UNL     1      36.787  18.371  -1.474  1.00  0.00    -0.387 OA
ATOM     29  H   UNL     1      37.188  17.548  -1.087  1.00  0.00     0.211 HD
ENDBRANCH  23  28
BRANCH  24  30
ATOM     30  C   UNL     1      32.905  18.951  -4.422  1.00  0.00     0.191 C 
BRANCH  30  31
ATOM     31  O   UNL     1      33.943  19.544  -5.155  1.00  0.00    -0.394 OA
ATOM     32  H   UNL     1      33.574  19.754  -6.052  1.00  0.00     0.210 HD
ENDBRANCH  30  31
ENDBRANCH  24  30
BRANCH  25  33
ATOM     33  O   UNL     1      35.003  20.353  -2.344  1.00  0.00    -0.388 OA
ATOM     34  H   UNL     1      34.542  20.907  -3.025  1.00  0.00     0.211 HD
ENDBRANCH  25  33
ENDBRANCH  11  20
BRANCH  10  35
ATOM     35  O   UNL     1      35.781  17.005  -4.884  1.00  0.00    -0.507 OA
ATOM     36  H   UNL     1      36.320  17.003  -4.026  1.00  0.00     0.293 HD
ENDBRANCH  10  35
TORSDOF 9
ENDMDL
MODEL 7
REMARK VINA RESULT:    -5.300     13.982     16.902
REMARK INTER + INTRA:          -6.837
REMARK INTER:                  -6.237
REMARK INTRA:                  -0.600
REMARK UNBOUND:                 0.322
REMARK SMILES O=c1c(-c2ccc(O)cc2)coc2c([C@@H]3O[C@H](CO)[C@@H](O)[C@H](O)[C@@H]3O)c(O)ccc12
REMARK SMILES IDX 3 1 11 2 12 3 13 4 30 5 2 6 1 7 29 8 28 9 26 10 14 11 4 12
REMARK SMILES IDX 5 13 6 14 7 15 10 16 9 17 8 18 15 20 24 21 16 22 22 23 17 24
REMARK SMILES IDX 20 25 25 26 23 28 18 30 19 31 21 33 27 35
REMARK H PARENT 8 19 25 27 23 29 19 32 21 34 27 36
REMARK Flexibility Score: inf
ROOT
ATOM      1  C   UNL     1      37.241   9.945  -4.213  1.00  0.00     0.065 A 
ATOM      2  C   UNL     1      37.278  10.734  -3.056  1.00  0.00     0.208 A 
ATOM      3  O   UNL     1      37.153  12.052  -3.126  1.00  0.00    -0.463 OA
ATOM      4  C   UNL     1      36.991  12.714  -4.271  1.00  0.00     0.147 A 
ATOM      5  C   UNL     1      36.934  11.992  -5.486  1.00  0.00     0.066 A 
ATOM      6  C   UNL     1      37.069  10.592  -5.450  1.00  0.00     0.200 A 
ATOM      7  O   UNL     1      37.056   9.922  -6.520  1.00  0.00    -0.288 OA
ATOM      8  C   UNL     1      36.742  12.680  -6.690  1.00  0.00     0.020 A 
ATOM      9  C   UNL     1      36.591  14.062  -6.688  1.00  0.00     0.047 A 
ATOM     10  C   UNL     1      36.651  14.795  -5.494  1.00  0.00     0.125 A 
ATOM     11  C   UNL     1      36.882  14.132  -4.257  1.00  0.00     0.069 A 
ENDROOT
BRANCH   1  12
ATOM     12  C   UNL     1      37.385   8.472  -4.107  1.00  0.00    -0.011 A 
ATOM     13  C   UNL     1      38.570   7.912  -3.596  1.00  0.00     0.013 A 
ATOM     14  C   UNL     1      38.700   6.526  -3.470  1.00  0.00     0.047 A 
ATOM     15  C   UNL     1      37.645   5.683  -3.846  1.00  0.00     0.115 A 
ATOM     16  C   UNL     1      36.331   7.619  -4.480  1.00  0.00     0.013 A 
ATOM     17  C   UNL     1      36.462   6.233  -4.350  1.00  0.00     0.047 A 
BRANCH  15  18
ATOM     18  O   UNL     1      37.761   4.300  -3.721  1.00  0.00    -0.508 OA
ATOM     19  H   UNL     1      37.285   3.670  -4.355  1.00  0.00     0.293 HD
ENDBRANCH  15  18
ENDBRANCH   1  12
BRANCH  11  20
ATOM     20  C   UNL     1      36.937  14.827  -2.879  1.00  0.00     0.188 C 
ATOM     21  C   UNL     1      37.641  16.204  -2.674  1.00  0.00     0.179 C 
ATOM     22  O   UNL     1      35.700  14.728  -2.194  1.00  0.00    -0.362 OA
ATOM     23  C   UNL     1      36.647  17.327  -2.294  1.00  0.00     0.177 C 
ATOM     24  C   UNL     1      34.719  15.690  -2.569  1.00  0.00     0.176 C 
ATOM     25  C   UNL     1      35.266  17.108  -2.911  1.00  0.00     0.177 C 
BRANCH  21  26
ATOM     26  O   UNL     1      38.445  16.546  -3.775  1.00  0.00    -0.387 OA
ATOM     27  H   UNL     1      38.759  15.701  -4.190  1.00  0.00     0.211 HD
ENDBRANCH  21  26
BRANCH  23  28
ATOM     28  O   UNL     1      37.137  18.586  -2.681  1.00  0.00    -0.387 OA
ATOM     29  H   UNL     1      38.127  18.543  -2.603  1.00  0.00     0.211 HD
ENDBRANCH  23  28
BRANCH  24  30
ATOM     30  C   UNL     1      33.794  15.130  -3.666  1.00  0.00     0.191 C 
BRANCH  30  31
ATOM     31  O   UNL     1      33.528  16.103  -4.640  1.00  0.00    -0.394 OA
ATOM     32  H   UNL     1      33.472  16.973  -4.165  1.00  0.00     0.210 HD
ENDBRANCH  30  31
ENDBRANCH  24  30
BRANCH  25  33
ATOM     33  O   UNL     1      34.391  18.087  -2.407  1.00  0.00    -0.388 OA
ATOM     34  H   UNL     1      33.942  17.699  -1.612  1.00  0.00     0.211 HD
ENDBRANCH  25  33
ENDBRANCH  11  20
BRANCH  10  35
ATOM     35  O   UNL     1      36.454  16.170  -5.563  1.00  0.00    -0.507 OA
ATOM     36  H   UNL     1      36.403  16.665  -6.445  1.00  0.00     0.293 HD
ENDBRANCH  10  35
TORSDOF 9
ENDMDL
MODEL 8
REMARK VINA RESULT:    -5.027      8.841     13.231
REMARK INTER + INTRA:          -6.469
REMARK INTER:                  -6.452
REMARK INTRA:                  -0.017
REMARK UNBOUND:                 0.322
REMARK SMILES O=c1c(-c2ccc(O)cc2)coc2c([C@@H]3O[C@H](CO)[C@@H](O)[C@H](O)[C@@H]3O)c(O)ccc12
REMARK SMILES IDX 3 1 11 2 12 3 13 4 30 5 2 6 1 7 29 8 28 9 26 10 14 11 4 12
REMARK SMILES IDX 5 13 6 14 7 15 10 16 9 17 8 18 15 20 24 21 16 22 22 23 17 24
REMARK SMILES IDX 20 25 25 26 23 28 18 30 19 31 21 33 27 35
REMARK H PARENT 8 19 25 27 23 29 19 32 21 34 27 36
REMARK Flexibility Score: inf
ROOT
ATOM      1  C   UNL     1      28.824  12.497  -3.999  1.00  0.00     0.065 A 
ATOM      2  C   UNL     1      29.540  13.256  -3.064  1.00  0.00     0.208 A 
ATOM      3  O   UNL     1      30.706  13.802  -3.382  1.00  0.00    -0.463 OA
ATOM      4  C   UNL     1      31.276  13.673  -4.578  1.00  0.00     0.147 A 
ATOM      5  C   UNL     1      30.615  12.929  -5.584  1.00  0.00     0.066 A 
ATOM      6  C   UNL     1      29.378  12.330  -5.280  1.00  0.00     0.200 A 
ATOM      7  O   UNL     1      28.778  11.632  -6.145  1.00  0.00    -0.288 OA
ATOM      8  C   UNL     1      31.198  12.808  -6.851  1.00  0.00     0.020 A 
ATOM      9  C   UNL     1      32.411  13.430  -7.123  1.00  0.00     0.047 A 
ATOM     10  C   UNL     1      33.084  14.167  -6.138  1.00  0.00     0.125 A 
ATOM     11  C   UNL     1      32.537  14.279  -4.829  1.00  0.00     0.069 A 
ENDROOT
BRANCH   1  12
ATOM     12  C   UNL     1      27.522  11.894  -3.618  1.00  0.00    -0.011 A 
ATOM     13  C   UNL     1      27.170  11.770  -2.262  1.00  0.00     0.013 A 
ATOM     14  C   UNL     1      25.934  11.227  -1.900  1.00  0.00     0.047 A 
ATOM     15  C   UNL     1      25.031  10.809  -2.888  1.00  0.00     0.115 A 
ATOM     16  C   UNL     1      26.611  11.475  -4.604  1.00  0.00     0.013 A 
ATOM     17  C   UNL     1      25.373  10.934  -4.238  1.00  0.00     0.047 A 
BRANCH  15  18
ATOM     18  O   UNL     1      23.795  10.271  -2.539  1.00  0.00    -0.508 OA
ATOM     19  H   UNL     1      23.355  10.487  -1.653  1.00  0.00     0.293 HD
ENDBRANCH  15  18
ENDBRANCH   1  12
BRANCH  11  20
ATOM     20  C   UNL     1      33.170  15.086  -3.674  1.00  0.00     0.188 C 
ATOM     21  C   UNL     1      34.710  15.106  -3.424  1.00  0.00     0.179 C 
ATOM     22  O   UNL     1      32.569  16.364  -3.539  1.00  0.00    -0.362 OA
ATOM     23  C   UNL     1      35.331  16.503  -3.659  1.00  0.00     0.177 C 
ATOM     24  C   UNL     1      33.063  17.364  -4.425  1.00  0.00     0.176 C 
ATOM     25  C   UNL     1      34.587  17.291  -4.737  1.00  0.00     0.177 C 
BRANCH  21  26
ATOM     26  O   UNL     1      35.367  14.096  -4.147  1.00  0.00    -0.387 OA
ATOM     27  H   UNL     1      35.808  13.496  -3.490  1.00  0.00     0.211 HD
ENDBRANCH  21  26
BRANCH  23  28
ATOM     28  O   UNL     1      36.688  16.399  -4.010  1.00  0.00    -0.387 OA
ATOM     29  H   UNL     1      36.798  15.523  -4.466  1.00  0.00     0.211 HD
ENDBRANCH  23  28
BRANCH  24  30
ATOM     30  C   UNL     1      32.199  17.443  -5.698  1.00  0.00     0.191 C 
BRANCH  30  31
ATOM     31  O   UNL     1      33.002  17.586  -6.838  1.00  0.00    -0.394 OA
ATOM     32  H   UNL     1      32.440  18.027  -7.528  1.00  0.00     0.210 HD
ENDBRANCH  30  31
ENDBRANCH  24  30
BRANCH  25  33
ATOM     33  O   UNL     1      35.122  18.591  -4.790  1.00  0.00    -0.388 OA
ATOM     34  H   UNL     1      35.841  18.641  -4.109  1.00  0.00     0.211 HD
ENDBRANCH  25  33
ENDBRANCH  11  20
BRANCH  10  35
ATOM     35  O   UNL     1      34.274  14.793  -6.491  1.00  0.00    -0.507 OA
ATOM     36  H   UNL     1      34.960  14.350  -7.091  1.00  0.00     0.293 HD
ENDBRANCH  10  35
TORSDOF 9
ENDMDL
MODEL 9
REMARK VINA RESULT:    -4.509     13.302     15.863
REMARK INTER + INTRA:          -5.769
REMARK INTER:                  -5.212
REMARK INTRA:                  -0.557
REMARK UNBOUND:                 0.322
REMARK SMILES O=c1c(-c2ccc(O)cc2)coc2c([C@@H]3O[C@H](CO)[C@@H](O)[C@H](O)[C@@H]3O)c(O)ccc12
REMARK SMILES IDX 3 1 11 2 12 3 13 4 30 5 2 6 1 7 29 8 28 9 26 10 14 11 4 12
REMARK SMILES IDX 5 13 6 14 7 15 10 16 9 17 8 18 15 20 24 21 16 22 22 23 17 24
REMARK SMILES IDX 20 25 25 26 23 28 18 30 19 31 21 33 27 35
REMARK H PARENT 8 19 25 27 23 29 19 32 21 34 27 36
REMARK Flexibility Score: inf
ROOT
ATOM      1  C   UNL     1      36.143  12.382  -5.648  1.00  0.00     0.065 A 
ATOM      2  C   UNL     1      36.910  13.219  -4.829  1.00  0.00     0.208 A 
ATOM      3  O   UNL     1      36.629  14.511  -4.723  1.00  0.00    -0.463 OA
ATOM      4  C   UNL     1      35.626  15.100  -5.372  1.00  0.00     0.147 A 
ATOM      5  C   UNL     1      34.795  14.323  -6.214  1.00  0.00     0.066 A 
ATOM      6  C   UNL     1      35.068  12.950  -6.354  1.00  0.00     0.200 A 
ATOM      7  O   UNL     1      34.366  12.236  -7.124  1.00  0.00    -0.288 OA
ATOM      8  C   UNL     1      33.726  14.932  -6.881  1.00  0.00     0.020 A 
ATOM      9  C   UNL     1      33.472  16.287  -6.703  1.00  0.00     0.047 A 
ATOM     10  C   UNL     1      34.288  17.074  -5.877  1.00  0.00     0.125 A 
ATOM     11  C   UNL     1      35.405  16.495  -5.213  1.00  0.00     0.069 A 
ENDROOT
BRANCH   1  12
ATOM     12  C   UNL     1      36.479  10.939  -5.750  1.00  0.00    -0.011 A 
ATOM     13  C   UNL     1      36.388  10.109  -4.619  1.00  0.00     0.013 A 
ATOM     14  C   UNL     1      36.679   8.746  -4.717  1.00  0.00     0.047 A 
ATOM     15  C   UNL     1      37.057   8.193  -5.949  1.00  0.00     0.115 A 
ATOM     16  C   UNL     1      36.858  10.378  -6.983  1.00  0.00     0.013 A 
ATOM     17  C   UNL     1      37.146   9.012  -7.079  1.00  0.00     0.047 A 
BRANCH  15  18
ATOM     18  O   UNL     1      37.345   6.835  -6.060  1.00  0.00    -0.508 OA
ATOM     19  H   UNL     1      36.615   6.151  -6.219  1.00  0.00     0.293 HD
ENDBRANCH  15  18
ENDBRANCH   1  12
BRANCH  11  20
ATOM     20  C   UNL     1      36.354  17.252  -4.258  1.00  0.00     0.188 C 
ATOM     21  C   UNL     1      36.834  18.708  -4.550  1.00  0.00     0.179 C 
ATOM     22  O   UNL     1      36.003  17.044  -2.900  1.00  0.00    -0.362 OA
ATOM     23  C   UNL     1      36.297  19.727  -3.516  1.00  0.00     0.177 C 
ATOM     24  C   UNL     1      34.953  17.872  -2.411  1.00  0.00     0.176 C 
ATOM     25  C   UNL     1      34.928  19.326  -2.968  1.00  0.00     0.177 C 
BRANCH  21  26
ATOM     26  O   UNL     1      36.561  19.090  -5.874  1.00  0.00    -0.387 OA
ATOM     27  H   UNL     1      35.991  18.385  -6.278  1.00  0.00     0.211 HD
ENDBRANCH  21  26
BRANCH  23  28
ATOM     28  O   UNL     1      36.219  21.015  -4.072  1.00  0.00    -0.387 OA
ATOM     29  H   UNL     1      36.438  21.654  -3.343  1.00  0.00     0.211 HD
ENDBRANCH  23  28
BRANCH  24  30
ATOM     30  C   UNL     1      33.591  17.162  -2.541  1.00  0.00     0.191 C 
BRANCH  30  31
ATOM     31  O   UNL     1      32.602  18.057  -2.973  1.00  0.00    -0.394 OA
ATOM     32  H   UNL     1      32.944  18.480  -3.804  1.00  0.00     0.210 HD
ENDBRANCH  30  31
ENDBRANCH  24  30
BRANCH  25  33
ATOM     33  O   UNL     1      34.578  20.221  -1.940  1.00  0.00    -0.388 OA
ATOM     34  H   UNL     1      34.926  19.844  -1.091  1.00  0.00     0.211 HD
ENDBRANCH  25  33
ENDBRANCH  11  20
BRANCH  10  35
ATOM     35  O   UNL     1      33.953  18.414  -5.716  1.00  0.00    -0.507 OA
ATOM     36  H   UNL     1      33.082  18.705  -5.287  1.00  0.00     0.293 HD
ENDBRANCH  10  35
TORSDOF 9
ENDMDL
