MODEL 1
REMARK VINA RESULT:    -4.753      0.000      0.000
REMARK INTER + INTRA:          -5.540
REMARK INTER:                  -5.447
REMARK INTRA:                  -0.092
REMARK UNBOUND:                -0.092
REMARK SMILES COc1cc(C(=O)[O-])ccc1O
REMARK SMILES IDX 5 1 9 2 4 3 10 4 3 5 11 6 6 7 7 8 8 9 2 10 1 11 12 12
REMARK H PARENT 12 13
REMARK Flexibility Score: inf
ROOT
ATOM      1  C   UNL     1     -18.082  22.895  15.406  1.00  0.00     0.001 A 
ATOM      2  C   UNL     1     -19.044  22.609  16.388  1.00  0.00     0.014 A 
ATOM      3  C   UNL     1     -18.456  22.856  14.050  1.00  0.00     0.060 A 
ATOM      4  C   UNL     1     -20.353  22.290  16.023  1.00  0.00     0.051 A 
ATOM      5  C   UNL     1     -19.776  22.534  13.676  1.00  0.00     0.161 A 
ATOM      6  C   UNL     1     -20.724  22.250  14.676  1.00  0.00     0.157 A 
ENDROOT
BRANCH   1   7
ATOM      7  C   UNL     1     -16.693  23.233  15.789  1.00  0.00     0.072 C 
ATOM      8  O   UNL     1     -16.043  24.097  15.142  1.00  0.00    -0.545 OA
ATOM      9  O   UNL     1     -16.085  22.601  16.867  1.00  0.00    -0.545 OA
ENDBRANCH   1   7
BRANCH   5  10
ATOM     10  O   UNL     1     -20.178  22.487  12.331  1.00  0.00    -0.493 OA
ATOM     11  C   UNL     1     -20.134  23.593  11.434  1.00  0.00     0.278 C 
ENDBRANCH   5  10
BRANCH   6  12
ATOM     12  O   UNL     1     -22.041  21.927  14.350  1.00  0.00    -0.504 OA
ATOM     13  H   UNL     1     -22.381  20.974  14.357  1.00  0.00     0.293 HD
ENDBRANCH   6  12
TORSDOF 3
ENDMDL
MODEL 2
REMARK VINA RESULT:    -4.734      2.021      2.678
REMARK INTER + INTRA:          -5.519
REMARK INTER:                  -5.422
REMARK INTRA:                  -0.097
REMARK UNBOUND:                -0.092
REMARK SMILES COc1cc(C(=O)[O-])ccc1O
REMARK SMILES IDX 5 1 9 2 4 3 10 4 3 5 11 6 6 7 7 8 8 9 2 10 1 11 12 12
REMARK H PARENT 12 13
REMARK Flexibility Score: inf
ROOT
ATOM      1  C   UNL     1     -19.196  22.530  14.427  1.00  0.00     0.001 A 
ATOM      2  C   UNL     1     -19.773  23.687  14.976  1.00  0.00     0.014 A 
ATOM      3  C   UNL     1     -19.268  22.324  13.037  1.00  0.00     0.060 A 
ATOM      4  C   UNL     1     -20.409  24.618  14.153  1.00  0.00     0.051 A 
ATOM      5  C   UNL     1     -19.909  23.261  12.202  1.00  0.00     0.161 A 
ATOM      6  C   UNL     1     -20.481  24.412  12.773  1.00  0.00     0.157 A 
ENDROOT
BRANCH   1   7
ATOM      7  C   UNL     1     -18.521  21.540  15.296  1.00  0.00     0.072 C 
ATOM      8  O   UNL     1     -19.177  20.885  16.149  1.00  0.00    -0.545 OA
ATOM      9  O   UNL     1     -17.153  21.321  15.185  1.00  0.00    -0.545 OA
ENDBRANCH   1   7
BRANCH   5  10
ATOM     10  O   UNL     1     -19.997  23.081  10.812  1.00  0.00    -0.493 OA
ATOM     11  C   UNL     1     -18.932  23.321   9.897  1.00  0.00     0.278 C 
ENDBRANCH   5  10
BRANCH   6  12
ATOM     12  O   UNL     1     -21.125  25.365  11.983  1.00  0.00    -0.504 OA
ATOM     13  H   UNL     1     -21.478  25.150  11.059  1.00  0.00     0.293 HD
ENDBRANCH   6  12
TORSDOF 3
ENDMDL
MODEL 3
REMARK VINA RESULT:    -4.565      1.415      1.775
REMARK INTER + INTRA:          -5.324
REMARK INTER:                  -5.226
REMARK INTRA:                  -0.099
REMARK UNBOUND:                -0.092
REMARK SMILES COc1cc(C(=O)[O-])ccc1O
REMARK SMILES IDX 5 1 9 2 4 3 10 4 3 5 11 6 6 7 7 8 8 9 2 10 1 11 12 12
REMARK H PARENT 12 13
REMARK Flexibility Score: inf
ROOT
ATOM      1  C   UNL     1     -18.145  22.756  15.265  1.00  0.00     0.001 A 
ATOM      2  C   UNL     1     -19.450  23.251  15.413  1.00  0.00     0.014 A 
ATOM      3  C   UNL     1     -17.747  22.235  14.020  1.00  0.00     0.060 A 
ATOM      4  C   UNL     1     -20.340  23.226  14.339  1.00  0.00     0.051 A 
ATOM      5  C   UNL     1     -18.643  22.207  12.932  1.00  0.00     0.161 A 
ATOM      6  C   UNL     1     -19.946  22.708  13.102  1.00  0.00     0.157 A 
ENDROOT
BRANCH   1   7
ATOM      7  C   UNL     1     -17.197  22.780  16.403  1.00  0.00     0.072 C 
ATOM      8  O   UNL     1     -15.998  23.125  16.231  1.00  0.00    -0.545 OA
ATOM      9  O   UNL     1     -17.618  22.419  17.678  1.00  0.00    -0.545 OA
ENDBRANCH   1   7
BRANCH   5  10
ATOM     10  O   UNL     1     -18.274  21.693  11.678  1.00  0.00    -0.493 OA
ATOM     11  C   UNL     1     -17.585  22.430  10.673  1.00  0.00     0.278 C 
ENDBRANCH   5  10
BRANCH   6  12
ATOM     12  O   UNL     1     -20.864  22.700  12.051  1.00  0.00    -0.504 OA
ATOM     13  H   UNL     1     -21.862  22.646  12.207  1.00  0.00     0.293 HD
ENDBRANCH   6  12
TORSDOF 3
ENDMDL
MODEL 4
REMARK VINA RESULT:    -4.496      1.826      4.294
REMARK INTER + INTRA:          -5.245
REMARK INTER:                  -5.155
REMARK INTRA:                  -0.090
REMARK UNBOUND:                -0.092
REMARK SMILES COc1cc(C(=O)[O-])ccc1O
REMARK SMILES IDX 5 1 9 2 4 3 10 4 3 5 11 6 6 7 7 8 8 9 2 10 1 11 12 12
REMARK H PARENT 12 13
REMARK Flexibility Score: inf
ROOT
ATOM      1  C   UNL     1     -19.131  22.419  14.338  1.00  0.00     0.001 A 
ATOM      2  C   UNL     1     -20.183  23.087  14.986  1.00  0.00     0.014 A 
ATOM      3  C   UNL     1     -18.113  21.833  15.113  1.00  0.00     0.060 A 
ATOM      4  C   UNL     1     -20.217  23.166  16.379  1.00  0.00     0.051 A 
ATOM      5  C   UNL     1     -18.143  21.911  16.520  1.00  0.00     0.161 A 
ATOM      6  C   UNL     1     -19.206  22.584  17.148  1.00  0.00     0.157 A 
ENDROOT
BRANCH   1   7
ATOM      7  C   UNL     1     -19.090  22.333  12.861  1.00  0.00     0.072 C 
ATOM      8  O   UNL     1     -18.039  21.971  12.269  1.00  0.00    -0.545 OA
ATOM      9  O   UNL     1     -20.212  22.652  12.105  1.00  0.00    -0.545 OA
ENDBRANCH   1   7
BRANCH   5  10
ATOM     10  O   UNL     1     -17.142  21.335  17.319  1.00  0.00    -0.493 OA
ATOM     11  C   UNL     1     -15.954  22.003  17.734  1.00  0.00     0.278 C 
ENDBRANCH   5  10
BRANCH   6  12
ATOM     12  O   UNL     1     -19.275  22.685  18.538  1.00  0.00    -0.504 OA
ATOM     13  H   UNL     1     -20.006  22.237  19.076  1.00  0.00     0.293 HD
ENDBRANCH   6  12
TORSDOF 3
ENDMDL
MODEL 5
REMARK VINA RESULT:    -4.461      1.545      4.554
REMARK INTER + INTRA:          -5.205
REMARK INTER:                  -5.120
REMARK INTRA:                  -0.085
REMARK UNBOUND:                -0.092
REMARK SMILES COc1cc(C(=O)[O-])ccc1O
REMARK SMILES IDX 5 1 9 2 4 3 10 4 3 5 11 6 6 7 7 8 8 9 2 10 1 11 12 12
REMARK H PARENT 12 13
REMARK Flexibility Score: inf
ROOT
ATOM      1  C   UNL     1     -19.743  22.227  15.711  1.00  0.00     0.001 A 
ATOM      2  C   UNL     1     -20.131  22.376  17.052  1.00  0.00     0.014 A 
ATOM      3  C   UNL     1     -18.373  22.144  15.400  1.00  0.00     0.060 A 
ATOM      4  C   UNL     1     -19.170  22.440  18.062  1.00  0.00     0.051 A 
ATOM      5  C   UNL     1     -17.399  22.209  16.417  1.00  0.00     0.161 A 
ATOM      6  C   UNL     1     -17.809  22.359  17.754  1.00  0.00     0.157 A 
ENDROOT
BRANCH   1   7
ATOM      7  C   UNL     1     -20.759  22.159  14.637  1.00  0.00     0.072 C 
ATOM      8  O   UNL     1     -20.497  22.581  13.479  1.00  0.00    -0.545 OA
ATOM      9  O   UNL     1     -22.019  21.629  14.891  1.00  0.00    -0.545 OA
ENDBRANCH   1   7
BRANCH   5  10
ATOM     10  O   UNL     1     -16.025  22.130  16.136  1.00  0.00    -0.493 OA
ATOM     11  C   UNL     1     -15.436  21.194  15.239  1.00  0.00     0.278 C 
ENDBRANCH   5  10
BRANCH   6  12
ATOM     12  O   UNL     1     -16.878  22.427  18.790  1.00  0.00    -0.504 OA
ATOM     13  H   UNL     1     -17.150  22.599  19.750  1.00  0.00     0.293 HD
ENDBRANCH   6  12
TORSDOF 3
ENDMDL
MODEL 6
REMARK VINA RESULT:    -4.456      2.226      3.834
REMARK INTER + INTRA:          -5.199
REMARK INTER:                  -5.115
REMARK INTRA:                  -0.085
REMARK UNBOUND:                -0.092
REMARK SMILES COc1cc(C(=O)[O-])ccc1O
REMARK SMILES IDX 5 1 9 2 4 3 10 4 3 5 11 6 6 7 7 8 8 9 2 10 1 11 12 12
REMARK H PARENT 12 13
REMARK Flexibility Score: inf
ROOT
ATOM      1  C   UNL     1     -18.661  23.096  14.730  1.00  0.00     0.001 A 
ATOM      2  C   UNL     1     -17.450  23.509  15.307  1.00  0.00     0.014 A 
ATOM      3  C   UNL     1     -18.631  22.331  13.549  1.00  0.00     0.060 A 
ATOM      4  C   UNL     1     -16.233  23.164  14.718  1.00  0.00     0.051 A 
ATOM      5  C   UNL     1     -17.404  21.980  12.950  1.00  0.00     0.161 A 
ATOM      6  C   UNL     1     -16.202  22.404  13.545  1.00  0.00     0.157 A 
ENDROOT
BRANCH   1   7
ATOM      7  C   UNL     1     -19.955  23.460  15.351  1.00  0.00     0.072 C 
ATOM      8  O   UNL     1     -20.872  23.980  14.663  1.00  0.00    -0.545 OA
ATOM      9  O   UNL     1     -20.174  23.235  16.705  1.00  0.00    -0.545 OA
ENDBRANCH   1   7
BRANCH   5  10
ATOM     10  O   UNL     1     -17.342  21.218  11.772  1.00  0.00    -0.493 OA
ATOM     11  C   UNL     1     -18.084  21.497  10.588  1.00  0.00     0.278 C 
ENDBRANCH   5  10
BRANCH   6  12
ATOM     12  O   UNL     1     -14.967  22.079  12.986  1.00  0.00    -0.504 OA
ATOM     13  H   UNL     1     -14.493  22.690  12.332  1.00  0.00     0.293 HD
ENDBRANCH   6  12
TORSDOF 3
ENDMDL
MODEL 7
REMARK VINA RESULT:    -4.439      1.912      4.607
REMARK INTER + INTRA:          -5.181
REMARK INTER:                  -5.078
REMARK INTRA:                  -0.103
REMARK UNBOUND:                -0.092
REMARK SMILES COc1cc(C(=O)[O-])ccc1O
REMARK SMILES IDX 5 1 9 2 4 3 10 4 3 5 11 6 6 7 7 8 8 9 2 10 1 11 12 12
REMARK H PARENT 12 13
REMARK Flexibility Score: inf
ROOT
ATOM      1  C   UNL     1     -18.200  22.361  14.721  1.00  0.00     0.001 A 
ATOM      2  C   UNL     1     -16.842  22.536  15.032  1.00  0.00     0.014 A 
ATOM      3  C   UNL     1     -19.133  22.247  15.768  1.00  0.00     0.060 A 
ATOM      4  C   UNL     1     -16.424  22.597  16.362  1.00  0.00     0.051 A 
ATOM      5  C   UNL     1     -18.715  22.307  17.114  1.00  0.00     0.161 A 
ATOM      6  C   UNL     1     -17.350  22.483  17.403  1.00  0.00     0.157 A 
ENDROOT
BRANCH   1   7
ATOM      7  C   UNL     1     -18.647  22.297  13.311  1.00  0.00     0.072 C 
ATOM      8  O   UNL     1     -19.856  22.491  13.013  1.00  0.00    -0.545 OA
ATOM      9  O   UNL     1     -17.740  22.019  12.296  1.00  0.00    -0.545 OA
ENDBRANCH   1   7
BRANCH   5  10
ATOM     10  O   UNL     1     -19.623  22.196  18.180  1.00  0.00    -0.493 OA
ATOM     11  C   UNL     1     -20.175  20.969  18.648  1.00  0.00     0.278 C 
ENDBRANCH   5  10
BRANCH   6  12
ATOM     12  O   UNL     1     -16.895  22.547  18.720  1.00  0.00    -0.504 OA
ATOM     13  H   UNL     1     -16.384  21.788  19.152  1.00  0.00     0.293 HD
ENDBRANCH   6  12
TORSDOF 3
ENDMDL
MODEL 8
REMARK VINA RESULT:    -4.391      1.937      2.279
REMARK INTER + INTRA:          -5.125
REMARK INTER:                  -5.026
REMARK INTRA:                  -0.099
REMARK UNBOUND:                -0.092
REMARK SMILES COc1cc(C(=O)[O-])ccc1O
REMARK SMILES IDX 5 1 9 2 4 3 10 4 3 5 11 6 6 7 7 8 8 9 2 10 1 11 12 12
REMARK H PARENT 12 13
REMARK Flexibility Score: inf
ROOT
ATOM      1  C   UNL     1     -17.374  22.023  13.999  1.00  0.00     0.001 A 
ATOM      2  C   UNL     1     -17.744  22.786  15.118  1.00  0.00     0.014 A 
ATOM      3  C   UNL     1     -18.220  22.001  12.875  1.00  0.00     0.060 A 
ATOM      4  C   UNL     1     -18.935  23.513  15.114  1.00  0.00     0.051 A 
ATOM      5  C   UNL     1     -19.424  22.734  12.866  1.00  0.00     0.161 A 
ATOM      6  C   UNL     1     -19.776  23.491  13.998  1.00  0.00     0.157 A 
ENDROOT
BRANCH   1   7
ATOM      7  C   UNL     1     -16.111  21.250  14.000  1.00  0.00     0.072 C 
ATOM      8  O   UNL     1     -15.563  20.920  15.085  1.00  0.00    -0.545 OA
ATOM      9  O   UNL     1     -15.512  20.878  12.802  1.00  0.00    -0.545 OA
ENDBRANCH   1   7
BRANCH   5  10
ATOM     10  O   UNL     1     -20.288  22.731  11.759  1.00  0.00    -0.493 OA
ATOM     11  C   UNL     1     -20.000  23.346  10.507  1.00  0.00     0.278 C 
ENDBRANCH   5  10
BRANCH   6  12
ATOM     12  O   UNL     1     -20.959  24.231  14.030  1.00  0.00    -0.504 OA
ATOM     13  H   UNL     1     -21.844  23.846  13.727  1.00  0.00     0.293 HD
ENDBRANCH   6  12
TORSDOF 3
ENDMDL
MODEL 9
REMARK VINA RESULT:    -4.255      2.088      4.279
REMARK INTER + INTRA:          -4.969
REMARK INTER:                  -4.869
REMARK INTRA:                  -0.100
REMARK UNBOUND:                -0.092
REMARK SMILES COc1cc(C(=O)[O-])ccc1O
REMARK SMILES IDX 5 1 9 2 4 3 10 4 3 5 11 6 6 7 7 8 8 9 2 10 1 11 12 12
REMARK H PARENT 12 13
REMARK Flexibility Score: inf
ROOT
ATOM      1  C   UNL     1     -19.773  23.274  12.886  1.00  0.00     0.001 A 
ATOM      2  C   UNL     1     -20.416  23.981  13.915  1.00  0.00     0.014 A 
ATOM      3  C   UNL     1     -18.775  22.340  13.217  1.00  0.00     0.060 A 
ATOM      4  C   UNL     1     -20.068  23.759  15.248  1.00  0.00     0.051 A 
ATOM      5  C   UNL     1     -18.420  22.112  14.562  1.00  0.00     0.161 A 
ATOM      6  C   UNL     1     -19.076  22.831  15.578  1.00  0.00     0.157 A 
ENDROOT
BRANCH   1   7
ATOM      7  C   UNL     1     -20.139  23.507  11.470  1.00  0.00     0.072 C 
ATOM      8  O   UNL     1     -20.422  24.665  11.064  1.00  0.00    -0.545 OA
ATOM      9  O   UNL     1     -20.177  22.450  10.568  1.00  0.00    -0.545 OA
ENDBRANCH   1   7
BRANCH   5  10
ATOM     10  O   UNL     1     -17.427  21.186  14.923  1.00  0.00    -0.493 OA
ATOM     11  C   UNL     1     -16.027  21.400  14.771  1.00  0.00     0.278 C 
ENDBRANCH   5  10
BRANCH   6  12
ATOM     12  O   UNL     1     -18.756  22.636  16.921  1.00  0.00    -0.504 OA
ATOM     13  H   UNL     1     -18.649  21.713  17.322  1.00  0.00     0.293 HD
ENDBRANCH   6  12
TORSDOF 3
ENDMDL
