MODEL 1
REMARK VINA RESULT:    -6.283      0.000      0.000
REMARK INTER + INTRA:          -7.553
REMARK INTER:                  -7.385
REMARK INTRA:                  -0.168
REMARK UNBOUND:                -0.168
REMARK SMILES O=c1c(O)c(-c2ccc(O)cc2)oc2cc(O)cc(O)c12
REMARK SMILES IDX 5 1 3 2 2 3 1 4 21 5 19 6 18 7 16 8 15 9 14 10 13 11 6 12
REMARK SMILES IDX 7 13 8 14 9 15 12 16 11 17 10 18 4 20 20 22 17 24
REMARK H PARENT 10 19 4 21 20 23 17 25
REMARK Flexibility Score: inf
ROOT
ATOM      1  C   UNL     1      18.456  -0.933 -16.560  1.00  0.00     0.180 A 
ATOM      2  C   UNL     1      17.802  -0.048 -15.681  1.00  0.00     0.208 A 
ATOM      3  C   UNL     1      17.029  -0.579 -14.637  1.00  0.00     0.238 A 
ATOM      4  O   UNL     1      16.429   0.205 -13.850  1.00  0.00    -0.285 OA
ATOM      5  C   UNL     1      16.938  -1.977 -14.477  1.00  0.00     0.111 A 
ATOM      6  C   UNL     1      16.182  -2.591 -13.449  1.00  0.00     0.134 A 
ATOM      7  C   UNL     1      16.149  -3.989 -13.351  1.00  0.00     0.093 A 
ATOM      8  C   UNL     1      16.857  -4.784 -14.256  1.00  0.00     0.123 A 
ATOM      9  C   UNL     1      17.604  -4.182 -15.274  1.00  0.00     0.094 A 
ATOM     10  C   UNL     1      17.648  -2.790 -15.390  1.00  0.00     0.146 A 
ATOM     11  O   UNL     1      18.360  -2.246 -16.369  1.00  0.00    -0.452 OA
ENDROOT
BRANCH   1  12
ATOM     12  C   UNL     1      19.275  -0.451 -17.696  1.00  0.00     0.021 A 
ATOM     13  C   UNL     1      18.804  -0.620 -19.009  1.00  0.00     0.016 A 
ATOM     14  C   UNL     1      19.550  -0.152 -20.095  1.00  0.00     0.047 A 
ATOM     15  C   UNL     1      20.769   0.503 -19.881  1.00  0.00     0.115 A 
ATOM     16  C   UNL     1      20.491   0.227 -17.488  1.00  0.00     0.016 A 
ATOM     17  C   UNL     1      21.234   0.694 -18.577  1.00  0.00     0.047 A 
BRANCH  15  18
ATOM     18  O   UNL     1      21.522   0.973 -20.955  1.00  0.00    -0.508 OA
ATOM     19  H   UNL     1      21.565   0.468 -21.833  1.00  0.00     0.293 HD
ENDBRANCH  15  18
ENDBRANCH   1  12
BRANCH   2  20
ATOM     20  O   UNL     1      17.949   1.333 -15.832  1.00  0.00    -0.502 OA
ATOM     21  H   UNL     1      17.156   1.964 -15.843  1.00  0.00     0.293 HD
ENDBRANCH   2  20
BRANCH   6  22
ATOM     22  O   UNL     1      15.467  -1.824 -12.527  1.00  0.00    -0.507 OA
ATOM     23  H   UNL     1      14.544  -1.463 -12.738  1.00  0.00     0.293 HD
ENDBRANCH   6  22
BRANCH   8  24
ATOM     24  O   UNL     1      16.808  -6.171 -14.136  1.00  0.00    -0.508 OA
ATOM     25  H   UNL     1      17.623  -6.708 -13.863  1.00  0.00     0.293 HD
ENDBRANCH   8  24
TORSDOF 5
ENDMDL
MODEL 2
REMARK VINA RESULT:    -6.173      3.715      5.293
REMARK INTER + INTRA:          -7.424
REMARK INTER:                  -7.370
REMARK INTRA:                  -0.053
REMARK UNBOUND:                -0.168
REMARK SMILES O=c1c(O)c(-c2ccc(O)cc2)oc2cc(O)cc(O)c12
REMARK SMILES IDX 5 1 3 2 2 3 1 4 21 5 19 6 18 7 16 8 15 9 14 10 13 11 6 12
REMARK SMILES IDX 7 13 8 14 9 15 12 16 11 17 10 18 4 20 20 22 17 24
REMARK H PARENT 10 19 4 21 20 23 17 25
REMARK Flexibility Score: inf
ROOT
ATOM      1  C   UNL     1      20.769   0.667 -17.287  1.00  0.00     0.180 A 
ATOM      2  C   UNL     1      19.555   0.608 -16.575  1.00  0.00     0.208 A 
ATOM      3  C   UNL     1      19.545   0.971 -15.219  1.00  0.00     0.238 A 
ATOM      4  O   UNL     1      18.466   0.911 -14.569  1.00  0.00    -0.285 OA
ATOM      5  C   UNL     1      20.739   1.403 -14.605  1.00  0.00     0.111 A 
ATOM      6  C   UNL     1      20.813   1.789 -13.245  1.00  0.00     0.134 A 
ATOM      7  C   UNL     1      22.037   2.217 -12.709  1.00  0.00     0.093 A 
ATOM      8  C   UNL     1      23.184   2.267 -13.505  1.00  0.00     0.123 A 
ATOM      9  C   UNL     1      23.116   1.886 -14.849  1.00  0.00     0.094 A 
ATOM     10  C   UNL     1      21.906   1.456 -15.401  1.00  0.00     0.146 A 
ATOM     11  O   UNL     1      21.872   1.095 -16.678  1.00  0.00    -0.452 OA
ENDROOT
BRANCH   1  12
ATOM     12  C   UNL     1      20.863   0.284 -18.714  1.00  0.00     0.021 A 
ATOM     13  C   UNL     1      20.473  -1.006 -19.111  1.00  0.00     0.016 A 
ATOM     14  C   UNL     1      20.533  -1.382 -20.456  1.00  0.00     0.047 A 
ATOM     15  C   UNL     1      20.969  -0.467 -21.423  1.00  0.00     0.115 A 
ATOM     16  C   UNL     1      21.281   1.203 -19.694  1.00  0.00     0.016 A 
ATOM     17  C   UNL     1      21.339   0.825 -21.039  1.00  0.00     0.047 A 
BRANCH  15  18
ATOM     18  O   UNL     1      21.033  -0.830 -22.767  1.00  0.00    -0.508 OA
ATOM     19  H   UNL     1      20.346  -1.449 -23.182  1.00  0.00     0.293 HD
ENDBRANCH  15  18
ENDBRANCH   1  12
BRANCH   2  20
ATOM     20  O   UNL     1      18.377   0.224 -17.220  1.00  0.00    -0.502 OA
ATOM     21  H   UNL     1      18.285   0.228 -18.229  1.00  0.00     0.293 HD
ENDBRANCH   2  20
BRANCH   6  22
ATOM     22  O   UNL     1      19.684   1.752 -12.424  1.00  0.00    -0.507 OA
ATOM     23  H   UNL     1      18.889   2.358 -12.586  1.00  0.00     0.293 HD
ENDBRANCH   6  22
BRANCH   8  24
ATOM     24  O   UNL     1      24.387   2.697 -12.948  1.00  0.00    -0.508 OA
ATOM     25  H   UNL     1      24.873   2.149 -12.249  1.00  0.00     0.293 HD
ENDBRANCH   8  24
TORSDOF 5
ENDMDL
MODEL 3
REMARK VINA RESULT:    -6.107      1.929      6.695
REMARK INTER + INTRA:          -7.347
REMARK INTER:                  -7.059
REMARK INTRA:                  -0.288
REMARK UNBOUND:                -0.168
REMARK SMILES O=c1c(O)c(-c2ccc(O)cc2)oc2cc(O)cc(O)c12
REMARK SMILES IDX 5 1 3 2 2 3 1 4 21 5 19 6 18 7 16 8 15 9 14 10 13 11 6 12
REMARK SMILES IDX 7 13 8 14 9 15 12 16 11 17 10 18 4 20 20 22 17 24
REMARK H PARENT 10 19 4 21 20 23 17 25
REMARK Flexibility Score: inf
ROOT
ATOM      1  C   UNL     1      18.335  -0.182 -15.887  1.00  0.00     0.180 A 
ATOM      2  C   UNL     1      19.406   0.601 -15.415  1.00  0.00     0.208 A 
ATOM      3  C   UNL     1      20.438   0.944 -16.302  1.00  0.00     0.238 A 
ATOM      4  O   UNL     1      21.409   1.636 -15.887  1.00  0.00    -0.285 OA
ATOM      5  C   UNL     1      20.373   0.518 -17.645  1.00  0.00     0.111 A 
ATOM      6  C   UNL     1      21.370   0.825 -18.603  1.00  0.00     0.134 A 
ATOM      7  C   UNL     1      21.229   0.372 -19.923  1.00  0.00     0.093 A 
ATOM      8  C   UNL     1      20.112  -0.377 -20.303  1.00  0.00     0.123 A 
ATOM      9  C   UNL     1      19.126  -0.683 -19.361  1.00  0.00     0.094 A 
ATOM     10  C   UNL     1      19.249  -0.243 -18.040  1.00  0.00     0.146 A 
ATOM     11  O   UNL     1      18.300  -0.552 -17.165  1.00  0.00    -0.452 OA
ENDROOT
BRANCH   1  12
ATOM     12  C   UNL     1      17.219  -0.599 -15.009  1.00  0.00     0.021 A 
ATOM     13  C   UNL     1      17.303  -1.819 -14.317  1.00  0.00     0.016 A 
ATOM     14  C   UNL     1      16.271  -2.223 -13.464  1.00  0.00     0.047 A 
ATOM     15  C   UNL     1      15.149  -1.404 -13.282  1.00  0.00     0.115 A 
ATOM     16  C   UNL     1      16.098   0.226 -14.804  1.00  0.00     0.016 A 
ATOM     17  C   UNL     1      15.068  -0.180 -13.950  1.00  0.00     0.047 A 
BRANCH  15  18
ATOM     18  O   UNL     1      14.114  -1.796 -12.435  1.00  0.00    -0.508 OA
ATOM     19  H   UNL     1      13.383  -2.425 -12.748  1.00  0.00     0.293 HD
ENDBRANCH  15  18
ENDBRANCH   1  12
BRANCH   2  20
ATOM     20  O   UNL     1      19.422   1.052 -14.093  1.00  0.00    -0.502 OA
ATOM     21  H   UNL     1      18.783   0.696 -13.391  1.00  0.00     0.293 HD
ENDBRANCH   2  20
BRANCH   6  22
ATOM     22  O   UNL     1      22.496   1.573 -18.255  1.00  0.00    -0.507 OA
ATOM     23  H   UNL     1      22.433   2.562 -18.045  1.00  0.00     0.293 HD
ENDBRANCH   6  22
BRANCH   8  24
ATOM     24  O   UNL     1      19.995  -0.814 -21.622  1.00  0.00    -0.508 OA
ATOM     25  H   UNL     1      19.256  -0.478 -22.227  1.00  0.00     0.293 HD
ENDBRANCH   8  24
TORSDOF 5
ENDMDL
MODEL 4
REMARK VINA RESULT:    -6.050      3.518      4.725
REMARK INTER + INTRA:          -7.279
REMARK INTER:                  -7.119
REMARK INTRA:                  -0.160
REMARK UNBOUND:                -0.168
REMARK SMILES O=c1c(O)c(-c2ccc(O)cc2)oc2cc(O)cc(O)c12
REMARK SMILES IDX 5 1 3 2 2 3 1 4 21 5 19 6 18 7 16 8 15 9 14 10 13 11 6 12
REMARK SMILES IDX 7 13 8 14 9 15 12 16 11 17 10 18 4 20 20 22 17 24
REMARK H PARENT 10 19 4 21 20 23 17 25
REMARK Flexibility Score: inf
ROOT
ATOM      1  C   UNL     1      20.774   0.762 -17.324  1.00  0.00     0.180 A 
ATOM      2  C   UNL     1      21.902   1.127 -16.564  1.00  0.00     0.208 A 
ATOM      3  C   UNL     1      21.721   1.524 -15.229  1.00  0.00     0.238 A 
ATOM      4  O   UNL     1      22.723   1.865 -14.542  1.00  0.00    -0.285 OA
ATOM      5  C   UNL     1      20.425   1.530 -14.674  1.00  0.00     0.111 A 
ATOM      6  C   UNL     1      20.158   1.913 -13.337  1.00  0.00     0.134 A 
ATOM      7  C   UNL     1      18.841   1.883 -12.854  1.00  0.00     0.093 A 
ATOM      8  C   UNL     1      17.789   1.477 -13.679  1.00  0.00     0.123 A 
ATOM      9  C   UNL     1      18.048   1.099 -15.001  1.00  0.00     0.094 A 
ATOM     10  C   UNL     1      19.353   1.124 -15.501  1.00  0.00     0.146 A 
ATOM     11  O   UNL     1      19.568   0.765 -16.760  1.00  0.00    -0.452 OA
ENDROOT
BRANCH   1  12
ATOM     12  C   UNL     1      20.881   0.349 -18.741  1.00  0.00     0.021 A 
ATOM     13  C   UNL     1      20.487  -0.946 -19.117  1.00  0.00     0.016 A 
ATOM     14  C   UNL     1      20.558  -1.350 -20.454  1.00  0.00     0.047 A 
ATOM     15  C   UNL     1      21.009  -0.457 -21.434  1.00  0.00     0.115 A 
ATOM     16  C   UNL     1      21.313   1.246 -19.735  1.00  0.00     0.016 A 
ATOM     17  C   UNL     1      21.382   0.841 -21.072  1.00  0.00     0.047 A 
BRANCH  15  18
ATOM     18  O   UNL     1      21.085  -0.847 -22.770  1.00  0.00    -0.508 OA
ATOM     19  H   UNL     1      20.607  -1.674 -23.107  1.00  0.00     0.293 HD
ENDBRANCH  15  18
ENDBRANCH   1  12
BRANCH   2  20
ATOM     20  O   UNL     1      23.180   1.065 -17.123  1.00  0.00    -0.502 OA
ATOM     21  H   UNL     1      23.615   1.863 -17.571  1.00  0.00     0.293 HD
ENDBRANCH   2  20
BRANCH   6  22
ATOM     22  O   UNL     1      21.187   2.321 -12.487  1.00  0.00    -0.507 OA
ATOM     23  H   UNL     1      22.121   1.935 -12.559  1.00  0.00     0.293 HD
ENDBRANCH   6  22
BRANCH   8  24
ATOM     24  O   UNL     1      16.490   1.456 -13.176  1.00  0.00    -0.508 OA
ATOM     25  H   UNL     1      15.913   0.626 -13.235  1.00  0.00     0.293 HD
ENDBRANCH   8  24
TORSDOF 5
ENDMDL
MODEL 5
REMARK VINA RESULT:    -5.711      6.654     11.658
REMARK INTER + INTRA:          -6.881
REMARK INTER:                  -6.589
REMARK INTRA:                  -0.292
REMARK UNBOUND:                -0.168
REMARK SMILES O=c1c(O)c(-c2ccc(O)cc2)oc2cc(O)cc(O)c12
REMARK SMILES IDX 5 1 3 2 2 3 1 4 21 5 19 6 18 7 16 8 15 9 14 10 13 11 6 12
REMARK SMILES IDX 7 13 8 14 9 15 12 16 11 17 10 18 4 20 20 22 17 24
REMARK H PARENT 10 19 4 21 20 23 17 25
REMARK Flexibility Score: inf
ROOT
ATOM      1  C   UNL     1      11.579  -6.436 -10.336  1.00  0.00     0.180 A 
ATOM      2  C   UNL     1      11.700  -7.622 -11.084  1.00  0.00     0.208 A 
ATOM      3  C   UNL     1      12.824  -7.793 -11.907  1.00  0.00     0.238 A 
ATOM      4  O   UNL     1      12.937  -8.848 -12.591  1.00  0.00    -0.285 OA
ATOM      5  C   UNL     1      13.814  -6.790 -11.953  1.00  0.00     0.111 A 
ATOM      6  C   UNL     1      14.978  -6.887 -12.753  1.00  0.00     0.134 A 
ATOM      7  C   UNL     1      15.922  -5.850 -12.737  1.00  0.00     0.093 A 
ATOM      8  C   UNL     1      15.726  -4.721 -11.937  1.00  0.00     0.123 A 
ATOM      9  C   UNL     1      14.578  -4.620 -11.146  1.00  0.00     0.094 A 
ATOM     10  C   UNL     1      13.624  -5.642 -11.149  1.00  0.00     0.146 A 
ATOM     11  O   UNL     1      12.541  -5.518 -10.392  1.00  0.00    -0.452 OA
ENDROOT
BRANCH   1  12
ATOM     12  C   UNL     1      10.415  -6.173  -9.460  1.00  0.00     0.021 A 
ATOM     13  C   UNL     1      10.523  -6.405  -8.078  1.00  0.00     0.016 A 
ATOM     14  C   UNL     1       9.444  -6.143  -7.228  1.00  0.00     0.047 A 
ATOM     15  C   UNL     1       8.248  -5.630  -7.749  1.00  0.00     0.115 A 
ATOM     16  C   UNL     1       9.218  -5.640  -9.971  1.00  0.00     0.016 A 
ATOM     17  C   UNL     1       8.140  -5.377  -9.119  1.00  0.00     0.047 A 
BRANCH  15  18
ATOM     18  O   UNL     1       7.166  -5.365  -6.912  1.00  0.00    -0.508 OA
ATOM     19  H   UNL     1       6.253  -5.130  -7.286  1.00  0.00     0.293 HD
ENDBRANCH  15  18
ENDBRANCH   1  12
BRANCH   2  20
ATOM     20  O   UNL     1      10.729  -8.622 -10.983  1.00  0.00    -0.502 OA
ATOM     21  H   UNL     1       9.961  -8.568 -10.325  1.00  0.00     0.293 HD
ENDBRANCH   2  20
BRANCH   6  22
ATOM     22  O   UNL     1      15.203  -8.003 -13.561  1.00  0.00    -0.507 OA
ATOM     23  H   UNL     1      15.892  -7.992 -14.305  1.00  0.00     0.293 HD
ENDBRANCH   6  22
BRANCH   8  24
ATOM     24  O   UNL     1      16.680  -3.705 -11.938  1.00  0.00    -0.508 OA
ATOM     25  H   UNL     1      16.700  -2.999 -12.664  1.00  0.00     0.293 HD
ENDBRANCH   8  24
TORSDOF 5
ENDMDL
MODEL 6
REMARK VINA RESULT:    -5.651      7.267      9.696
REMARK INTER + INTRA:          -6.810
REMARK INTER:                  -6.513
REMARK INTRA:                  -0.297
REMARK UNBOUND:                -0.168
REMARK SMILES O=c1c(O)c(-c2ccc(O)cc2)oc2cc(O)cc(O)c12
REMARK SMILES IDX 5 1 3 2 2 3 1 4 21 5 19 6 18 7 16 8 15 9 14 10 13 11 6 12
REMARK SMILES IDX 7 13 8 14 9 15 12 16 11 17 10 18 4 20 20 22 17 24
REMARK H PARENT 10 19 4 21 20 23 17 25
REMARK Flexibility Score: inf
ROOT
ATOM      1  C   UNL     1      19.175  -2.104  -8.257  1.00  0.00     0.180 A 
ATOM      2  C   UNL     1      19.100  -2.669  -6.970  1.00  0.00     0.208 A 
ATOM      3  C   UNL     1      20.286  -3.067  -6.333  1.00  0.00     0.238 A 
ATOM      4  O   UNL     1      20.229  -3.585  -5.184  1.00  0.00    -0.285 OA
ATOM      5  C   UNL     1      21.523  -2.876  -6.982  1.00  0.00     0.111 A 
ATOM      6  C   UNL     1      22.764  -3.245  -6.407  1.00  0.00     0.134 A 
ATOM      7  C   UNL     1      23.954  -3.013  -7.113  1.00  0.00     0.093 A 
ATOM      8  C   UNL     1      23.928  -2.419  -8.377  1.00  0.00     0.123 A 
ATOM      9  C   UNL     1      22.705  -2.053  -8.949  1.00  0.00     0.094 A 
ATOM     10  C   UNL     1      21.509  -2.277  -8.263  1.00  0.00     0.146 A 
ATOM     11  O   UNL     1      20.362  -1.925  -8.832  1.00  0.00    -0.452 OA
ENDROOT
BRANCH   1  12
ATOM     12  C   UNL     1      17.969  -1.677  -9.001  1.00  0.00     0.021 A 
ATOM     13  C   UNL     1      17.521  -0.349  -8.890  1.00  0.00     0.016 A 
ATOM     14  C   UNL     1      16.397   0.082  -9.601  1.00  0.00     0.047 A 
ATOM     15  C   UNL     1      15.716  -0.805 -10.444  1.00  0.00     0.115 A 
ATOM     16  C   UNL     1      17.290  -2.556  -9.865  1.00  0.00     0.016 A 
ATOM     17  C   UNL     1      16.167  -2.121 -10.576  1.00  0.00     0.047 A 
BRANCH  15  18
ATOM     18  O   UNL     1      14.594  -0.388 -11.157  1.00  0.00    -0.508 OA
ATOM     19  H   UNL     1      14.001  -1.048 -11.646  1.00  0.00     0.293 HD
ENDBRANCH  15  18
ENDBRANCH   1  12
BRANCH   2  20
ATOM     20  O   UNL     1      17.866  -2.803  -6.329  1.00  0.00    -0.502 OA
ATOM     21  H   UNL     1      17.444  -3.705  -6.147  1.00  0.00     0.293 HD
ENDBRANCH   2  20
BRANCH   6  22
ATOM     22  O   UNL     1      22.823  -3.839  -5.145  1.00  0.00    -0.507 OA
ATOM     23  H   UNL     1      22.720  -3.295  -4.296  1.00  0.00     0.293 HD
ENDBRANCH   6  22
BRANCH   8  24
ATOM     24  O   UNL     1      25.124  -2.198  -9.056  1.00  0.00    -0.508 OA
ATOM     25  H   UNL     1      25.975  -1.953  -8.565  1.00  0.00     0.293 HD
ENDBRANCH   8  24
TORSDOF 5
ENDMDL
MODEL 7
REMARK VINA RESULT:    -5.640      5.001      7.105
REMARK INTER + INTRA:          -6.797
REMARK INTER:                  -6.550
REMARK INTRA:                  -0.248
REMARK UNBOUND:                -0.168
REMARK SMILES O=c1c(O)c(-c2ccc(O)cc2)oc2cc(O)cc(O)c12
REMARK SMILES IDX 5 1 3 2 2 3 1 4 21 5 19 6 18 7 16 8 15 9 14 10 13 11 6 12
REMARK SMILES IDX 7 13 8 14 9 15 12 16 11 17 10 18 4 20 20 22 17 24
REMARK H PARENT 10 19 4 21 20 23 17 25
REMARK Flexibility Score: inf
ROOT
ATOM      1  C   UNL     1      15.797  -1.169 -11.480  1.00  0.00     0.180 A 
ATOM      2  C   UNL     1      15.605  -2.531 -11.177  1.00  0.00     0.208 A 
ATOM      3  C   UNL     1      16.299  -3.088 -10.092  1.00  0.00     0.238 A 
ATOM      4  O   UNL     1      16.144  -4.310  -9.818  1.00  0.00    -0.285 OA
ATOM      5  C   UNL     1      17.154  -2.275  -9.320  1.00  0.00     0.111 A 
ATOM      6  C   UNL     1      17.887  -2.758  -8.208  1.00  0.00     0.134 A 
ATOM      7  C   UNL     1      18.710  -1.884  -7.484  1.00  0.00     0.093 A 
ATOM      8  C   UNL     1      18.813  -0.538  -7.846  1.00  0.00     0.123 A 
ATOM      9  C   UNL     1      18.092  -0.056  -8.944  1.00  0.00     0.094 A 
ATOM     10  C   UNL     1      17.268  -0.913  -9.679  1.00  0.00     0.146 A 
ATOM     11  O   UNL     1      16.599  -0.429 -10.719  1.00  0.00    -0.452 OA
ENDROOT
BRANCH   1  12
ATOM     12  C   UNL     1      15.115  -0.513 -12.619  1.00  0.00     0.021 A 
ATOM     13  C   UNL     1      13.771  -0.123 -12.489  1.00  0.00     0.016 A 
ATOM     14  C   UNL     1      13.114   0.519 -13.543  1.00  0.00     0.047 A 
ATOM     15  C   UNL     1      13.797   0.791 -14.735  1.00  0.00     0.115 A 
ATOM     16  C   UNL     1      15.799  -0.218 -13.812  1.00  0.00     0.016 A 
ATOM     17  C   UNL     1      15.140   0.425 -14.865  1.00  0.00     0.047 A 
BRANCH  15  18
ATOM     18  O   UNL     1      13.153   1.429 -15.793  1.00  0.00    -0.508 OA
ATOM     19  H   UNL     1      13.266   2.423 -15.960  1.00  0.00     0.293 HD
ENDBRANCH  15  18
ENDBRANCH   1  12
BRANCH   2  20
ATOM     20  O   UNL     1      14.715  -3.302 -11.928  1.00  0.00    -0.502 OA
ATOM     21  H   UNL     1      14.713  -4.315 -11.894  1.00  0.00     0.293 HD
ENDBRANCH   2  20
BRANCH   6  22
ATOM     22  O   UNL     1      17.803  -4.097  -7.819  1.00  0.00    -0.507 OA
ATOM     23  H   UNL     1      16.917  -4.587  -7.788  1.00  0.00     0.293 HD
ENDBRANCH   6  22
BRANCH   8  24
ATOM     24  O   UNL     1      19.637   0.310  -7.109  1.00  0.00    -0.508 OA
ATOM     25  H   UNL     1      20.573   0.035  -6.838  1.00  0.00     0.293 HD
ENDBRANCH   8  24
TORSDOF 5
ENDMDL
MODEL 8
REMARK VINA RESULT:    -5.627      8.676     10.526
REMARK INTER + INTRA:          -6.782
REMARK INTER:                  -6.485
REMARK INTRA:                  -0.297
REMARK UNBOUND:                -0.168
REMARK SMILES O=c1c(O)c(-c2ccc(O)cc2)oc2cc(O)cc(O)c12
REMARK SMILES IDX 5 1 3 2 2 3 1 4 21 5 19 6 18 7 16 8 15 9 14 10 13 11 6 12
REMARK SMILES IDX 7 13 8 14 9 15 12 16 11 17 10 18 4 20 20 22 17 24
REMARK H PARENT 10 19 4 21 20 23 17 25
REMARK Flexibility Score: inf
ROOT
ATOM      1  C   UNL     1      20.634  -1.585  -7.447  1.00  0.00     0.180 A 
ATOM      2  C   UNL     1      19.336  -1.978  -7.828  1.00  0.00     0.208 A 
ATOM      3  C   UNL     1      18.378  -0.987  -8.094  1.00  0.00     0.238 A 
ATOM      4  O   UNL     1      17.209  -1.328  -8.425  1.00  0.00    -0.285 OA
ATOM      5  C   UNL     1      18.737   0.373  -7.995  1.00  0.00     0.111 A 
ATOM      6  C   UNL     1      17.832   1.432  -8.250  1.00  0.00     0.134 A 
ATOM      7  C   UNL     1      18.267   2.761  -8.139  1.00  0.00     0.093 A 
ATOM      8  C   UNL     1      19.586   3.051  -7.781  1.00  0.00     0.123 A 
ATOM      9  C   UNL     1      20.484   2.008  -7.528  1.00  0.00     0.094 A 
ATOM     10  C   UNL     1      20.068   0.678  -7.631  1.00  0.00     0.146 A 
ATOM     11  O   UNL     1      20.940  -0.292  -7.380  1.00  0.00    -0.452 OA
ENDROOT
BRANCH   1  12
ATOM     12  C   UNL     1      21.693  -2.570  -7.133  1.00  0.00     0.021 A 
ATOM     13  C   UNL     1      22.625  -2.924  -8.124  1.00  0.00     0.016 A 
ATOM     14  C   UNL     1      23.648  -3.835  -7.842  1.00  0.00     0.047 A 
ATOM     15  C   UNL     1      23.761  -4.391  -6.561  1.00  0.00     0.115 A 
ATOM     16  C   UNL     1      21.826  -3.118  -5.844  1.00  0.00     0.016 A 
ATOM     17  C   UNL     1      22.851  -4.028  -5.564  1.00  0.00     0.047 A 
BRANCH  15  18
ATOM     18  O   UNL     1      24.775  -5.301  -6.269  1.00  0.00    -0.508 OA
ATOM     19  H   UNL     1      24.994  -6.069  -6.893  1.00  0.00     0.293 HD
ENDBRANCH  15  18
ENDBRANCH   1  12
BRANCH   2  20
ATOM     20  O   UNL     1      19.021  -3.332  -7.966  1.00  0.00    -0.502 OA
ATOM     21  H   UNL     1      19.713  -4.064  -7.857  1.00  0.00     0.293 HD
ENDBRANCH   2  20
BRANCH   6  22
ATOM     22  O   UNL     1      16.508   1.175  -8.612  1.00  0.00    -0.507 OA
ATOM     23  H   UNL     1      15.881   0.660  -8.005  1.00  0.00     0.293 HD
ENDBRANCH   6  22
BRANCH   8  24
ATOM     24  O   UNL     1      19.994   4.379  -7.680  1.00  0.00    -0.508 OA
ATOM     25  H   UNL     1      19.341   5.144  -7.797  1.00  0.00     0.293 HD
ENDBRANCH   8  24
TORSDOF 5
ENDMDL
MODEL 9
REMARK VINA RESULT:    -5.576      6.013      8.474
REMARK INTER + INTRA:          -6.722
REMARK INTER:                  -6.487
REMARK INTRA:                  -0.236
REMARK UNBOUND:                -0.168
REMARK SMILES O=c1c(O)c(-c2ccc(O)cc2)oc2cc(O)cc(O)c12
REMARK SMILES IDX 5 1 3 2 2 3 1 4 21 5 19 6 18 7 16 8 15 9 14 10 13 11 6 12
REMARK SMILES IDX 7 13 8 14 9 15 12 16 11 17 10 18 4 20 20 22 17 24
REMARK H PARENT 10 19 4 21 20 23 17 25
REMARK Flexibility Score: inf
ROOT
ATOM      1  C   UNL     1      18.211  -1.963  -8.843  1.00  0.00     0.180 A 
ATOM      2  C   UNL     1      17.587  -0.705  -8.752  1.00  0.00     0.208 A 
ATOM      3  C   UNL     1      16.559  -0.391  -9.655  1.00  0.00     0.238 A 
ATOM      4  O   UNL     1      16.000   0.738  -9.590  1.00  0.00    -0.285 OA
ATOM      5  C   UNL     1      16.162  -1.342 -10.617  1.00  0.00     0.111 A 
ATOM      6  C   UNL     1      15.132  -1.106 -11.560  1.00  0.00     0.134 A 
ATOM      7  C   UNL     1      14.788  -2.107 -12.480  1.00  0.00     0.093 A 
ATOM      8  C   UNL     1      15.449  -3.338 -12.473  1.00  0.00     0.123 A 
ATOM      9  C   UNL     1      16.466  -3.576 -11.544  1.00  0.00     0.094 A 
ATOM     10  C   UNL     1      16.826  -2.590 -10.621  1.00  0.00     0.146 A 
ATOM     11  O   UNL     1      17.799  -2.842  -9.753  1.00  0.00    -0.452 OA
ENDROOT
BRANCH   1  12
ATOM     12  C   UNL     1      19.314  -2.362  -7.939  1.00  0.00     0.021 A 
ATOM     13  C   UNL     1      20.640  -2.311  -8.401  1.00  0.00     0.016 A 
ATOM     14  C   UNL     1      21.699  -2.661  -7.558  1.00  0.00     0.047 A 
ATOM     15  C   UNL     1      21.446  -3.051  -6.236  1.00  0.00     0.115 A 
ATOM     16  C   UNL     1      19.070  -2.735  -6.605  1.00  0.00     0.016 A 
ATOM     17  C   UNL     1      20.131  -3.083  -5.762  1.00  0.00     0.047 A 
BRANCH  15  18
ATOM     18  O   UNL     1      22.492  -3.402  -5.386  1.00  0.00    -0.508 OA
ATOM     19  H   UNL     1      22.331  -3.939  -4.542  1.00  0.00     0.293 HD
ENDBRANCH  15  18
ENDBRANCH   1  12
BRANCH   2  20
ATOM     20  O   UNL     1      17.966   0.201  -7.758  1.00  0.00    -0.502 OA
ATOM     21  H   UNL     1      17.413   0.354  -6.924  1.00  0.00     0.293 HD
ENDBRANCH   2  20
BRANCH   6  22
ATOM     22  O   UNL     1      14.452   0.113 -11.590  1.00  0.00    -0.507 OA
ATOM     23  H   UNL     1      14.266   0.640 -10.745  1.00  0.00     0.293 HD
ENDBRANCH   6  22
BRANCH   8  24
ATOM     24  O   UNL     1      15.086  -4.317 -13.396  1.00  0.00    -0.508 OA
ATOM     25  H   UNL     1      14.121  -4.456 -13.670  1.00  0.00     0.293 HD
ENDBRANCH   8  24
TORSDOF 5
ENDMDL
