MODEL 1
REMARK VINA RESULT:    -3.844      0.000      0.000
REMARK INTER + INTRA:          -9.232
REMARK INTER:                  -7.439
REMARK INTRA:                  -1.793
REMARK UNBOUND:                -1.793
REMARK SMILES CCCCCCCCCCCCCCCCCC(=O)[O-]
REMARK SMILES IDX 10 1 11 2 12 3 13 4 14 5 15 6 16 7 17 8 18 9 19 10 20 11
REMARK SMILES IDX 9 12 8 13 7 14 6 15 5 16 4 17 3 18 2 19 1 20
REMARK H PARENT
REMARK Flexibility Score: inf
ROOT
ATOM      1  C   UNL     1      -4.965 -66.261  -1.269  1.00  0.00     0.000 C 
ENDROOT
BRANCH   1   2
ATOM      2  C   UNL     1      -5.082 -67.180  -2.498  1.00  0.00     0.000 C 
BRANCH   2   3
ATOM      3  C   UNL     1      -4.231 -66.760  -3.710  1.00  0.00     0.000 C 
BRANCH   3   4
ATOM      4  C   UNL     1      -4.171 -67.844  -4.801  1.00  0.00     0.000 C 
BRANCH   4   5
ATOM      5  C   UNL     1      -3.952 -67.253  -6.204  1.00  0.00     0.000 C 
BRANCH   5   6
ATOM      6  C   UNL     1      -4.914 -66.093  -6.515  1.00  0.00     0.000 C 
BRANCH   6   7
ATOM      7  C   UNL     1      -4.184 -64.833  -7.015  1.00  0.00     0.006 C 
BRANCH   7   8
ATOM      8  C   UNL     1      -2.652 -64.911  -6.913  1.00  0.00     0.053 C 
BRANCH   8   9
ATOM      9  C   UNL     1      -2.104 -63.908  -5.945  1.00  0.00     0.041 C 
ATOM     10  O   UNL     1      -2.591 -63.813  -4.787  1.00  0.00    -0.550 OA
ATOM     11  O   UNL     1      -1.079 -63.055  -6.333  1.00  0.00    -0.550 OA
ENDBRANCH   8   9
ENDBRANCH   7   8
ENDBRANCH   6   7
ENDBRANCH   5   6
ENDBRANCH   4   5
ENDBRANCH   3   4
ENDBRANCH   2   3
ENDBRANCH   1   2
BRANCH   1  12
ATOM     12  C   UNL     1      -4.181 -64.968  -1.559  1.00  0.00     0.000 C 
BRANCH  12  13
ATOM     13  C   UNL     1      -4.814 -63.737  -0.878  1.00  0.00    -0.000 C 
BRANCH  13  14
ATOM     14  C   UNL     1      -6.034 -64.079  -0.003  1.00  0.00    -0.000 C 
BRANCH  14  15
ATOM     15  C   UNL     1      -7.334 -63.446  -0.517  1.00  0.00    -0.000 C 
BRANCH  15  16
ATOM     16  C   UNL     1      -8.246 -64.504  -1.155  1.00  0.00    -0.000 C 
BRANCH  16  17
ATOM     17  C   UNL     1      -9.235 -65.114  -0.150  1.00  0.00    -0.000 C 
BRANCH  17  18
ATOM     18  C   UNL     1      -8.892 -66.571   0.207  1.00  0.00    -0.000 C 
BRANCH  18  19
ATOM     19  C   UNL     1      -8.502 -67.401  -1.024  1.00  0.00    -0.003 C 
ATOM     20  C   UNL     1      -9.273 -68.718  -1.118  1.00  0.00     0.004 C 
ENDBRANCH  18  19
ENDBRANCH  17  18
ENDBRANCH  16  17
ENDBRANCH  15  16
ENDBRANCH  14  15
ENDBRANCH  13  14
ENDBRANCH  12  13
ENDBRANCH   1  12
TORSDOF 16
ENDMDL
MODEL 2
REMARK VINA RESULT:    -3.841      3.269      5.505
REMARK INTER + INTRA:          -9.227
REMARK INTER:                  -7.184
REMARK INTRA:                  -2.043
REMARK UNBOUND:                -1.793
REMARK SMILES CCCCCCCCCCCCCCCCCC(=O)[O-]
REMARK SMILES IDX 10 1 11 2 12 3 13 4 14 5 15 6 16 7 17 8 18 9 19 10 20 11
REMARK SMILES IDX 9 12 8 13 7 14 6 15 5 16 4 17 3 18 2 19 1 20
REMARK H PARENT
REMARK Flexibility Score: inf
ROOT
ATOM      1  C   UNL     1      -8.807 -64.902  -0.734  1.00  0.00     0.000 C 
ENDROOT
BRANCH   1   2
ATOM      2  C   UNL     1      -7.837 -64.049  -1.570  1.00  0.00     0.000 C 
BRANCH   2   3
ATOM      3  C   UNL     1      -7.050 -62.990  -0.777  1.00  0.00     0.000 C 
BRANCH   3   4
ATOM      4  C   UNL     1      -5.528 -63.212  -0.830  1.00  0.00     0.000 C 
BRANCH   4   5
ATOM      5  C   UNL     1      -5.016 -64.059   0.347  1.00  0.00     0.000 C 
BRANCH   5   6
ATOM      6  C   UNL     1      -4.611 -65.481  -0.079  1.00  0.00     0.000 C 
BRANCH   6   7
ATOM      7  C   UNL     1      -4.492 -65.633  -1.607  1.00  0.00     0.006 C 
BRANCH   7   8
ATOM      8  C   UNL     1      -5.102 -66.930  -2.161  1.00  0.00     0.053 C 
BRANCH   8   9
ATOM      9  C   UNL     1      -4.490 -67.321  -3.471  1.00  0.00     0.041 C 
ATOM     10  O   UNL     1      -3.679 -66.549  -4.048  1.00  0.00    -0.550 OA
ATOM     11  O   UNL     1      -4.844 -68.522  -4.072  1.00  0.00    -0.550 OA
ENDBRANCH   8   9
ENDBRANCH   7   8
ENDBRANCH   6   7
ENDBRANCH   5   6
ENDBRANCH   4   5
ENDBRANCH   3   4
ENDBRANCH   2   3
ENDBRANCH   1   2
BRANCH   1  12
ATOM     12  C   UNL     1      -8.293 -66.332  -0.489  1.00  0.00     0.000 C 
BRANCH  12  13
ATOM     13  C   UNL     1      -8.212 -66.672   1.014  1.00  0.00    -0.000 C 
BRANCH  13  14
ATOM     14  C   UNL     1      -7.936 -65.450   1.907  1.00  0.00    -0.000 C 
BRANCH  14  15
ATOM     15  C   UNL     1      -7.377 -65.831   3.286  1.00  0.00    -0.000 C 
BRANCH  15  16
ATOM     16  C   UNL     1      -8.426 -66.590   4.113  1.00  0.00    -0.000 C 
BRANCH  16  17
ATOM     17  C   UNL     1      -7.949 -67.990   4.529  1.00  0.00    -0.000 C 
BRANCH  17  18
ATOM     18  C   UNL     1      -8.821 -68.605   5.638  1.00  0.00    -0.000 C 
BRANCH  18  19
ATOM     19  C   UNL     1      -8.605 -70.119   5.783  1.00  0.00    -0.003 C 
ATOM     20  C   UNL     1      -8.346 -70.810   4.445  1.00  0.00     0.004 C 
ENDBRANCH  18  19
ENDBRANCH  17  18
ENDBRANCH  16  17
ENDBRANCH  15  16
ENDBRANCH  14  15
ENDBRANCH  13  14
ENDBRANCH  12  13
ENDBRANCH   1  12
TORSDOF 16
ENDMDL
MODEL 3
REMARK VINA RESULT:    -3.821      4.832      7.438
REMARK INTER + INTRA:          -9.188
REMARK INTER:                  -7.500
REMARK INTRA:                  -1.688
REMARK UNBOUND:                -1.793
REMARK SMILES CCCCCCCCCCCCCCCCCC(=O)[O-]
REMARK SMILES IDX 10 1 11 2 12 3 13 4 14 5 15 6 16 7 17 8 18 9 19 10 20 11
REMARK SMILES IDX 9 12 8 13 7 14 6 15 5 16 4 17 3 18 2 19 1 20
REMARK H PARENT
REMARK Flexibility Score: inf
ROOT
ATOM      1  C   UNL     1      -8.531 -66.201   4.611  1.00  0.00     0.000 C 
ENDROOT
BRANCH   1   2
ATOM      2  C   UNL     1      -8.379 -66.825   3.213  1.00  0.00     0.000 C 
BRANCH   2   3
ATOM      3  C   UNL     1      -8.191 -65.817   2.065  1.00  0.00     0.000 C 
BRANCH   3   4
ATOM      4  C   UNL     1      -9.235 -65.982   0.948  1.00  0.00     0.000 C 
BRANCH   4   5
ATOM      5  C   UNL     1      -8.620 -66.516  -0.357  1.00  0.00     0.000 C 
BRANCH   5   6
ATOM      6  C   UNL     1      -7.124 -66.178  -0.488  1.00  0.00     0.000 C 
BRANCH   6   7
ATOM      7  C   UNL     1      -6.405 -67.058  -1.527  1.00  0.00     0.006 C 
BRANCH   7   8
ATOM      8  C   UNL     1      -4.954 -66.640  -1.811  1.00  0.00     0.053 C 
BRANCH   8   9
ATOM      9  C   UNL     1      -4.523 -67.020  -3.194  1.00  0.00     0.041 C 
ATOM     10  O   UNL     1      -4.906 -68.106  -3.703  1.00  0.00    -0.550 OA
ATOM     11  O   UNL     1      -3.668 -66.189  -3.908  1.00  0.00    -0.550 OA
ENDBRANCH   8   9
ENDBRANCH   7   8
ENDBRANCH   6   7
ENDBRANCH   5   6
ENDBRANCH   4   5
ENDBRANCH   3   4
ENDBRANCH   2   3
ENDBRANCH   1   2
BRANCH   1  12
ATOM     12  C   UNL     1      -9.982 -66.224   5.126  1.00  0.00     0.000 C 
BRANCH  12  13
ATOM     13  C   UNL     1     -10.096 -66.879   6.518  1.00  0.00    -0.000 C 
BRANCH  13  14
ATOM     14  C   UNL     1     -11.327 -67.789   6.670  1.00  0.00    -0.000 C 
BRANCH  14  15
ATOM     15  C   UNL     1     -10.957 -69.261   6.899  1.00  0.00    -0.000 C 
BRANCH  15  16
ATOM     16  C   UNL     1      -9.441 -69.473   6.775  1.00  0.00    -0.000 C 
BRANCH  16  17
ATOM     17  C   UNL     1      -9.053 -70.229   5.495  1.00  0.00    -0.000 C 
BRANCH  17  18
ATOM     18  C   UNL     1      -7.617 -69.919   5.038  1.00  0.00    -0.000 C 
BRANCH  18  19
ATOM     19  C   UNL     1      -6.757 -69.327   6.165  1.00  0.00    -0.003 C 
ATOM     20  C   UNL     1      -5.718 -68.330   5.654  1.00  0.00     0.004 C 
ENDBRANCH  18  19
ENDBRANCH  17  18
ENDBRANCH  16  17
ENDBRANCH  15  16
ENDBRANCH  14  15
ENDBRANCH  13  14
ENDBRANCH  12  13
ENDBRANCH   1  12
TORSDOF 16
ENDMDL
MODEL 4
REMARK VINA RESULT:    -3.819      2.091      2.987
REMARK INTER + INTRA:          -9.184
REMARK INTER:                  -7.046
REMARK INTRA:                  -2.138
REMARK UNBOUND:                -1.793
REMARK SMILES CCCCCCCCCCCCCCCCCC(=O)[O-]
REMARK SMILES IDX 10 1 11 2 12 3 13 4 14 5 15 6 16 7 17 8 18 9 19 10 20 11
REMARK SMILES IDX 9 12 8 13 7 14 6 15 5 16 4 17 3 18 2 19 1 20
REMARK H PARENT
REMARK Flexibility Score: inf
ROOT
ATOM      1  C   UNL     1      -4.146 -64.765  -0.277  1.00  0.00     0.000 C 
ENDROOT
BRANCH   1   2
ATOM      2  C   UNL     1      -4.769 -66.123  -0.646  1.00  0.00     0.000 C 
BRANCH   2   3
ATOM      3  C   UNL     1      -4.821 -66.428  -2.154  1.00  0.00     0.000 C 
BRANCH   3   4
ATOM      4  C   UNL     1      -4.432 -65.219  -3.022  1.00  0.00     0.000 C 
BRANCH   4   5
ATOM      5  C   UNL     1      -4.026 -65.626  -4.448  1.00  0.00     0.000 C 
BRANCH   5   6
ATOM      6  C   UNL     1      -3.995 -67.153  -4.642  1.00  0.00     0.000 C 
BRANCH   6   7
ATOM      7  C   UNL     1      -4.143 -67.567  -6.118  1.00  0.00     0.006 C 
BRANCH   7   8
ATOM      8  C   UNL     1      -4.868 -66.532  -6.993  1.00  0.00     0.053 C 
BRANCH   8   9
ATOM      9  C   UNL     1      -4.327 -66.503  -8.389  1.00  0.00     0.041 C 
ATOM     10  O   UNL     1      -3.325 -65.792  -8.666  1.00  0.00    -0.550 OA
ATOM     11  O   UNL     1      -4.951 -67.234  -9.392  1.00  0.00    -0.550 OA
ENDBRANCH   8   9
ENDBRANCH   7   8
ENDBRANCH   6   7
ENDBRANCH   5   6
ENDBRANCH   4   5
ENDBRANCH   3   4
ENDBRANCH   2   3
ENDBRANCH   1   2
BRANCH   1  12
ATOM     12  C   UNL     1      -5.073 -63.894   0.590  1.00  0.00     0.000 C 
BRANCH  12  13
ATOM     13  C   UNL     1      -5.775 -62.793  -0.233  1.00  0.00    -0.000 C 
BRANCH  13  14
ATOM     14  C   UNL     1      -7.293 -63.004  -0.373  1.00  0.00    -0.000 C 
BRANCH  14  15
ATOM     15  C   UNL     1      -7.660 -63.966  -1.511  1.00  0.00    -0.000 C 
BRANCH  15  16
ATOM     16  C   UNL     1      -8.792 -64.914  -1.087  1.00  0.00    -0.000 C 
BRANCH  16  17
ATOM     17  C   UNL     1      -8.284 -66.322  -0.741  1.00  0.00    -0.000 C 
BRANCH  17  18
ATOM     18  C   UNL     1      -8.716 -66.778   0.665  1.00  0.00    -0.000 C 
BRANCH  18  19
ATOM     19  C   UNL     1      -7.887 -66.117   1.776  1.00  0.00    -0.003 C 
ATOM     20  C   UNL     1      -8.448 -66.387   3.172  1.00  0.00     0.004 C 
ENDBRANCH  18  19
ENDBRANCH  17  18
ENDBRANCH  16  17
ENDBRANCH  15  16
ENDBRANCH  14  15
ENDBRANCH  13  14
ENDBRANCH  12  13
ENDBRANCH   1  12
TORSDOF 16
ENDMDL
MODEL 5
REMARK VINA RESULT:    -3.812      2.113      3.228
REMARK INTER + INTRA:          -9.170
REMARK INTER:                  -7.146
REMARK INTRA:                  -2.023
REMARK UNBOUND:                -1.793
REMARK SMILES CCCCCCCCCCCCCCCCCC(=O)[O-]
REMARK SMILES IDX 10 1 11 2 12 3 13 4 14 5 15 6 16 7 17 8 18 9 19 10 20 11
REMARK SMILES IDX 9 12 8 13 7 14 6 15 5 16 4 17 3 18 2 19 1 20
REMARK H PARENT
REMARK Flexibility Score: inf
ROOT
ATOM      1  C   UNL     1      -7.376 -63.008  -1.881  1.00  0.00     0.000 C 
ENDROOT
BRANCH   1   2
ATOM      2  C   UNL     1      -6.366 -63.864  -2.664  1.00  0.00     0.000 C 
BRANCH   2   3
ATOM      3  C   UNL     1      -5.356 -64.637  -1.796  1.00  0.00     0.000 C 
BRANCH   3   4
ATOM      4  C   UNL     1      -4.458 -65.577  -2.619  1.00  0.00     0.000 C 
BRANCH   4   5
ATOM      5  C   UNL     1      -4.865 -67.053  -2.476  1.00  0.00     0.000 C 
BRANCH   5   6
ATOM      6  C   UNL     1      -4.705 -67.841  -3.789  1.00  0.00     0.000 C 
BRANCH   6   7
ATOM      7  C   UNL     1      -4.197 -66.965  -4.949  1.00  0.00     0.006 C 
BRANCH   7   8
ATOM      8  C   UNL     1      -4.337 -67.613  -6.335  1.00  0.00     0.053 C 
BRANCH   8   9
ATOM      9  C   UNL     1      -4.554 -66.592  -7.410  1.00  0.00     0.041 C 
ATOM     10  O   UNL     1      -3.717 -66.463  -8.342  1.00  0.00    -0.550 OA
ATOM     11  O   UNL     1      -5.665 -65.759  -7.363  1.00  0.00    -0.550 OA
ENDBRANCH   8   9
ENDBRANCH   7   8
ENDBRANCH   6   7
ENDBRANCH   5   6
ENDBRANCH   4   5
ENDBRANCH   3   4
ENDBRANCH   2   3
ENDBRANCH   1   2
BRANCH   1  12
ATOM     12  C   UNL     1      -6.717 -61.835  -1.132  1.00  0.00     0.000 C 
BRANCH  12  13
ATOM     13  C   UNL     1      -7.122 -61.794   0.357  1.00  0.00    -0.000 C 
BRANCH  13  14
ATOM     14  C   UNL     1      -7.790 -63.090   0.848  1.00  0.00    -0.000 C 
BRANCH  14  15
ATOM     15  C   UNL     1      -6.825 -64.004   1.618  1.00  0.00    -0.000 C 
BRANCH  15  16
ATOM     16  C   UNL     1      -7.065 -65.479   1.263  1.00  0.00    -0.000 C 
BRANCH  16  17
ATOM     17  C   UNL     1      -8.409 -65.706   0.554  1.00  0.00    -0.000 C 
BRANCH  17  18
ATOM     18  C   UNL     1      -8.270 -66.563  -0.716  1.00  0.00    -0.000 C 
BRANCH  18  19
ATOM     19  C   UNL     1      -9.265 -67.734  -0.746  1.00  0.00    -0.003 C 
ATOM     20  C   UNL     1      -8.730 -68.945  -1.508  1.00  0.00     0.004 C 
ENDBRANCH  18  19
ENDBRANCH  17  18
ENDBRANCH  16  17
ENDBRANCH  15  16
ENDBRANCH  14  15
ENDBRANCH  13  14
ENDBRANCH  12  13
ENDBRANCH   1  12
TORSDOF 16
ENDMDL
MODEL 6
REMARK VINA RESULT:    -3.784      3.410      7.124
REMARK INTER + INTRA:          -9.117
REMARK INTER:                  -6.826
REMARK INTRA:                  -2.291
REMARK UNBOUND:                -1.793
REMARK SMILES CCCCCCCCCCCCCCCCCC(=O)[O-]
REMARK SMILES IDX 10 1 11 2 12 3 13 4 14 5 15 6 16 7 17 8 18 9 19 10 20 11
REMARK SMILES IDX 9 12 8 13 7 14 6 15 5 16 4 17 3 18 2 19 1 20
REMARK H PARENT
REMARK Flexibility Score: inf
ROOT
ATOM      1  C   UNL     1      -4.226 -63.799  -3.501  1.00  0.00     0.000 C 
ENDROOT
BRANCH   1   2
ATOM      2  C   UNL     1      -2.877 -64.110  -2.830  1.00  0.00     0.000 C 
BRANCH   2   3
ATOM      3  C   UNL     1      -2.753 -63.643  -1.368  1.00  0.00     0.000 C 
BRANCH   3   4
ATOM      4  C   UNL     1      -3.432 -64.602  -0.375  1.00  0.00     0.000 C 
BRANCH   4   5
ATOM      5  C   UNL     1      -4.710 -64.006   0.238  1.00  0.00     0.000 C 
BRANCH   5   6
ATOM      6  C   UNL     1      -5.797 -65.066   0.489  1.00  0.00     0.000 C 
BRANCH   6   7
ATOM      7  C   UNL     1      -6.738 -65.249  -0.716  1.00  0.00     0.006 C 
BRANCH   7   8
ATOM      8  C   UNL     1      -7.286 -66.676  -0.877  1.00  0.00     0.053 C 
BRANCH   8   9
ATOM      9  C   UNL     1      -8.752 -66.749  -0.578  1.00  0.00     0.041 C 
ATOM     10  O   UNL     1      -9.354 -65.750  -0.104  1.00  0.00    -0.550 OA
ATOM     11  O   UNL     1      -9.446 -67.934  -0.792  1.00  0.00    -0.550 OA
ENDBRANCH   8   9
ENDBRANCH   7   8
ENDBRANCH   6   7
ENDBRANCH   5   6
ENDBRANCH   4   5
ENDBRANCH   3   4
ENDBRANCH   2   3
ENDBRANCH   1   2
BRANCH   1  12
ATOM     12  C   UNL     1      -4.945 -65.059  -4.017  1.00  0.00     0.000 C 
BRANCH  12  13
ATOM     13  C   UNL     1      -4.367 -66.351  -3.402  1.00  0.00    -0.000 C 
BRANCH  13  14
ATOM     14  C   UNL     1      -4.394 -67.554  -4.362  1.00  0.00    -0.000 C 
BRANCH  14  15
ATOM     15  C   UNL     1      -3.518 -67.345  -5.605  1.00  0.00    -0.000 C 
BRANCH  15  16
ATOM     16  C   UNL     1      -4.340 -67.516  -6.892  1.00  0.00    -0.000 C 
BRANCH  16  17
ATOM     17  C   UNL     1      -4.009 -66.452  -7.949  1.00  0.00    -0.000 C 
BRANCH  17  18
ATOM     18  C   UNL     1      -4.750 -65.126  -7.705  1.00  0.00    -0.000 C 
BRANCH  18  19
ATOM     19  C   UNL     1      -6.272 -65.312  -7.607  1.00  0.00    -0.003 C 
ATOM     20  C   UNL     1      -6.983 -64.082  -7.045  1.00  0.00     0.004 C 
ENDBRANCH  18  19
ENDBRANCH  17  18
ENDBRANCH  16  17
ENDBRANCH  15  16
ENDBRANCH  14  15
ENDBRANCH  13  14
ENDBRANCH  12  13
ENDBRANCH   1  12
TORSDOF 16
ENDMDL
MODEL 7
REMARK VINA RESULT:    -3.754      4.426      7.668
REMARK INTER + INTRA:          -9.059
REMARK INTER:                  -6.125
REMARK INTRA:                  -2.934
REMARK UNBOUND:                -1.793
REMARK SMILES CCCCCCCCCCCCCCCCCC(=O)[O-]
REMARK SMILES IDX 10 1 11 2 12 3 13 4 14 5 15 6 16 7 17 8 18 9 19 10 20 11
REMARK SMILES IDX 9 12 8 13 7 14 6 15 5 16 4 17 3 18 2 19 1 20
REMARK H PARENT
REMARK Flexibility Score: inf
ROOT
ATOM      1  C   UNL     1      -8.125 -66.496   1.201  1.00  0.00     0.000 C 
ENDROOT
BRANCH   1   2
ATOM      2  C   UNL     1      -8.333 -66.866   2.680  1.00  0.00     0.000 C 
BRANCH   2   3
ATOM      3  C   UNL     1      -8.429 -65.670   3.644  1.00  0.00     0.000 C 
BRANCH   3   4
ATOM      4  C   UNL     1      -7.245 -64.697   3.509  1.00  0.00     0.000 C 
BRANCH   4   5
ATOM      5  C   UNL     1      -7.698 -63.231   3.407  1.00  0.00     0.000 C 
BRANCH   5   6
ATOM      6  C   UNL     1      -6.525 -62.264   3.164  1.00  0.00     0.000 C 
BRANCH   6   7
ATOM      7  C   UNL     1      -6.992 -60.852   2.764  1.00  0.00     0.006 C 
BRANCH   7   8
ATOM      8  C   UNL     1      -8.453 -60.782   2.293  1.00  0.00     0.053 C 
BRANCH   8   9
ATOM      9  C   UNL     1      -8.671 -59.675   1.308  1.00  0.00     0.041 C 
ATOM     10  O   UNL     1      -9.796 -59.117   1.219  1.00  0.00    -0.550 OA
ATOM     11  O   UNL     1      -7.639 -59.284   0.463  1.00  0.00    -0.550 OA
ENDBRANCH   8   9
ENDBRANCH   7   8
ENDBRANCH   6   7
ENDBRANCH   5   6
ENDBRANCH   4   5
ENDBRANCH   3   4
ENDBRANCH   2   3
ENDBRANCH   1   2
BRANCH   1  12
ATOM     12  C   UNL     1      -9.312 -65.719   0.603  1.00  0.00     0.000 C 
BRANCH  12  13
ATOM     13  C   UNL     1      -8.885 -64.349   0.035  1.00  0.00    -0.000 C 
BRANCH  13  14
ATOM     14  C   UNL     1      -8.397 -64.414  -1.424  1.00  0.00    -0.000 C 
BRANCH  14  15
ATOM     15  C   UNL     1      -7.380 -63.316  -1.762  1.00  0.00    -0.000 C 
BRANCH  15  16
ATOM     16  C   UNL     1      -6.775 -62.714  -0.486  1.00  0.00    -0.000 C 
BRANCH  16  17
ATOM     17  C   UNL     1      -5.308 -63.121  -0.277  1.00  0.00    -0.000 C 
BRANCH  17  18
ATOM     18  C   UNL     1      -5.167 -64.470   0.449  1.00  0.00    -0.000 C 
BRANCH  18  19
ATOM     19  C   UNL     1      -4.366 -65.496  -0.368  1.00  0.00    -0.003 C 
ATOM     20  C   UNL     1      -5.243 -66.303  -1.325  1.00  0.00     0.004 C 
ENDBRANCH  18  19
ENDBRANCH  17  18
ENDBRANCH  16  17
ENDBRANCH  15  16
ENDBRANCH  14  15
ENDBRANCH  13  14
ENDBRANCH  12  13
ENDBRANCH   1  12
TORSDOF 16
ENDMDL
MODEL 8
REMARK VINA RESULT:    -3.746      1.994      3.903
REMARK INTER + INTRA:          -9.043
REMARK INTER:                  -6.249
REMARK INTRA:                  -2.793
REMARK UNBOUND:                -1.793
REMARK SMILES CCCCCCCCCCCCCCCCCC(=O)[O-]
REMARK SMILES IDX 10 1 11 2 12 3 13 4 14 5 15 6 16 7 17 8 18 9 19 10 20 11
REMARK SMILES IDX 9 12 8 13 7 14 6 15 5 16 4 17 3 18 2 19 1 20
REMARK H PARENT
REMARK Flexibility Score: inf
ROOT
ATOM      1  C   UNL     1      -6.812 -62.908   0.295  1.00  0.00     0.000 C 
ENDROOT
BRANCH   1   2
ATOM      2  C   UNL     1      -5.447 -63.484   0.709  1.00  0.00     0.000 C 
BRANCH   2   3
ATOM      3  C   UNL     1      -5.339 -65.018   0.641  1.00  0.00     0.000 C 
BRANCH   3   4
ATOM      4  C   UNL     1      -4.382 -65.502  -0.462  1.00  0.00     0.000 C 
BRANCH   4   5
ATOM      5  C   UNL     1      -5.076 -66.416  -1.484  1.00  0.00     0.000 C 
BRANCH   5   6
ATOM      6  C   UNL     1      -4.505 -66.258  -2.904  1.00  0.00     0.000 C 
BRANCH   6   7
ATOM      7  C   UNL     1      -4.604 -64.813  -3.427  1.00  0.00     0.006 C 
BRANCH   7   8
ATOM      8  C   UNL     1      -3.246 -64.144  -3.692  1.00  0.00     0.053 C 
BRANCH   8   9
ATOM      9  C   UNL     1      -2.947 -64.046  -5.156  1.00  0.00     0.041 C 
ATOM     10  O   UNL     1      -2.383 -63.020  -5.622  1.00  0.00    -0.550 OA
ATOM     11  O   UNL     1      -3.323 -65.073  -6.013  1.00  0.00    -0.550 OA
ENDBRANCH   8   9
ENDBRANCH   7   8
ENDBRANCH   6   7
ENDBRANCH   5   6
ENDBRANCH   4   5
ENDBRANCH   3   4
ENDBRANCH   2   3
ENDBRANCH   1   2
BRANCH   1  12
ATOM     12  C   UNL     1      -6.963 -62.754  -1.229  1.00  0.00     0.000 C 
BRANCH  12  13
ATOM     13  C   UNL     1      -7.826 -63.874  -1.845  1.00  0.00    -0.000 C 
BRANCH  13  14
ATOM     14  C   UNL     1      -8.695 -64.617  -0.815  1.00  0.00    -0.000 C 
BRANCH  14  15
ATOM     15  C   UNL     1      -8.576 -66.144  -0.923  1.00  0.00    -0.000 C 
BRANCH  15  16
ATOM     16  C   UNL     1      -8.717 -66.805   0.456  1.00  0.00    -0.000 C 
BRANCH  16  17
ATOM     17  C   UNL     1      -9.025 -65.791   1.568  1.00  0.00    -0.000 C 
BRANCH  17  18
ATOM     18  C   UNL     1      -8.193 -66.038   2.839  1.00  0.00    -0.000 C 
BRANCH  18  19
ATOM     19  C   UNL     1      -7.690 -64.733   3.475  1.00  0.00    -0.003 C 
ATOM     20  C   UNL     1      -8.110 -64.586   4.936  1.00  0.00     0.004 C 
ENDBRANCH  18  19
ENDBRANCH  17  18
ENDBRANCH  16  17
ENDBRANCH  15  16
ENDBRANCH  14  15
ENDBRANCH  13  14
ENDBRANCH  12  13
ENDBRANCH   1  12
TORSDOF 16
ENDMDL
MODEL 9
REMARK VINA RESULT:    -3.729      7.929     11.164
REMARK INTER + INTRA:          -9.011
REMARK INTER:                  -6.928
REMARK INTRA:                  -2.082
REMARK UNBOUND:                -1.793
REMARK SMILES CCCCCCCCCCCCCCCCCC(=O)[O-]
REMARK SMILES IDX 10 1 11 2 12 3 13 4 14 5 15 6 16 7 17 8 18 9 19 10 20 11
REMARK SMILES IDX 9 12 8 13 7 14 6 15 5 16 4 17 3 18 2 19 1 20
REMARK H PARENT
REMARK Flexibility Score: inf
ROOT
ATOM      1  C   UNL     1      -9.164 -70.387   5.734  1.00  0.00     0.000 C 
ENDROOT
BRANCH   1   2
ATOM      2  C   UNL     1      -8.166 -69.877   4.679  1.00  0.00     0.000 C 
BRANCH   2   3
ATOM      3  C   UNL     1      -6.911 -69.191   5.246  1.00  0.00     0.000 C 
BRANCH   3   4
ATOM      4  C   UNL     1      -5.636 -70.033   5.062  1.00  0.00     0.000 C 
BRANCH   4   5
ATOM      5  C   UNL     1      -5.438 -71.055   6.194  1.00  0.00     0.000 C 
BRANCH   5   6
ATOM      6  C   UNL     1      -5.375 -72.504   5.679  1.00  0.00     0.000 C 
BRANCH   6   7
ATOM      7  C   UNL     1      -6.705 -73.257   5.862  1.00  0.00     0.006 C 
BRANCH   7   8
ATOM      8  C   UNL     1      -7.452 -73.545   4.550  1.00  0.00     0.053 C 
BRANCH   8   9
ATOM      9  C   UNL     1      -7.767 -75.001   4.394  1.00  0.00     0.041 C 
ATOM     10  O   UNL     1      -7.771 -75.761   5.398  1.00  0.00    -0.550 OA
ATOM     11  O   UNL     1      -8.022 -75.525   3.132  1.00  0.00    -0.550 OA
ENDBRANCH   8   9
ENDBRANCH   7   8
ENDBRANCH   6   7
ENDBRANCH   5   6
ENDBRANCH   4   5
ENDBRANCH   3   4
ENDBRANCH   2   3
ENDBRANCH   1   2
BRANCH   1  12
ATOM     12  C   UNL     1      -9.427 -69.366   6.855  1.00  0.00     0.000 C 
BRANCH  12  13
ATOM     13  C   UNL     1     -10.905 -68.927   6.908  1.00  0.00    -0.000 C 
BRANCH  13  14
ATOM     14  C   UNL     1     -11.101 -67.407   6.767  1.00  0.00    -0.000 C 
BRANCH  14  15
ATOM     15  C   UNL     1      -9.833 -66.682   6.295  1.00  0.00    -0.000 C 
BRANCH  15  16
ATOM     16  C   UNL     1      -9.976 -66.217   4.838  1.00  0.00    -0.000 C 
BRANCH  16  17
ATOM     17  C   UNL     1      -8.620 -65.960   4.164  1.00  0.00    -0.000 C 
BRANCH  17  18
ATOM     18  C   UNL     1      -8.456 -66.740   2.848  1.00  0.00    -0.000 C 
BRANCH  18  19
ATOM     19  C   UNL     1      -8.623 -65.845   1.611  1.00  0.00    -0.003 C 
ATOM     20  C   UNL     1      -7.358 -65.776   0.756  1.00  0.00     0.004 C 
ENDBRANCH  18  19
ENDBRANCH  17  18
ENDBRANCH  16  17
ENDBRANCH  15  16
ENDBRANCH  14  15
ENDBRANCH  13  14
ENDBRANCH  12  13
ENDBRANCH   1  12
TORSDOF 16
ENDMDL
