MODEL 1
REMARK VINA RESULT:    -4.678      0.000      0.000
REMARK INTER + INTRA:          -7.256
REMARK INTER:                  -6.865
REMARK INTRA:                  -0.391
REMARK UNBOUND:                -0.391
REMARK SMILES CCCOC(=O)c1ccccc1C(=O)OCCC
REMARK SMILES IDX 7 1 8 2 9 3 10 4 11 5 12 6 5 7 6 8 4 9 3 10 2 11 1 12 13 13
REMARK SMILES IDX 14 14 15 15 16 16 17 17 18 18
REMARK H PARENT
REMARK Flexibility Score: inf
ROOT
ATOM      1  C   UNL     1      86.297  30.610  65.323  1.00  0.00     0.074 A 
ATOM      2  C   UNL     1      85.032  30.377  64.755  1.00  0.00     0.016 A 
ATOM      3  C   UNL     1      83.902  31.047  65.227  1.00  0.00     0.001 A 
ATOM      4  C   UNL     1      84.018  31.961  66.271  1.00  0.00     0.001 A 
ATOM      5  C   UNL     1      85.260  32.192  66.865  1.00  0.00     0.016 A 
ATOM      6  C   UNL     1      86.406  31.509  66.421  1.00  0.00     0.074 A 
ENDROOT
BRANCH   1   7
ATOM      7  C   UNL     1      87.470  29.952  64.701  1.00  0.00     0.339 C 
ATOM      8  O   UNL     1      88.313  30.634  64.055  1.00  0.00    -0.246 OA
BRANCH   7   9
ATOM      9  O   UNL     1      87.599  28.559  64.781  1.00  0.00    -0.462 OA
BRANCH   9  10
ATOM     10  C   UNL     1      88.742  27.839  64.318  1.00  0.00     0.233 C 
BRANCH  10  11
ATOM     11  C   UNL     1      88.703  26.381  64.785  1.00  0.00     0.038 C 
ATOM     12  C   UNL     1      88.428  25.404  63.644  1.00  0.00     0.007 C 
ENDBRANCH  10  11
ENDBRANCH   9  10
ENDBRANCH   7   9
ENDBRANCH   1   7
BRANCH   6  13
ATOM     13  C   UNL     1      87.667  31.719  67.167  1.00  0.00     0.339 C 
ATOM     14  O   UNL     1      88.411  30.739  67.443  1.00  0.00    -0.246 OA
BRANCH  13  15
ATOM     15  O   UNL     1      87.995  33.003  67.619  1.00  0.00    -0.462 OA
BRANCH  15  16
ATOM     16  C   UNL     1      89.036  33.793  67.049  1.00  0.00     0.233 C 
BRANCH  16  17
ATOM     17  C   UNL     1      88.906  33.835  65.524  1.00  0.00     0.038 C 
ATOM     18  C   UNL     1      88.339  35.170  65.055  1.00  0.00     0.007 C 
ENDBRANCH  16  17
ENDBRANCH  15  16
ENDBRANCH  13  15
ENDBRANCH   6  13
TORSDOF 8
ENDMDL
MODEL 2
REMARK VINA RESULT:    -4.656      0.183      5.288
REMARK INTER + INTRA:          -7.225
REMARK INTER:                  -6.728
REMARK INTRA:                  -0.497
REMARK UNBOUND:                -0.391
REMARK SMILES CCCOC(=O)c1ccccc1C(=O)OCCC
REMARK SMILES IDX 7 1 8 2 9 3 10 4 11 5 12 6 5 7 6 8 4 9 3 10 2 11 1 12 13 13
REMARK SMILES IDX 14 14 15 15 16 16 17 17 18 18
REMARK H PARENT
REMARK Flexibility Score: inf
ROOT
ATOM      1  C   UNL     1      86.414  31.555  66.377  1.00  0.00     0.074 A 
ATOM      2  C   UNL     1      85.265  32.233  66.820  1.00  0.00     0.016 A 
ATOM      3  C   UNL     1      84.018  31.973  66.249  1.00  0.00     0.001 A 
ATOM      4  C   UNL     1      83.898  31.032  65.230  1.00  0.00     0.001 A 
ATOM      5  C   UNL     1      85.029  30.363  64.759  1.00  0.00     0.016 A 
ATOM      6  C   UNL     1      86.298  30.627  65.304  1.00  0.00     0.074 A 
ENDROOT
BRANCH   1   7
ATOM      7  C   UNL     1      87.684  31.794  67.102  1.00  0.00     0.339 C 
ATOM      8  O   UNL     1      88.434  30.827  67.407  1.00  0.00    -0.246 OA
BRANCH   7   9
ATOM      9  O   UNL     1      88.012  33.097  67.502  1.00  0.00    -0.462 OA
BRANCH   9  10
ATOM     10  C   UNL     1      89.125  33.829  66.989  1.00  0.00     0.233 C 
BRANCH  10  11
ATOM     11  C   UNL     1      89.050  33.952  65.463  1.00  0.00     0.038 C 
ATOM     12  C   UNL     1      88.147  35.097  65.009  1.00  0.00     0.007 C 
ENDBRANCH  10  11
ENDBRANCH   9  10
ENDBRANCH   7   9
ENDBRANCH   1   7
BRANCH   6  13
ATOM     13  C   UNL     1      87.467  29.965  64.683  1.00  0.00     0.339 C 
ATOM     14  O   UNL     1      88.281  30.634  63.990  1.00  0.00    -0.246 OA
BRANCH  13  15
ATOM     15  O   UNL     1      87.628  28.581  64.820  1.00  0.00    -0.462 OA
BRANCH  15  16
ATOM     16  C   UNL     1      88.889  27.923  64.722  1.00  0.00     0.233 C 
BRANCH  16  17
ATOM     17  C   UNL     1      88.708  26.404  64.784  1.00  0.00     0.038 C 
ATOM     18  C   UNL     1      88.290  25.842  63.431  1.00  0.00     0.007 C 
ENDBRANCH  16  17
ENDBRANCH  15  16
ENDBRANCH  13  15
ENDBRANCH   6  13
TORSDOF 8
ENDMDL
MODEL 3
REMARK VINA RESULT:    -4.379      1.752      2.751
REMARK INTER + INTRA:          -6.817
REMARK INTER:                  -6.247
REMARK INTRA:                  -0.570
REMARK UNBOUND:                -0.391
REMARK SMILES CCCOC(=O)c1ccccc1C(=O)OCCC
REMARK SMILES IDX 7 1 8 2 9 3 10 4 11 5 12 6 5 7 6 8 4 9 3 10 2 11 1 12 13 13
REMARK SMILES IDX 14 14 15 15 16 16 17 17 18 18
REMARK H PARENT
REMARK Flexibility Score: inf
ROOT
ATOM      1  C   UNL     1      86.567  29.425  64.942  1.00  0.00     0.074 A 
ATOM      2  C   UNL     1      85.689  28.336  64.800  1.00  0.00     0.016 A 
ATOM      3  C   UNL     1      84.331  28.541  64.550  1.00  0.00     0.001 A 
ATOM      4  C   UNL     1      83.829  29.835  64.436  1.00  0.00     0.001 A 
ATOM      5  C   UNL     1      84.678  30.931  64.596  1.00  0.00     0.016 A 
ATOM      6  C   UNL     1      86.045  30.748  64.871  1.00  0.00     0.074 A 
ENDROOT
BRANCH   1   7
ATOM      7  C   UNL     1      88.013  29.137  65.091  1.00  0.00     0.339 C 
ATOM      8  O   UNL     1      88.709  29.787  65.919  1.00  0.00    -0.246 OA
BRANCH   7   9
ATOM      9  O   UNL     1      88.612  28.181  64.260  1.00  0.00    -0.462 OA
BRANCH   9  10
ATOM     10  C   UNL     1      89.090  26.917  64.719  1.00  0.00     0.233 C 
BRANCH  10  11
ATOM     11  C   UNL     1      88.443  25.766  63.940  1.00  0.00     0.038 C 
ATOM     12  C   UNL     1      88.699  25.857  62.437  1.00  0.00     0.007 C 
ENDBRANCH  10  11
ENDBRANCH   9  10
ENDBRANCH   7   9
ENDBRANCH   1   7
BRANCH   6  13
ATOM     13  C   UNL     1      86.863  31.951  65.138  1.00  0.00     0.339 C 
ATOM     14  O   UNL     1      87.595  32.435  64.231  1.00  0.00    -0.246 OA
BRANCH  13  15
ATOM     15  O   UNL     1      86.867  32.512  66.420  1.00  0.00    -0.462 OA
BRANCH  15  16
ATOM     16  C   UNL     1      86.353  31.844  67.571  1.00  0.00     0.233 C 
BRANCH  16  17
ATOM     17  C   UNL     1      85.135  32.590  68.125  1.00  0.00     0.038 C 
ATOM     18  C   UNL     1      83.839  31.866  67.776  1.00  0.00     0.007 C 
ENDBRANCH  16  17
ENDBRANCH  15  16
ENDBRANCH  13  15
ENDBRANCH   6  13
TORSDOF 8
ENDMDL
MODEL 4
REMARK VINA RESULT:    -4.108     15.643     17.524
REMARK INTER + INTRA:          -6.420
REMARK INTER:                  -6.049
REMARK INTRA:                  -0.371
REMARK UNBOUND:                -0.391
REMARK SMILES CCCOC(=O)c1ccccc1C(=O)OCCC
REMARK SMILES IDX 7 1 8 2 9 3 10 4 11 5 12 6 5 7 6 8 4 9 3 10 2 11 1 12 13 13
REMARK SMILES IDX 14 14 15 15 16 16 17 17 18 18
REMARK H PARENT
REMARK Flexibility Score: inf
ROOT
ATOM      1  C   UNL     1      79.184  34.312  52.088  1.00  0.00     0.074 A 
ATOM      2  C   UNL     1      79.892  33.137  52.398  1.00  0.00     0.016 A 
ATOM      3  C   UNL     1      79.227  31.918  52.541  1.00  0.00     0.001 A 
ATOM      4  C   UNL     1      77.846  31.853  52.375  1.00  0.00     0.001 A 
ATOM      5  C   UNL     1      77.120  33.010  52.089  1.00  0.00     0.016 A 
ATOM      6  C   UNL     1      77.767  34.252  51.964  1.00  0.00     0.074 A 
ENDROOT
BRANCH   1   7
ATOM      7  C   UNL     1      79.964  35.547  51.837  1.00  0.00     0.339 C 
ATOM      8  O   UNL     1      80.570  36.119  52.784  1.00  0.00    -0.246 OA
BRANCH   7   9
ATOM      9  O   UNL     1      79.969  36.107  50.553  1.00  0.00    -0.462 OA
BRANCH   9  10
ATOM     10  C   UNL     1      80.215  35.361  49.361  1.00  0.00     0.233 C 
BRANCH  10  11
ATOM     11  C   UNL     1      81.334  34.336  49.572  1.00  0.00     0.038 C 
ATOM     12  C   UNL     1      81.305  33.212  48.539  1.00  0.00     0.007 C 
ENDBRANCH  10  11
ENDBRANCH   9  10
ENDBRANCH   7   9
ENDBRANCH   1   7
BRANCH   6  13
ATOM     13  C   UNL     1      76.926  35.453  51.770  1.00  0.00     0.339 C 
ATOM     14  O   UNL     1      77.014  36.125  50.705  1.00  0.00    -0.246 OA
BRANCH  13  15
ATOM     15  O   UNL     1      76.077  35.874  52.800  1.00  0.00    -0.462 OA
BRANCH  15  16
ATOM     16  C   UNL     1      74.674  36.068  52.632  1.00  0.00     0.233 C 
BRANCH  16  17
ATOM     17  C   UNL     1      73.888  35.008  53.409  1.00  0.00     0.038 C 
ATOM     18  C   UNL     1      73.879  35.311  54.903  1.00  0.00     0.007 C 
ENDBRANCH  16  17
ENDBRANCH  15  16
ENDBRANCH  13  15
ENDBRANCH   6  13
TORSDOF 8
ENDMDL
MODEL 5
REMARK VINA RESULT:    -4.076      1.573      3.907
REMARK INTER + INTRA:          -6.373
REMARK INTER:                  -5.725
REMARK INTRA:                  -0.648
REMARK UNBOUND:                -0.391
REMARK SMILES CCCOC(=O)c1ccccc1C(=O)OCCC
REMARK SMILES IDX 7 1 8 2 9 3 10 4 11 5 12 6 5 7 6 8 4 9 3 10 2 11 1 12 13 13
REMARK SMILES IDX 14 14 15 15 16 16 17 17 18 18
REMARK H PARENT
REMARK Flexibility Score: inf
ROOT
ATOM      1  C   UNL     1      88.142  31.751  65.368  1.00  0.00     0.074 A 
ATOM      2  C   UNL     1      89.124  32.430  64.622  1.00  0.00     0.016 A 
ATOM      3  C   UNL     1      89.024  33.802  64.391  1.00  0.00     0.001 A 
ATOM      4  C   UNL     1      87.945  34.520  64.901  1.00  0.00     0.001 A 
ATOM      5  C   UNL     1      86.948  33.864  65.625  1.00  0.00     0.016 A 
ATOM      6  C   UNL     1      87.016  32.477  65.849  1.00  0.00     0.074 A 
ENDROOT
BRANCH   1   7
ATOM      7  C   UNL     1      88.368  30.319  65.672  1.00  0.00     0.339 C 
ATOM      8  O   UNL     1      88.718  29.963  66.831  1.00  0.00    -0.246 OA
BRANCH   7   9
ATOM      9  O   UNL     1      88.253  29.372  64.646  1.00  0.00    -0.462 OA
BRANCH   9  10
ATOM     10  C   UNL     1      89.104  28.233  64.517  1.00  0.00     0.233 C 
BRANCH  10  11
ATOM     11  C   UNL     1      88.302  26.931  64.602  1.00  0.00     0.038 C 
ATOM     12  C   UNL     1      88.281  26.165  63.281  1.00  0.00     0.007 C 
ENDBRANCH  10  11
ENDBRANCH   9  10
ENDBRANCH   7   9
ENDBRANCH   1   7
BRANCH   6  13
ATOM     13  C   UNL     1      85.872  31.830  66.527  1.00  0.00     0.339 C 
ATOM     14  O   UNL     1      85.591  32.126  67.721  1.00  0.00    -0.246 OA
BRANCH  13  15
ATOM     15  O   UNL     1      85.142  30.842  65.855  1.00  0.00    -0.462 OA
BRANCH  15  16
ATOM     16  C   UNL     1      84.145  31.130  64.877  1.00  0.00     0.233 C 
BRANCH  16  17
ATOM     17  C   UNL     1      83.533  29.834  64.337  1.00  0.00     0.038 C 
ATOM     18  C   UNL     1      84.486  28.658  64.516  1.00  0.00     0.007 C 
ENDBRANCH  16  17
ENDBRANCH  15  16
ENDBRANCH  13  15
ENDBRANCH   6  13
TORSDOF 8
ENDMDL
MODEL 6
REMARK VINA RESULT:    -4.075      2.434      5.509
REMARK INTER + INTRA:          -6.372
REMARK INTER:                  -5.211
REMARK INTRA:                  -1.161
REMARK UNBOUND:                -0.391
REMARK SMILES CCCOC(=O)c1ccccc1C(=O)OCCC
REMARK SMILES IDX 7 1 8 2 9 3 10 4 11 5 12 6 5 7 6 8 4 9 3 10 2 11 1 12 13 13
REMARK SMILES IDX 14 14 15 15 16 16 17 17 18 18
REMARK H PARENT
REMARK Flexibility Score: inf
ROOT
ATOM      1  C   UNL     1      87.357  32.305  64.637  1.00  0.00     0.074 A 
ATOM      2  C   UNL     1      88.501  31.819  63.980  1.00  0.00     0.016 A 
ATOM      3  C   UNL     1      88.995  30.543  64.255  1.00  0.00     0.001 A 
ATOM      4  C   UNL     1      88.355  29.732  65.189  1.00  0.00     0.001 A 
ATOM      5  C   UNL     1      87.231  30.203  65.870  1.00  0.00     0.016 A 
ATOM      6  C   UNL     1      86.731  31.493  65.625  1.00  0.00     0.074 A 
ENDROOT
BRANCH   1   7
ATOM      7  C   UNL     1      86.819  33.620  64.216  1.00  0.00     0.339 C 
ATOM      8  O   UNL     1      85.710  33.692  63.620  1.00  0.00    -0.246 OA
BRANCH   7   9
ATOM      9  O   UNL     1      87.584  34.775  64.427  1.00  0.00    -0.462 OA
BRANCH   9  10
ATOM     10  C   UNL     1      87.746  35.398  65.701  1.00  0.00     0.233 C 
BRANCH  10  11
ATOM     11  C   UNL     1      89.125  35.094  66.295  1.00  0.00     0.038 C 
ATOM     12  C   UNL     1      89.116  33.867  67.203  1.00  0.00     0.007 C 
ENDBRANCH  10  11
ENDBRANCH   9  10
ENDBRANCH   7   9
ENDBRANCH   1   7
BRANCH   6  13
ATOM     13  C   UNL     1      85.605  31.967  66.461  1.00  0.00     0.339 C 
ATOM     14  O   UNL     1      85.790  32.242  67.678  1.00  0.00    -0.246 OA
BRANCH  13  15
ATOM     15  O   UNL     1      84.323  32.050  65.906  1.00  0.00    -0.462 OA
BRANCH  15  16
ATOM     16  C   UNL     1      83.354  31.008  66.009  1.00  0.00     0.233 C 
BRANCH  16  17
ATOM     17  C   UNL     1      83.146  30.333  64.650  1.00  0.00     0.038 C 
ATOM     18  C   UNL     1      84.099  29.158  64.466  1.00  0.00     0.007 C 
ENDBRANCH  16  17
ENDBRANCH  15  16
ENDBRANCH  13  15
ENDBRANCH   6  13
TORSDOF 8
ENDMDL
MODEL 7
REMARK VINA RESULT:    -4.056      1.602      4.691
REMARK INTER + INTRA:          -6.343
REMARK INTER:                  -5.677
REMARK INTRA:                  -0.666
REMARK UNBOUND:                -0.391
REMARK SMILES CCCOC(=O)c1ccccc1C(=O)OCCC
REMARK SMILES IDX 7 1 8 2 9 3 10 4 11 5 12 6 5 7 6 8 4 9 3 10 2 11 1 12 13 13
REMARK SMILES IDX 14 14 15 15 16 16 17 17 18 18
REMARK H PARENT
REMARK Flexibility Score: inf
ROOT
ATOM      1  C   UNL     1      87.249  33.374  65.084  1.00  0.00     0.074 A 
ATOM      2  C   UNL     1      87.243  34.679  64.560  1.00  0.00     0.016 A 
ATOM      3  C   UNL     1      88.161  35.632  65.005  1.00  0.00     0.001 A 
ATOM      4  C   UNL     1      89.099  35.297  65.978  1.00  0.00     0.001 A 
ATOM      5  C   UNL     1      89.109  34.014  66.528  1.00  0.00     0.016 A 
ATOM      6  C   UNL     1      88.178  33.046  66.111  1.00  0.00     0.074 A 
ENDROOT
BRANCH   1   7
ATOM      7  C   UNL     1      86.325  32.382  64.486  1.00  0.00     0.339 C 
ATOM      8  O   UNL     1      86.302  32.206  63.237  1.00  0.00    -0.246 OA
BRANCH   7   9
ATOM      9  O   UNL     1      85.433  31.687  65.314  1.00  0.00    -0.462 OA
BRANCH   9  10
ATOM     10  C   UNL     1      84.044  31.999  65.423  1.00  0.00     0.233 C 
BRANCH  10  11
ATOM     11  C   UNL     1      83.176  30.789  65.062  1.00  0.00     0.038 C 
ATOM     12  C   UNL     1      83.983  29.651  64.441  1.00  0.00     0.007 C 
ENDBRANCH  10  11
ENDBRANCH   9  10
ENDBRANCH   7   9
ENDBRANCH   1   7
BRANCH   6  13
ATOM     13  C   UNL     1      88.174  31.744  66.814  1.00  0.00     0.339 C 
ATOM     14  O   UNL     1      87.365  31.536  67.760  1.00  0.00    -0.246 OA
BRANCH  13  15
ATOM     15  O   UNL     1      89.115  30.769  66.463  1.00  0.00    -0.462 OA
BRANCH  15  16
ATOM     16  C   UNL     1      89.114  30.092  65.208  1.00  0.00     0.233 C 
BRANCH  16  17
ATOM     17  C   UNL     1      87.990  29.053  65.159  1.00  0.00     0.038 C 
ATOM     18  C   UNL     1      88.448  27.777  64.461  1.00  0.00     0.007 C 
ENDBRANCH  16  17
ENDBRANCH  15  16
ENDBRANCH  13  15
ENDBRANCH   6  13
TORSDOF 8
ENDMDL
MODEL 8
REMARK VINA RESULT:    -3.953      1.632      5.326
REMARK INTER + INTRA:          -6.192
REMARK INTER:                  -5.881
REMARK INTRA:                  -0.311
REMARK UNBOUND:                -0.391
REMARK SMILES CCCOC(=O)c1ccccc1C(=O)OCCC
REMARK SMILES IDX 7 1 8 2 9 3 10 4 11 5 12 6 5 7 6 8 4 9 3 10 2 11 1 12 13 13
REMARK SMILES IDX 14 14 15 15 16 16 17 17 18 18
REMARK H PARENT
REMARK Flexibility Score: inf
ROOT
ATOM      1  C   UNL     1      85.896  31.054  64.934  1.00  0.00     0.074 A 
ATOM      2  C   UNL     1      84.496  31.159  64.837  1.00  0.00     0.016 A 
ATOM      3  C   UNL     1      83.706  30.023  64.657  1.00  0.00     0.001 A 
ATOM      4  C   UNL     1      84.298  28.765  64.572  1.00  0.00     0.001 A 
ATOM      5  C   UNL     1      85.686  28.640  64.643  1.00  0.00     0.016 A 
ATOM      6  C   UNL     1      86.503  29.774  64.800  1.00  0.00     0.074 A 
ENDROOT
BRANCH   1   7
ATOM      7  C   UNL     1      86.665  32.283  65.239  1.00  0.00     0.339 C 
ATOM      8  O   UNL     1      86.854  33.153  64.345  1.00  0.00    -0.246 OA
BRANCH   7   9
ATOM      9  O   UNL     1      87.234  32.440  66.510  1.00  0.00    -0.462 OA
BRANCH   9  10
ATOM     10  C   UNL     1      86.652  31.929  67.709  1.00  0.00     0.233 C 
BRANCH  10  11
ATOM     11  C   UNL     1      85.429  32.752  68.125  1.00  0.00     0.038 C 
ATOM     12  C   UNL     1      84.130  31.952  68.056  1.00  0.00     0.007 C 
ENDBRANCH  10  11
ENDBRANCH   9  10
ENDBRANCH   7   9
ENDBRANCH   1   7
BRANCH   6  13
ATOM     13  C   UNL     1      87.970  29.579  64.756  1.00  0.00     0.339 C 
ATOM     14  O   UNL     1      88.722  30.513  64.364  1.00  0.00    -0.246 OA
BRANCH  13  15
ATOM     15  O   UNL     1      88.510  28.333  65.094  1.00  0.00    -0.462 OA
BRANCH  15  16
ATOM     16  C   UNL     1      89.125  27.461  64.148  1.00  0.00     0.233 C 
BRANCH  16  17
ATOM     17  C   UNL     1      88.952  26.000  64.573  1.00  0.00     0.038 C 
ATOM     18  C   UNL     1      88.378  25.159  63.438  1.00  0.00     0.007 C 
ENDBRANCH  16  17
ENDBRANCH  15  16
ENDBRANCH  13  15
ENDBRANCH   6  13
TORSDOF 8
ENDMDL
MODEL 9
REMARK VINA RESULT:    -3.828      1.696      4.501
REMARK INTER + INTRA:          -6.010
REMARK INTER:                  -5.813
REMARK INTRA:                  -0.197
REMARK UNBOUND:                -0.391
REMARK SMILES CCCOC(=O)c1ccccc1C(=O)OCCC
REMARK SMILES IDX 7 1 8 2 9 3 10 4 11 5 12 6 5 7 6 8 4 9 3 10 2 11 1 12 13 13
REMARK SMILES IDX 14 14 15 15 16 16 17 17 18 18
REMARK H PARENT
REMARK Flexibility Score: inf
ROOT
ATOM      1  C   UNL     1      87.913  32.860  65.977  1.00  0.00     0.074 A 
ATOM      2  C   UNL     1      88.949  33.622  66.548  1.00  0.00     0.016 A 
ATOM      3  C   UNL     1      89.124  34.962  66.201  1.00  0.00     0.001 A 
ATOM      4  C   UNL     1      88.269  35.564  65.281  1.00  0.00     0.001 A 
ATOM      5  C   UNL     1      87.249  34.821  64.685  1.00  0.00     0.016 A 
ATOM      6  C   UNL     1      87.069  33.463  65.002  1.00  0.00     0.074 A 
ENDROOT
BRANCH   1   7
ATOM      7  C   UNL     1      87.713  31.479  66.474  1.00  0.00     0.339 C 
ATOM      8  O   UNL     1      86.831  31.237  67.343  1.00  0.00    -0.246 OA
BRANCH   7   9
ATOM      9  O   UNL     1      88.554  30.455  66.018  1.00  0.00    -0.462 OA
BRANCH   9  10
ATOM     10  C   UNL     1      88.724  30.121  64.640  1.00  0.00     0.233 C 
BRANCH  10  11
ATOM     11  C   UNL     1      88.980  28.621  64.463  1.00  0.00     0.038 C 
ATOM     12  C   UNL     1      87.731  27.778  64.712  1.00  0.00     0.007 C 
ENDBRANCH  10  11
ENDBRANCH   9  10
ENDBRANCH   7   9
ENDBRANCH   1   7
BRANCH   6  13
ATOM     13  C   UNL     1      86.040  32.709  64.252  1.00  0.00     0.339 C 
ATOM     14  O   UNL     1      85.824  32.967  63.037  1.00  0.00    -0.246 OA
BRANCH  13  15
ATOM     15  O   UNL     1      85.267  31.750  64.917  1.00  0.00    -0.462 OA
BRANCH  15  16
ATOM     16  C   UNL     1      83.904  31.957  65.285  1.00  0.00     0.233 C 
BRANCH  16  17
ATOM     17  C   UNL     1      83.104  30.661  65.130  1.00  0.00     0.038 C 
ATOM     18  C   UNL     1      83.892  29.616  64.348  1.00  0.00     0.007 C 
ENDBRANCH  16  17
ENDBRANCH  15  16
ENDBRANCH  13  15
ENDBRANCH   6  13
TORSDOF 8
ENDMDL
