MODEL 1
REMARK VINA RESULT:    -0.264      0.000      0.000
REMARK INTER + INTRA:          -0.608
REMARK INTER:                  -0.311
REMARK INTRA:                  -0.298
REMARK UNBOUND:                -0.298
REMARK SMILES O=c1c(O)c(-c2ccc(O)cc2)oc2cc(O)cc(O)c12
REMARK SMILES IDX 5 1 3 2 2 3 1 4 21 5 19 6 18 7 16 8 15 9 14 10 13 11 6 12
REMARK SMILES IDX 7 13 8 14 9 15 12 16 11 17 10 18 4 20 20 22 17 24
REMARK H PARENT 10 19 4 21 20 23 17 25
REMARK Flexibility Score: inf
ROOT
ATOM      1  C   UNL     1     190.880 186.718 173.653  1.00  0.00     0.180 A 
ATOM      2  C   UNL     1     190.195 186.656 172.424  1.00  0.00     0.208 A 
ATOM      3  C   UNL     1     188.812 186.418 172.430  1.00  0.00     0.238 A 
ATOM      4  O   UNL     1     188.190 186.348 171.335  1.00  0.00    -0.285 OA
ATOM      5  C   UNL     1     188.136 186.268 173.658  1.00  0.00     0.111 A 
ATOM      6  C   UNL     1     186.743 186.030 173.751  1.00  0.00     0.134 A 
ATOM      7  C   UNL     1     186.141 185.901 175.012  1.00  0.00     0.093 A 
ATOM      8  C   UNL     1     186.902 186.007 176.178  1.00  0.00     0.123 A 
ATOM      9  C   UNL     1     188.279 186.241 176.093  1.00  0.00     0.094 A 
ATOM     10  C   UNL     1     188.897 186.370 174.846  1.00  0.00     0.146 A 
ATOM     11  O   UNL     1     190.206 186.588 174.792  1.00  0.00    -0.452 OA
ENDROOT
BRANCH   1  12
ATOM     12  C   UNL     1     192.341 186.947 173.730  1.00  0.00     0.021 A 
ATOM     13  C   UNL     1     192.829 188.255 173.885  1.00  0.00     0.016 A 
ATOM     14  C   UNL     1     194.204 188.492 173.982  1.00  0.00     0.047 A 
ATOM     15  C   UNL     1     195.107 187.421 173.941  1.00  0.00     0.115 A 
ATOM     16  C   UNL     1     193.252 185.876 173.709  1.00  0.00     0.016 A 
ATOM     17  C   UNL     1     194.627 186.114 173.808  1.00  0.00     0.047 A 
BRANCH  15  18
ATOM     18  O   UNL     1     196.478 187.644 174.037  1.00  0.00    -0.508 OA
ATOM     19  H   UNL     1     197.111 187.381 173.291  1.00  0.00     0.293 HD
ENDBRANCH  15  18
ENDBRANCH   1  12
BRANCH   2  20
ATOM     20  O   UNL     1     190.881 186.857 171.224  1.00  0.00    -0.502 OA
ATOM     21  H   UNL     1     191.157 187.779 170.906  1.00  0.00     0.293 HD
ENDBRANCH   2  20
BRANCH   6  22
ATOM     22  O   UNL     1     185.954 185.920 172.604  1.00  0.00    -0.507 OA
ATOM     23  H   UNL     1     185.628 186.736 172.100  1.00  0.00     0.293 HD
ENDBRANCH   6  22
BRANCH   8  24
ATOM     24  O   UNL     1     186.281 185.876 177.418  1.00  0.00    -0.508 OA
ATOM     25  H   UNL     1     185.288 186.045 177.534  1.00  0.00     0.293 HD
ENDBRANCH   8  24
TORSDOF 5
ENDMDL
MODEL 2
REMARK VINA RESULT:    -0.225      1.918      3.773
REMARK INTER + INTRA:          -0.562
REMARK INTER:                  -0.264
REMARK INTRA:                  -0.298
REMARK UNBOUND:                -0.298
REMARK SMILES O=c1c(O)c(-c2ccc(O)cc2)oc2cc(O)cc(O)c12
REMARK SMILES IDX 5 1 3 2 2 3 1 4 21 5 19 6 18 7 16 8 15 9 14 10 13 11 6 12
REMARK SMILES IDX 7 13 8 14 9 15 12 16 11 17 10 18 4 20 20 22 17 24
REMARK H PARENT 10 19 4 21 20 23 17 25
REMARK Flexibility Score: inf
ROOT
ATOM      1  C   UNL     1     191.863 186.729 175.163  1.00  0.00     0.180 A 
ATOM      2  C   UNL     1     190.760 186.636 176.034  1.00  0.00     0.208 A 
ATOM      3  C   UNL     1     189.484 186.424 175.493  1.00  0.00     0.238 A 
ATOM      4  O   UNL     1     188.488 186.350 176.262  1.00  0.00    -0.285 OA
ATOM      5  C   UNL     1     189.332 186.289 174.097  1.00  0.00     0.111 A 
ATOM      6  C   UNL     1     188.081 186.069 173.471  1.00  0.00     0.134 A 
ATOM      7  C   UNL     1     188.014 185.936 172.076  1.00  0.00     0.093 A 
ATOM      8  C   UNL     1     189.171 186.016 171.297  1.00  0.00     0.123 A 
ATOM      9  C   UNL     1     190.410 186.234 171.909  1.00  0.00     0.094 A 
ATOM     10  C   UNL     1     190.497 186.371 173.297  1.00  0.00     0.146 A 
ATOM     11  O   UNL     1     191.684 186.581 173.853  1.00  0.00    -0.452 OA
ENDROOT
BRANCH   1  12
ATOM     12  C   UNL     1     193.239 186.970 175.656  1.00  0.00     0.021 A 
ATOM     13  C   UNL     1     194.083 185.878 175.912  1.00  0.00     0.016 A 
ATOM     14  C   UNL     1     195.392 186.083 176.357  1.00  0.00     0.047 A 
ATOM     15  C   UNL     1     195.879 187.384 176.535  1.00  0.00     0.115 A 
ATOM     16  C   UNL     1     193.740 188.275 175.819  1.00  0.00     0.016 A 
ATOM     17  C   UNL     1     195.051 188.478 176.262  1.00  0.00     0.047 A 
BRANCH  15  18
ATOM     18  O   UNL     1     197.182 187.601 176.977  1.00  0.00    -0.508 OA
ATOM     19  H   UNL     1     197.480 187.321 177.904  1.00  0.00     0.293 HD
ENDBRANCH  15  18
ENDBRANCH   1  12
BRANCH   2  20
ATOM     20  O   UNL     1     190.945 186.724 177.417  1.00  0.00    -0.502 OA
ATOM     21  H   UNL     1     190.592 186.021 178.056  1.00  0.00     0.293 HD
ENDBRANCH   2  20
BRANCH   6  22
ATOM     22  O   UNL     1     186.908 185.983 174.222  1.00  0.00    -0.507 OA
ATOM     23  H   UNL     1     186.500 185.090 174.475  1.00  0.00     0.293 HD
ENDBRANCH   6  22
BRANCH   8  24
ATOM     24  O   UNL     1     189.077 185.879 169.914  1.00  0.00    -0.508 OA
ATOM     25  H   UNL     1     189.042 184.968 169.472  1.00  0.00     0.293 HD
ENDBRANCH   8  24
TORSDOF 5
ENDMDL
MODEL 3
REMARK VINA RESULT:    -0.204      2.713      5.756
REMARK INTER + INTRA:          -0.538
REMARK INTER:                  -0.247
REMARK INTRA:                  -0.291
REMARK UNBOUND:                -0.298
REMARK SMILES O=c1c(O)c(-c2ccc(O)cc2)oc2cc(O)cc(O)c12
REMARK SMILES IDX 5 1 3 2 2 3 1 4 21 5 19 6 18 7 16 8 15 9 14 10 13 11 6 12
REMARK SMILES IDX 7 13 8 14 9 15 12 16 11 17 10 18 4 20 20 22 17 24
REMARK H PARENT 10 19 4 21 20 23 17 25
REMARK Flexibility Score: inf
ROOT
ATOM      1  C   UNL     1     188.650 187.313 176.543  1.00  0.00     0.180 A 
ATOM      2  C   UNL     1     187.385 187.180 175.938  1.00  0.00     0.208 A 
ATOM      3  C   UNL     1     187.315 186.822 174.584  1.00  0.00     0.238 A 
ATOM      4  O   UNL     1     186.188 186.711 174.029  1.00  0.00    -0.285 OA
ATOM      5  C   UNL     1     188.504 186.583 173.864  1.00  0.00     0.111 A 
ATOM      6  C   UNL     1     188.520 186.214 172.497  1.00  0.00     0.134 A 
ATOM      7  C   UNL     1     189.746 185.984 171.853  1.00  0.00     0.093 A 
ATOM      8  C   UNL     1     190.950 186.115 172.547  1.00  0.00     0.123 A 
ATOM      9  C   UNL     1     190.941 186.480 173.897  1.00  0.00     0.094 A 
ATOM     10  C   UNL     1     189.731 186.715 174.556  1.00  0.00     0.146 A 
ATOM     11  O   UNL     1     189.749 187.064 175.837  1.00  0.00    -0.452 OA
ENDROOT
BRANCH   1  12
ATOM     12  C   UNL     1     188.808 187.706 177.963  1.00  0.00     0.021 A 
ATOM     13  C   UNL     1     188.863 189.067 178.302  1.00  0.00     0.016 A 
ATOM     14  C   UNL     1     188.989 189.460 179.638  1.00  0.00     0.047 A 
ATOM     15  C   UNL     1     189.045 188.496 180.653  1.00  0.00     0.115 A 
ATOM     16  C   UNL     1     188.845 186.743 178.989  1.00  0.00     0.016 A 
ATOM     17  C   UNL     1     188.969 187.139 180.324  1.00  0.00     0.047 A 
BRANCH  15  18
ATOM     18  O   UNL     1     189.170 188.876 181.987  1.00  0.00    -0.508 OA
ATOM     19  H   UNL     1     189.585 188.260 182.676  1.00  0.00     0.293 HD
ENDBRANCH  15  18
ENDBRANCH   1  12
BRANCH   2  20
ATOM     20  O   UNL     1     186.222 187.374 176.688  1.00  0.00    -0.502 OA
ATOM     21  H   UNL     1     186.233 187.438 177.699  1.00  0.00     0.293 HD
ENDBRANCH   2  20
BRANCH   6  22
ATOM     22  O   UNL     1     187.334 186.074 171.776  1.00  0.00    -0.507 OA
ATOM     23  H   UNL     1     187.332 185.944 170.771  1.00  0.00     0.293 HD
ENDBRANCH   6  22
BRANCH   8  24
ATOM     24  O   UNL     1     192.153 185.881 171.884  1.00  0.00    -0.508 OA
ATOM     25  H   UNL     1     192.881 186.585 171.840  1.00  0.00     0.293 HD
ENDBRANCH   8  24
TORSDOF 5
ENDMDL
MODEL 4
REMARK VINA RESULT:    -0.192      2.076      4.066
REMARK INTER + INTRA:          -0.523
REMARK INTER:                  -0.227
REMARK INTRA:                  -0.296
REMARK UNBOUND:                -0.298
REMARK SMILES O=c1c(O)c(-c2ccc(O)cc2)oc2cc(O)cc(O)c12
REMARK SMILES IDX 5 1 3 2 2 3 1 4 21 5 19 6 18 7 16 8 15 9 14 10 13 11 6 12
REMARK SMILES IDX 7 13 8 14 9 15 12 16 11 17 10 18 4 20 20 22 17 24
REMARK H PARENT 10 19 4 21 20 23 17 25
REMARK Flexibility Score: inf
ROOT
ATOM      1  C   UNL     1     193.387 186.706 173.956  1.00  0.00     0.180 A 
ATOM      2  C   UNL     1     192.629 186.571 175.135  1.00  0.00     0.208 A 
ATOM      3  C   UNL     1     191.249 186.345 175.032  1.00  0.00     0.238 A 
ATOM      4  O   UNL     1     190.558 186.234 176.081  1.00  0.00    -0.285 OA
ATOM      5  C   UNL     1     190.653 186.237 173.758  1.00  0.00     0.111 A 
ATOM      6  C   UNL     1     189.269 186.006 173.567  1.00  0.00     0.134 A 
ATOM      7  C   UNL     1     188.754 185.901 172.266  1.00  0.00     0.093 A 
ATOM      8  C   UNL     1     189.593 186.021 171.157  1.00  0.00     0.123 A 
ATOM      9  C   UNL     1     190.960 186.251 171.338  1.00  0.00     0.094 A 
ATOM     10  C   UNL     1     191.493 186.360 172.626  1.00  0.00     0.146 A 
ATOM     11  O   UNL     1     192.794 186.582 172.772  1.00  0.00    -0.452 OA
ENDROOT
BRANCH   1  12
ATOM     12  C   UNL     1     194.845 186.964 173.981  1.00  0.00     0.021 A 
ATOM     13  C   UNL     1     195.740 185.881 173.962  1.00  0.00     0.016 A 
ATOM     14  C   UNL     1     197.120 186.103 173.963  1.00  0.00     0.047 A 
ATOM     15  C   UNL     1     197.623 187.410 173.967  1.00  0.00     0.115 A 
ATOM     16  C   UNL     1     195.357 188.274 173.967  1.00  0.00     0.016 A 
ATOM     17  C   UNL     1     196.739 188.493 173.966  1.00  0.00     0.047 A 
BRANCH  15  18
ATOM     18  O   UNL     1     198.996 187.643 173.969  1.00  0.00    -0.508 OA
ATOM     19  H   UNL     1     199.611 187.186 174.632  1.00  0.00     0.293 HD
ENDBRANCH  15  18
ENDBRANCH   1  12
BRANCH   2  20
ATOM     20  O   UNL     1     193.252 186.633 176.384  1.00  0.00    -0.502 OA
ATOM     21  H   UNL     1     194.246 186.471 176.503  1.00  0.00     0.293 HD
ENDBRANCH   2  20
BRANCH   6  22
ATOM     22  O   UNL     1     188.405 185.879 174.656  1.00  0.00    -0.507 OA
ATOM     23  H   UNL     1     187.619 185.239 174.642  1.00  0.00     0.293 HD
ENDBRANCH   6  22
BRANCH   8  24
ATOM     24  O   UNL     1     189.056 185.913 169.876  1.00  0.00    -0.508 OA
ATOM     25  H   UNL     1     188.224 186.425 169.604  1.00  0.00     0.293 HD
ENDBRANCH   8  24
TORSDOF 5
ENDMDL
MODEL 5
REMARK VINA RESULT:    -0.191      2.120      2.308
REMARK INTER + INTRA:          -0.522
REMARK INTER:                  -0.226
REMARK INTRA:                  -0.296
REMARK UNBOUND:                -0.298
REMARK SMILES O=c1c(O)c(-c2ccc(O)cc2)oc2cc(O)cc(O)c12
REMARK SMILES IDX 5 1 3 2 2 3 1 4 21 5 19 6 18 7 16 8 15 9 14 10 13 11 6 12
REMARK SMILES IDX 7 13 8 14 9 15 12 16 11 17 10 18 4 20 20 22 17 24
REMARK H PARENT 10 19 4 21 20 23 17 25
REMARK Flexibility Score: inf
ROOT
ATOM      1  C   UNL     1     191.647 187.117 175.463  1.00  0.00     0.180 A 
ATOM      2  C   UNL     1     191.561 187.029 174.060  1.00  0.00     0.208 A 
ATOM      3  C   UNL     1     190.331 186.692 173.476  1.00  0.00     0.238 A 
ATOM      4  O   UNL     1     190.245 186.599 172.221  1.00  0.00    -0.285 OA
ATOM      5  C   UNL     1     189.207 186.470 174.298  1.00  0.00     0.111 A 
ATOM      6  C   UNL     1     187.930 186.131 173.788  1.00  0.00     0.134 A 
ATOM      7  C   UNL     1     186.857 185.936 174.672  1.00  0.00     0.093 A 
ATOM      8  C   UNL     1     187.036 186.074 176.050  1.00  0.00     0.123 A 
ATOM      9  C   UNL     1     188.295 186.408 176.559  1.00  0.00     0.094 A 
ATOM     10  C   UNL     1     189.376 186.605 175.696  1.00  0.00     0.146 A 
ATOM     11  O   UNL     1     190.562 186.917 176.205  1.00  0.00    -0.452 OA
ENDROOT
BRANCH   1  12
ATOM     12  C   UNL     1     192.914 187.449 176.156  1.00  0.00     0.021 A 
ATOM     13  C   UNL     1     193.214 188.791 176.443  1.00  0.00     0.016 A 
ATOM     14  C   UNL     1     194.394 189.124 177.115  1.00  0.00     0.047 A 
ATOM     15  C   UNL     1     195.280 188.119 177.523  1.00  0.00     0.115 A 
ATOM     16  C   UNL     1     193.799 186.443 176.584  1.00  0.00     0.016 A 
ATOM     17  C   UNL     1     194.978 186.779 177.259  1.00  0.00     0.047 A 
BRANCH  15  18
ATOM     18  O   UNL     1     196.458 188.439 178.194  1.00  0.00    -0.508 OA
ATOM     19  H   UNL     1     196.996 189.263 177.954  1.00  0.00     0.293 HD
ENDBRANCH  15  18
ENDBRANCH   1  12
BRANCH   2  20
ATOM     20  O   UNL     1     192.679 187.302 173.267  1.00  0.00    -0.502 OA
ATOM     21  H   UNL     1     192.657 187.983 172.516  1.00  0.00     0.293 HD
ENDBRANCH   2  20
BRANCH   6  22
ATOM     22  O   UNL     1     187.718 185.987 172.416  1.00  0.00    -0.507 OA
ATOM     23  H   UNL     1     188.083 185.196 171.900  1.00  0.00     0.293 HD
ENDBRANCH   6  22
BRANCH   8  24
ATOM     24  O   UNL     1     185.954 185.875 176.905  1.00  0.00    -0.508 OA
ATOM     25  H   UNL     1     185.239 186.583 177.029  1.00  0.00     0.293 HD
ENDBRANCH   8  24
TORSDOF 5
ENDMDL
MODEL 6
REMARK VINA RESULT:    -0.188      3.287      4.800
REMARK INTER + INTRA:          -0.519
REMARK INTER:                  -0.221
REMARK INTRA:                  -0.298
REMARK UNBOUND:                -0.298
REMARK SMILES O=c1c(O)c(-c2ccc(O)cc2)oc2cc(O)cc(O)c12
REMARK SMILES IDX 5 1 3 2 2 3 1 4 21 5 19 6 18 7 16 8 15 9 14 10 13 11 6 12
REMARK SMILES IDX 7 13 8 14 9 15 12 16 11 17 10 18 4 20 20 22 17 24
REMARK H PARENT 10 19 4 21 20 23 17 25
REMARK Flexibility Score: inf
ROOT
ATOM      1  C   UNL     1     191.447 187.104 176.671  1.00  0.00     0.180 A 
ATOM      2  C   UNL     1     190.091 186.923 177.008  1.00  0.00     0.208 A 
ATOM      3  C   UNL     1     189.181 186.585 175.996  1.00  0.00     0.238 A 
ATOM      4  O   UNL     1     187.962 186.432 176.283  1.00  0.00    -0.285 OA
ATOM      5  C   UNL     1     189.640 186.415 174.673  1.00  0.00     0.111 A 
ATOM      6  C   UNL     1     188.788 186.071 173.596  1.00  0.00     0.134 A 
ATOM      7  C   UNL     1     189.323 185.909 172.309  1.00  0.00     0.093 A 
ATOM      8  C   UNL     1     190.689 186.084 172.080  1.00  0.00     0.123 A 
ATOM      9  C   UNL     1     191.536 186.425 173.139  1.00  0.00     0.094 A 
ATOM     10  C   UNL     1     191.022 186.591 174.428  1.00  0.00     0.146 A 
ATOM     11  O   UNL     1     191.846 186.919 175.416  1.00  0.00    -0.452 OA
ENDROOT
BRANCH   1  12
ATOM     12  C   UNL     1     192.466 187.479 177.679  1.00  0.00     0.021 A 
ATOM     13  C   UNL     1     193.209 186.474 178.318  1.00  0.00     0.016 A 
ATOM     14  C   UNL     1     194.191 186.806 179.256  1.00  0.00     0.047 A 
ATOM     15  C   UNL     1     194.453 188.150 179.555  1.00  0.00     0.115 A 
ATOM     16  C   UNL     1     192.746 188.827 177.970  1.00  0.00     0.016 A 
ATOM     17  C   UNL     1     193.731 189.157 178.907  1.00  0.00     0.047 A 
BRANCH  15  18
ATOM     18  O   UNL     1     195.428 188.493 180.487  1.00  0.00    -0.508 OA
ATOM     19  H   UNL     1     196.380 188.699 180.207  1.00  0.00     0.293 HD
ENDBRANCH  15  18
ENDBRANCH   1  12
BRANCH   2  20
ATOM     20  O   UNL     1     189.671 187.049 178.335  1.00  0.00    -0.502 OA
ATOM     21  H   UNL     1     188.860 186.560 178.695  1.00  0.00     0.293 HD
ENDBRANCH   2  20
BRANCH   6  22
ATOM     22  O   UNL     1     187.418 185.888 173.793  1.00  0.00    -0.507 OA
ATOM     23  H   UNL     1     187.037 185.004 174.111  1.00  0.00     0.293 HD
ENDBRANCH   6  22
BRANCH   8  24
ATOM     24  O   UNL     1     191.196 185.917 170.793  1.00  0.00    -0.508 OA
ATOM     25  H   UNL     1     192.141 185.587 170.633  1.00  0.00     0.293 HD
ENDBRANCH   8  24
TORSDOF 5
ENDMDL
MODEL 7
REMARK VINA RESULT:    -0.179      3.343      6.550
REMARK INTER + INTRA:          -0.508
REMARK INTER:                  -0.216
REMARK INTRA:                  -0.292
REMARK UNBOUND:                -0.298
REMARK SMILES O=c1c(O)c(-c2ccc(O)cc2)oc2cc(O)cc(O)c12
REMARK SMILES IDX 5 1 3 2 2 3 1 4 21 5 19 6 18 7 16 8 15 9 14 10 13 11 6 12
REMARK SMILES IDX 7 13 8 14 9 15 12 16 11 17 10 18 4 20 20 22 17 24
REMARK H PARENT 10 19 4 21 20 23 17 25
REMARK Flexibility Score: inf
ROOT
ATOM      1  C   UNL     1     189.176 186.947 177.892  1.00  0.00     0.180 A 
ATOM      2  C   UNL     1     190.536 186.746 177.585  1.00  0.00     0.208 A 
ATOM      3  C   UNL     1     190.896 186.460 176.260  1.00  0.00     0.238 A 
ATOM      4  O   UNL     1     192.109 186.267 175.975  1.00  0.00    -0.285 OA
ATOM      5  C   UNL     1     189.900 186.398 175.264  1.00  0.00     0.111 A 
ATOM      6  C   UNL     1     190.180 186.119 173.904  1.00  0.00     0.134 A 
ATOM      7  C   UNL     1     189.133 186.085 172.970  1.00  0.00     0.093 A 
ATOM      8  C   UNL     1     187.816 186.326 173.369  1.00  0.00     0.123 A 
ATOM      9  C   UNL     1     187.533 186.601 174.710  1.00  0.00     0.094 A 
ATOM     10  C   UNL     1     188.561 186.638 175.656  1.00  0.00     0.146 A 
ATOM     11  O   UNL     1     188.266 186.897 176.924  1.00  0.00    -0.452 OA
ENDROOT
BRANCH   1  12
ATOM     12  C   UNL     1     188.714 187.236 179.270  1.00  0.00     0.021 A 
ATOM     13  C   UNL     1     188.447 188.562 179.646  1.00  0.00     0.016 A 
ATOM     14  C   UNL     1     187.988 188.854 180.934  1.00  0.00     0.047 A 
ATOM     15  C   UNL     1     187.776 187.822 181.857  1.00  0.00     0.115 A 
ATOM     16  C   UNL     1     188.481 186.202 180.195  1.00  0.00     0.016 A 
ATOM     17  C   UNL     1     188.020 186.497 181.483  1.00  0.00     0.047 A 
BRANCH  15  18
ATOM     18  O   UNL     1     187.319 188.101 183.143  1.00  0.00    -0.508 OA
ATOM     19  H   UNL     1     186.333 188.076 183.371  1.00  0.00     0.293 HD
ENDBRANCH  15  18
ENDBRANCH   1  12
BRANCH   2  20
ATOM     20  O   UNL     1     191.508 186.861 178.582  1.00  0.00    -0.502 OA
ATOM     21  H   UNL     1     191.286 186.780 179.567  1.00  0.00     0.293 HD
ENDBRANCH   2  20
BRANCH   6  22
ATOM     22  O   UNL     1     191.485 185.876 173.474  1.00  0.00    -0.507 OA
ATOM     23  H   UNL     1     192.043 185.123 173.860  1.00  0.00     0.293 HD
ENDBRANCH   6  22
BRANCH   8  24
ATOM     24  O   UNL     1     186.795 186.287 172.422  1.00  0.00    -0.508 OA
ATOM     25  H   UNL     1     186.311 187.128 172.129  1.00  0.00     0.293 HD
ENDBRANCH   8  24
TORSDOF 5
ENDMDL
MODEL 8
REMARK VINA RESULT:    -0.174      1.671      6.081
REMARK INTER + INTRA:          -0.503
REMARK INTER:                  -0.217
REMARK INTRA:                  -0.286
REMARK UNBOUND:                -0.298
REMARK SMILES O=c1c(O)c(-c2ccc(O)cc2)oc2cc(O)cc(O)c12
REMARK SMILES IDX 5 1 3 2 2 3 1 4 21 5 19 6 18 7 16 8 15 9 14 10 13 11 6 12
REMARK SMILES IDX 7 13 8 14 9 15 12 16 11 17 10 18 4 20 20 22 17 24
REMARK H PARENT 10 19 4 21 20 23 17 25
REMARK Flexibility Score: inf
ROOT
ATOM      1  C   UNL     1     189.700 186.890 174.706  1.00  0.00     0.180 A 
ATOM      2  C   UNL     1     189.065 186.760 173.455  1.00  0.00     0.208 A 
ATOM      3  C   UNL     1     189.855 186.654 172.301  1.00  0.00     0.238 A 
ATOM      4  O   UNL     1     189.297 186.549 171.175  1.00  0.00    -0.285 OA
ATOM      5  C   UNL     1     191.261 186.658 172.415  1.00  0.00     0.111 A 
ATOM      6  C   UNL     1     192.129 186.551 171.302  1.00  0.00     0.134 A 
ATOM      7  C   UNL     1     193.518 186.553 171.500  1.00  0.00     0.093 A 
ATOM      8  C   UNL     1     194.054 186.658 172.785  1.00  0.00     0.123 A 
ATOM      9  C   UNL     1     193.202 186.765 173.889  1.00  0.00     0.094 A 
ATOM     10  C   UNL     1     191.815 186.767 173.713  1.00  0.00     0.146 A 
ATOM     11  O   UNL     1     191.028 186.873 174.777  1.00  0.00    -0.452 OA
ENDROOT
BRANCH   1  12
ATOM     12  C   UNL     1     188.936 187.025 175.967  1.00  0.00     0.021 A 
ATOM     13  C   UNL     1     188.485 188.292 176.370  1.00  0.00     0.016 A 
ATOM     14  C   UNL     1     187.743 188.440 177.546  1.00  0.00     0.047 A 
ATOM     15  C   UNL     1     187.429 187.319 178.325  1.00  0.00     0.115 A 
ATOM     16  C   UNL     1     188.602 185.901 176.745  1.00  0.00     0.016 A 
ATOM     17  C   UNL     1     187.858 186.051 177.920  1.00  0.00     0.047 A 
BRANCH  15  18
ATOM     18  O   UNL     1     186.691 187.453 179.499  1.00  0.00    -0.508 OA
ATOM     19  H   UNL     1     186.428 186.648 180.054  1.00  0.00     0.293 HD
ENDBRANCH  15  18
ENDBRANCH   1  12
BRANCH   2  20
ATOM     20  O   UNL     1     187.671 186.709 173.375  1.00  0.00    -0.502 OA
ATOM     21  H   UNL     1     187.077 186.811 174.190  1.00  0.00     0.293 HD
ENDBRANCH   2  20
BRANCH   6  22
ATOM     22  O   UNL     1     191.624 186.443 170.005  1.00  0.00    -0.507 OA
ATOM     23  H   UNL     1     191.828 187.135 169.294  1.00  0.00     0.293 HD
ENDBRANCH   6  22
BRANCH   8  24
ATOM     24  O   UNL     1     195.437 186.658 172.954  1.00  0.00    -0.508 OA
ATOM     25  H   UNL     1     196.052 187.123 172.296  1.00  0.00     0.293 HD
ENDBRANCH   8  24
TORSDOF 5
ENDMDL
MODEL 9
REMARK VINA RESULT:     0.461      8.274      9.343
REMARK INTER + INTRA:           0.245
REMARK INTER:                   0.000
REMARK INTRA:                   0.245
REMARK UNBOUND:                -0.298
REMARK SMILES O=c1c(O)c(-c2ccc(O)cc2)oc2cc(O)cc(O)c12
REMARK SMILES IDX 5 1 3 2 2 3 1 4 21 5 19 6 18 7 16 8 15 9 14 10 13 11 6 12
REMARK SMILES IDX 7 13 8 14 9 15 12 16 11 17 10 18 4 20 20 22 17 24
REMARK H PARENT 10 19 4 21 20 23 17 25
REMARK Flexibility Score: inf
ROOT
ATOM      1  C   UNL     1     187.955 194.392 176.107  1.00  0.00     0.180 A 
ATOM      2  C   UNL     1     187.771 193.082 176.590  1.00  0.00     0.208 A 
ATOM      3  C   UNL     1     187.420 192.069 175.684  1.00  0.00     0.238 A 
ATOM      4  O   UNL     1     187.240 190.895 176.106  1.00  0.00    -0.285 OA
ATOM      5  C   UNL     1     187.280 192.376 174.315  1.00  0.00     0.111 A 
ATOM      6  C   UNL     1     186.932 191.413 173.337  1.00  0.00     0.134 A 
ATOM      7  C   UNL     1     186.822 191.795 171.991  1.00  0.00     0.093 A 
ATOM      8  C   UNL     1     187.052 193.118 171.606  1.00  0.00     0.123 A 
ATOM      9  C   UNL     1     187.395 194.074 172.568  1.00  0.00     0.094 A 
ATOM     10  C   UNL     1     187.508 193.714 173.913  1.00  0.00     0.146 A 
ATOM     11  O   UNL     1     187.830 194.641 174.807  1.00  0.00    -0.452 OA
ENDROOT
BRANCH   1  12
ATOM     12  C   UNL     1     188.308 195.519 177.002  1.00  0.00     0.021 A 
ATOM     13  C   UNL     1     187.751 196.787 176.771  1.00  0.00     0.016 A 
ATOM     14  C   UNL     1     188.053 197.859 177.616  1.00  0.00     0.047 A 
ATOM     15  C   UNL     1     188.905 197.672 178.713  1.00  0.00     0.115 A 
ATOM     16  C   UNL     1     189.147 195.333 178.116  1.00  0.00     0.016 A 
ATOM     17  C   UNL     1     189.447 196.407 178.962  1.00  0.00     0.047 A 
BRANCH  15  18
ATOM     18  O   UNL     1     189.213 198.732 179.562  1.00  0.00    -0.508 OA
ATOM     19  H   UNL     1     188.542 199.465 179.758  1.00  0.00     0.293 HD
ENDBRANCH  15  18
ENDBRANCH   1  12
BRANCH   2  20
ATOM     20  O   UNL     1     187.964 192.795 177.943  1.00  0.00    -0.502 OA
ATOM     21  H   UNL     1     187.990 191.846 178.298  1.00  0.00     0.293 HD
ENDBRANCH   2  20
BRANCH   6  22
ATOM     22  O   UNL     1     186.697 190.083 173.690  1.00  0.00    -0.507 OA
ATOM     23  H   UNL     1     187.429 189.384 173.653  1.00  0.00     0.293 HD
ENDBRANCH   6  22
BRANCH   8  24
ATOM     24  O   UNL     1     186.937 193.472 170.264  1.00  0.00    -0.508 OA
ATOM     25  H   UNL     1     186.471 194.325 169.978  1.00  0.00     0.293 HD
ENDBRANCH   8  24
TORSDOF 5
ENDMDL
