MODEL 1
REMARK VINA RESULT:    -6.277      0.000      0.000
REMARK INTER + INTRA:         -10.841
REMARK INTER:                  -9.764
REMARK INTRA:                  -1.078
REMARK UNBOUND:                -1.078
REMARK SMILES C[C@]12C[C@H](O)[C@@H]3C[C@@]1(O[C@@H]1O[C@H](CO)[C@H](O)[C@H](O)[C@H]1O)[C@]3(COC(=O)c1ccccc1)C(=O)O2
REMARK SMILES IDX 1 1 2 2 3 3 4 4 6 5 7 6 8 7 21 8 32 9 33 10 34 11 9 12 10 13
REMARK SMILES IDX 19 14 11 15 17 16 12 17 15 18 20 19 18 21 13 23 14 24 16 26
REMARK SMILES IDX 5 28 22 30 23 31 24 32 25 33 26 34 27 35 31 36 28 37 30 38
REMARK SMILES IDX 29 39
REMARK H PARENT 20 20 18 22 14 25 16 27 5 29
REMARK Flexibility Score: inf
ROOT
ATOM      1  C   UNL     1     103.200 117.770 122.004  1.00  0.00     0.060 C 
ATOM      2  C   UNL     1     104.100 118.838 122.630  1.00  0.00     0.142 C 
ATOM      3  C   UNL     1     103.740 119.066 124.144  1.00  0.00     0.083 C 
ATOM      4  C   UNL     1     104.419 120.374 124.698  1.00  0.00     0.123 C 
ATOM      5  C   UNL     1     104.651 121.402 123.544  1.00  0.00     0.045 C 
ATOM      6  C   UNL     1     103.415 121.342 122.642  1.00  0.00     0.049 C 
ATOM      7  C   UNL     1     104.138 120.235 121.863  1.00  0.00     0.131 C 
ATOM      8  C   UNL     1     105.487 120.785 122.375  1.00  0.00     0.140 C 
ATOM      9  C   UNL     1     106.271 119.539 122.636  1.00  0.00     0.319 C 
ATOM     10  O   UNL     1     107.510 119.491 122.848  1.00  0.00    -0.251 OA
ATOM     11  O   UNL     1     105.459 118.422 122.634  1.00  0.00    -0.456 OA
ENDROOT
BRANCH   7  12
ATOM     12  O   UNL     1     103.786 120.278 120.478  1.00  0.00    -0.338 OA
BRANCH  12  13
ATOM     13  C   UNL     1     102.578 120.955 120.164  1.00  0.00     0.282 C 
ATOM     14  C   UNL     1     102.890 122.392 119.658  1.00  0.00     0.202 C 
ATOM     15  O   UNL     1     101.834 120.189 119.221  1.00  0.00    -0.341 OA
ATOM     16  C   UNL     1     103.581 122.423 118.267  1.00  0.00     0.179 C 
ATOM     17  C   UNL     1     102.162 120.380 117.843  1.00  0.00     0.178 C 
ATOM     18  C   UNL     1     103.526 121.059 117.560  1.00  0.00     0.177 C 
BRANCH  14  19
ATOM     19  O   UNL     1     101.719 123.176 119.650  1.00  0.00    -0.385 OA
ATOM     20  H   UNL     1     101.211 122.960 118.826  1.00  0.00     0.211 HD
ENDBRANCH  14  19
BRANCH  16  21
ATOM     21  O   UNL     1     104.919 122.841 118.383  1.00  0.00    -0.387 OA
ATOM     22  H   UNL     1     104.941 123.808 118.152  1.00  0.00     0.211 HD
ENDBRANCH  16  21
BRANCH  17  23
ATOM     23  C   UNL     1     102.020 119.042 117.099  1.00  0.00     0.191 C 
BRANCH  23  24
ATOM     24  O   UNL     1     102.838 119.022 115.963  1.00  0.00    -0.394 OA
ATOM     25  H   UNL     1     103.736 119.332 116.259  1.00  0.00     0.210 HD
ENDBRANCH  23  24
ENDBRANCH  17  23
BRANCH  18  26
ATOM     26  O   UNL     1     104.598 120.247 117.982  1.00  0.00    -0.387 OA
ATOM     27  H   UNL     1     104.393 119.315 117.706  1.00  0.00     0.211 HD
ENDBRANCH  18  26
ENDBRANCH  12  13
ENDBRANCH   7  12
BRANCH   4  28
ATOM     28  O   UNL     1     103.606 120.957 125.680  1.00  0.00    -0.393 OA
ATOM     29  H   UNL     1     102.773 120.418 125.715  1.00  0.00     0.210 HD
ENDBRANCH   4  28
BRANCH   8  30
ATOM     30  C   UNL     1     106.237 121.842 121.546  1.00  0.00     0.255 C 
BRANCH  30  31
ATOM     31  O   UNL     1     106.648 121.261 120.312  1.00  0.00    -0.461 OA
BRANCH  31  32
ATOM     32  C   UNL     1     107.822 121.634 119.647  1.00  0.00     0.338 C 
ATOM     33  O   UNL     1     107.783 122.517 118.744  1.00  0.00    -0.246 OA
BRANCH  32  34
ATOM     34  C   UNL     1     109.103 120.987 120.002  1.00  0.00     0.060 A 
ATOM     35  C   UNL     1     109.890 121.475 121.062  1.00  0.00     0.015 A 
ATOM     36  C   UNL     1     109.559 119.872 119.273  1.00  0.00     0.015 A 
ATOM     37  C   UNL     1     111.105 120.859 121.382  1.00  0.00     0.001 A 
ATOM     38  C   UNL     1     110.772 119.259 119.600  1.00  0.00     0.001 A 
ATOM     39  C   UNL     1     111.545 119.753 120.653  1.00  0.00     0.000 A 
ENDBRANCH  32  34
ENDBRANCH  31  32
ENDBRANCH  30  31
ENDBRANCH   8  30
TORSDOF 12
ENDMDL
MODEL 2
REMARK VINA RESULT:    -6.162      1.638      5.202
REMARK INTER + INTRA:         -10.662
REMARK INTER:                  -9.623
REMARK INTRA:                  -1.039
REMARK UNBOUND:                -1.078
REMARK SMILES C[C@]12C[C@H](O)[C@@H]3C[C@@]1(O[C@@H]1O[C@H](CO)[C@H](O)[C@H](O)[C@H]1O)[C@]3(COC(=O)c1ccccc1)C(=O)O2
REMARK SMILES IDX 1 1 2 2 3 3 4 4 6 5 7 6 8 7 21 8 32 9 33 10 34 11 9 12 10 13
REMARK SMILES IDX 19 14 11 15 17 16 12 17 15 18 20 19 18 21 13 23 14 24 16 26
REMARK SMILES IDX 5 28 22 30 23 31 24 32 25 33 26 34 27 35 31 36 28 37 30 38
REMARK SMILES IDX 29 39
REMARK H PARENT 20 20 18 22 14 25 16 27 5 29
REMARK Flexibility Score: inf
ROOT
ATOM      1  C   UNL     1     102.596 123.572 121.246  1.00  0.00     0.060 C 
ATOM      2  C   UNL     1     103.328 123.238 119.944  1.00  0.00     0.142 C 
ATOM      3  C   UNL     1     102.385 123.430 118.699  1.00  0.00     0.083 C 
ATOM      4  C   UNL     1     103.010 122.780 117.409  1.00  0.00     0.123 C 
ATOM      5  C   UNL     1     103.954 121.595 117.794  1.00  0.00     0.045 C 
ATOM      6  C   UNL     1     103.275 120.843 118.943  1.00  0.00     0.049 C 
ATOM      7  C   UNL     1     104.009 121.798 119.894  1.00  0.00     0.131 C 
ATOM      8  C   UNL     1     105.068 122.041 118.797  1.00  0.00     0.140 C 
ATOM      9  C   UNL     1     105.358 123.501 118.939  1.00  0.00     0.319 C 
ATOM     10  O   UNL     1     106.327 124.104 118.409  1.00  0.00    -0.251 OA
ATOM     11  O   UNL     1     104.413 124.129 119.725  1.00  0.00    -0.456 OA
ENDROOT
BRANCH   7  12
ATOM     12  O   UNL     1     104.336 121.139 121.120  1.00  0.00    -0.338 OA
BRANCH  12  13
ATOM     13  C   UNL     1     103.536 120.015 121.454  1.00  0.00     0.282 C 
ATOM     14  C   UNL     1     104.444 118.818 121.855  1.00  0.00     0.202 C 
ATOM     15  O   UNL     1     102.614 120.372 122.478  1.00  0.00    -0.341 OA
ATOM     16  C   UNL     1     105.185 119.026 123.204  1.00  0.00     0.179 C 
ATOM     17  C   UNL     1     103.089 120.287 123.823  1.00  0.00     0.178 C 
ATOM     18  C   UNL     1     104.628 120.221 123.994  1.00  0.00     0.177 C 
BRANCH  14  19
ATOM     19  O   UNL     1     103.701 117.621 121.875  1.00  0.00    -0.385 OA
ATOM     20  H   UNL     1     103.063 117.669 122.633  1.00  0.00     0.211 HD
ENDBRANCH  14  19
BRANCH  16  21
ATOM     21  O   UNL     1     106.565 119.201 122.994  1.00  0.00    -0.387 OA
ATOM     22  H   UNL     1     106.962 118.294 122.904  1.00  0.00     0.211 HD
ENDBRANCH  16  21
BRANCH  17  23
ATOM     23  C   UNL     1     102.465 121.420 124.654  1.00  0.00     0.191 C 
BRANCH  23  24
ATOM     24  O   UNL     1     103.272 121.721 125.759  1.00  0.00    -0.394 OA
ATOM     25  H   UNL     1     102.726 122.302 126.354  1.00  0.00     0.210 HD
ENDBRANCH  23  24
ENDBRANCH  17  23
BRANCH  18  26
ATOM     26  O   UNL     1     105.240 121.416 123.569  1.00  0.00    -0.387 OA
ATOM     27  H   UNL     1     105.105 121.488 122.587  1.00  0.00     0.211 HD
ENDBRANCH  18  26
ENDBRANCH  12  13
ENDBRANCH   7  12
BRANCH   4  28
ATOM     28  O   UNL     1     101.992 122.306 116.570  1.00  0.00    -0.393 OA
ATOM     29  H   UNL     1     101.157 122.763 116.852  1.00  0.00     0.210 HD
ENDBRANCH   4  28
BRANCH   8  30
ATOM     30  C   UNL     1     106.321 121.149 118.743  1.00  0.00     0.255 C 
BRANCH  30  31
ATOM     31  O   UNL     1     107.403 121.827 119.375  1.00  0.00    -0.461 OA
BRANCH  31  32
ATOM     32  C   UNL     1     107.990 121.381 120.565  1.00  0.00     0.338 C 
ATOM     33  O   UNL     1     107.368 121.494 121.658  1.00  0.00    -0.246 OA
BRANCH  32  34
ATOM     34  C   UNL     1     109.342 120.783 120.535  1.00  0.00     0.060 A 
ATOM     35  C   UNL     1     109.688 119.824 119.564  1.00  0.00     0.015 A 
ATOM     36  C   UNL     1     110.304 121.161 121.491  1.00  0.00     0.015 A 
ATOM     37  C   UNL     1     110.968 119.260 119.552  1.00  0.00     0.001 A 
ATOM     38  C   UNL     1     111.583 120.596 121.472  1.00  0.00     0.001 A 
ATOM     39  C   UNL     1     111.914 119.645 120.504  1.00  0.00     0.000 A 
ENDBRANCH  32  34
ENDBRANCH  31  32
ENDBRANCH  30  31
ENDBRANCH   8  30
TORSDOF 12
ENDMDL
MODEL 3
REMARK VINA RESULT:    -6.086      1.871      4.555
REMARK INTER + INTRA:         -10.543
REMARK INTER:                  -9.846
REMARK INTRA:                  -0.698
REMARK UNBOUND:                -1.078
REMARK SMILES C[C@]12C[C@H](O)[C@@H]3C[C@@]1(O[C@@H]1O[C@H](CO)[C@H](O)[C@H](O)[C@H]1O)[C@]3(COC(=O)c1ccccc1)C(=O)O2
REMARK SMILES IDX 1 1 2 2 3 3 4 4 6 5 7 6 8 7 21 8 32 9 33 10 34 11 9 12 10 13
REMARK SMILES IDX 19 14 11 15 17 16 12 17 15 18 20 19 18 21 13 23 14 24 16 26
REMARK SMILES IDX 5 28 22 30 23 31 24 32 25 33 26 34 27 35 31 36 28 37 30 38
REMARK SMILES IDX 29 39
REMARK H PARENT 20 20 18 22 14 25 16 27 5 29
REMARK Flexibility Score: inf
ROOT
ATOM      1  C   UNL     1     101.941 122.865 118.241  1.00  0.00     0.060 C 
ATOM      2  C   UNL     1     103.285 123.153 118.913  1.00  0.00     0.142 C 
ATOM      3  C   UNL     1     104.118 124.203 118.088  1.00  0.00     0.083 C 
ATOM      4  C   UNL     1     105.612 124.254 118.579  1.00  0.00     0.123 C 
ATOM      5  C   UNL     1     106.035 122.880 119.193  1.00  0.00     0.045 C 
ATOM      6  C   UNL     1     105.413 121.792 118.314  1.00  0.00     0.049 C 
ATOM      7  C   UNL     1     104.181 121.872 119.226  1.00  0.00     0.131 C 
ATOM      8  C   UNL     1     105.077 122.440 120.348  1.00  0.00     0.140 C 
ATOM      9  C   UNL     1     104.197 123.471 120.980  1.00  0.00     0.319 C 
ATOM     10  O   UNL     1     104.416 124.035 122.083  1.00  0.00    -0.251 OA
ATOM     11  O   UNL     1     103.101 123.752 120.190  1.00  0.00    -0.456 OA
ENDROOT
BRANCH   7  12
ATOM     12  O   UNL     1     103.552 120.594 119.341  1.00  0.00    -0.338 OA
BRANCH  12  13
ATOM     13  C   UNL     1     102.366 120.554 120.120  1.00  0.00     0.282 C 
ATOM     14  C   UNL     1     101.338 119.582 119.473  1.00  0.00     0.202 C 
ATOM     15  O   UNL     1     102.688 120.199 121.461  1.00  0.00    -0.341 OA
ATOM     16  C   UNL     1     101.761 118.089 119.554  1.00  0.00     0.179 C 
ATOM     17  C   UNL     1     102.785 118.803 121.747  1.00  0.00     0.178 C 
ATOM     18  C   UNL     1     102.937 117.869 120.519  1.00  0.00     0.177 C 
BRANCH  14  19
ATOM     19  O   UNL     1     100.061 119.769 120.037  1.00  0.00    -0.385 OA
ATOM     20  H   UNL     1      99.751 118.896 120.392  1.00  0.00     0.211 HD
ENDBRANCH  14  19
BRANCH  16  21
ATOM     21  O   UNL     1     102.096 117.595 118.280  1.00  0.00    -0.387 OA
ATOM     22  H   UNL     1     103.070 117.397 118.293  1.00  0.00     0.211 HD
ENDBRANCH  16  21
BRANCH  17  23
ATOM     23  C   UNL     1     103.895 118.574 122.785  1.00  0.00     0.191 C 
BRANCH  23  24
ATOM     24  O   UNL     1     104.377 117.261 122.709  1.00  0.00    -0.394 OA
ATOM     25  H   UNL     1     103.680 116.734 122.233  1.00  0.00     0.210 HD
ENDBRANCH  23  24
ENDBRANCH  17  23
BRANCH  18  26
ATOM     26  O   UNL     1     104.160 118.093 119.856  1.00  0.00    -0.387 OA
ATOM     27  H   UNL     1     104.523 117.207 119.592  1.00  0.00     0.211 HD
ENDBRANCH  18  26
ENDBRANCH  12  13
ENDBRANCH   7  12
BRANCH   4  28
ATOM     28  O   UNL     1     106.460 124.561 117.505  1.00  0.00    -0.393 OA
ATOM     29  H   UNL     1     107.352 124.757 117.896  1.00  0.00     0.210 HD
ENDBRANCH   4  28
BRANCH   8  30
ATOM     30  C   UNL     1     105.740 121.476 121.348  1.00  0.00     0.255 C 
BRANCH  30  31
ATOM     31  O   UNL     1     107.138 121.744 121.397  1.00  0.00    -0.461 OA
BRANCH  31  32
ATOM     32  C   UNL     1     108.083 120.793 121.798  1.00  0.00     0.338 C 
ATOM     33  O   UNL     1     108.162 120.453 123.011  1.00  0.00    -0.246 OA
BRANCH  32  34
ATOM     34  C   UNL     1     108.990 120.194 120.795  1.00  0.00     0.060 A 
ATOM     35  C   UNL     1     110.378 120.126 121.024  1.00  0.00     0.015 A 
ATOM     36  C   UNL     1     108.474 119.687 119.587  1.00  0.00     0.015 A 
ATOM     37  C   UNL     1     111.226 119.565 120.064  1.00  0.00     0.001 A 
ATOM     38  C   UNL     1     109.327 119.125 118.633  1.00  0.00     0.001 A 
ATOM     39  C   UNL     1     110.702 119.065 118.870  1.00  0.00     0.000 A 
ENDBRANCH  32  34
ENDBRANCH  31  32
ENDBRANCH  30  31
ENDBRANCH   8  30
TORSDOF 12
ENDMDL
MODEL 4
REMARK VINA RESULT:    -6.008      2.258      5.521
REMARK INTER + INTRA:         -10.423
REMARK INTER:                 -10.067
REMARK INTRA:                  -0.355
REMARK UNBOUND:                -1.078
REMARK SMILES C[C@]12C[C@H](O)[C@@H]3C[C@@]1(O[C@@H]1O[C@H](CO)[C@H](O)[C@H](O)[C@H]1O)[C@]3(COC(=O)c1ccccc1)C(=O)O2
REMARK SMILES IDX 1 1 2 2 3 3 4 4 6 5 7 6 8 7 21 8 32 9 33 10 34 11 9 12 10 13
REMARK SMILES IDX 19 14 11 15 17 16 12 17 15 18 20 19 18 21 13 23 14 24 16 26
REMARK SMILES IDX 5 28 22 30 23 31 24 32 25 33 26 34 27 35 31 36 28 37 30 38
REMARK SMILES IDX 29 39
REMARK H PARENT 20 20 18 22 14 25 16 27 5 29
REMARK Flexibility Score: inf
ROOT
ATOM      1  C   UNL     1     101.462 120.387 122.113  1.00  0.00     0.060 C 
ATOM      2  C   UNL     1     102.933 120.179 121.745  1.00  0.00     0.142 C 
ATOM      3  C   UNL     1     103.095 119.016 120.697  1.00  0.00     0.083 C 
ATOM      4  C   UNL     1     104.601 118.576 120.567  1.00  0.00     0.123 C 
ATOM      5  C   UNL     1     105.372 118.858 121.897  1.00  0.00     0.045 C 
ATOM      6  C   UNL     1     104.423 118.496 123.044  1.00  0.00     0.049 C 
ATOM      7  C   UNL     1     103.919 119.943 122.976  1.00  0.00     0.131 C 
ATOM      8  C   UNL     1     105.258 120.357 122.328  1.00  0.00     0.140 C 
ATOM      9  C   UNL     1     104.832 121.364 121.308  1.00  0.00     0.319 C 
ATOM     10  O   UNL     1     105.603 122.145 120.692  1.00  0.00    -0.251 OA
ATOM     11  O   UNL     1     103.468 121.329 121.103  1.00  0.00    -0.456 OA
ENDROOT
BRANCH   7  12
ATOM     12  O   UNL     1     103.536 120.408 124.272  1.00  0.00    -0.338 OA
BRANCH  12  13
ATOM     13  C   UNL     1     103.129 119.409 125.195  1.00  0.00     0.282 C 
ATOM     14  C   UNL     1     103.886 119.591 126.542  1.00  0.00     0.202 C 
ATOM     15  O   UNL     1     101.714 119.450 125.350  1.00  0.00    -0.341 OA
ATOM     16  C   UNL     1     103.462 120.864 127.324  1.00  0.00     0.179 C 
ATOM     17  C   UNL     1     101.203 120.379 126.309  1.00  0.00     0.178 C 
ATOM     18  C   UNL     1     102.181 121.496 126.756  1.00  0.00     0.177 C 
BRANCH  14  19
ATOM     19  O   UNL     1     103.744 118.443 127.345  1.00  0.00    -0.385 OA
ATOM     20  H   UNL     1     103.885 118.710 128.290  1.00  0.00     0.211 HD
ENDBRANCH  14  19
BRANCH  16  21
ATOM     21  O   UNL     1     104.497 121.817 127.327  1.00  0.00    -0.387 OA
ATOM     22  H   UNL     1     104.549 122.191 126.408  1.00  0.00     0.211 HD
ENDBRANCH  16  21
BRANCH  17  23
ATOM     23  C   UNL     1      99.870 120.950 125.800  1.00  0.00     0.191 C 
BRANCH  23  24
ATOM     24  O   UNL     1      99.491 122.065 126.559  1.00  0.00    -0.394 OA
ATOM     25  H   UNL     1      99.697 121.842 127.506  1.00  0.00     0.210 HD
ENDBRANCH  23  24
ENDBRANCH  17  23
BRANCH  18  26
ATOM     26  O   UNL     1     102.494 122.358 125.687  1.00  0.00    -0.387 OA
ATOM     27  H   UNL     1     103.412 122.133 125.381  1.00  0.00     0.211 HD
ENDBRANCH  18  26
ENDBRANCH  12  13
ENDBRANCH   7  12
BRANCH   4  28
ATOM     28  O   UNL     1     104.677 117.208 120.270  1.00  0.00    -0.393 OA
ATOM     29  H   UNL     1     103.773 116.934 119.963  1.00  0.00     0.210 HD
ENDBRANCH   4  28
BRANCH   8  30
ATOM     30  C   UNL     1     106.422 120.817 123.224  1.00  0.00     0.255 C 
BRANCH  30  31
ATOM     31  O   UNL     1     107.615 120.155 122.815  1.00  0.00    -0.461 OA
BRANCH  31  32
ATOM     32  C   UNL     1     108.689 120.822 122.216  1.00  0.00     0.338 C 
ATOM     33  O   UNL     1     109.067 121.941 122.662  1.00  0.00    -0.246 OA
BRANCH  32  34
ATOM     34  C   UNL     1     109.375 120.211 121.056  1.00  0.00     0.060 A 
ATOM     35  C   UNL     1     110.772 120.040 121.050  1.00  0.00     0.015 A 
ATOM     36  C   UNL     1     108.633 119.799 119.932  1.00  0.00     0.015 A 
ATOM     37  C   UNL     1     111.409 119.469 119.942  1.00  0.00     0.001 A 
ATOM     38  C   UNL     1     109.275 119.227 118.830  1.00  0.00     0.001 A 
ATOM     39  C   UNL     1     110.662 119.063 118.835  1.00  0.00     0.000 A 
ENDBRANCH  32  34
ENDBRANCH  31  32
ENDBRANCH  30  31
ENDBRANCH   8  30
TORSDOF 12
ENDMDL
MODEL 5
REMARK VINA RESULT:    -6.001      2.333      5.454
REMARK INTER + INTRA:         -10.411
REMARK INTER:                 -10.037
REMARK INTRA:                  -0.374
REMARK UNBOUND:                -1.078
REMARK SMILES C[C@]12C[C@H](O)[C@@H]3C[C@@]1(O[C@@H]1O[C@H](CO)[C@H](O)[C@H](O)[C@H]1O)[C@]3(COC(=O)c1ccccc1)C(=O)O2
REMARK SMILES IDX 1 1 2 2 3 3 4 4 6 5 7 6 8 7 21 8 32 9 33 10 34 11 9 12 10 13
REMARK SMILES IDX 19 14 11 15 17 16 12 17 15 18 20 19 18 21 13 23 14 24 16 26
REMARK SMILES IDX 5 28 22 30 23 31 24 32 25 33 26 34 27 35 31 36 28 37 30 38
REMARK SMILES IDX 29 39
REMARK H PARENT 20 20 18 22 14 25 16 27 5 29
REMARK Flexibility Score: inf
ROOT
ATOM      1  C   UNL     1     101.155 119.535 121.972  1.00  0.00     0.060 C 
ATOM      2  C   UNL     1     102.656 119.384 121.712  1.00  0.00     0.142 C 
ATOM      3  C   UNL     1     102.936 118.265 120.642  1.00  0.00     0.083 C 
ATOM      4  C   UNL     1     104.460 117.876 120.614  1.00  0.00     0.123 C 
ATOM      5  C   UNL     1     105.118 118.133 122.008  1.00  0.00     0.045 C 
ATOM      6  C   UNL     1     104.097 117.702 123.066  1.00  0.00     0.049 C 
ATOM      7  C   UNL     1     103.552 119.135 123.007  1.00  0.00     0.131 C 
ATOM      8  C   UNL     1     104.923 119.612 122.479  1.00  0.00     0.140 C 
ATOM      9  C   UNL     1     104.543 120.641 121.463  1.00  0.00     0.319 C 
ATOM     10  O   UNL     1     105.333 121.466 120.935  1.00  0.00    -0.251 OA
ATOM     11  O   UNL     1     103.200 120.572 121.153  1.00  0.00    -0.456 OA
ENDROOT
BRANCH   7  12
ATOM     12  O   UNL     1     103.056 119.541 124.284  1.00  0.00    -0.338 OA
BRANCH  12  13
ATOM     13  C   UNL     1     103.211 120.916 124.603  1.00  0.00     0.282 C 
ATOM     14  C   UNL     1     101.837 121.639 124.518  1.00  0.00     0.202 C 
ATOM     15  O   UNL     1     103.821 121.043 125.884  1.00  0.00    -0.341 OA
ATOM     16  C   UNL     1     100.845 121.217 125.636  1.00  0.00     0.179 C 
ATOM     17  C   UNL     1     102.947 121.000 127.014  1.00  0.00     0.178 C 
ATOM     18  C   UNL     1     101.533 120.419 126.754  1.00  0.00     0.177 C 
BRANCH  14  19
ATOM     19  O   UNL     1     102.015 123.036 124.511  1.00  0.00    -0.385 OA
ATOM     20  H   UNL     1     101.175 123.452 124.188  1.00  0.00     0.211 HD
ENDBRANCH  14  19
BRANCH  16  21
ATOM     21  O   UNL     1      99.782 120.464 125.103  1.00  0.00    -0.387 OA
ATOM     22  H   UNL     1      99.064 120.450 125.790  1.00  0.00     0.211 HD
ENDBRANCH  16  21
BRANCH  17  23
ATOM     23  C   UNL     1     103.657 120.288 128.176  1.00  0.00     0.191 C 
BRANCH  23  24
ATOM     24  O   UNL     1     104.423 119.216 127.702  1.00  0.00    -0.394 OA
ATOM     25  H   UNL     1     103.825 118.421 127.703  1.00  0.00     0.210 HD
ENDBRANCH  23  24
ENDBRANCH  17  23
BRANCH  18  26
ATOM     26  O   UNL     1     101.597 119.054 126.412  1.00  0.00    -0.387 OA
ATOM     27  H   UNL     1     102.318 118.643 126.958  1.00  0.00     0.211 HD
ENDBRANCH  18  26
ENDBRANCH  12  13
ENDBRANCH   7  12
BRANCH   4  28
ATOM     28  O   UNL     1     104.603 116.522 120.278  1.00  0.00    -0.393 OA
ATOM     29  H   UNL     1     105.534 116.407 119.953  1.00  0.00     0.210 HD
ENDBRANCH   4  28
BRANCH   8  30
ATOM     30  C   UNL     1     105.999 120.074 123.477  1.00  0.00     0.255 C 
BRANCH  30  31
ATOM     31  O   UNL     1     107.282 119.704 122.983  1.00  0.00    -0.461 OA
BRANCH  31  32
ATOM     32  C   UNL     1     108.215 120.635 122.511  1.00  0.00     0.338 C 
ATOM     33  O   UNL     1     108.206 121.818 122.952  1.00  0.00    -0.246 OA
BRANCH  32  34
ATOM     34  C   UNL     1     109.206 120.228 121.491  1.00  0.00     0.060 A 
ATOM     35  C   UNL     1     110.582 120.208 121.787  1.00  0.00     0.015 A 
ATOM     36  C   UNL     1     108.782 119.860 120.200  1.00  0.00     0.015 A 
ATOM     37  C   UNL     1     111.509 119.828 120.811  1.00  0.00     0.001 A 
ATOM     38  C   UNL     1     109.713 119.480 119.230  1.00  0.00     0.001 A 
ATOM     39  C   UNL     1     111.076 119.465 119.534  1.00  0.00     0.000 A 
ENDBRANCH  32  34
ENDBRANCH  31  32
ENDBRANCH  30  31
ENDBRANCH   8  30
TORSDOF 12
ENDMDL
MODEL 6
REMARK VINA RESULT:    -5.992      1.305      2.576
REMARK INTER + INTRA:         -10.398
REMARK INTER:                  -9.812
REMARK INTRA:                  -0.585
REMARK UNBOUND:                -1.078
REMARK SMILES C[C@]12C[C@H](O)[C@@H]3C[C@@]1(O[C@@H]1O[C@H](CO)[C@H](O)[C@H](O)[C@H]1O)[C@]3(COC(=O)c1ccccc1)C(=O)O2
REMARK SMILES IDX 1 1 2 2 3 3 4 4 6 5 7 6 8 7 21 8 32 9 33 10 34 11 9 12 10 13
REMARK SMILES IDX 19 14 11 15 17 16 12 17 15 18 20 19 18 21 13 23 14 24 16 26
REMARK SMILES IDX 5 28 22 30 23 31 24 32 25 33 26 34 27 35 31 36 28 37 30 38
REMARK SMILES IDX 29 39
REMARK H PARENT 20 20 18 22 14 25 16 27 5 29
REMARK Flexibility Score: inf
ROOT
ATOM      1  C   UNL     1     102.337 118.457 121.721  1.00  0.00     0.060 C 
ATOM      2  C   UNL     1     103.342 119.042 122.716  1.00  0.00     0.142 C 
ATOM      3  C   UNL     1     102.851 118.847 124.198  1.00  0.00     0.083 C 
ATOM      4  C   UNL     1     103.695 119.724 125.196  1.00  0.00     0.123 C 
ATOM      5  C   UNL     1     104.257 120.990 124.472  1.00  0.00     0.045 C 
ATOM      6  C   UNL     1     103.151 121.496 123.541  1.00  0.00     0.049 C 
ATOM      7  C   UNL     1     103.738 120.567 122.471  1.00  0.00     0.131 C 
ATOM      8  C   UNL     1     105.095 120.612 123.206  1.00  0.00     0.140 C 
ATOM      9  C   UNL     1     105.589 119.208 123.069  1.00  0.00     0.319 C 
ATOM     10  O   UNL     1     106.762 118.824 123.315  1.00  0.00    -0.251 OA
ATOM     11  O   UNL     1     104.586 118.358 122.648  1.00  0.00    -0.456 OA
ENDROOT
BRANCH   7  12
ATOM     12  O   UNL     1     103.571 121.127 121.167  1.00  0.00    -0.338 OA
BRANCH  12  13
ATOM     13  C   UNL     1     103.932 120.290 120.079  1.00  0.00     0.282 C 
ATOM     14  C   UNL     1     102.831 120.338 118.982  1.00  0.00     0.202 C 
ATOM     15  O   UNL     1     105.214 120.672 119.588  1.00  0.00    -0.341 OA
ATOM     16  C   UNL     1     102.747 121.705 118.248  1.00  0.00     0.179 C 
ATOM     17  C   UNL     1     105.241 121.731 118.630  1.00  0.00     0.178 C 
ATOM     18  C   UNL     1     103.960 122.600 118.545  1.00  0.00     0.177 C 
BRANCH  14  19
ATOM     19  O   UNL     1     103.008 119.288 118.060  1.00  0.00    -0.385 OA
ATOM     20  H   UNL     1     102.843 119.648 117.150  1.00  0.00     0.211 HD
ENDBRANCH  14  19
BRANCH  16  21
ATOM     21  O   UNL     1     101.563 122.384 118.591  1.00  0.00    -0.387 OA
ATOM     22  H   UNL     1     101.829 123.291 118.900  1.00  0.00     0.211 HD
ENDBRANCH  16  21
BRANCH  17  23
ATOM     23  C   UNL     1     106.501 122.583 118.851  1.00  0.00     0.191 C 
BRANCH  23  24
ATOM     24  O   UNL     1     106.313 123.878 118.353  1.00  0.00    -0.394 OA
ATOM     25  H   UNL     1     105.909 123.775 117.450  1.00  0.00     0.210 HD
ENDBRANCH  23  24
ENDBRANCH  17  23
BRANCH  18  26
ATOM     26  O   UNL     1     103.754 123.322 119.738  1.00  0.00    -0.387 OA
ATOM     27  H   UNL     1     104.433 124.046 119.769  1.00  0.00     0.211 HD
ENDBRANCH  18  26
ENDBRANCH  12  13
ENDBRANCH   7  12
BRANCH   4  28
ATOM     28  O   UNL     1     102.896 120.126 126.276  1.00  0.00    -0.393 OA
ATOM     29  H   UNL     1     102.644 119.299 126.764  1.00  0.00     0.210 HD
ENDBRANCH   4  28
BRANCH   8  30
ATOM     30  C   UNL     1     106.128 121.687 122.823  1.00  0.00     0.255 C 
BRANCH  30  31
ATOM     31  O   UNL     1     107.079 121.120 121.926  1.00  0.00    -0.461 OA
BRANCH  31  32
ATOM     32  C   UNL     1     108.460 121.291 122.072  1.00  0.00     0.338 C 
ATOM     33  O   UNL     1     108.911 122.060 122.966  1.00  0.00    -0.246 OA
BRANCH  32  34
ATOM     34  C   UNL     1     109.387 120.572 121.171  1.00  0.00     0.060 A 
ATOM     35  C   UNL     1     108.919 119.960 119.993  1.00  0.00     0.015 A 
ATOM     36  C   UNL     1     110.755 120.484 121.487  1.00  0.00     0.015 A 
ATOM     37  C   UNL     1     109.804 119.275 119.153  1.00  0.00     0.001 A 
ATOM     38  C   UNL     1     111.635 119.801 120.642  1.00  0.00     0.001 A 
ATOM     39  C   UNL     1     111.160 119.196 119.477  1.00  0.00     0.000 A 
ENDBRANCH  32  34
ENDBRANCH  31  32
ENDBRANCH  30  31
ENDBRANCH   8  30
TORSDOF 12
ENDMDL
MODEL 7
REMARK VINA RESULT:    -5.828      2.004      2.653
REMARK INTER + INTRA:         -10.143
REMARK INTER:                  -9.353
REMARK INTRA:                  -0.790
REMARK UNBOUND:                -1.078
REMARK SMILES C[C@]12C[C@H](O)[C@@H]3C[C@@]1(O[C@@H]1O[C@H](CO)[C@H](O)[C@H](O)[C@H]1O)[C@]3(COC(=O)c1ccccc1)C(=O)O2
REMARK SMILES IDX 1 1 2 2 3 3 4 4 6 5 7 6 8 7 21 8 32 9 33 10 34 11 9 12 10 13
REMARK SMILES IDX 19 14 11 15 17 16 12 17 15 18 20 19 18 21 13 23 14 24 16 26
REMARK SMILES IDX 5 28 22 30 23 31 24 32 25 33 26 34 27 35 31 36 28 37 30 38
REMARK SMILES IDX 29 39
REMARK H PARENT 20 20 18 22 14 25 16 27 5 29
REMARK Flexibility Score: inf
ROOT
ATOM      1  C   UNL     1     101.153 119.441 120.774  1.00  0.00     0.060 C 
ATOM      2  C   UNL     1     102.409 118.839 121.408  1.00  0.00     0.142 C 
ATOM      3  C   UNL     1     102.052 118.016 122.701  1.00  0.00     0.083 C 
ATOM      4  C   UNL     1     103.344 117.680 123.534  1.00  0.00     0.123 C 
ATOM      5  C   UNL     1     104.450 118.756 123.290  1.00  0.00     0.045 C 
ATOM      6  C   UNL     1     103.742 120.114 123.234  1.00  0.00     0.049 C 
ATOM      7  C   UNL     1     103.577 119.875 121.728  1.00  0.00     0.131 C 
ATOM      8  C   UNL     1     104.784 118.913 121.770  1.00  0.00     0.140 C 
ATOM      9  C   UNL     1     104.369 117.825 120.831  1.00  0.00     0.319 C 
ATOM     10  O   UNL     1     105.129 116.935 120.369  1.00  0.00    -0.251 OA
ATOM     11  O   UNL     1     103.023 117.901 120.534  1.00  0.00    -0.456 OA
ENDROOT
BRANCH   7  12
ATOM     12  O   UNL     1     103.626 121.111 121.011  1.00  0.00    -0.338 OA
BRANCH  12  13
ATOM     13  C   UNL     1     103.236 122.267 121.737  1.00  0.00     0.282 C 
ATOM     14  C   UNL     1     104.255 123.416 121.495  1.00  0.00     0.202 C 
ATOM     15  O   UNL     1     101.905 122.628 121.379  1.00  0.00    -0.341 OA
ATOM     16  C   UNL     1     104.217 123.984 120.050  1.00  0.00     0.179 C 
ATOM     17  C   UNL     1     101.757 123.449 120.219  1.00  0.00     0.178 C 
ATOM     18  C   UNL     1     102.981 123.507 119.270  1.00  0.00     0.177 C 
BRANCH  14  19
ATOM     19  O   UNL     1     104.071 124.445 122.439  1.00  0.00    -0.385 OA
ATOM     20  H   UNL     1     104.804 125.102 122.324  1.00  0.00     0.211 HD
ENDBRANCH  14  19
BRANCH  16  21
ATOM     21  O   UNL     1     105.383 123.636 119.344  1.00  0.00    -0.387 OA
ATOM     22  H   UNL     1     105.465 122.647 119.389  1.00  0.00     0.211 HD
ENDBRANCH  16  21
BRANCH  17  23
ATOM     23  C   UNL     1     100.472 123.049 119.476  1.00  0.00     0.191 C 
BRANCH  23  24
ATOM     24  O   UNL     1     100.420 123.661 118.218  1.00  0.00    -0.394 OA
ATOM     25  H   UNL     1     100.345 124.639 118.385  1.00  0.00     0.210 HD
ENDBRANCH  23  24
ENDBRANCH  17  23
BRANCH  18  26
ATOM     26  O   UNL     1     103.230 122.252 118.681  1.00  0.00    -0.387 OA
ATOM     27  H   UNL     1     104.054 121.885 119.096  1.00  0.00     0.211 HD
ENDBRANCH  18  26
ENDBRANCH  12  13
ENDBRANCH   7  12
BRANCH   4  28
ATOM     28  O   UNL     1     103.036 117.635 124.901  1.00  0.00    -0.393 OA
ATOM     29  H   UNL     1     103.517 116.852 125.275  1.00  0.00     0.210 HD
ENDBRANCH   4  28
BRANCH   8  30
ATOM     30  C   UNL     1     106.199 119.462 121.516  1.00  0.00     0.255 C 
BRANCH  30  31
ATOM     31  O   UNL     1     106.367 119.688 120.119  1.00  0.00    -0.461 OA
BRANCH  31  32
ATOM     32  C   UNL     1     107.308 120.585 119.601  1.00  0.00     0.338 C 
ATOM     33  O   UNL     1     106.953 121.459 118.762  1.00  0.00    -0.246 OA
BRANCH  32  34
ATOM     34  C   UNL     1     108.720 120.499 120.035  1.00  0.00     0.060 A 
ATOM     35  C   UNL     1     109.224 121.359 121.028  1.00  0.00     0.015 A 
ATOM     36  C   UNL     1     109.584 119.554 119.450  1.00  0.00     0.015 A 
ATOM     37  C   UNL     1     110.563 121.273 121.424  1.00  0.00     0.001 A 
ATOM     38  C   UNL     1     110.920 119.471 119.852  1.00  0.00     0.001 A 
ATOM     39  C   UNL     1     111.410 120.331 120.837  1.00  0.00     0.000 A 
ENDBRANCH  32  34
ENDBRANCH  31  32
ENDBRANCH  30  31
ENDBRANCH   8  30
TORSDOF 12
ENDMDL
MODEL 8
REMARK VINA RESULT:    -5.805      1.506      5.029
REMARK INTER + INTRA:         -10.107
REMARK INTER:                  -9.550
REMARK INTRA:                  -0.557
REMARK UNBOUND:                -1.078
REMARK SMILES C[C@]12C[C@H](O)[C@@H]3C[C@@]1(O[C@@H]1O[C@H](CO)[C@H](O)[C@H](O)[C@H]1O)[C@]3(COC(=O)c1ccccc1)C(=O)O2
REMARK SMILES IDX 1 1 2 2 3 3 4 4 6 5 7 6 8 7 21 8 32 9 33 10 34 11 9 12 10 13
REMARK SMILES IDX 19 14 11 15 17 16 12 17 15 18 20 19 18 21 13 23 14 24 16 26
REMARK SMILES IDX 5 28 22 30 23 31 24 32 25 33 26 34 27 35 31 36 28 37 30 38
REMARK SMILES IDX 29 39
REMARK H PARENT 20 20 18 22 14 25 16 27 5 29
REMARK Flexibility Score: inf
ROOT
ATOM      1  C   UNL     1     101.622 122.976 119.934  1.00  0.00     0.060 C 
ATOM      2  C   UNL     1     102.649 122.521 118.893  1.00  0.00     0.142 C 
ATOM      3  C   UNL     1     101.963 122.240 117.505  1.00  0.00     0.083 C 
ATOM      4  C   UNL     1     102.934 121.465 116.539  1.00  0.00     0.123 C 
ATOM      5  C   UNL     1     103.955 120.611 117.358  1.00  0.00     0.045 C 
ATOM      6  C   UNL     1     103.184 120.006 118.535  1.00  0.00     0.049 C 
ATOM      7  C   UNL     1     103.547 121.274 119.319  1.00  0.00     0.131 C 
ATOM      8  C   UNL     1     104.755 121.483 118.380  1.00  0.00     0.140 C 
ATOM      9  C   UNL     1     104.774 122.966 118.194  1.00  0.00     0.319 C 
ATOM     10  O   UNL     1     105.722 123.623 117.691  1.00  0.00    -0.251 OA
ATOM     11  O   UNL     1     103.600 123.545 118.633  1.00  0.00    -0.456 OA
ENDROOT
BRANCH   7  12
ATOM     12  O   UNL     1     103.716 120.981 120.707  1.00  0.00    -0.338 OA
BRANCH  12  13
ATOM     13  C   UNL     1     103.921 122.098 121.559  1.00  0.00     0.282 C 
ATOM     14  C   UNL     1     102.954 122.024 122.774  1.00  0.00     0.202 C 
ATOM     15  O   UNL     1     105.289 122.157 121.948  1.00  0.00    -0.341 OA
ATOM     16  C   UNL     1     103.287 120.873 123.762  1.00  0.00     0.179 C 
ATOM     17  C   UNL     1     105.665 121.372 123.082  1.00  0.00     0.178 C 
ATOM     18  C   UNL     1     104.670 120.257 123.493  1.00  0.00     0.177 C 
BRANCH  14  19
ATOM     19  O   UNL     1     102.913 123.261 123.447  1.00  0.00    -0.385 OA
ATOM     20  H   UNL     1     103.310 123.947 122.853  1.00  0.00     0.211 HD
ENDBRANCH  14  19
BRANCH  16  21
ATOM     21  O   UNL     1     102.304 119.867 123.709  1.00  0.00    -0.387 OA
ATOM     22  H   UNL     1     102.449 119.365 122.864  1.00  0.00     0.211 HD
ENDBRANCH  16  21
BRANCH  17  23
ATOM     23  C   UNL     1     107.086 120.826 122.871  1.00  0.00     0.191 C 
BRANCH  23  24
ATOM     24  O   UNL     1     107.108 119.903 121.818  1.00  0.00    -0.394 OA
ATOM     25  H   UNL     1     106.161 119.646 121.652  1.00  0.00     0.210 HD
ENDBRANCH  23  24
ENDBRANCH  17  23
BRANCH  18  26
ATOM     26  O   UNL     1     104.576 119.264 122.498  1.00  0.00    -0.387 OA
ATOM     27  H   UNL     1     104.766 119.698 121.624  1.00  0.00     0.211 HD
ENDBRANCH  18  26
ENDBRANCH  12  13
ENDBRANCH   7  12
BRANCH   4  28
ATOM     28  O   UNL     1     102.198 120.622 115.695  1.00  0.00    -0.393 OA
ATOM     29  H   UNL     1     102.700 120.570 114.840  1.00  0.00     0.210 HD
ENDBRANCH   4  28
BRANCH   8  30
ATOM     30  C   UNL     1     106.119 120.875 118.755  1.00  0.00     0.255 C 
BRANCH  30  31
ATOM     31  O   UNL     1     106.887 121.850 119.454  1.00  0.00    -0.461 OA
BRANCH  31  32
ATOM     32  C   UNL     1     108.222 122.134 119.145  1.00  0.00     0.338 C 
ATOM     33  O   UNL     1     108.502 123.090 118.369  1.00  0.00    -0.246 OA
BRANCH  32  34
ATOM     34  C   UNL     1     109.301 121.306 119.726  1.00  0.00     0.060 A 
ATOM     35  C   UNL     1     110.016 121.740 120.858  1.00  0.00     0.015 A 
ATOM     36  C   UNL     1     109.633 120.068 119.144  1.00  0.00     0.015 A 
ATOM     37  C   UNL     1     111.040 120.951 121.393  1.00  0.00     0.001 A 
ATOM     38  C   UNL     1     110.655 119.283 119.685  1.00  0.00     0.001 A 
ATOM     39  C   UNL     1     111.359 119.724 120.808  1.00  0.00     0.000 A 
ENDBRANCH  32  34
ENDBRANCH  31  32
ENDBRANCH  30  31
ENDBRANCH   8  30
TORSDOF 12
ENDMDL
MODEL 9
REMARK VINA RESULT:    -5.790      2.612      5.069
REMARK INTER + INTRA:         -10.083
REMARK INTER:                 -10.056
REMARK INTRA:                  -0.027
REMARK UNBOUND:                -1.078
REMARK SMILES C[C@]12C[C@H](O)[C@@H]3C[C@@]1(O[C@@H]1O[C@H](CO)[C@H](O)[C@H](O)[C@H]1O)[C@]3(COC(=O)c1ccccc1)C(=O)O2
REMARK SMILES IDX 1 1 2 2 3 3 4 4 6 5 7 6 8 7 21 8 32 9 33 10 34 11 9 12 10 13
REMARK SMILES IDX 19 14 11 15 17 16 12 17 15 18 20 19 18 21 13 23 14 24 16 26
REMARK SMILES IDX 5 28 22 30 23 31 24 32 25 33 26 34 27 35 31 36 28 37 30 38
REMARK SMILES IDX 29 39
REMARK H PARENT 20 20 18 22 14 25 16 27 5 29
REMARK Flexibility Score: inf
ROOT
ATOM      1  C   UNL     1     100.638 122.972 117.066  1.00  0.00     0.060 C 
ATOM      2  C   UNL     1     101.986 122.951 117.790  1.00  0.00     0.142 C 
ATOM      3  C   UNL     1     102.529 124.410 118.018  1.00  0.00     0.083 C 
ATOM      4  C   UNL     1     104.042 124.391 118.451  1.00  0.00     0.123 C 
ATOM      5  C   UNL     1     104.756 123.118 117.892  1.00  0.00     0.045 C 
ATOM      6  C   UNL     1     104.223 122.898 116.474  1.00  0.00     0.049 C 
ATOM      7  C   UNL     1     103.113 122.051 117.110  1.00  0.00     0.131 C 
ATOM      8  C   UNL     1     104.029 121.804 118.328  1.00  0.00     0.140 C 
ATOM      9  C   UNL     1     103.072 121.864 119.475  1.00  0.00     0.319 C 
ATOM     10  O   UNL     1     103.323 121.493 120.651  1.00  0.00    -0.251 OA
ATOM     11  O   UNL     1     101.858 122.399 119.093  1.00  0.00    -0.456 OA
ENDROOT
BRANCH   7  12
ATOM     12  O   UNL     1     102.722 120.990 116.236  1.00  0.00    -0.338 OA
BRANCH  12  13
ATOM     13  C   UNL     1     102.480 121.353 114.885  1.00  0.00     0.282 C 
ATOM     14  C   UNL     1     103.641 120.845 113.983  1.00  0.00     0.202 C 
ATOM     15  O   UNL     1     101.209 120.857 114.477  1.00  0.00    -0.341 OA
ATOM     16  C   UNL     1     103.682 119.299 113.839  1.00  0.00     0.179 C 
ATOM     17  C   UNL     1     101.173 119.510 113.999  1.00  0.00     0.178 C 
ATOM     18  C   UNL     1     102.399 118.632 114.358  1.00  0.00     0.177 C 
BRANCH  14  19
ATOM     19  O   UNL     1     103.587 121.462 112.718  1.00  0.00    -0.385 OA
ATOM     20  H   UNL     1     102.700 121.894 112.624  1.00  0.00     0.211 HD
ENDBRANCH  14  19
BRANCH  16  21
ATOM     21  O   UNL     1     104.798 118.765 114.510  1.00  0.00    -0.387 OA
ATOM     22  H   UNL     1     105.561 118.799 113.875  1.00  0.00     0.211 HD
ENDBRANCH  16  21
BRANCH  17  23
ATOM     23  C   UNL     1      99.851 118.855 114.429  1.00  0.00     0.191 C 
BRANCH  23  24
ATOM     24  O   UNL     1      99.974 117.461 114.443  1.00  0.00    -0.394 OA
ATOM     25  H   UNL     1     100.521 117.219 113.648  1.00  0.00     0.210 HD
ENDBRANCH  23  24
ENDBRANCH  17  23
BRANCH  18  26
ATOM     26  O   UNL     1     102.486 118.421 115.748  1.00  0.00    -0.387 OA
ATOM     27  H   UNL     1     102.870 119.244 116.151  1.00  0.00     0.211 HD
ENDBRANCH  18  26
ENDBRANCH  12  13
ENDBRANCH   7  12
BRANCH   4  28
ATOM     28  O   UNL     1     104.694 125.535 117.970  1.00  0.00    -0.393 OA
ATOM     29  H   UNL     1     105.012 125.317 117.056  1.00  0.00     0.210 HD
ENDBRANCH   4  28
BRANCH   8  30
ATOM     30  C   UNL     1     104.956 120.576 118.341  1.00  0.00     0.255 C 
BRANCH  30  31
ATOM     31  O   UNL     1     106.177 120.921 118.988  1.00  0.00    -0.461 OA
BRANCH  31  32
ATOM     32  C   UNL     1     106.652 120.257 120.124  1.00  0.00     0.338 C 
ATOM     33  O   UNL     1     105.926 119.406 120.710  1.00  0.00    -0.246 OA
BRANCH  32  34
ATOM     34  C   UNL     1     108.006 120.560 120.638  1.00  0.00     0.060 A 
ATOM     35  C   UNL     1     108.357 120.264 121.969  1.00  0.00     0.015 A 
ATOM     36  C   UNL     1     108.963 121.160 119.798  1.00  0.00     0.015 A 
ATOM     37  C   UNL     1     109.638 120.564 122.445  1.00  0.00     0.001 A 
ATOM     38  C   UNL     1     110.242 121.455 120.279  1.00  0.00     0.001 A 
ATOM     39  C   UNL     1     110.579 121.158 121.602  1.00  0.00     0.000 A 
ENDBRANCH  32  34
ENDBRANCH  31  32
ENDBRANCH  30  31
ENDBRANCH   8  30
TORSDOF 12
ENDMDL
