MODEL 1
REMARK VINA RESULT:    -2.429      0.000      0.000
REMARK INTER + INTRA:          -4.733
REMARK INTER:                  -4.133
REMARK INTRA:                  -0.600
REMARK UNBOUND:                -0.600
REMARK SMILES CCCCCCCCCCCCCC(=O)[O-]
REMARK SMILES IDX 8 1 9 2 10 3 11 4 12 5 13 6 14 7 15 8 16 9 7 10 6 11 5 12
REMARK SMILES IDX 4 13 3 14 2 15 1 16
REMARK H PARENT
REMARK Flexibility Score: inf
ROOT
ATOM      1  C   UNL     1     -16.513 -11.398 -10.074  1.00  0.00     0.000 C 
ENDROOT
BRANCH   1   2
ATOM      2  C   UNL     1     -17.336 -12.690 -10.226  1.00  0.00     0.000 C 
BRANCH   2   3
ATOM      3  C   UNL     1     -18.744 -12.436 -10.801  1.00  0.00     0.000 C 
BRANCH   3   4
ATOM      4  C   UNL     1     -19.900 -12.997  -9.952  1.00  0.00     0.000 C 
BRANCH   4   5
ATOM      5  C   UNL     1     -19.583 -13.010  -8.446  1.00  0.00     0.006 C 
BRANCH   5   6
ATOM      6  C   UNL     1     -20.853 -12.973  -7.586  1.00  0.00     0.053 C 
BRANCH   6   7
ATOM      7  C   UNL     1     -20.687 -12.085  -6.391  1.00  0.00     0.041 C 
ATOM      8  O   UNL     1     -20.873 -10.842  -6.493  1.00  0.00    -0.550 OA
ATOM      9  O   UNL     1     -20.353 -12.632  -5.159  1.00  0.00    -0.550 OA
ENDBRANCH   6   7
ENDBRANCH   5   6
ENDBRANCH   4   5
ENDBRANCH   3   4
ENDBRANCH   2   3
ENDBRANCH   1   2
BRANCH   1  10
ATOM     10  C   UNL     1     -15.351 -11.303 -11.079  1.00  0.00     0.000 C 
BRANCH  10  11
ATOM     11  C   UNL     1     -13.957 -11.094 -10.455  1.00  0.00    -0.000 C 
BRANCH  11  12
ATOM     12  C   UNL     1     -12.834 -11.019 -11.505  1.00  0.00    -0.000 C 
BRANCH  12  13
ATOM     13  C   UNL     1     -12.001  -9.732 -11.381  1.00  0.00    -0.000 C 
BRANCH  13  14
ATOM     14  C   UNL     1     -12.844  -8.529 -10.930  1.00  0.00    -0.000 C 
BRANCH  14  15
ATOM     15  C   UNL     1     -13.570  -7.891 -12.122  1.00  0.00    -0.003 C 
ATOM     16  C   UNL     1     -14.304  -6.619 -11.703  1.00  0.00     0.004 C 
ENDBRANCH  14  15
ENDBRANCH  13  14
ENDBRANCH  12  13
ENDBRANCH  11  12
ENDBRANCH  10  11
ENDBRANCH   1  10
TORSDOF 12
ENDMDL
MODEL 2
REMARK VINA RESULT:    -2.330      3.983      7.399
REMARK INTER + INTRA:          -4.564
REMARK INTER:                  -3.776
REMARK INTRA:                  -0.788
REMARK UNBOUND:                -0.600
REMARK SMILES CCCCCCCCCCCCCC(=O)[O-]
REMARK SMILES IDX 8 1 9 2 10 3 11 4 12 5 13 6 14 7 15 8 16 9 7 10 6 11 5 12
REMARK SMILES IDX 4 13 3 14 2 15 1 16
REMARK H PARENT
REMARK Flexibility Score: inf
ROOT
ATOM      1  C   UNL     1     -12.651 -10.452 -10.395  1.00  0.00     0.000 C 
ENDROOT
BRANCH   1   2
ATOM      2  C   UNL     1     -12.130 -10.020 -11.778  1.00  0.00     0.000 C 
BRANCH   2   3
ATOM      3  C   UNL     1     -12.325  -8.514 -12.045  1.00  0.00     0.000 C 
BRANCH   3   4
ATOM      4  C   UNL     1     -13.679  -7.947 -11.581  1.00  0.00     0.000 C 
BRANCH   4   5
ATOM      5  C   UNL     1     -13.908  -6.495 -12.041  1.00  0.00     0.006 C 
BRANCH   5   6
ATOM      6  C   UNL     1     -15.392  -6.106 -12.016  1.00  0.00     0.053 C 
BRANCH   6   7
ATOM      7  C   UNL     1     -15.579  -4.657 -11.683  1.00  0.00     0.041 C 
ATOM      8  O   UNL     1     -16.735  -4.159 -11.643  1.00  0.00    -0.550 OA
ATOM      9  O   UNL     1     -14.476  -3.864 -11.389  1.00  0.00    -0.550 OA
ENDBRANCH   6   7
ENDBRANCH   5   6
ENDBRANCH   4   5
ENDBRANCH   3   4
ENDBRANCH   2   3
ENDBRANCH   1   2
BRANCH   1  10
ATOM     10  C   UNL     1     -13.512 -11.727 -10.448  1.00  0.00     0.000 C 
BRANCH  10  11
ATOM     11  C   UNL     1     -14.189 -12.008 -11.803  1.00  0.00    -0.000 C 
BRANCH  11  12
ATOM     12  C   UNL     1     -15.677 -12.380 -11.666  1.00  0.00    -0.000 C 
BRANCH  12  13
ATOM     13  C   UNL     1     -16.356 -11.654 -10.492  1.00  0.00    -0.000 C 
BRANCH  13  14
ATOM     14  C   UNL     1     -17.327 -12.562  -9.723  1.00  0.00    -0.000 C 
BRANCH  14  15
ATOM     15  C   UNL     1     -18.581 -11.789  -9.296  1.00  0.00    -0.003 C 
ATOM     16  C   UNL     1     -18.212 -10.498  -8.568  1.00  0.00     0.004 C 
ENDBRANCH  14  15
ENDBRANCH  13  14
ENDBRANCH  12  13
ENDBRANCH  11  12
ENDBRANCH  10  11
ENDBRANCH   1  10
TORSDOF 12
ENDMDL
MODEL 3
REMARK VINA RESULT:    -2.234      1.788      3.627
REMARK INTER + INTRA:          -4.401
REMARK INTER:                  -3.763
REMARK INTRA:                  -0.638
REMARK UNBOUND:                -0.600
REMARK SMILES CCCCCCCCCCCCCC(=O)[O-]
REMARK SMILES IDX 8 1 9 2 10 3 11 4 12 5 13 6 14 7 15 8 16 9 7 10 6 11 5 12
REMARK SMILES IDX 4 13 3 14 2 15 1 16
REMARK H PARENT
REMARK Flexibility Score: inf
ROOT
ATOM      1  C   UNL     1     -13.017 -10.766 -10.257  1.00  0.00     0.000 C 
ENDROOT
BRANCH   1   2
ATOM      2  C   UNL     1     -13.329 -11.577 -11.528  1.00  0.00     0.000 C 
BRANCH   2   3
ATOM      3  C   UNL     1     -14.842 -11.688 -11.807  1.00  0.00     0.000 C 
BRANCH   3   4
ATOM      4  C   UNL     1     -15.599 -12.660 -10.883  1.00  0.00     0.000 C 
BRANCH   4   5
ATOM      5  C   UNL     1     -16.357 -11.941  -9.752  1.00  0.00     0.006 C 
BRANCH   5   6
ATOM      6  C   UNL     1     -17.852 -11.790 -10.061  1.00  0.00     0.053 C 
BRANCH   6   7
ATOM      7  C   UNL     1     -18.688 -11.915  -8.824  1.00  0.00     0.041 C 
ATOM      8  O   UNL     1     -19.197 -13.024  -8.510  1.00  0.00    -0.550 OA
ATOM      9  O   UNL     1     -18.883 -10.810  -8.003  1.00  0.00    -0.550 OA
ENDBRANCH   6   7
ENDBRANCH   5   6
ENDBRANCH   4   5
ENDBRANCH   3   4
ENDBRANCH   2   3
ENDBRANCH   1   2
BRANCH   1  10
ATOM     10  C   UNL     1     -12.206  -9.488 -10.542  1.00  0.00     0.000 C 
BRANCH  10  11
ATOM     11  C   UNL     1     -12.366  -8.911 -11.962  1.00  0.00    -0.000 C 
BRANCH  11  12
ATOM     12  C   UNL     1     -13.639  -8.060 -12.125  1.00  0.00    -0.000 C 
BRANCH  12  13
ATOM     13  C   UNL     1     -13.660  -6.851 -11.174  1.00  0.00    -0.000 C 
BRANCH  13  14
ATOM     14  C   UNL     1     -14.837  -5.905 -11.454  1.00  0.00    -0.000 C 
BRANCH  14  15
ATOM     15  C   UNL     1     -14.347  -4.585 -12.063  1.00  0.00    -0.003 C 
ATOM     16  C   UNL     1     -15.073  -3.391 -11.448  1.00  0.00     0.004 C 
ENDBRANCH  14  15
ENDBRANCH  13  14
ENDBRANCH  12  13
ENDBRANCH  11  12
ENDBRANCH  10  11
ENDBRANCH   1  10
TORSDOF 12
ENDMDL
MODEL 4
REMARK VINA RESULT:    -2.218      1.636      2.154
REMARK INTER + INTRA:          -4.373
REMARK INTER:                  -3.641
REMARK INTRA:                  -0.732
REMARK UNBOUND:                -0.600
REMARK SMILES CCCCCCCCCCCCCC(=O)[O-]
REMARK SMILES IDX 8 1 9 2 10 3 11 4 12 5 13 6 14 7 15 8 16 9 7 10 6 11 5 12
REMARK SMILES IDX 4 13 3 14 2 15 1 16
REMARK H PARENT
REMARK Flexibility Score: inf
ROOT
ATOM      1  C   UNL     1     -16.223 -10.744 -11.063  1.00  0.00     0.000 C 
ENDROOT
BRANCH   1   2
ATOM      2  C   UNL     1     -17.055 -11.041  -9.802  1.00  0.00     0.000 C 
BRANCH   2   3
ATOM      3  C   UNL     1     -17.394 -12.537  -9.649  1.00  0.00     0.000 C 
BRANCH   3   4
ATOM      4  C   UNL     1     -18.750 -12.957 -10.245  1.00  0.00     0.000 C 
BRANCH   4   5
ATOM      5  C   UNL     1     -19.873 -13.013  -9.194  1.00  0.00     0.006 C 
BRANCH   5   6
ATOM      6  C   UNL     1     -19.333 -12.897  -7.763  1.00  0.00     0.053 C 
BRANCH   6   7
ATOM      7  C   UNL     1     -20.007 -11.794  -7.005  1.00  0.00     0.041 C 
ATOM      8  O   UNL     1     -19.882 -10.597  -7.379  1.00  0.00    -0.550 OA
ATOM      9  O   UNL     1     -20.796 -12.090  -5.900  1.00  0.00    -0.550 OA
ENDBRANCH   6   7
ENDBRANCH   5   6
ENDBRANCH   4   5
ENDBRANCH   3   4
ENDBRANCH   2   3
ENDBRANCH   1   2
BRANCH   1  10
ATOM     10  C   UNL     1     -15.226 -11.867 -11.403  1.00  0.00     0.000 C 
BRANCH  10  11
ATOM     11  C   UNL     1     -13.817 -11.395 -11.810  1.00  0.00    -0.000 C 
BRANCH  11  12
ATOM     12  C   UNL     1     -13.434 -10.040 -11.188  1.00  0.00    -0.000 C 
BRANCH  12  13
ATOM     13  C   UNL     1     -12.553 -10.197  -9.937  1.00  0.00    -0.000 C 
BRANCH  13  14
ATOM     14  C   UNL     1     -12.171  -8.846  -9.314  1.00  0.00    -0.000 C 
BRANCH  14  15
ATOM     15  C   UNL     1     -12.038  -8.961  -7.790  1.00  0.00    -0.003 C 
ATOM     16  C   UNL     1     -12.149  -7.593  -7.122  1.00  0.00     0.004 C 
ENDBRANCH  14  15
ENDBRANCH  13  14
ENDBRANCH  12  13
ENDBRANCH  11  12
ENDBRANCH  10  11
ENDBRANCH   1  10
TORSDOF 12
ENDMDL
MODEL 5
REMARK VINA RESULT:    -1.806      3.470      7.496
REMARK INTER + INTRA:          -3.672
REMARK INTER:                  -3.148
REMARK INTRA:                  -0.524
REMARK UNBOUND:                -0.600
REMARK SMILES CCCCCCCCCCCCCC(=O)[O-]
REMARK SMILES IDX 8 1 9 2 10 3 11 4 12 5 13 6 14 7 15 8 16 9 7 10 6 11 5 12
REMARK SMILES IDX 4 13 3 14 2 15 1 16
REMARK H PARENT
REMARK Flexibility Score: inf
ROOT
ATOM      1  C   UNL     1     -13.719  -9.540 -11.850  1.00  0.00     0.000 C 
ENDROOT
BRANCH   1   2
ATOM      2  C   UNL     1     -13.602  -8.178 -11.142  1.00  0.00     0.000 C 
BRANCH   2   3
ATOM      3  C   UNL     1     -14.031  -7.001 -12.040  1.00  0.00     0.000 C 
BRANCH   3   4
ATOM      4  C   UNL     1     -14.226  -5.663 -11.303  1.00  0.00     0.000 C 
BRANCH   4   5
ATOM      5  C   UNL     1     -15.030  -4.639 -12.125  1.00  0.00     0.006 C 
BRANCH   5   6
ATOM      6  C   UNL     1     -16.204  -4.052 -11.331  1.00  0.00     0.053 C 
BRANCH   6   7
ATOM      7  C   UNL     1     -17.511  -4.655 -11.747  1.00  0.00     0.041 C 
ATOM      8  O   UNL     1     -18.460  -3.916 -12.123  1.00  0.00    -0.550 OA
ATOM      9  O   UNL     1     -17.671  -6.035 -11.746  1.00  0.00    -0.550 OA
ENDBRANCH   6   7
ENDBRANCH   5   6
ENDBRANCH   4   5
ENDBRANCH   3   4
ENDBRANCH   2   3
ENDBRANCH   1   2
BRANCH   1  10
ATOM     10  C   UNL     1     -14.639 -10.527 -11.108  1.00  0.00     0.000 C 
BRANCH  10  11
ATOM     11  C   UNL     1     -15.737 -11.178 -11.971  1.00  0.00    -0.000 C 
BRANCH  11  12
ATOM     12  C   UNL     1     -17.097 -11.256 -11.255  1.00  0.00    -0.000 C 
BRANCH  12  13
ATOM     13  C   UNL     1     -16.963 -11.129  -9.728  1.00  0.00    -0.000 C 
BRANCH  13  14
ATOM     14  C   UNL     1     -18.180 -10.445  -9.087  1.00  0.00    -0.000 C 
BRANCH  14  15
ATOM     15  C   UNL     1     -18.981 -11.436  -8.233  1.00  0.00    -0.003 C 
ATOM     16  C   UNL     1     -19.031 -12.814  -8.889  1.00  0.00     0.004 C 
ENDBRANCH  14  15
ENDBRANCH  13  14
ENDBRANCH  12  13
ENDBRANCH  11  12
ENDBRANCH  10  11
ENDBRANCH   1  10
TORSDOF 12
ENDMDL
MODEL 6
REMARK VINA RESULT:    -1.142      3.551      7.442
REMARK INTER + INTRA:          -2.543
REMARK INTER:                  -1.589
REMARK INTRA:                  -0.954
REMARK UNBOUND:                -0.600
REMARK SMILES CCCCCCCCCCCCCC(=O)[O-]
REMARK SMILES IDX 8 1 9 2 10 3 11 4 12 5 13 6 14 7 15 8 16 9 7 10 6 11 5 12
REMARK SMILES IDX 4 13 3 14 2 15 1 16
REMARK H PARENT
REMARK Flexibility Score: inf
ROOT
ATOM      1  C   UNL     1     -15.647 -10.960 -10.069  1.00  0.00     0.000 C 
ENDROOT
BRANCH   1   2
ATOM      2  C   UNL     1     -14.657 -11.541 -11.096  1.00  0.00     0.000 C 
BRANCH   2   3
ATOM      3  C   UNL     1     -13.198 -11.129 -10.815  1.00  0.00     0.000 C 
BRANCH   3   4
ATOM      4  C   UNL     1     -12.809  -9.733 -11.336  1.00  0.00     0.000 C 
BRANCH   4   5
ATOM      5  C   UNL     1     -12.540  -8.726 -10.203  1.00  0.00     0.006 C 
BRANCH   5   6
ATOM      6  C   UNL     1     -12.201  -9.422  -8.878  1.00  0.00     0.053 C 
BRANCH   6   7
ATOM      7  C   UNL     1     -12.167  -8.451  -7.737  1.00  0.00     0.041 C 
ATOM      8  O   UNL     1     -11.914  -8.852  -6.569  1.00  0.00    -0.550 OA
ATOM      9  O   UNL     1     -12.389  -7.099  -7.968  1.00  0.00    -0.550 OA
ENDBRANCH   6   7
ENDBRANCH   5   6
ENDBRANCH   4   5
ENDBRANCH   3   4
ENDBRANCH   2   3
ENDBRANCH   1   2
BRANCH   1  10
ATOM     10  C   UNL     1     -17.109 -11.000 -10.553  1.00  0.00     0.000 C 
BRANCH  10  11
ATOM     11  C   UNL     1     -17.676 -12.409 -10.815  1.00  0.00    -0.000 C 
BRANCH  11  12
ATOM     12  C   UNL     1     -19.169 -12.396 -11.190  1.00  0.00    -0.000 C 
BRANCH  12  13
ATOM     13  C   UNL     1     -20.062 -11.943 -10.023  1.00  0.00    -0.000 C 
BRANCH  13  14
ATOM     14  C   UNL     1     -20.018 -12.920  -8.838  1.00  0.00    -0.000 C 
BRANCH  14  15
ATOM     15  C   UNL     1     -19.913 -12.164  -7.507  1.00  0.00    -0.003 C 
ATOM     16  C   UNL     1     -19.402 -10.741  -7.719  1.00  0.00     0.004 C 
ENDBRANCH  14  15
ENDBRANCH  13  14
ENDBRANCH  12  13
ENDBRANCH  11  12
ENDBRANCH  10  11
ENDBRANCH   1  10
TORSDOF 12
ENDMDL
