MODEL 1
REMARK VINA RESULT:    -2.905      0.000      0.000
REMARK INTER + INTRA:          -4.007
REMARK INTER:                  -3.584
REMARK INTRA:                  -0.423
REMARK UNBOUND:                -0.423
REMARK SMILES CCCCC=CC(C)=O
REMARK SMILES IDX 4 1 3 2 2 3 1 4 5 5 6 6 7 7 9 8 8 9
REMARK H PARENT
REMARK Flexibility Score: inf
ROOT
ATOM      1  C   UNL     1      19.277  22.710  46.974  1.00  0.00     0.027 C 
ENDROOT
BRANCH   1   2
ATOM      2  C   UNL     1      20.809  22.674  47.086  1.00  0.00     0.004 C 
BRANCH   2   3
ATOM      3  C   UNL     1      21.468  22.121  45.814  1.00  0.00    -0.003 C 
ATOM      4  C   UNL     1      22.778  22.844  45.513  1.00  0.00     0.004 C 
ENDBRANCH   2   3
ENDBRANCH   1   2
BRANCH   1   5
ATOM      5  C   UNL     1      18.723  24.103  47.124  1.00  0.00    -0.023 C 
ATOM      6  C   UNL     1      18.490  24.970  46.125  1.00  0.00     0.042 C 
BRANCH   6   7
ATOM      7  C   UNL     1      18.679  24.719  44.678  1.00  0.00     0.152 C 
ATOM      8  O   UNL     1      19.797  24.874  44.119  1.00  0.00    -0.295 OA
ATOM      9  C   UNL     1      17.533  24.197  43.872  1.00  0.00     0.093 C 
ENDBRANCH   6   7
ENDBRANCH   1   5
TORSDOF 4
ENDMDL
MODEL 2
REMARK VINA RESULT:    -2.624      0.948      3.844
REMARK INTER + INTRA:          -3.661
REMARK INTER:                  -3.421
REMARK INTRA:                  -0.240
REMARK UNBOUND:                -0.423
REMARK SMILES CCCCC=CC(C)=O
REMARK SMILES IDX 4 1 3 2 2 3 1 4 5 5 6 6 7 7 9 8 8 9
REMARK H PARENT
REMARK Flexibility Score: inf
ROOT
ATOM      1  C   UNL     1      19.111  23.860  47.101  1.00  0.00     0.027 C 
ENDROOT
BRANCH   1   2
ATOM      2  C   UNL     1      17.756  23.953  46.383  1.00  0.00     0.004 C 
BRANCH   2   3
ATOM      3  C   UNL     1      17.800  24.919  45.190  1.00  0.00    -0.003 C 
ATOM      4  C   UNL     1      17.569  24.182  43.874  1.00  0.00     0.004 C 
ENDBRANCH   2   3
ENDBRANCH   1   2
BRANCH   1   5
ATOM      5  C   UNL     1      19.653  22.455  47.125  1.00  0.00    -0.023 C 
ATOM      6  C   UNL     1      20.653  21.982  46.363  1.00  0.00     0.042 C 
BRANCH   6   7
ATOM      7  C   UNL     1      21.459  22.754  45.389  1.00  0.00     0.152 C 
ATOM      8  O   UNL     1      20.920  23.433  44.475  1.00  0.00    -0.295 OA
ATOM      9  C   UNL     1      22.946  22.790  45.538  1.00  0.00     0.093 C 
ENDBRANCH   6   7
ENDBRANCH   1   5
TORSDOF 4
ENDMDL
MODEL 3
REMARK VINA RESULT:    -2.508      1.843      4.228
REMARK INTER + INTRA:          -3.517
REMARK INTER:                  -3.507
REMARK INTRA:                  -0.011
REMARK UNBOUND:                -0.423
REMARK SMILES CCCCC=CC(C)=O
REMARK SMILES IDX 4 1 3 2 2 3 1 4 5 5 6 6 7 7 9 8 8 9
REMARK H PARENT
REMARK Flexibility Score: inf
ROOT
ATOM      1  C   UNL     1      18.468  23.897  44.951  1.00  0.00     0.027 C 
ENDROOT
BRANCH   1   2
ATOM      2  C   UNL     1      17.005  24.181  44.578  1.00  0.00     0.004 C 
BRANCH   2   3
ATOM      3  C   UNL     1      16.875  24.788  43.173  1.00  0.00    -0.003 C 
ATOM      4  C   UNL     1      18.244  24.987  42.530  1.00  0.00     0.004 C 
ENDBRANCH   2   3
ENDBRANCH   1   2
BRANCH   1   5
ATOM      5  C   UNL     1      18.700  23.940  46.439  1.00  0.00    -0.023 C 
ATOM      6  C   UNL     1      19.599  23.209  47.119  1.00  0.00     0.042 C 
BRANCH   6   7
ATOM      7  C   UNL     1      20.577  22.257  46.543  1.00  0.00     0.152 C 
ATOM      8  O   UNL     1      20.596  21.043  46.879  1.00  0.00    -0.295 OA
ATOM      9  C   UNL     1      21.518  22.730  45.482  1.00  0.00     0.093 C 
ENDBRANCH   6   7
ENDBRANCH   1   5
TORSDOF 4
ENDMDL
MODEL 4
REMARK VINA RESULT:    -2.277     17.342     19.185
REMARK INTER + INTRA:          -3.233
REMARK INTER:                  -2.973
REMARK INTRA:                  -0.260
REMARK UNBOUND:                -0.423
REMARK SMILES CCCCC=CC(C)=O
REMARK SMILES IDX 4 1 3 2 2 3 1 4 5 5 6 6 7 7 9 8 8 9
REMARK H PARENT
REMARK Flexibility Score: inf
ROOT
ATOM      1  C   UNL     1      30.428  24.061  31.473  1.00  0.00     0.027 C 
ENDROOT
BRANCH   1   2
ATOM      2  C   UNL     1      30.588  25.107  32.587  1.00  0.00     0.004 C 
BRANCH   2   3
ATOM      3  C   UNL     1      31.896  24.922  33.370  1.00  0.00    -0.003 C 
ATOM      4  C   UNL     1      31.676  25.124  34.866  1.00  0.00     0.004 C 
ENDBRANCH   2   3
ENDBRANCH   1   2
BRANCH   1   5
ATOM      5  C   UNL     1      30.225  24.690  30.120  1.00  0.00    -0.023 C 
ATOM      6  C   UNL     1      31.132  24.744  29.130  1.00  0.00     0.042 C 
BRANCH   6   7
ATOM      7  C   UNL     1      32.489  24.153  29.147  1.00  0.00     0.152 C 
ATOM      8  O   UNL     1      33.420  24.652  29.834  1.00  0.00    -0.295 OA
ATOM      9  C   UNL     1      32.745  22.890  28.389  1.00  0.00     0.093 C 
ENDBRANCH   6   7
ENDBRANCH   1   5
TORSDOF 4
ENDMDL
MODEL 5
REMARK VINA RESULT:    -2.119      1.583      1.981
REMARK INTER + INTRA:          -3.037
REMARK INTER:                  -3.108
REMARK INTRA:                   0.070
REMARK UNBOUND:                -0.423
REMARK SMILES CCCCC=CC(C)=O
REMARK SMILES IDX 4 1 3 2 2 3 1 4 5 5 6 6 7 7 9 8 8 9
REMARK H PARENT
REMARK Flexibility Score: inf
ROOT
ATOM      1  C   UNL     1      19.436  22.964  45.216  1.00  0.00     0.027 C 
ENDROOT
BRANCH   1   2
ATOM      2  C   UNL     1      19.871  22.646  46.655  1.00  0.00     0.004 C 
BRANCH   2   3
ATOM      3  C   UNL     1      21.047  21.660  46.698  1.00  0.00    -0.003 C 
ATOM      4  C   UNL     1      22.123  22.039  45.685  1.00  0.00     0.004 C 
ENDBRANCH   2   3
ENDBRANCH   1   2
BRANCH   1   5
ATOM      5  C   UNL     1      19.723  24.392  44.831  1.00  0.00    -0.023 C 
ATOM      6  C   UNL     1      19.029  25.125  43.945  1.00  0.00     0.042 C 
BRANCH   6   7
ATOM      7  C   UNL     1      17.815  24.701  43.210  1.00  0.00     0.152 C 
ATOM      8  O   UNL     1      16.875  24.087  43.782  1.00  0.00    -0.295 OA
ATOM      9  C   UNL     1      17.666  25.073  41.770  1.00  0.00     0.093 C 
ENDBRANCH   6   7
ENDBRANCH   1   5
TORSDOF 4
ENDMDL
MODEL 6
REMARK VINA RESULT:    -1.893     18.557     20.385
REMARK INTER + INTRA:          -2.759
REMARK INTER:                  -2.317
REMARK INTRA:                  -0.442
REMARK UNBOUND:                -0.423
REMARK SMILES CCCCC=CC(C)=O
REMARK SMILES IDX 4 1 3 2 2 3 1 4 5 5 6 6 7 7 9 8 8 9
REMARK H PARENT
REMARK Flexibility Score: inf
ROOT
ATOM      1  C   UNL     1      31.783  23.011  28.732  1.00  0.00     0.027 C 
ENDROOT
BRANCH   1   2
ATOM      2  C   UNL     1      32.897  23.179  27.687  1.00  0.00     0.004 C 
BRANCH   2   3
ATOM      3  C   UNL     1      33.514  24.585  27.721  1.00  0.00    -0.003 C 
ATOM      4  C   UNL     1      34.492  24.729  28.883  1.00  0.00     0.004 C 
ENDBRANCH   2   3
ENDBRANCH   1   2
BRANCH   1   5
ATOM      5  C   UNL     1      30.782  24.136  28.690  1.00  0.00    -0.023 C 
ATOM      6  C   UNL     1      30.301  24.805  29.752  1.00  0.00     0.042 C 
BRANCH   6   7
ATOM      7  C   UNL     1      30.695  24.611  31.166  1.00  0.00     0.152 C 
ATOM      8  O   UNL     1      29.970  23.970  31.973  1.00  0.00    -0.295 OA
ATOM      9  C   UNL     1      32.018  25.125  31.633  1.00  0.00     0.093 C 
ENDBRANCH   6   7
ENDBRANCH   1   5
TORSDOF 4
ENDMDL
MODEL 7
REMARK VINA RESULT:    -1.888     19.508     21.309
REMARK INTER + INTRA:          -2.753
REMARK INTER:                  -2.473
REMARK INTRA:                  -0.279
REMARK UNBOUND:                -0.423
REMARK SMILES CCCCC=CC(C)=O
REMARK SMILES IDX 4 1 3 2 2 3 1 4 5 5 6 6 7 7 9 8 8 9
REMARK H PARENT
REMARK Flexibility Score: inf
ROOT
ATOM      1  C   UNL     1      33.542  24.738  29.345  1.00  0.00     0.027 C 
ENDROOT
BRANCH   1   2
ATOM      2  C   UNL     1      34.982  24.857  28.825  1.00  0.00     0.004 C 
BRANCH   2   3
ATOM      3  C   UNL     1      35.388  23.651  27.965  1.00  0.00    -0.003 C 
ATOM      4  C   UNL     1      36.766  23.129  28.361  1.00  0.00     0.004 C 
ENDBRANCH   2   3
ENDBRANCH   1   2
BRANCH   1   5
ATOM      5  C   UNL     1      32.816  23.554  28.760  1.00  0.00    -0.023 C 
ATOM      6  C   UNL     1      31.522  23.249  28.951  1.00  0.00     0.042 C 
BRANCH   6   7
ATOM      7  C   UNL     1      30.536  24.038  29.725  1.00  0.00     0.152 C 
ATOM      8  O   UNL     1      30.419  23.909  30.973  1.00  0.00    -0.295 OA
ATOM      9  C   UNL     1      29.709  25.066  29.022  1.00  0.00     0.093 C 
ENDBRANCH   6   7
ENDBRANCH   1   5
TORSDOF 4
ENDMDL
MODEL 8
REMARK VINA RESULT:    -1.810     19.704     21.657
REMARK INTER + INTRA:          -2.656
REMARK INTER:                  -2.397
REMARK INTRA:                  -0.259
REMARK UNBOUND:                -0.423
REMARK SMILES CCCCC=CC(C)=O
REMARK SMILES IDX 4 1 3 2 2 3 1 4 5 5 6 6 7 7 9 8 8 9
REMARK H PARENT
REMARK Flexibility Score: inf
ROOT
ATOM      1  C   UNL     1      31.921  23.009  28.902  1.00  0.00     0.027 C 
ENDROOT
BRANCH   1   2
ATOM      2  C   UNL     1      30.755  23.936  29.278  1.00  0.00     0.004 C 
BRANCH   2   3
ATOM      3  C   UNL     1      31.053  24.757  30.541  1.00  0.00    -0.003 C 
ATOM      4  C   UNL     1      30.296  24.207  31.747  1.00  0.00     0.004 C 
ENDBRANCH   2   3
ENDBRANCH   1   2
BRANCH   1   5
ATOM      5  C   UNL     1      32.414  23.246  27.498  1.00  0.00    -0.023 C 
ATOM      6  C   UNL     1      33.647  23.652  27.153  1.00  0.00     0.042 C 
BRANCH   6   7
ATOM      7  C   UNL     1      34.783  23.897  28.071  1.00  0.00     0.152 C 
ATOM      8  O   UNL     1      35.782  23.131  28.106  1.00  0.00    -0.295 OA
ATOM      9  C   UNL     1      34.780  25.124  28.925  1.00  0.00     0.093 C 
ENDBRANCH   6   7
ENDBRANCH   1   5
TORSDOF 4
ENDMDL
