MODEL 1
REMARK VINA RESULT:    -3.954      0.000      0.000
REMARK INTER + INTRA:          -4.070
REMARK INTER:                  -4.070
REMARK INTRA:                   0.000
REMARK UNBOUND:                 0.000
REMARK SMILES Nc1ncnc2nc[nH]c12
REMARK SMILES IDX 8 1 7 2 6 3 5 4 4 5 3 6 2 7 10 8 9 9 1 11
REMARK H PARENT 9 10 1 12 1 13
REMARK Flexibility Score: inf
ROOT
ATOM      1  C   UNL     1      -1.819 -19.033  -8.615  1.00  0.00     0.199 A 
ATOM      2  N   UNL     1      -2.771 -18.787  -9.556  1.00  0.00    -0.217 NA
ATOM      3  C   UNL     1      -2.976 -17.467  -9.416  1.00  0.00     0.182 A 
ATOM      4  N   UNL     1      -3.842 -16.703 -10.125  1.00  0.00    -0.215 NA
ATOM      5  C   UNL     1      -3.911 -15.369  -9.836  1.00  0.00     0.226 A 
ATOM      6  N   UNL     1      -3.120 -14.826  -8.854  1.00  0.00    -0.217 NA
ATOM      7  C   UNL     1      -2.246 -15.595  -8.138  1.00  0.00     0.152 A 
ATOM      8  C   UNL     1      -2.188 -16.952  -8.444  1.00  0.00     0.127 A 
ATOM      9  N   UNL     1      -1.441 -17.931  -7.919  1.00  0.00    -0.340 N 
ATOM     10  H   UNL     1      -0.733 -17.874  -7.155  1.00  0.00     0.168 HD
ENDROOT
BRANCH   7  11
ATOM     11  N   UNL     1      -1.433 -15.009  -7.121  1.00  0.00    -0.382 N 
ATOM     12  H   UNL     1      -0.874 -15.597  -6.465  1.00  0.00     0.158 HD
ATOM     13  H   UNL     1      -1.390 -13.971  -7.021  1.00  0.00     0.158 HD
ENDBRANCH   7  11
TORSDOF 1
ENDMDL
MODEL 2
REMARK VINA RESULT:    -3.878      0.980      3.033
REMARK INTER + INTRA:          -3.991
REMARK INTER:                  -3.991
REMARK INTRA:                   0.000
REMARK UNBOUND:                 0.000
REMARK SMILES Nc1ncnc2nc[nH]c12
REMARK SMILES IDX 8 1 7 2 6 3 5 4 4 5 3 6 2 7 10 8 9 9 1 11
REMARK H PARENT 9 10 1 12 1 13
REMARK Flexibility Score: inf
ROOT
ATOM      1  C   UNL     1      -4.484 -14.141  -9.544  1.00  0.00     0.199 A 
ATOM      2  N   UNL     1      -4.579 -15.368 -10.125  1.00  0.00    -0.217 NA
ATOM      3  C   UNL     1      -3.588 -16.046  -9.525  1.00  0.00     0.182 A 
ATOM      4  N   UNL     1      -3.243 -17.338  -9.745  1.00  0.00    -0.215 NA
ATOM      5  C   UNL     1      -2.197 -17.856  -9.033  1.00  0.00     0.226 A 
ATOM      6  N   UNL     1      -1.522 -17.083  -8.122  1.00  0.00    -0.217 NA
ATOM      7  C   UNL     1      -1.869 -15.780  -7.899  1.00  0.00     0.152 A 
ATOM      8  C   UNL     1      -2.935 -15.266  -8.632  1.00  0.00     0.127 A 
ATOM      9  N   UNL     1      -3.489 -14.047  -8.626  1.00  0.00    -0.340 N 
ATOM     10  H   UNL     1      -3.226 -13.214  -8.056  1.00  0.00     0.168 HD
ENDROOT
BRANCH   7  11
ATOM     11  N   UNL     1      -1.151 -14.994  -6.947  1.00  0.00    -0.382 N 
ATOM     12  H   UNL     1      -0.281 -14.481  -7.210  1.00  0.00     0.158 HD
ATOM     13  H   UNL     1      -1.495 -14.922  -5.964  1.00  0.00     0.158 HD
ENDBRANCH   7  11
TORSDOF 1
ENDMDL
MODEL 3
REMARK VINA RESULT:    -3.758     14.927     15.980
REMARK INTER + INTRA:          -3.868
REMARK INTER:                  -3.868
REMARK INTRA:                   0.000
REMARK UNBOUND:                 0.000
REMARK SMILES Nc1ncnc2nc[nH]c12
REMARK SMILES IDX 8 1 7 2 6 3 5 4 4 5 3 6 2 7 10 8 9 9 1 11
REMARK H PARENT 9 10 1 12 1 13
REMARK Flexibility Score: inf
ROOT
ATOM      1  C   UNL     1     -13.191 -26.725   0.418  1.00  0.00     0.199 A 
ATOM      2  N   UNL     1     -13.315 -27.064  -0.894  1.00  0.00    -0.217 NA
ATOM      3  C   UNL     1     -12.042 -27.305  -1.248  1.00  0.00     0.182 A 
ATOM      4  N   UNL     1     -11.601 -27.686  -2.472  1.00  0.00    -0.215 NA
ATOM      5  C   UNL     1     -10.259 -27.885  -2.641  1.00  0.00     0.226 A 
ATOM      6  N   UNL     1      -9.390 -27.704  -1.594  1.00  0.00    -0.217 NA
ATOM      7  C   UNL     1      -9.833 -27.321  -0.359  1.00  0.00     0.152 A 
ATOM      8  C   UNL     1     -11.202 -27.122  -0.203  1.00  0.00     0.127 A 
ATOM      9  N   UNL     1     -11.911 -26.751   0.870  1.00  0.00    -0.340 N 
ATOM     10  H   UNL     1     -11.573 -26.532   1.832  1.00  0.00     0.168 HD
ENDROOT
BRANCH   7  11
ATOM     11  N   UNL     1      -8.911 -27.139   0.715  1.00  0.00    -0.382 N 
ATOM     12  H   UNL     1      -8.622 -27.935   1.326  1.00  0.00     0.158 HD
ATOM     13  H   UNL     1      -8.509 -26.194   0.904  1.00  0.00     0.158 HD
ENDBRANCH   7  11
TORSDOF 1
ENDMDL
MODEL 4
REMARK VINA RESULT:    -3.651     17.645     18.592
REMARK INTER + INTRA:          -3.757
REMARK INTER:                  -3.757
REMARK INTRA:                   0.000
REMARK UNBOUND:                 0.000
REMARK SMILES Nc1ncnc2nc[nH]c12
REMARK SMILES IDX 8 1 7 2 6 3 5 4 4 5 3 6 2 7 10 8 9 9 1 11
REMARK H PARENT 9 10 1 12 1 13
REMARK Flexibility Score: inf
ROOT
ATOM      1  C   UNL     1      -1.406 -27.014   5.295  1.00  0.00     0.199 A 
ATOM      2  N   UNL     1      -0.915 -26.032   6.099  1.00  0.00    -0.217 NA
ATOM      3  C   UNL     1      -1.953 -25.784   6.914  1.00  0.00     0.182 A 
ATOM      4  N   UNL     1      -1.993 -24.875   7.918  1.00  0.00    -0.215 NA
ATOM      5  C   UNL     1      -3.147 -24.767   8.644  1.00  0.00     0.226 A 
ATOM      6  N   UNL     1      -4.229 -25.562   8.357  1.00  0.00    -0.217 NA
ATOM      7  C   UNL     1      -4.189 -26.480   7.345  1.00  0.00     0.152 A 
ATOM      8  C   UNL     1      -3.008 -26.577   6.615  1.00  0.00     0.127 A 
ATOM      9  N   UNL     1      -2.683 -27.370   5.586  1.00  0.00    -0.340 N 
ATOM     10  H   UNL     1      -3.265 -28.094   5.111  1.00  0.00     0.168 HD
ENDROOT
BRANCH   7  11
ATOM     11  N   UNL     1      -5.327 -27.296   7.064  1.00  0.00    -0.382 N 
ATOM     12  H   UNL     1      -5.437 -28.241   7.492  1.00  0.00     0.158 HD
ATOM     13  H   UNL     1      -6.070 -26.950   6.418  1.00  0.00     0.158 HD
ENDBRANCH   7  11
TORSDOF 1
ENDMDL
MODEL 5
REMARK VINA RESULT:    -3.609     18.434     19.131
REMARK INTER + INTRA:          -3.714
REMARK INTER:                  -3.714
REMARK INTRA:                   0.000
REMARK UNBOUND:                 0.000
REMARK SMILES Nc1ncnc2nc[nH]c12
REMARK SMILES IDX 8 1 7 2 6 3 5 4 4 5 3 6 2 7 10 8 9 9 1 11
REMARK H PARENT 9 10 1 12 1 13
REMARK Flexibility Score: inf
ROOT
ATOM      1  C   UNL     1      -4.731 -23.662   9.132  1.00  0.00     0.199 A 
ATOM      2  N   UNL     1      -3.407 -23.507   8.862  1.00  0.00    -0.217 NA
ATOM      3  C   UNL     1      -3.129 -24.612   8.150  1.00  0.00     0.182 A 
ATOM      4  N   UNL     1      -1.928 -24.956   7.626  1.00  0.00    -0.215 NA
ATOM      5  C   UNL     1      -1.840 -26.128   6.927  1.00  0.00     0.226 A 
ATOM      6  N   UNL     1      -2.944 -26.927   6.765  1.00  0.00    -0.217 NA
ATOM      7  C   UNL     1      -4.157 -26.581   7.293  1.00  0.00     0.152 A 
ATOM      8  C   UNL     1      -4.229 -25.386   8.002  1.00  0.00     0.127 A 
ATOM      9  N   UNL     1      -5.263 -24.801   8.619  1.00  0.00    -0.340 N 
ATOM     10  H   UNL     1      -6.250 -25.132   8.696  1.00  0.00     0.168 HD
ENDROOT
BRANCH   7  11
ATOM     11  N   UNL     1      -5.292 -27.429   7.112  1.00  0.00    -0.382 N 
ATOM     12  H   UNL     1      -5.274 -28.431   7.404  1.00  0.00     0.158 HD
ATOM     13  H   UNL     1      -6.163 -27.049   6.680  1.00  0.00     0.158 HD
ENDBRANCH   7  11
TORSDOF 1
ENDMDL
MODEL 6
REMARK VINA RESULT:    -3.580     14.639     15.619
REMARK INTER + INTRA:          -3.685
REMARK INTER:                  -3.685
REMARK INTRA:                   0.000
REMARK UNBOUND:                 0.000
REMARK SMILES Nc1ncnc2nc[nH]c12
REMARK SMILES IDX 8 1 7 2 6 3 5 4 4 5 3 6 2 7 10 8 9 9 1 11
REMARK H PARENT 9 10 1 12 1 13
REMARK Flexibility Score: inf
ROOT
ATOM      1  C   UNL     1      -0.346 -13.133   5.324  1.00  0.00     0.199 A 
ATOM      2  N   UNL     1       0.594 -12.224   5.702  1.00  0.00    -0.217 NA
ATOM      3  C   UNL     1       1.720 -12.956   5.693  1.00  0.00     0.182 A 
ATOM      4  N   UNL     1       2.967 -12.525   5.998  1.00  0.00    -0.215 NA
ATOM      5  C   UNL     1       3.995 -13.424   5.931  1.00  0.00     0.226 A 
ATOM      6  N   UNL     1       3.760 -14.725   5.561  1.00  0.00    -0.217 NA
ATOM      7  C   UNL     1       2.503 -15.161   5.252  1.00  0.00     0.152 A 
ATOM      8  C   UNL     1       1.467 -14.234   5.326  1.00  0.00     0.127 A 
ATOM      9  N   UNL     1       0.157 -14.371   5.086  1.00  0.00    -0.340 N 
ATOM     10  H   UNL     1      -0.366 -15.223   4.786  1.00  0.00     0.168 HD
ENDROOT
BRANCH   7  11
ATOM     11  N   UNL     1       2.282 -16.520   4.870  1.00  0.00    -0.382 N 
ATOM     12  H   UNL     1       1.988 -17.239   5.567  1.00  0.00     0.158 HD
ATOM     13  H   UNL     1       2.415 -16.811   3.877  1.00  0.00     0.158 HD
ENDBRANCH   7  11
TORSDOF 1
ENDMDL
MODEL 7
REMARK VINA RESULT:    -3.469     16.790     17.378
REMARK INTER + INTRA:          -3.570
REMARK INTER:                  -3.570
REMARK INTRA:                   0.000
REMARK UNBOUND:                 0.000
REMARK SMILES Nc1ncnc2nc[nH]c12
REMARK SMILES IDX 8 1 7 2 6 3 5 4 4 5 3 6 2 7 10 8 9 9 1 11
REMARK H PARENT 9 10 1 12 1 13
REMARK Flexibility Score: inf
ROOT
ATOM      1  C   UNL     1     -13.199 -15.131   2.499  1.00  0.00     0.199 A 
ATOM      2  N   UNL     1     -13.766 -13.913   2.283  1.00  0.00    -0.217 NA
ATOM      3  C   UNL     1     -13.674 -13.336   3.492  1.00  0.00     0.182 A 
ATOM      4  N   UNL     1     -14.098 -12.094   3.831  1.00  0.00    -0.215 NA
ATOM      5  C   UNL     1     -13.915 -11.680   5.120  1.00  0.00     0.226 A 
ATOM      6  N   UNL     1     -13.317 -12.504   6.040  1.00  0.00    -0.217 NA
ATOM      7  C   UNL     1     -12.888 -13.757   5.700  1.00  0.00     0.152 A 
ATOM      8  C   UNL     1     -13.082 -14.165   4.384  1.00  0.00     0.127 A 
ATOM      9  N   UNL     1     -12.770 -15.315   3.774  1.00  0.00    -0.340 N 
ATOM     10  H   UNL     1     -12.307 -16.161   4.173  1.00  0.00     0.168 HD
ENDROOT
BRANCH   7  11
ATOM     11  N   UNL     1     -12.268 -14.598   6.674  1.00  0.00    -0.382 N 
ATOM     12  H   UNL     1     -12.117 -14.274   7.655  1.00  0.00     0.158 HD
ATOM     13  H   UNL     1     -11.956 -15.558   6.412  1.00  0.00     0.158 HD
ENDBRANCH   7  11
TORSDOF 1
ENDMDL
MODEL 8
REMARK VINA RESULT:    -3.465     15.048     16.060
REMARK INTER + INTRA:          -3.566
REMARK INTER:                  -3.566
REMARK INTRA:                   0.000
REMARK UNBOUND:                 0.000
REMARK SMILES Nc1ncnc2nc[nH]c12
REMARK SMILES IDX 8 1 7 2 6 3 5 4 4 5 3 6 2 7 10 8 9 9 1 11
REMARK H PARENT 9 10 1 12 1 13
REMARK Flexibility Score: inf
ROOT
ATOM      1  C   UNL     1      -8.944 -27.639  -0.587  1.00  0.00     0.199 A 
ATOM      2  N   UNL     1      -9.409 -27.787  -1.857  1.00  0.00    -0.217 NA
ATOM      3  C   UNL     1     -10.736 -27.655  -1.693  1.00  0.00     0.182 A 
ATOM      4  N   UNL     1     -11.681 -27.720  -2.661  1.00  0.00    -0.215 NA
ATOM      5  C   UNL     1     -12.989 -27.560  -2.297  1.00  0.00     0.226 A 
ATOM      6  N   UNL     1     -13.326 -27.339  -0.985  1.00  0.00    -0.217 NA
ATOM      7  C   UNL     1     -12.373 -27.272  -0.007  1.00  0.00     0.152 A 
ATOM      8  C   UNL     1     -11.046 -27.438  -0.394  1.00  0.00     0.127 A 
ATOM      9  N   UNL     1      -9.920 -27.423   0.330  1.00  0.00    -0.340 N 
ATOM     10  H   UNL     1      -9.807 -27.281   1.358  1.00  0.00     0.168 HD
ENDROOT
BRANCH   7  11
ATOM     11  N   UNL     1     -12.747 -27.042   1.352  1.00  0.00    -0.382 N 
ATOM     12  H   UNL     1     -12.056 -26.701   2.056  1.00  0.00     0.158 HD
ATOM     13  H   UNL     1     -13.729 -27.214   1.659  1.00  0.00     0.158 HD
ENDBRANCH   7  11
TORSDOF 1
ENDMDL
MODEL 9
REMARK VINA RESULT:    -3.405     14.637     15.499
REMARK INTER + INTRA:          -3.504
REMARK INTER:                  -3.504
REMARK INTRA:                   0.000
REMARK UNBOUND:                 0.000
REMARK SMILES Nc1ncnc2nc[nH]c12
REMARK SMILES IDX 8 1 7 2 6 3 5 4 4 5 3 6 2 7 10 8 9 9 1 11
REMARK H PARENT 9 10 1 12 1 13
REMARK Flexibility Score: inf
ROOT
ATOM      1  C   UNL     1       3.022 -16.596   5.069  1.00  0.00     0.199 A 
ATOM      2  N   UNL     1       4.008 -15.791   5.550  1.00  0.00    -0.217 NA
ATOM      3  C   UNL     1       3.382 -14.608   5.660  1.00  0.00     0.182 A 
ATOM      4  N   UNL     1       3.922 -13.445   6.100  1.00  0.00    -0.215 NA
ATOM      5  C   UNL     1       3.122 -12.338   6.141  1.00  0.00     0.226 A 
ATOM      6  N   UNL     1       1.809 -12.411   5.748  1.00  0.00    -0.217 NA
ATOM      7  C   UNL     1       1.263 -13.583   5.304  1.00  0.00     0.152 A 
ATOM      8  C   UNL     1       2.091 -14.701   5.267  1.00  0.00     0.127 A 
ATOM      9  N   UNL     1       1.838 -15.959   4.886  1.00  0.00    -0.340 N 
ATOM     10  H   UNL     1       0.945 -16.366   4.530  1.00  0.00     0.168 HD
ENDROOT
BRANCH   7  11
ATOM     11  N   UNL     1      -0.105 -13.635   4.898  1.00  0.00    -0.382 N 
ATOM     12  H   UNL     1      -0.379 -13.978   3.952  1.00  0.00     0.158 HD
ATOM     13  H   UNL     1      -0.856 -13.326   5.554  1.00  0.00     0.158 HD
ENDBRANCH   7  11
TORSDOF 1
ENDMDL
