MODEL 1
REMARK VINA RESULT:    -4.536      0.000      0.000
REMARK INTER + INTRA:          -5.362
REMARK INTER:                  -5.067
REMARK INTRA:                  -0.295
REMARK UNBOUND:                -0.295
REMARK SMILES CC(=O)c1ccc(O)cc1O
REMARK SMILES IDX 4 1 10 2 9 3 7 4 6 5 5 6 2 7 1 8 3 9 11 10 8 12
REMARK H PARENT 11 11 8 13
REMARK Flexibility Score: inf
ROOT
ATOM      1  C   UNL     1       2.792  -4.250  24.156  1.00  0.00     0.059 A 
ATOM      2  C   UNL     1       2.197  -5.327  23.453  1.00  0.00     0.130 A 
ATOM      3  C   UNL     1       2.157  -5.305  22.053  1.00  0.00     0.093 A 
ATOM      4  C   UNL     1       2.668  -4.217  21.342  1.00  0.00     0.119 A 
ATOM      5  C   UNL     1       3.229  -3.139  22.032  1.00  0.00     0.047 A 
ATOM      6  C   UNL     1       3.291  -3.154  23.426  1.00  0.00     0.019 A 
ENDROOT
BRANCH   1   7
ATOM      7  C   UNL     1       2.936  -4.258  25.632  1.00  0.00     0.163 C 
ATOM      8  C   UNL     1       3.012  -2.982  26.410  1.00  0.00     0.093 C 
ATOM      9  O   UNL     1       3.081  -5.351  26.242  1.00  0.00    -0.294 OA
ENDBRANCH   1   7
BRANCH   2  10
ATOM     10  O   UNL     1       1.611  -6.414  24.105  1.00  0.00    -0.507 OA
ATOM     11  H   UNL     1       0.759  -6.857  23.790  1.00  0.00     0.293 HD
ENDBRANCH   2  10
BRANCH   4  12
ATOM     12  O   UNL     1       2.610  -4.217  19.949  1.00  0.00    -0.508 OA
ATOM     13  H   UNL     1       2.676  -5.076  19.417  1.00  0.00     0.293 HD
ENDBRANCH   4  12
TORSDOF 3
ENDMDL
MODEL 2
REMARK VINA RESULT:    -4.472      3.334      6.112
REMARK INTER + INTRA:          -5.290
REMARK INTER:                  -4.989
REMARK INTRA:                  -0.301
REMARK UNBOUND:                -0.295
REMARK SMILES CC(=O)c1ccc(O)cc1O
REMARK SMILES IDX 4 1 10 2 9 3 7 4 6 5 5 6 2 7 1 8 3 9 11 10 8 12
REMARK H PARENT 11 11 8 13
REMARK Flexibility Score: inf
ROOT
ATOM      1  C   UNL     1       1.652  -3.891  18.546  1.00  0.00     0.059 A 
ATOM      2  C   UNL     1       2.255  -5.165  18.396  1.00  0.00     0.130 A 
ATOM      3  C   UNL     1       2.838  -5.791  19.505  1.00  0.00     0.093 A 
ATOM      4  C   UNL     1       2.862  -5.160  20.751  1.00  0.00     0.119 A 
ATOM      5  C   UNL     1       2.294  -3.891  20.896  1.00  0.00     0.047 A 
ATOM      6  C   UNL     1       1.695  -3.261  19.804  1.00  0.00     0.019 A 
ENDROOT
BRANCH   1   7
ATOM      7  C   UNL     1       0.948  -3.219  17.427  1.00  0.00     0.163 C 
ATOM      8  C   UNL     1      -0.515  -2.911  17.506  1.00  0.00     0.093 C 
ATOM      9  O   UNL     1       1.564  -2.972  16.356  1.00  0.00    -0.294 OA
ENDBRANCH   1   7
BRANCH   2  10
ATOM     10  O   UNL     1       2.323  -5.822  17.166  1.00  0.00    -0.507 OA
ATOM     11  H   UNL     1       3.193  -6.101  16.732  1.00  0.00     0.293 HD
ENDBRANCH   2  10
BRANCH   4  12
ATOM     12  O   UNL     1       3.454  -5.802  21.836  1.00  0.00    -0.508 OA
ATOM     13  H   UNL     1       3.746  -5.290  22.660  1.00  0.00     0.293 HD
ENDBRANCH   4  12
TORSDOF 3
ENDMDL
MODEL 3
REMARK VINA RESULT:    -4.344      1.578      4.681
REMARK INTER + INTRA:          -5.147
REMARK INTER:                  -4.838
REMARK INTRA:                  -0.310
REMARK UNBOUND:                -0.295
REMARK SMILES CC(=O)c1ccc(O)cc1O
REMARK SMILES IDX 4 1 10 2 9 3 7 4 6 5 5 6 2 7 1 8 3 9 11 10 8 12
REMARK H PARENT 11 11 8 13
REMARK Flexibility Score: inf
ROOT
ATOM      1  C   UNL     1       2.793  -4.691  21.908  1.00  0.00     0.059 A 
ATOM      2  C   UNL     1       3.610  -3.727  22.550  1.00  0.00     0.130 A 
ATOM      3  C   UNL     1       3.994  -3.921  23.883  1.00  0.00     0.093 A 
ATOM      4  C   UNL     1       3.554  -5.037  24.598  1.00  0.00     0.119 A 
ATOM      5  C   UNL     1       2.724  -5.975  23.977  1.00  0.00     0.047 A 
ATOM      6  C   UNL     1       2.346  -5.805  22.644  1.00  0.00     0.019 A 
ENDROOT
BRANCH   1   7
ATOM      7  C   UNL     1       2.425  -4.580  20.476  1.00  0.00     0.163 C 
ATOM      8  C   UNL     1       2.735  -5.680  19.509  1.00  0.00     0.093 C 
ATOM      9  O   UNL     1       1.917  -3.512  20.039  1.00  0.00    -0.294 OA
ENDBRANCH   1   7
BRANCH   2  10
ATOM     10  O   UNL     1       4.031  -2.558  21.914  1.00  0.00    -0.507 OA
ATOM     11  H   UNL     1       3.614  -2.208  21.062  1.00  0.00     0.293 HD
ENDBRANCH   2  10
BRANCH   4  12
ATOM     12  O   UNL     1       3.945  -5.203  25.925  1.00  0.00    -0.508 OA
ATOM     13  H   UNL     1       3.575  -4.615  26.663  1.00  0.00     0.293 HD
ENDBRANCH   4  12
TORSDOF 3
ENDMDL
MODEL 4
REMARK VINA RESULT:    -4.340      2.648      3.944
REMARK INTER + INTRA:          -5.143
REMARK INTER:                  -4.868
REMARK INTRA:                  -0.275
REMARK UNBOUND:                -0.295
REMARK SMILES CC(=O)c1ccc(O)cc1O
REMARK SMILES IDX 4 1 10 2 9 3 7 4 6 5 5 6 2 7 1 8 3 9 11 10 8 12
REMARK H PARENT 11 11 8 13
REMARK Flexibility Score: inf
ROOT
ATOM      1  C   UNL     1       2.630  -4.791  20.772  1.00  0.00     0.059 A 
ATOM      2  C   UNL     1       1.996  -3.605  20.326  1.00  0.00     0.130 A 
ATOM      3  C   UNL     1       1.623  -3.480  18.982  1.00  0.00     0.093 A 
ATOM      4  C   UNL     1       1.899  -4.500  18.067  1.00  0.00     0.119 A 
ATOM      5  C   UNL     1       2.551  -5.659  18.497  1.00  0.00     0.047 A 
ATOM      6  C   UNL     1       2.914  -5.805  19.837  1.00  0.00     0.019 A 
ENDROOT
BRANCH   1   7
ATOM      7  C   UNL     1       2.971  -5.012  22.199  1.00  0.00     0.163 C 
ATOM      8  C   UNL     1       2.233  -6.019  23.024  1.00  0.00     0.093 C 
ATOM      9  O   UNL     1       3.838  -4.287  22.756  1.00  0.00    -0.294 OA
ENDBRANCH   1   7
BRANCH   2  10
ATOM     10  O   UNL     1       1.749  -2.523  21.174  1.00  0.00    -0.507 OA
ATOM     11  H   UNL     1       2.482  -1.957  21.581  1.00  0.00     0.293 HD
ENDBRANCH   2  10
BRANCH   4  12
ATOM     12  O   UNL     1       1.524  -4.348  16.734  1.00  0.00    -0.508 OA
ATOM     13  H   UNL     1       2.192  -4.460  15.980  1.00  0.00     0.293 HD
ENDBRANCH   4  12
TORSDOF 3
ENDMDL
MODEL 5
REMARK VINA RESULT:    -4.129      1.983      5.105
REMARK INTER + INTRA:          -4.907
REMARK INTER:                  -4.652
REMARK INTRA:                  -0.255
REMARK UNBOUND:                -0.295
REMARK SMILES CC(=O)c1ccc(O)cc1O
REMARK SMILES IDX 4 1 10 2 9 3 7 4 6 5 5 6 2 7 1 8 3 9 11 10 8 12
REMARK H PARENT 11 11 8 13
REMARK Flexibility Score: inf
ROOT
ATOM      1  C   UNL     1       2.397  -4.555  20.407  1.00  0.00     0.059 A 
ATOM      2  C   UNL     1       1.866  -3.425  21.079  1.00  0.00     0.130 A 
ATOM      3  C   UNL     1       2.121  -3.246  22.445  1.00  0.00     0.093 A 
ATOM      4  C   UNL     1       2.864  -4.187  23.161  1.00  0.00     0.119 A 
ATOM      5  C   UNL     1       3.365  -5.317  22.509  1.00  0.00     0.047 A 
ATOM      6  C   UNL     1       3.134  -5.501  21.144  1.00  0.00     0.019 A 
ENDROOT
BRANCH   1   7
ATOM      7  C   UNL     1       2.230  -4.751  18.947  1.00  0.00     0.163 C 
ATOM      8  C   UNL     1       2.601  -6.045  18.292  1.00  0.00     0.093 C 
ATOM      9  O   UNL     1       1.847  -3.792  18.224  1.00  0.00    -0.294 OA
ENDBRANCH   1   7
BRANCH   2  10
ATOM     10  O   UNL     1       1.061  -2.481  20.437  1.00  0.00    -0.507 OA
ATOM     11  H   UNL     1       1.266  -1.491  20.426  1.00  0.00     0.293 HD
ENDBRANCH   2  10
BRANCH   4  12
ATOM     12  O   UNL     1       3.097  -3.989  24.520  1.00  0.00    -0.508 OA
ATOM     13  H   UNL     1       3.333  -4.760  25.135  1.00  0.00     0.293 HD
ENDBRANCH   4  12
TORSDOF 3
ENDMDL
MODEL 6
REMARK VINA RESULT:    -4.105      2.014      3.865
REMARK INTER + INTRA:          -4.880
REMARK INTER:                  -4.829
REMARK INTRA:                  -0.051
REMARK UNBOUND:                -0.295
REMARK SMILES CC(=O)c1ccc(O)cc1O
REMARK SMILES IDX 4 1 10 2 9 3 7 4 6 5 5 6 2 7 1 8 3 9 11 10 8 12
REMARK H PARENT 11 11 8 13
REMARK Flexibility Score: inf
ROOT
ATOM      1  C   UNL     1       3.074  -4.950  23.640  1.00  0.00     0.059 A 
ATOM      2  C   UNL     1       1.721  -4.812  24.039  1.00  0.00     0.130 A 
ATOM      3  C   UNL     1       1.392  -3.948  25.091  1.00  0.00     0.093 A 
ATOM      4  C   UNL     1       2.387  -3.245  25.775  1.00  0.00     0.119 A 
ATOM      5  C   UNL     1       3.725  -3.400  25.404  1.00  0.00     0.047 A 
ATOM      6  C   UNL     1       4.067  -4.245  24.346  1.00  0.00     0.019 A 
ENDROOT
BRANCH   1   7
ATOM      7  C   UNL     1       3.470  -5.784  22.480  1.00  0.00     0.163 C 
ATOM      8  C   UNL     1       3.023  -5.444  21.093  1.00  0.00     0.093 C 
ATOM      9  O   UNL     1       4.125  -6.845  22.665  1.00  0.00    -0.294 OA
ENDBRANCH   1   7
BRANCH   2  10
ATOM     10  O   UNL     1       0.686  -5.534  23.440  1.00  0.00    -0.507 OA
ATOM     11  H   UNL     1       0.739  -5.907  22.502  1.00  0.00     0.293 HD
ENDBRANCH   2  10
BRANCH   4  12
ATOM     12  O   UNL     1       2.033  -2.397  26.823  1.00  0.00    -0.508 OA
ATOM     13  H   UNL     1       1.221  -2.580  27.401  1.00  0.00     0.293 HD
ENDBRANCH   4  12
TORSDOF 3
ENDMDL
MODEL 7
REMARK VINA RESULT:    -4.083      1.900      2.391
REMARK INTER + INTRA:          -4.855
REMARK INTER:                  -4.569
REMARK INTRA:                  -0.286
REMARK UNBOUND:                -0.295
REMARK SMILES CC(=O)c1ccc(O)cc1O
REMARK SMILES IDX 4 1 10 2 9 3 7 4 6 5 5 6 2 7 1 8 3 9 11 10 8 12
REMARK H PARENT 11 11 8 13
REMARK Flexibility Score: inf
ROOT
ATOM      1  C   UNL     1       3.489  -4.324  23.784  1.00  0.00     0.059 A 
ATOM      2  C   UNL     1       3.161  -3.391  22.768  1.00  0.00     0.130 A 
ATOM      3  C   UNL     1       2.904  -3.843  21.467  1.00  0.00     0.093 A 
ATOM      4  C   UNL     1       2.999  -5.200  21.152  1.00  0.00     0.119 A 
ATOM      5  C   UNL     1       3.351  -6.120  22.144  1.00  0.00     0.047 A 
ATOM      6  C   UNL     1       3.594  -5.687  23.448  1.00  0.00     0.019 A 
ENDROOT
BRANCH   1   7
ATOM      7  C   UNL     1       3.689  -3.912  25.194  1.00  0.00     0.163 C 
ATOM      8  C   UNL     1       3.291  -4.806  26.326  1.00  0.00     0.093 C 
ATOM      9  O   UNL     1       4.125  -2.759  25.455  1.00  0.00    -0.294 OA
ENDBRANCH   1   7
BRANCH   2  10
ATOM     10  O   UNL     1       3.112  -2.015  23.002  1.00  0.00    -0.507 OA
ATOM     11  H   UNL     1       3.601  -1.337  22.433  1.00  0.00     0.293 HD
ENDBRANCH   2  10
BRANCH   4  12
ATOM     12  O   UNL     1       2.745  -5.623  19.848  1.00  0.00    -0.508 OA
ATOM     13  H   UNL     1       2.482  -4.968  19.121  1.00  0.00     0.293 HD
ENDBRANCH   4  12
TORSDOF 3
ENDMDL
MODEL 8
REMARK VINA RESULT:    -4.004      1.697      1.707
REMARK INTER + INTRA:          -4.767
REMARK INTER:                  -4.471
REMARK INTRA:                  -0.296
REMARK UNBOUND:                -0.295
REMARK SMILES CC(=O)c1ccc(O)cc1O
REMARK SMILES IDX 4 1 10 2 9 3 7 4 6 5 5 6 2 7 1 8 3 9 11 10 8 12
REMARK H PARENT 11 11 8 13
REMARK Flexibility Score: inf
ROOT
ATOM      1  C   UNL     1       1.988  -3.681  24.256  1.00  0.00     0.059 A 
ATOM      2  C   UNL     1       1.120  -4.490  23.481  1.00  0.00     0.130 A 
ATOM      3  C   UNL     1       1.586  -5.067  22.293  1.00  0.00     0.093 A 
ATOM      4  C   UNL     1       2.887  -4.829  21.845  1.00  0.00     0.119 A 
ATOM      5  C   UNL     1       3.737  -4.008  22.592  1.00  0.00     0.047 A 
ATOM      6  C   UNL     1       3.293  -3.438  23.786  1.00  0.00     0.019 A 
ENDROOT
BRANCH   1   7
ATOM      7  C   UNL     1       1.576  -3.113  25.562  1.00  0.00     0.163 C 
ATOM      8  C   UNL     1       2.526  -3.058  26.717  1.00  0.00     0.093 C 
ATOM      9  O   UNL     1       0.384  -2.742  25.737  1.00  0.00    -0.294 OA
ENDBRANCH   1   7
BRANCH   2  10
ATOM     10  O   UNL     1      -0.211  -4.716  23.838  1.00  0.00    -0.507 OA
ATOM     11  H   UNL     1      -0.672  -5.609  23.727  1.00  0.00     0.293 HD
ENDBRANCH   2  10
BRANCH   4  12
ATOM     12  O   UNL     1       3.323  -5.410  20.656  1.00  0.00    -0.508 OA
ATOM     13  H   UNL     1       3.789  -4.865  19.940  1.00  0.00     0.293 HD
ENDBRANCH   4  12
TORSDOF 3
ENDMDL
