MODEL 1
REMARK VINA RESULT:    -3.852      0.000      0.000
REMARK INTER + INTRA:          -5.978
REMARK INTER:                  -5.429
REMARK INTRA:                  -0.549
REMARK UNBOUND:                -0.549
REMARK SMILES CCCCCCCCC(=O)[O-]
REMARK SMILES IDX 6 1 7 2 8 3 9 4 10 5 11 6 5 7 4 8 3 9 2 10 1 11
REMARK H PARENT
REMARK Flexibility Score: inf
ROOT
ATOM      1  C   UNL     1       8.835  -4.526 -22.400  1.00  0.00     0.000 C 
ENDROOT
BRANCH   1   2
ATOM      2  C   UNL     1       7.375  -5.000 -22.423  1.00  0.00     0.006 C 
BRANCH   2   3
ATOM      3  C   UNL     1       7.145  -6.115 -21.399  1.00  0.00     0.053 C 
BRANCH   3   4
ATOM      4  C   UNL     1       7.062  -7.445 -22.080  1.00  0.00     0.041 C 
ATOM      5  O   UNL     1       7.211  -7.527 -23.328  1.00  0.00    -0.550 OA
ATOM      6  O   UNL     1       6.771  -8.586 -21.345  1.00  0.00    -0.550 OA
ENDBRANCH   3   4
ENDBRANCH   2   3
ENDBRANCH   1   2
BRANCH   1   7
ATOM      7  C   UNL     1       9.253  -3.818 -23.702  1.00  0.00     0.000 C 
BRANCH   7   8
ATOM      8  C   UNL     1       8.515  -4.295 -24.969  1.00  0.00    -0.000 C 
BRANCH   8   9
ATOM      9  C   UNL     1       7.598  -3.246 -25.627  1.00  0.00    -0.000 C 
BRANCH   9  10
ATOM     10  C   UNL     1       6.101  -3.601 -25.619  1.00  0.00    -0.003 C 
ATOM     11  C   UNL     1       5.836  -5.069 -25.950  1.00  0.00     0.004 C 
ENDBRANCH   9  10
ENDBRANCH   8   9
ENDBRANCH   7   8
ENDBRANCH   1   7
TORSDOF 7
ENDMDL
MODEL 2
REMARK VINA RESULT:    -3.790      3.346      5.085
REMARK INTER + INTRA:          -5.891
REMARK INTER:                  -5.221
REMARK INTRA:                  -0.669
REMARK UNBOUND:                -0.549
REMARK SMILES CCCCCCCCC(=O)[O-]
REMARK SMILES IDX 6 1 7 2 8 3 9 4 10 5 11 6 5 7 4 8 3 9 2 10 1 11
REMARK H PARENT
REMARK Flexibility Score: inf
ROOT
ATOM      1  C   UNL     1       8.353  -3.345 -25.343  1.00  0.00     0.000 C 
ENDROOT
BRANCH   1   2
ATOM      2  C   UNL     1       9.760  -3.621 -24.794  1.00  0.00     0.006 C 
BRANCH   2   3
ATOM      3  C   UNL     1      10.337  -4.908 -25.389  1.00  0.00     0.053 C 
BRANCH   3   4
ATOM      4  C   UNL     1      11.736  -4.683 -25.871  1.00  0.00     0.041 C 
ATOM      5  O   UNL     1      12.661  -4.461 -25.047  1.00  0.00    -0.550 OA
ATOM      6  O   UNL     1      12.008  -4.669 -27.233  1.00  0.00    -0.550 OA
ENDBRANCH   3   4
ENDBRANCH   2   3
ENDBRANCH   1   2
BRANCH   1   7
ATOM      7  C   UNL     1       7.238  -3.842 -24.404  1.00  0.00     0.000 C 
BRANCH   7   8
ATOM      8  C   UNL     1       6.873  -5.332 -24.558  1.00  0.00    -0.000 C 
BRANCH   8   9
ATOM      9  C   UNL     1       7.208  -6.218 -23.342  1.00  0.00    -0.000 C 
BRANCH   9  10
ATOM     10  C   UNL     1       7.644  -5.449 -22.083  1.00  0.00    -0.003 C 
ATOM     11  C   UNL     1       9.106  -5.695 -21.712  1.00  0.00     0.004 C 
ENDBRANCH   9  10
ENDBRANCH   8   9
ENDBRANCH   7   8
ENDBRANCH   1   7
TORSDOF 7
ENDMDL
MODEL 3
REMARK VINA RESULT:    -3.741      2.652      3.931
REMARK INTER + INTRA:          -5.822
REMARK INTER:                  -5.259
REMARK INTRA:                  -0.563
REMARK UNBOUND:                -0.549
REMARK SMILES CCCCCCCCC(=O)[O-]
REMARK SMILES IDX 6 1 7 2 8 3 9 4 10 5 11 6 5 7 4 8 3 9 2 10 1 11
REMARK H PARENT
REMARK Flexibility Score: inf
ROOT
ATOM      1  C   UNL     1       8.081  -4.421 -22.672  1.00  0.00     0.000 C 
ENDROOT
BRANCH   1   2
ATOM      2  C   UNL     1       9.614  -4.499 -22.687  1.00  0.00     0.006 C 
BRANCH   2   3
ATOM      3  C   UNL     1      10.209  -3.403 -23.577  1.00  0.00     0.053 C 
BRANCH   3   4
ATOM      4  C   UNL     1      10.590  -3.959 -24.912  1.00  0.00     0.041 C 
ATOM      5  O   UNL     1      10.426  -5.183 -25.158  1.00  0.00    -0.550 OA
ATOM      6  O   UNL     1      11.173  -3.137 -25.868  1.00  0.00    -0.550 OA
ENDBRANCH   3   4
ENDBRANCH   2   3
ENDBRANCH   1   2
BRANCH   1   7
ATOM      7  C   UNL     1       7.413  -5.665 -23.287  1.00  0.00     0.000 C 
BRANCH   7   8
ATOM      8  C   UNL     1       6.915  -5.487 -24.735  1.00  0.00    -0.000 C 
BRANCH   8   9
ATOM      9  C   UNL     1       6.705  -4.027 -25.181  1.00  0.00    -0.000 C 
BRANCH   9  10
ATOM     10  C   UNL     1       5.440  -3.784 -26.022  1.00  0.00    -0.003 C 
ATOM     11  C   UNL     1       4.674  -2.532 -25.597  1.00  0.00     0.004 C 
ENDBRANCH   9  10
ENDBRANCH   8   9
ENDBRANCH   7   8
ENDBRANCH   1   7
TORSDOF 7
ENDMDL
MODEL 4
REMARK VINA RESULT:    -3.732     18.353     19.798
REMARK INTER + INTRA:          -5.809
REMARK INTER:                  -5.370
REMARK INTRA:                  -0.439
REMARK UNBOUND:                -0.549
REMARK SMILES CCCCCCCCC(=O)[O-]
REMARK SMILES IDX 6 1 7 2 8 3 9 4 10 5 11 6 5 7 4 8 3 9 2 10 1 11
REMARK H PARENT
REMARK Flexibility Score: inf
ROOT
ATOM      1  C   UNL     1      21.878   7.550 -17.189  1.00  0.00     0.000 C 
ENDROOT
BRANCH   1   2
ATOM      2  C   UNL     1      20.931   8.231 -16.190  1.00  0.00     0.006 C 
BRANCH   2   3
ATOM      3  C   UNL     1      21.229   7.780 -14.757  1.00  0.00     0.053 C 
BRANCH   3   4
ATOM      4  C   UNL     1      20.102   8.148 -13.845  1.00  0.00     0.041 C 
ATOM      5  O   UNL     1      19.507   9.248 -13.987  1.00  0.00    -0.550 OA
ATOM      6  O   UNL     1      19.741   7.298 -12.807  1.00  0.00    -0.550 OA
ENDBRANCH   3   4
ENDBRANCH   2   3
ENDBRANCH   1   2
BRANCH   1   7
ATOM      7  C   UNL     1      22.041   6.042 -16.924  1.00  0.00     0.000 C 
BRANCH   7   8
ATOM      8  C   UNL     1      21.549   5.124 -18.061  1.00  0.00    -0.000 C 
BRANCH   8   9
ATOM      9  C   UNL     1      22.163   5.409 -19.445  1.00  0.00    -0.000 C 
BRANCH   9  10
ATOM     10  C   UNL     1      21.193   6.028 -20.466  1.00  0.00    -0.003 C 
ATOM     11  C   UNL     1      19.762   6.132 -19.942  1.00  0.00     0.004 C 
ENDBRANCH   9  10
ENDBRANCH   8   9
ENDBRANCH   7   8
ENDBRANCH   1   7
TORSDOF 7
ENDMDL
MODEL 5
REMARK VINA RESULT:    -3.694      1.963      2.851
REMARK INTER + INTRA:          -5.755
REMARK INTER:                  -4.979
REMARK INTRA:                  -0.776
REMARK UNBOUND:                -0.549
REMARK SMILES CCCCCCCCC(=O)[O-]
REMARK SMILES IDX 6 1 7 2 8 3 9 4 10 5 11 6 5 7 4 8 3 9 2 10 1 11
REMARK H PARENT
REMARK Flexibility Score: inf
ROOT
ATOM      1  C   UNL     1       7.642  -4.286 -23.329  1.00  0.00     0.000 C 
ENDROOT
BRANCH   1   2
ATOM      2  C   UNL     1       8.209  -5.151 -22.193  1.00  0.00     0.006 C 
BRANCH   2   3
ATOM      3  C   UNL     1       7.097  -5.949 -21.505  1.00  0.00     0.053 C 
BRANCH   3   4
ATOM      4  C   UNL     1       7.572  -7.326 -21.164  1.00  0.00     0.041 C 
ATOM      5  O   UNL     1       8.737  -7.501 -20.721  1.00  0.00    -0.550 OA
ATOM      6  O   UNL     1       6.746  -8.421 -21.383  1.00  0.00    -0.550 OA
ENDBRANCH   3   4
ENDBRANCH   2   3
ENDBRANCH   1   2
BRANCH   1   7
ATOM      7  C   UNL     1       7.938  -4.866 -24.725  1.00  0.00     0.000 C 
BRANCH   7   8
ATOM      8  C   UNL     1       6.895  -5.875 -25.245  1.00  0.00    -0.000 C 
BRANCH   8   9
ATOM      9  C   UNL     1       7.318  -7.354 -25.167  1.00  0.00    -0.000 C 
BRANCH   9  10
ATOM     10  C   UNL     1       8.810  -7.615 -25.439  1.00  0.00    -0.003 C 
ATOM     11  C   UNL     1       9.555  -8.142 -24.213  1.00  0.00     0.004 C 
ENDBRANCH   9  10
ENDBRANCH   8   9
ENDBRANCH   7   8
ENDBRANCH   1   7
TORSDOF 7
ENDMDL
MODEL 6
REMARK VINA RESULT:    -3.689     11.079     12.810
REMARK INTER + INTRA:          -5.747
REMARK INTER:                  -4.993
REMARK INTRA:                  -0.755
REMARK UNBOUND:                -0.549
REMARK SMILES CCCCCCCCC(=O)[O-]
REMARK SMILES IDX 6 1 7 2 8 3 9 4 10 5 11 6 5 7 4 8 3 9 2 10 1 11
REMARK H PARENT
REMARK Flexibility Score: inf
ROOT
ATOM      1  C   UNL     1      19.212  -5.647 -18.066  1.00  0.00     0.000 C 
ENDROOT
BRANCH   1   2
ATOM      2  C   UNL     1      20.057  -4.378 -17.878  1.00  0.00     0.006 C 
BRANCH   2   3
ATOM      3  C   UNL     1      19.225  -3.121 -18.149  1.00  0.00     0.053 C 
BRANCH   3   4
ATOM      4  C   UNL     1      19.159  -2.841 -19.617  1.00  0.00     0.041 C 
ATOM      5  O   UNL     1      20.057  -2.155 -20.172  1.00  0.00    -0.550 OA
ATOM      6  O   UNL     1      18.080  -3.296 -20.364  1.00  0.00    -0.550 OA
ENDBRANCH   3   4
ENDBRANCH   2   3
ENDBRANCH   1   2
BRANCH   1   7
ATOM      7  C   UNL     1      18.682  -6.213 -16.736  1.00  0.00     0.000 C 
BRANCH   7   8
ATOM      8  C   UNL     1      17.160  -6.071 -16.528  1.00  0.00    -0.000 C 
BRANCH   8   9
ATOM      9  C   UNL     1      16.700  -4.715 -15.961  1.00  0.00    -0.000 C 
BRANCH   9  10
ATOM     10  C   UNL     1      15.868  -3.858 -16.931  1.00  0.00    -0.003 C 
ATOM     11  C   UNL     1      15.560  -4.575 -18.244  1.00  0.00     0.004 C 
ENDBRANCH   9  10
ENDBRANCH   8   9
ENDBRANCH   7   8
ENDBRANCH   1   7
TORSDOF 7
ENDMDL
MODEL 7
REMARK VINA RESULT:    -3.674      3.284      4.492
REMARK INTER + INTRA:          -5.727
REMARK INTER:                  -4.887
REMARK INTRA:                  -0.840
REMARK UNBOUND:                -0.549
REMARK SMILES CCCCCCCCC(=O)[O-]
REMARK SMILES IDX 6 1 7 2 8 3 9 4 10 5 11 6 5 7 4 8 3 9 2 10 1 11
REMARK H PARENT
REMARK Flexibility Score: inf
ROOT
ATOM      1  C   UNL     1      10.034  -6.007 -22.822  1.00  0.00     0.000 C 
ENDROOT
BRANCH   1   2
ATOM      2  C   UNL     1      11.164  -6.027 -23.861  1.00  0.00     0.006 C 
BRANCH   2   3
ATOM      3  C   UNL     1      10.606  -5.869 -25.279  1.00  0.00     0.053 C 
BRANCH   3   4
ATOM      4  C   UNL     1      11.217  -4.682 -25.955  1.00  0.00     0.041 C 
ATOM      5  O   UNL     1      11.053  -3.529 -25.478  1.00  0.00    -0.550 OA
ATOM      6  O   UNL     1      11.925  -4.844 -27.138  1.00  0.00    -0.550 OA
ENDBRANCH   3   4
ENDBRANCH   2   3
ENDBRANCH   1   2
BRANCH   1   7
ATOM      7  C   UNL     1       9.646  -4.581 -22.389  1.00  0.00     0.000 C 
BRANCH   7   8
ATOM      8  C   UNL     1       8.231  -4.136 -22.810  1.00  0.00    -0.000 C 
BRANCH   8   9
ATOM      9  C   UNL     1       7.373  -5.226 -23.481  1.00  0.00    -0.000 C 
BRANCH   9  10
ATOM     10  C   UNL     1       7.056  -4.976 -24.966  1.00  0.00    -0.003 C 
ATOM     11  C   UNL     1       7.470  -3.583 -25.436  1.00  0.00     0.004 C 
ENDBRANCH   9  10
ENDBRANCH   8   9
ENDBRANCH   7   8
ENDBRANCH   1   7
TORSDOF 7
ENDMDL
MODEL 8
REMARK VINA RESULT:    -3.634      1.662      3.551
REMARK INTER + INTRA:          -5.671
REMARK INTER:                  -4.819
REMARK INTRA:                  -0.851
REMARK UNBOUND:                -0.549
REMARK SMILES CCCCCCCCC(=O)[O-]
REMARK SMILES IDX 6 1 7 2 8 3 9 4 10 5 11 6 5 7 4 8 3 9 2 10 1 11
REMARK H PARENT
REMARK Flexibility Score: inf
ROOT
ATOM      1  C   UNL     1       7.411  -4.379 -25.543  1.00  0.00     0.000 C 
ENDROOT
BRANCH   1   2
ATOM      2  C   UNL     1       6.588  -5.547 -24.981  1.00  0.00     0.006 C 
BRANCH   2   3
ATOM      3  C   UNL     1       6.891  -6.844 -25.737  1.00  0.00     0.053 C 
BRANCH   3   4
ATOM      4  C   UNL     1       7.955  -7.626 -25.034  1.00  0.00     0.041 C 
ATOM      5  O   UNL     1       9.167  -7.451 -25.328  1.00  0.00    -0.550 OA
ATOM      6  O   UNL     1       7.606  -8.584 -24.091  1.00  0.00    -0.550 OA
ENDBRANCH   3   4
ENDBRANCH   2   3
ENDBRANCH   1   2
BRANCH   1   7
ATOM      7  C   UNL     1       8.443  -3.836 -24.537  1.00  0.00     0.000 C 
BRANCH   7   8
ATOM      8  C   UNL     1       8.112  -4.105 -23.056  1.00  0.00    -0.000 C 
BRANCH   8   9
ATOM      9  C   UNL     1       9.121  -5.001 -22.311  1.00  0.00    -0.000 C 
BRANCH   9  10
ATOM     10  C   UNL     1       8.503  -6.220 -21.605  1.00  0.00    -0.003 C 
ATOM     11  C   UNL     1       7.015  -6.045 -21.307  1.00  0.00     0.004 C 
ENDBRANCH   9  10
ENDBRANCH   8   9
ENDBRANCH   7   8
ENDBRANCH   1   7
TORSDOF 7
ENDMDL
MODEL 9
REMARK VINA RESULT:    -3.617      2.862      4.369
REMARK INTER + INTRA:          -5.646
REMARK INTER:                  -4.866
REMARK INTRA:                  -0.779
REMARK UNBOUND:                -0.549
REMARK SMILES CCCCCCCCC(=O)[O-]
REMARK SMILES IDX 6 1 7 2 8 3 9 4 10 5 11 6 5 7 4 8 3 9 2 10 1 11
REMARK H PARENT
REMARK Flexibility Score: inf
ROOT
ATOM      1  C   UNL     1       8.862  -5.508 -21.838  1.00  0.00     0.000 C 
ENDROOT
BRANCH   1   2
ATOM      2  C   UNL     1       8.992  -4.199 -22.631  1.00  0.00     0.006 C 
BRANCH   2   3
ATOM      3  C   UNL     1       7.840  -4.047 -23.629  1.00  0.00     0.053 C 
BRANCH   3   4
ATOM      4  C   UNL     1       8.354  -3.592 -24.959  1.00  0.00     0.041 C 
ATOM      5  O   UNL     1       7.584  -3.013 -25.770  1.00  0.00    -0.550 OA
ATOM      6  O   UNL     1       9.669  -3.851 -25.322  1.00  0.00    -0.550 OA
ENDBRANCH   3   4
ENDBRANCH   2   3
ENDBRANCH   1   2
BRANCH   1   7
ATOM      7  C   UNL     1       7.397  -5.893 -21.558  1.00  0.00     0.000 C 
BRANCH   7   8
ATOM      8  C   UNL     1       6.964  -7.260 -22.124  1.00  0.00    -0.000 C 
BRANCH   8   9
ATOM      9  C   UNL     1       8.007  -7.961 -23.016  1.00  0.00    -0.000 C 
BRANCH   9  10
ATOM     10  C   UNL     1       7.716  -7.893 -24.525  1.00  0.00    -0.003 C 
ATOM     11  C   UNL     1       8.875  -7.305 -25.330  1.00  0.00     0.004 C 
ENDBRANCH   9  10
ENDBRANCH   8   9
ENDBRANCH   7   8
ENDBRANCH   1   7
TORSDOF 7
ENDMDL
