MODEL 1
REMARK VINA RESULT:    -4.056      0.000      0.000
REMARK INTER + INTRA:          -6.275
REMARK INTER:                  -5.953
REMARK INTRA:                  -0.322
REMARK UNBOUND:                -0.322
REMARK SMILES O=C([O-])CCCCCCCC(=O)[O-]
REMARK SMILES IDX 7 1 6 2 5 3 4 4 2 5 1 6 3 7 8 8 9 9 10 10 11 11 12 12 13 13
REMARK H PARENT
REMARK Flexibility Score: inf
ROOT
ATOM      1  C   UNL     1     120.189  71.224   0.815  1.00  0.00     0.000 C 
ENDROOT
BRANCH   1   2
ATOM      2  C   UNL     1     120.847  72.536   1.282  1.00  0.00     0.000 C 
BRANCH   2   3
ATOM      3  C   UNL     1     120.928  72.714   2.809  1.00  0.00     0.006 C 
BRANCH   3   4
ATOM      4  C   UNL     1     120.154  71.636   3.579  1.00  0.00     0.053 C 
BRANCH   4   5
ATOM      5  C   UNL     1     120.871  71.279   4.842  1.00  0.00     0.041 C 
ATOM      6  O   UNL     1     122.018  70.761   4.795  1.00  0.00    -0.550 OA
ATOM      7  O   UNL     1     120.253  71.473   6.071  1.00  0.00    -0.550 OA
ENDBRANCH   4   5
ENDBRANCH   3   4
ENDBRANCH   2   3
ENDBRANCH   1   2
BRANCH   1   8
ATOM      8  C   UNL     1     121.089  70.403  -0.121  1.00  0.00     0.000 C 
BRANCH   8   9
ATOM      9  C   UNL     1     120.329  69.199  -0.696  1.00  0.00     0.006 C 
BRANCH   9  10
ATOM     10  C   UNL     1     120.186  68.061   0.322  1.00  0.00     0.053 C 
BRANCH  10  11
ATOM     11  C   UNL     1     120.314  66.717  -0.327  1.00  0.00     0.041 C 
ATOM     12  O   UNL     1     120.453  65.682   0.377  1.00  0.00    -0.550 OA
ATOM     13  O   UNL     1     120.246  66.604  -1.710  1.00  0.00    -0.550 OA
ENDBRANCH  10  11
ENDBRANCH   9  10
ENDBRANCH   8   9
ENDBRANCH   1   8
TORSDOF 8
ENDMDL
MODEL 2
REMARK VINA RESULT:    -3.694      1.443      6.566
REMARK INTER + INTRA:          -5.744
REMARK INTER:                  -5.507
REMARK INTRA:                  -0.237
REMARK UNBOUND:                -0.322
REMARK SMILES O=C([O-])CCCCCCCC(=O)[O-]
REMARK SMILES IDX 7 1 6 2 5 3 4 4 2 5 1 6 3 7 8 8 9 9 10 10 11 11 12 12 13 13
REMARK H PARENT
REMARK Flexibility Score: inf
ROOT
ATOM      1  C   UNL     1     120.156  71.587   2.435  1.00  0.00     0.000 C 
ENDROOT
BRANCH   1   2
ATOM      2  C   UNL     1     120.919  71.406   1.110  1.00  0.00     0.000 C 
BRANCH   2   3
ATOM      3  C   UNL     1     120.249  70.461   0.097  1.00  0.00     0.006 C 
BRANCH   3   4
ATOM      4  C   UNL     1     121.193  69.366  -0.415  1.00  0.00     0.053 C 
BRANCH   4   5
ATOM      5  C   UNL     1     120.623  68.012  -0.137  1.00  0.00     0.041 C 
ATOM      6  O   UNL     1     120.235  67.714   1.024  1.00  0.00    -0.550 OA
ATOM      7  O   UNL     1     120.564  67.060  -1.148  1.00  0.00    -0.550 OA
ENDBRANCH   4   5
ENDBRANCH   3   4
ENDBRANCH   2   3
ENDBRANCH   1   2
BRANCH   1   8
ATOM      8  C   UNL     1     120.611  72.822   3.225  1.00  0.00     0.000 C 
BRANCH   8   9
ATOM      9  C   UNL     1     119.888  72.907   4.577  1.00  0.00     0.006 C 
BRANCH   9  10
ATOM     10  C   UNL     1     120.109  71.653   5.435  1.00  0.00     0.053 C 
BRANCH  10  11
ATOM     11  C   UNL     1     120.294  71.997   6.881  1.00  0.00     0.041 C 
ATOM     12  O   UNL     1     120.561  71.095   7.719  1.00  0.00    -0.550 OA
ATOM     13  O   UNL     1     120.204  73.319   7.299  1.00  0.00    -0.550 OA
ENDBRANCH  10  11
ENDBRANCH   9  10
ENDBRANCH   8   9
ENDBRANCH   1   8
TORSDOF 8
ENDMDL
MODEL 3
REMARK VINA RESULT:    -3.659      1.619      2.302
REMARK INTER + INTRA:          -5.693
REMARK INTER:                  -5.462
REMARK INTRA:                  -0.231
REMARK UNBOUND:                -0.322
REMARK SMILES O=C([O-])CCCCCCCC(=O)[O-]
REMARK SMILES IDX 7 1 6 2 5 3 4 4 2 5 1 6 3 7 8 8 9 9 10 10 11 11 12 12 13 13
REMARK H PARENT
REMARK Flexibility Score: inf
ROOT
ATOM      1  C   UNL     1     120.085  71.532   2.333  1.00  0.00     0.000 C 
ENDROOT
BRANCH   1   2
ATOM      2  C   UNL     1     120.867  72.114   3.525  1.00  0.00     0.000 C 
BRANCH   2   3
ATOM      3  C   UNL     1     120.062  72.241   4.830  1.00  0.00     0.006 C 
BRANCH   3   4
ATOM      4  C   UNL     1     120.559  71.298   5.934  1.00  0.00     0.053 C 
BRANCH   4   5
ATOM      5  C   UNL     1     120.385  71.929   7.279  1.00  0.00     0.041 C 
ATOM      6  O   UNL     1     120.317  71.211   8.311  1.00  0.00    -0.550 OA
ATOM      7  O   UNL     1     120.250  73.307   7.388  1.00  0.00    -0.550 OA
ENDBRANCH   4   5
ENDBRANCH   3   4
ENDBRANCH   2   3
ENDBRANCH   1   2
BRANCH   1   8
ATOM      8  C   UNL     1     120.940  71.393   1.065  1.00  0.00     0.000 C 
BRANCH   8   9
ATOM      9  C   UNL     1     120.245  70.499   0.028  1.00  0.00     0.006 C 
BRANCH   9  10
ATOM     10  C   UNL     1     121.166  69.387  -0.492  1.00  0.00     0.053 C 
BRANCH  10  11
ATOM     11  C   UNL     1     120.664  68.028  -0.110  1.00  0.00     0.041 C 
ATOM     12  O   UNL     1     120.765  67.064  -0.915  1.00  0.00    -0.550 OA
ATOM     13  O   UNL     1     120.114  67.818   1.148  1.00  0.00    -0.550 OA
ENDBRANCH  10  11
ENDBRANCH   9  10
ENDBRANCH   8   9
ENDBRANCH   1   8
TORSDOF 8
ENDMDL
MODEL 4
REMARK VINA RESULT:    -3.604      1.971      6.993
REMARK INTER + INTRA:          -5.612
REMARK INTER:                  -5.401
REMARK INTRA:                  -0.211
REMARK UNBOUND:                -0.322
REMARK SMILES O=C([O-])CCCCCCCC(=O)[O-]
REMARK SMILES IDX 7 1 6 2 5 3 4 4 2 5 1 6 3 7 8 8 9 9 10 10 11 11 12 12 13 13
REMARK H PARENT
REMARK Flexibility Score: inf
ROOT
ATOM      1  C   UNL     1     121.235  72.169   3.491  1.00  0.00     0.000 C 
ENDROOT
BRANCH   1   2
ATOM      2  C   UNL     1     120.758  72.198   2.027  1.00  0.00     0.000 C 
BRANCH   2   3
ATOM      3  C   UNL     1     120.291  70.842   1.468  1.00  0.00     0.006 C 
BRANCH   3   4
ATOM      4  C   UNL     1     120.973  70.474   0.144  1.00  0.00     0.053 C 
BRANCH   4   5
ATOM      5  C   UNL     1     120.603  69.085  -0.267  1.00  0.00     0.041 C 
ATOM      6  O   UNL     1     120.607  68.151   0.579  1.00  0.00    -0.550 OA
ATOM      7  O   UNL     1     120.300  68.809  -1.595  1.00  0.00    -0.550 OA
ENDBRANCH   4   5
ENDBRANCH   3   4
ENDBRANCH   2   3
ENDBRANCH   1   2
BRANCH   1   8
ATOM      8  C   UNL     1     120.376  71.259   4.382  1.00  0.00     0.000 C 
BRANCH   8   9
ATOM      9  C   UNL     1     120.030  71.956   5.706  1.00  0.00     0.006 C 
BRANCH   9  10
ATOM     10  C   UNL     1     120.717  71.295   6.908  1.00  0.00     0.053 C 
BRANCH  10  11
ATOM     11  C   UNL     1     120.577  72.122   8.150  1.00  0.00     0.041 C 
ATOM     12  O   UNL     1     120.260  71.579   9.242  1.00  0.00    -0.550 OA
ATOM     13  O   UNL     1     120.830  73.487   8.108  1.00  0.00    -0.550 OA
ENDBRANCH  10  11
ENDBRANCH   9  10
ENDBRANCH   8   9
ENDBRANCH   1   8
TORSDOF 8
ENDMDL
MODEL 5
REMARK VINA RESULT:    -3.594      1.001      5.910
REMARK INTER + INTRA:          -5.598
REMARK INTER:                  -5.209
REMARK INTRA:                  -0.389
REMARK UNBOUND:                -0.322
REMARK SMILES O=C([O-])CCCCCCCC(=O)[O-]
REMARK SMILES IDX 7 1 6 2 5 3 4 4 2 5 1 6 3 7 8 8 9 9 10 10 11 11 12 12 13 13
REMARK H PARENT
REMARK Flexibility Score: inf
ROOT
ATOM      1  C   UNL     1     120.939  71.441   0.693  1.00  0.00     0.000 C 
ENDROOT
BRANCH   1   2
ATOM      2  C   UNL     1     120.555  69.950   0.656  1.00  0.00     0.000 C 
BRANCH   2   3
ATOM      3  C   UNL     1     120.689  69.278  -0.721  1.00  0.00     0.006 C 
BRANCH   3   4
ATOM      4  C   UNL     1     121.418  67.929  -0.661  1.00  0.00     0.053 C 
BRANCH   4   5
ATOM      5  C   UNL     1     120.438  66.813  -0.484  1.00  0.00     0.041 C 
ATOM      6  O   UNL     1     119.875  66.299  -1.487  1.00  0.00    -0.550 OA
ATOM      7  O   UNL     1     120.108  66.372   0.792  1.00  0.00    -0.550 OA
ENDBRANCH   4   5
ENDBRANCH   3   4
ENDBRANCH   2   3
ENDBRANCH   1   2
BRANCH   1   8
ATOM      8  C   UNL     1     119.884  72.315   1.387  1.00  0.00     0.000 C 
BRANCH   8   9
ATOM      9  C   UNL     1     120.517  73.157   2.504  1.00  0.00     0.006 C 
BRANCH   9  10
ATOM     10  C   UNL     1     121.383  72.314   3.450  1.00  0.00     0.053 C 
BRANCH  10  11
ATOM     11  C   UNL     1     120.547  71.531   4.416  1.00  0.00     0.041 C 
ATOM     12  O   UNL     1     120.200  72.042   5.514  1.00  0.00    -0.550 OA
ATOM     13  O   UNL     1     120.121  70.250   4.089  1.00  0.00    -0.550 OA
ENDBRANCH  10  11
ENDBRANCH   9  10
ENDBRANCH   8   9
ENDBRANCH   1   8
TORSDOF 8
ENDMDL
MODEL 6
REMARK VINA RESULT:    -3.529      2.384      3.249
REMARK INTER + INTRA:          -5.501
REMARK INTER:                  -5.299
REMARK INTRA:                  -0.202
REMARK UNBOUND:                -0.322
REMARK SMILES O=C([O-])CCCCCCCC(=O)[O-]
REMARK SMILES IDX 7 1 6 2 5 3 4 4 2 5 1 6 3 7 8 8 9 9 10 10 11 11 12 12 13 13
REMARK H PARENT
REMARK Flexibility Score: inf
ROOT
ATOM      1  C   UNL     1     120.995  69.842  -0.517  1.00  0.00     0.000 C 
ENDROOT
BRANCH   1   2
ATOM      2  C   UNL     1     120.190  70.505   0.616  1.00  0.00     0.000 C 
BRANCH   2   3
ATOM      3  C   UNL     1     120.874  71.714   1.279  1.00  0.00     0.006 C 
BRANCH   3   4
ATOM      4  C   UNL     1     119.971  72.434   2.289  1.00  0.00     0.053 C 
BRANCH   4   5
ATOM      5  C   UNL     1     120.258  71.960   3.678  1.00  0.00     0.041 C 
ATOM      6  O   UNL     1     120.264  72.775   4.637  1.00  0.00    -0.550 OA
ATOM      7  O   UNL     1     120.568  70.625   3.907  1.00  0.00    -0.550 OA
ENDBRANCH   4   5
ENDBRANCH   3   4
ENDBRANCH   2   3
ENDBRANCH   1   2
BRANCH   1   8
ATOM      8  C   UNL     1     120.548  68.402  -0.806  1.00  0.00     0.000 C 
BRANCH   8   9
ATOM      9  C   UNL     1     119.945  68.286  -2.213  1.00  0.00     0.006 C 
BRANCH   9  10
ATOM     10  C   UNL     1     120.103  69.580  -3.022  1.00  0.00     0.053 C 
BRANCH  10  11
ATOM     11  C   UNL     1     120.269  69.303  -4.485  1.00  0.00     0.041 C 
ATOM     12  O   UNL     1     120.058  68.147  -4.940  1.00  0.00    -0.550 OA
ATOM     13  O   UNL     1     120.624  70.329  -5.352  1.00  0.00    -0.550 OA
ENDBRANCH  10  11
ENDBRANCH   9  10
ENDBRANCH   8   9
ENDBRANCH   1   8
TORSDOF 8
ENDMDL
MODEL 7
REMARK VINA RESULT:    -3.525      2.354      3.618
REMARK INTER + INTRA:          -5.496
REMARK INTER:                  -5.310
REMARK INTRA:                  -0.186
REMARK UNBOUND:                -0.322
REMARK SMILES O=C([O-])CCCCCCCC(=O)[O-]
REMARK SMILES IDX 7 1 6 2 5 3 4 4 2 5 1 6 3 7 8 8 9 9 10 10 11 11 12 12 13 13
REMARK H PARENT
REMARK Flexibility Score: inf
ROOT
ATOM      1  C   UNL     1     121.110  71.727   3.756  1.00  0.00     0.000 C 
ENDROOT
BRANCH   1   2
ATOM      2  C   UNL     1     119.899  71.572   4.695  1.00  0.00     0.000 C 
BRANCH   2   3
ATOM      3  C   UNL     1     120.242  71.536   6.196  1.00  0.00     0.006 C 
BRANCH   3   4
ATOM      4  C   UNL     1     120.023  72.886   6.892  1.00  0.00     0.053 C 
BRANCH   4   5
ATOM      5  C   UNL     1     120.442  72.809   8.325  1.00  0.00     0.041 C 
ATOM      6  O   UNL     1     120.728  73.860   8.959  1.00  0.00    -0.550 OA
ATOM      7  O   UNL     1     120.566  71.574   8.949  1.00  0.00    -0.550 OA
ENDBRANCH   4   5
ENDBRANCH   3   4
ENDBRANCH   2   3
ENDBRANCH   1   2
BRANCH   1   8
ATOM      8  C   UNL     1     120.849  72.701   2.598  1.00  0.00     0.000 C 
BRANCH   8   9
ATOM      9  C   UNL     1     120.807  71.959   1.254  1.00  0.00     0.006 C 
BRANCH   9  10
ATOM     10  C   UNL     1     120.140  70.582   1.371  1.00  0.00     0.053 C 
BRANCH  10  11
ATOM     11  C   UNL     1     120.718  69.602   0.395  1.00  0.00     0.041 C 
ATOM     12  O   UNL     1     121.399  70.007  -0.584  1.00  0.00    -0.550 OA
ATOM     13  O   UNL     1     120.532  68.239   0.587  1.00  0.00    -0.550 OA
ENDBRANCH  10  11
ENDBRANCH   9  10
ENDBRANCH   8   9
ENDBRANCH   1   8
TORSDOF 8
ENDMDL
MODEL 8
REMARK VINA RESULT:    -3.412      3.815      4.782
REMARK INTER + INTRA:          -5.329
REMARK INTER:                  -5.127
REMARK INTRA:                  -0.202
REMARK UNBOUND:                -0.322
REMARK SMILES O=C([O-])CCCCCCCC(=O)[O-]
REMARK SMILES IDX 7 1 6 2 5 3 4 4 2 5 1 6 3 7 8 8 9 9 10 10 11 11 12 12 13 13
REMARK H PARENT
REMARK Flexibility Score: inf
ROOT
ATOM      1  C   UNL     1     120.618  69.471  -2.785  1.00  0.00     0.000 C 
ENDROOT
BRANCH   1   2
ATOM      2  C   UNL     1     119.925  69.708  -1.430  1.00  0.00     0.000 C 
BRANCH   2   3
ATOM      3  C   UNL     1     120.877  70.005  -0.257  1.00  0.00     0.006 C 
BRANCH   3   4
ATOM      4  C   UNL     1     120.140  70.443   1.015  1.00  0.00     0.053 C 
BRANCH   4   5
ATOM      5  C   UNL     1     120.852  71.587   1.664  1.00  0.00     0.041 C 
ATOM      6  O   UNL     1     121.456  71.420   2.756  1.00  0.00    -0.550 OA
ATOM      7  O   UNL     1     120.808  72.851   1.088  1.00  0.00    -0.550 OA
ENDBRANCH   4   5
ENDBRANCH   3   4
ENDBRANCH   2   3
ENDBRANCH   1   2
BRANCH   1   8
ATOM      8  C   UNL     1     119.876  70.125  -3.960  1.00  0.00     0.000 C 
BRANCH   8   9
ATOM      9  C   UNL     1     120.331  69.527  -5.299  1.00  0.00     0.006 C 
BRANCH   9  10
ATOM     10  C   UNL     1     120.416  67.996  -5.254  1.00  0.00     0.053 C 
BRANCH  10  11
ATOM     11  C   UNL     1     120.890  67.429  -6.557  1.00  0.00     0.041 C 
ATOM     12  O   UNL     1     120.845  66.187  -6.763  1.00  0.00    -0.550 OA
ATOM     13  O   UNL     1     121.351  68.275  -7.557  1.00  0.00    -0.550 OA
ENDBRANCH  10  11
ENDBRANCH   9  10
ENDBRANCH   8   9
ENDBRANCH   1   8
TORSDOF 8
ENDMDL
MODEL 9
REMARK VINA RESULT:    -3.324      4.985      6.601
REMARK INTER + INTRA:          -5.201
REMARK INTER:                  -4.905
REMARK INTRA:                  -0.295
REMARK UNBOUND:                -0.322
REMARK SMILES O=C([O-])CCCCCCCC(=O)[O-]
REMARK SMILES IDX 7 1 6 2 5 3 4 4 2 5 1 6 3 7 8 8 9 9 10 10 11 11 12 12 13 13
REMARK H PARENT
REMARK Flexibility Score: inf
ROOT
ATOM      1  C   UNL     1     120.724  69.763  -5.146  1.00  0.00     0.000 C 
ENDROOT
BRANCH   1   2
ATOM      2  C   UNL     1     119.875  70.041  -3.891  1.00  0.00     0.000 C 
BRANCH   2   3
ATOM      3  C   UNL     1     120.064  69.033  -2.743  1.00  0.00     0.006 C 
BRANCH   3   4
ATOM      4  C   UNL     1     119.911  69.671  -1.356  1.00  0.00     0.053 C 
BRANCH   4   5
ATOM      5  C   UNL     1     120.705  68.912  -0.341  1.00  0.00     0.041 C 
ATOM      6  O   UNL     1     120.316  67.781   0.051  1.00  0.00    -0.550 OA
ATOM      7  O   UNL     1     121.850  69.475   0.209  1.00  0.00    -0.550 OA
ENDBRANCH   4   5
ENDBRANCH   3   4
ENDBRANCH   2   3
ENDBRANCH   1   2
BRANCH   1   8
ATOM      8  C   UNL     1     119.948  69.976  -6.454  1.00  0.00     0.000 C 
BRANCH   8   9
ATOM      9  C   UNL     1     120.028  68.731  -7.349  1.00  0.00     0.006 C 
BRANCH   9  10
ATOM     10  C   UNL     1     120.973  67.665  -6.780  1.00  0.00     0.053 C 
BRANCH  10  11
ATOM     11  C   UNL     1     121.286  66.605  -7.792  1.00  0.00     0.041 C 
ATOM     12  O   UNL     1     120.989  65.402  -7.563  1.00  0.00    -0.550 OA
ATOM     13  O   UNL     1     121.874  66.951  -9.002  1.00  0.00    -0.550 OA
ENDBRANCH  10  11
ENDBRANCH   9  10
ENDBRANCH   8   9
ENDBRANCH   1   8
TORSDOF 8
ENDMDL
