MODEL 1
REMARK VINA RESULT:    -0.601      0.000      0.000
REMARK INTER + INTRA:          -3.365
REMARK INTER:                  -1.585
REMARK INTRA:                  -1.780
REMARK UNBOUND:                -1.780
REMARK SMILES CCCCCCCCCCCCCCCCCCCCCCCCCCCCCC(=O)[O-]
REMARK SMILES IDX 16 1 17 2 18 3 19 4 20 5 21 6 22 7 23 8 24 9 25 10 26 11
REMARK SMILES IDX 27 12 28 13 29 14 30 15 31 16 32 17 15 18 14 19 13 20 12 21
REMARK SMILES IDX 11 22 10 23 9 24 8 25 7 26 6 27 5 28 4 29 3 30 2 31 1 32
REMARK H PARENT
REMARK Flexibility Score: inf
ROOT
ATOM      1  C   UNL     1      25.660  64.798  15.264  1.00  0.00     0.000 C 
ENDROOT
BRANCH   1   2
ATOM      2  C   UNL     1      26.520  65.067  16.518  1.00  0.00     0.000 C 
BRANCH   2   3
ATOM      3  C   UNL     1      27.992  65.357  16.172  1.00  0.00     0.000 C 
BRANCH   3   4
ATOM      4  C   UNL     1      28.926  65.178  17.387  1.00  0.00     0.000 C 
BRANCH   4   5
ATOM      5  C   UNL     1      30.321  64.643  17.020  1.00  0.00     0.000 C 
BRANCH   5   6
ATOM      6  C   UNL     1      31.429  65.198  17.924  1.00  0.00     0.000 C 
BRANCH   6   7
ATOM      7  C   UNL     1      30.848  66.124  19.002  1.00  0.00     0.000 C 
BRANCH   7   8
ATOM      8  C   UNL     1      31.345  65.782  20.418  1.00  0.00     0.000 C 
BRANCH   8   9
ATOM      9  C   UNL     1      30.261  65.793  21.514  1.00  0.00     0.000 C 
BRANCH   9  10
ATOM     10  C   UNL     1      30.749  65.414  22.923  1.00  0.00     0.000 C 
BRANCH  10  11
ATOM     11  C   UNL     1      32.261  65.635  23.112  1.00  0.00     0.000 C 
BRANCH  11  12
ATOM     12  C   UNL     1      32.971  64.379  23.664  1.00  0.00     0.000 C 
BRANCH  12  13
ATOM     13  C   UNL     1      32.238  63.064  23.351  1.00  0.00     0.006 C 
BRANCH  13  14
ATOM     14  C   UNL     1      33.121  62.045  22.623  1.00  0.00     0.053 C 
BRANCH  14  15
ATOM     15  C   UNL     1      32.624  61.823  21.229  1.00  0.00     0.041 C 
ATOM     16  O   UNL     1      32.928  62.633  20.314  1.00  0.00    -0.550 OA
ATOM     17  O   UNL     1      31.879  60.690  20.928  1.00  0.00    -0.550 OA
ENDBRANCH  14  15
ENDBRANCH  13  14
ENDBRANCH  12  13
ENDBRANCH  11  12
ENDBRANCH  10  11
ENDBRANCH   9  10
ENDBRANCH   8   9
ENDBRANCH   7   8
ENDBRANCH   6   7
ENDBRANCH   5   6
ENDBRANCH   4   5
ENDBRANCH   3   4
ENDBRANCH   2   3
ENDBRANCH   1   2
BRANCH   1  18
ATOM     18  C   UNL     1      24.175  64.530  15.573  1.00  0.00     0.000 C 
BRANCH  18  19
ATOM     19  C   UNL     1      23.496  65.575  16.478  1.00  0.00     0.000 C 
BRANCH  19  20
ATOM     20  C   UNL     1      21.990  65.775  16.225  1.00  0.00     0.000 C 
BRANCH  20  21
ATOM     21  C   UNL     1      21.607  65.641  14.743  1.00  0.00     0.000 C 
BRANCH  21  22
ATOM     22  C   UNL     1      20.166  66.109  14.508  1.00  0.00     0.000 C 
BRANCH  22  23
ATOM     23  C   UNL     1      19.319  65.960  15.779  1.00  0.00     0.000 C 
BRANCH  23  24
ATOM     24  C   UNL     1      17.940  65.372  15.448  1.00  0.00    -0.000 C 
BRANCH  24  25
ATOM     25  C   UNL     1      17.419  64.422  16.539  1.00  0.00    -0.000 C 
BRANCH  25  26
ATOM     26  C   UNL     1      16.790  65.175  17.726  1.00  0.00    -0.000 C 
BRANCH  26  27
ATOM     27  C   UNL     1      15.268  65.336  17.579  1.00  0.00    -0.000 C 
BRANCH  27  28
ATOM     28  C   UNL     1      14.860  65.878  16.197  1.00  0.00    -0.000 C 
BRANCH  28  29
ATOM     29  C   UNL     1      13.403  65.548  15.839  1.00  0.00    -0.000 C 
BRANCH  29  30
ATOM     30  C   UNL     1      13.190  65.382  14.324  1.00  0.00    -0.000 C 
BRANCH  30  31
ATOM     31  C   UNL     1      14.231  64.453  13.681  1.00  0.00    -0.003 C 
ATOM     32  C   UNL     1      15.090  65.162  12.635  1.00  0.00     0.004 C 
ENDBRANCH  30  31
ENDBRANCH  29  30
ENDBRANCH  28  29
ENDBRANCH  27  28
ENDBRANCH  26  27
ENDBRANCH  25  26
ENDBRANCH  24  25
ENDBRANCH  23  24
ENDBRANCH  22  23
ENDBRANCH  21  22
ENDBRANCH  20  21
ENDBRANCH  19  20
ENDBRANCH  18  19
ENDBRANCH   1  18
TORSDOF 28
ENDMDL
MODEL 2
REMARK VINA RESULT:    -0.388      5.128     15.332
REMARK INTER + INTRA:          -2.802
REMARK INTER:                  -1.238
REMARK INTRA:                  -1.564
REMARK UNBOUND:                -1.780
REMARK SMILES CCCCCCCCCCCCCCCCCCCCCCCCCCCCCC(=O)[O-]
REMARK SMILES IDX 16 1 17 2 18 3 19 4 20 5 21 6 22 7 23 8 24 9 25 10 26 11
REMARK SMILES IDX 27 12 28 13 29 14 30 15 31 16 32 17 15 18 14 19 13 20 12 21
REMARK SMILES IDX 11 22 10 23 9 24 8 25 7 26 6 27 5 28 4 29 3 30 2 31 1 32
REMARK H PARENT
REMARK Flexibility Score: inf
ROOT
ATOM      1  C   UNL     1      24.023  64.332  15.558  1.00  0.00     0.000 C 
ENDROOT
BRANCH   1   2
ATOM      2  C   UNL     1      22.954  65.214  14.878  1.00  0.00     0.000 C 
BRANCH   2   3
ATOM      3  C   UNL     1      21.633  65.254  15.667  1.00  0.00     0.000 C 
BRANCH   3   4
ATOM      4  C   UNL     1      20.562  66.125  14.975  1.00  0.00     0.000 C 
BRANCH   4   5
ATOM      5  C   UNL     1      19.305  65.343  14.560  1.00  0.00     0.000 C 
BRANCH   5   6
ATOM      6  C   UNL     1      18.110  65.602  15.486  1.00  0.00     0.000 C 
BRANCH   6   7
ATOM      7  C   UNL     1      18.360  65.017  16.884  1.00  0.00     0.000 C 
BRANCH   7   8
ATOM      8  C   UNL     1      17.259  64.038  17.329  1.00  0.00     0.000 C 
BRANCH   8   9
ATOM      9  C   UNL     1      16.063  64.684  18.058  1.00  0.00     0.000 C 
BRANCH   9  10
ATOM     10  C   UNL     1      15.184  65.601  17.190  1.00  0.00     0.000 C 
BRANCH  10  11
ATOM     11  C   UNL     1      13.751  65.068  17.017  1.00  0.00     0.000 C 
BRANCH  11  12
ATOM     12  C   UNL     1      13.093  65.573  15.714  1.00  0.00     0.000 C 
BRANCH  12  13
ATOM     13  C   UNL     1      13.532  64.803  14.457  1.00  0.00     0.006 C 
BRANCH  13  14
ATOM     14  C   UNL     1      14.710  65.463  13.733  1.00  0.00     0.053 C 
BRANCH  14  15
ATOM     15  C   UNL     1      14.662  65.158  12.268  1.00  0.00     0.041 C 
ATOM     16  O   UNL     1      15.465  65.722  11.479  1.00  0.00    -0.550 OA
ATOM     17  O   UNL     1      13.773  64.207  11.784  1.00  0.00    -0.550 OA
ENDBRANCH  14  15
ENDBRANCH  13  14
ENDBRANCH  12  13
ENDBRANCH  11  12
ENDBRANCH  10  11
ENDBRANCH   9  10
ENDBRANCH   8   9
ENDBRANCH   7   8
ENDBRANCH   6   7
ENDBRANCH   5   6
ENDBRANCH   4   5
ENDBRANCH   3   4
ENDBRANCH   2   3
ENDBRANCH   1   2
BRANCH   1  18
ATOM     18  C   UNL     1      25.300  65.096  15.956  1.00  0.00     0.000 C 
BRANCH  18  19
ATOM     19  C   UNL     1      26.550  64.219  16.160  1.00  0.00     0.000 C 
BRANCH  19  20
ATOM     20  C   UNL     1      27.891  64.975  16.105  1.00  0.00     0.000 C 
BRANCH  20  21
ATOM     21  C   UNL     1      28.041  66.014  17.227  1.00  0.00     0.000 C 
BRANCH  21  22
ATOM     22  C   UNL     1      29.491  66.076  17.721  1.00  0.00     0.000 C 
BRANCH  22  23
ATOM     23  C   UNL     1      30.056  64.670  17.965  1.00  0.00     0.000 C 
BRANCH  23  24
ATOM     24  C   UNL     1      31.566  64.729  18.239  1.00  0.00    -0.000 C 
BRANCH  24  25
ATOM     25  C   UNL     1      32.039  66.125  18.674  1.00  0.00    -0.000 C 
BRANCH  25  26
ATOM     26  C   UNL     1      32.749  66.108  20.040  1.00  0.00    -0.000 C 
BRANCH  26  27
ATOM     27  C   UNL     1      32.047  65.192  21.056  1.00  0.00    -0.000 C 
BRANCH  27  28
ATOM     28  C   UNL     1      33.027  64.569  22.067  1.00  0.00    -0.000 C 
BRANCH  28  29
ATOM     29  C   UNL     1      33.101  63.039  21.951  1.00  0.00    -0.000 C 
BRANCH  29  30
ATOM     30  C   UNL     1      32.509  62.518  20.629  1.00  0.00    -0.000 C 
BRANCH  30  31
ATOM     31  C   UNL     1      32.118  61.034  20.704  1.00  0.00    -0.003 C 
ATOM     32  C   UNL     1      32.957  60.155  19.777  1.00  0.00     0.004 C 
ENDBRANCH  30  31
ENDBRANCH  29  30
ENDBRANCH  28  29
ENDBRANCH  27  28
ENDBRANCH  26  27
ENDBRANCH  25  26
ENDBRANCH  24  25
ENDBRANCH  23  24
ENDBRANCH  22  23
ENDBRANCH  21  22
ENDBRANCH  20  21
ENDBRANCH  19  20
ENDBRANCH  18  19
ENDBRANCH   1  18
TORSDOF 28
ENDMDL
MODEL 3
REMARK VINA RESULT:    -0.098      5.534     15.733
REMARK INTER + INTRA:          -2.038
REMARK INTER:                  -0.414
REMARK INTRA:                  -1.624
REMARK UNBOUND:                -1.780
REMARK SMILES CCCCCCCCCCCCCCCCCCCCCCCCCCCCCC(=O)[O-]
REMARK SMILES IDX 16 1 17 2 18 3 19 4 20 5 21 6 22 7 23 8 24 9 25 10 26 11
REMARK SMILES IDX 27 12 28 13 29 14 30 15 31 16 32 17 15 18 14 19 13 20 12 21
REMARK SMILES IDX 11 22 10 23 9 24 8 25 7 26 6 27 5 28 4 29 3 30 2 31 1 32
REMARK H PARENT
REMARK Flexibility Score: inf
ROOT
ATOM      1  C   UNL     1      22.737  64.456  16.496  1.00  0.00     0.000 C 
ENDROOT
BRANCH   1   2
ATOM      2  C   UNL     1      21.384  65.148  16.217  1.00  0.00     0.000 C 
BRANCH   2   3
ATOM      3  C   UNL     1      20.341  64.867  17.314  1.00  0.00     0.000 C 
BRANCH   3   4
ATOM      4  C   UNL     1      18.951  64.537  16.731  1.00  0.00     0.000 C 
BRANCH   4   5
ATOM      5  C   UNL     1      18.084  65.779  16.462  1.00  0.00     0.000 C 
BRANCH   5   6
ATOM      6  C   UNL     1      16.649  65.425  16.048  1.00  0.00     0.000 C 
BRANCH   6   7
ATOM      7  C   UNL     1      15.880  64.790  17.215  1.00  0.00     0.000 C 
BRANCH   7   8
ATOM      8  C   UNL     1      14.416  65.259  17.293  1.00  0.00     0.000 C 
BRANCH   8   9
ATOM      9  C   UNL     1      13.398  64.349  16.576  1.00  0.00     0.000 C 
BRANCH   9  10
ATOM     10  C   UNL     1      12.881  64.879  15.227  1.00  0.00     0.000 C 
BRANCH  10  11
ATOM     11  C   UNL     1      13.646  66.124  14.741  1.00  0.00     0.000 C 
BRANCH  11  12
ATOM     12  C   UNL     1      13.930  66.079  13.223  1.00  0.00     0.000 C 
BRANCH  12  13
ATOM     13  C   UNL     1      14.358  64.693  12.713  1.00  0.00     0.006 C 
BRANCH  13  14
ATOM     14  C   UNL     1      13.609  64.264  11.447  1.00  0.00     0.053 C 
BRANCH  14  15
ATOM     15  C   UNL     1      13.957  65.163  10.302  1.00  0.00     0.041 C 
ATOM     16  O   UNL     1      13.059  65.552   9.510  1.00  0.00    -0.550 OA
ATOM     17  O   UNL     1      15.259  65.620  10.146  1.00  0.00    -0.550 OA
ENDBRANCH  14  15
ENDBRANCH  13  14
ENDBRANCH  12  13
ENDBRANCH  11  12
ENDBRANCH  10  11
ENDBRANCH   9  10
ENDBRANCH   8   9
ENDBRANCH   7   8
ENDBRANCH   6   7
ENDBRANCH   5   6
ENDBRANCH   4   5
ENDBRANCH   3   4
ENDBRANCH   2   3
ENDBRANCH   1   2
BRANCH   1  18
ATOM     18  C   UNL     1      23.851  64.846  15.506  1.00  0.00     0.000 C 
BRANCH  18  19
ATOM     19  C   UNL     1      24.631  66.123  15.869  1.00  0.00     0.000 C 
BRANCH  19  20
ATOM     20  C   UNL     1      25.899  65.894  16.712  1.00  0.00     0.000 C 
BRANCH  20  21
ATOM     21  C   UNL     1      26.440  64.460  16.605  1.00  0.00     0.000 C 
BRANCH  21  22
ATOM     22  C   UNL     1      27.477  64.351  15.481  1.00  0.00     0.000 C 
BRANCH  22  23
ATOM     23  C   UNL     1      28.897  64.209  16.045  1.00  0.00     0.000 C 
BRANCH  23  24
ATOM     24  C   UNL     1      29.781  65.381  15.597  1.00  0.00    -0.000 C 
BRANCH  24  25
ATOM     25  C   UNL     1      30.616  65.972  16.745  1.00  0.00    -0.000 C 
BRANCH  25  26
ATOM     26  C   UNL     1      30.429  65.204  18.066  1.00  0.00    -0.000 C 
BRANCH  26  27
ATOM     27  C   UNL     1      31.430  65.643  19.147  1.00  0.00    -0.000 C 
BRANCH  27  28
ATOM     28  C   UNL     1      31.279  64.842  20.454  1.00  0.00    -0.000 C 
BRANCH  28  29
ATOM     29  C   UNL     1      32.343  63.744  20.600  1.00  0.00    -0.000 C 
BRANCH  29  30
ATOM     30  C   UNL     1      32.307  63.066  21.981  1.00  0.00    -0.000 C 
BRANCH  30  31
ATOM     31  C   UNL     1      32.910  61.654  21.960  1.00  0.00    -0.003 C 
ATOM     32  C   UNL     1      32.558  60.880  20.690  1.00  0.00     0.004 C 
ENDBRANCH  30  31
ENDBRANCH  29  30
ENDBRANCH  28  29
ENDBRANCH  27  28
ENDBRANCH  26  27
ENDBRANCH  25  26
ENDBRANCH  24  25
ENDBRANCH  23  24
ENDBRANCH  22  23
ENDBRANCH  21  22
ENDBRANCH  20  21
ENDBRANCH  19  20
ENDBRANCH  18  19
ENDBRANCH   1  18
TORSDOF 28
ENDMDL
MODEL 4
REMARK VINA RESULT:     0.153      5.329     15.493
REMARK INTER + INTRA:          -1.375
REMARK INTER:                   0.431
REMARK INTRA:                  -1.807
REMARK UNBOUND:                -1.780
REMARK SMILES CCCCCCCCCCCCCCCCCCCCCCCCCCCCCC(=O)[O-]
REMARK SMILES IDX 16 1 17 2 18 3 19 4 20 5 21 6 22 7 23 8 24 9 25 10 26 11
REMARK SMILES IDX 27 12 28 13 29 14 30 15 31 16 32 17 15 18 14 19 13 20 12 21
REMARK SMILES IDX 11 22 10 23 9 24 8 25 7 26 6 27 5 28 4 29 3 30 2 31 1 32
REMARK H PARENT
REMARK Flexibility Score: inf
ROOT
ATOM      1  C   UNL     1      23.733  64.683  15.862  1.00  0.00     0.000 C 
ENDROOT
BRANCH   1   2
ATOM      2  C   UNL     1      22.712  65.738  15.384  1.00  0.00     0.000 C 
BRANCH   2   3
ATOM      3  C   UNL     1      21.359  65.620  16.109  1.00  0.00     0.000 C 
BRANCH   3   4
ATOM      4  C   UNL     1      20.184  66.125  15.244  1.00  0.00     0.000 C 
BRANCH   4   5
ATOM      5  C   UNL     1      19.167  65.029  14.885  1.00  0.00     0.000 C 
BRANCH   5   6
ATOM      6  C   UNL     1      17.719  65.440  15.185  1.00  0.00     0.000 C 
BRANCH   6   7
ATOM      7  C   UNL     1      17.488  65.578  16.696  1.00  0.00     0.000 C 
BRANCH   7   8
ATOM      8  C   UNL     1      16.579  64.474  17.267  1.00  0.00     0.000 C 
BRANCH   8   9
ATOM      9  C   UNL     1      15.244  64.967  17.862  1.00  0.00     0.000 C 
BRANCH   9  10
ATOM     10  C   UNL     1      14.256  65.566  16.847  1.00  0.00     0.000 C 
BRANCH  10  11
ATOM     11  C   UNL     1      13.743  64.532  15.828  1.00  0.00     0.000 C 
BRANCH  11  12
ATOM     12  C   UNL     1      13.084  65.199  14.600  1.00  0.00     0.000 C 
BRANCH  12  13
ATOM     13  C   UNL     1      13.458  64.541  13.261  1.00  0.00     0.006 C 
BRANCH  13  14
ATOM     14  C   UNL     1      12.993  65.351  12.046  1.00  0.00     0.053 C 
BRANCH  14  15
ATOM     15  C   UNL     1      13.982  65.234  10.929  1.00  0.00     0.041 C 
ATOM     16  O   UNL     1      13.669  64.629   9.869  1.00  0.00    -0.550 OA
ATOM     17  O   UNL     1      15.225  65.845  11.032  1.00  0.00    -0.550 OA
ENDBRANCH  14  15
ENDBRANCH  13  14
ENDBRANCH  12  13
ENDBRANCH  11  12
ENDBRANCH  10  11
ENDBRANCH   9  10
ENDBRANCH   8   9
ENDBRANCH   7   8
ENDBRANCH   6   7
ENDBRANCH   5   6
ENDBRANCH   4   5
ENDBRANCH   3   4
ENDBRANCH   2   3
ENDBRANCH   1   2
BRANCH   1  18
ATOM     18  C   UNL     1      25.151  65.244  16.085  1.00  0.00     0.000 C 
BRANCH  18  19
ATOM     19  C   UNL     1      26.250  64.183  16.281  1.00  0.00     0.000 C 
BRANCH  19  20
ATOM     20  C   UNL     1      27.667  64.632  15.878  1.00  0.00     0.000 C 
BRANCH  20  21
ATOM     21  C   UNL     1      28.040  66.015  16.434  1.00  0.00     0.000 C 
BRANCH  21  22
ATOM     22  C   UNL     1      29.554  66.125  16.652  1.00  0.00     0.000 C 
BRANCH  22  23
ATOM     23  C   UNL     1      30.108  64.872  17.343  1.00  0.00     0.000 C 
BRANCH  23  24
ATOM     24  C   UNL     1      31.643  64.859  17.297  1.00  0.00    -0.000 C 
BRANCH  24  25
ATOM     25  C   UNL     1      32.271  66.095  17.958  1.00  0.00    -0.000 C 
BRANCH  25  26
ATOM     26  C   UNL     1      32.776  65.809  19.385  1.00  0.00    -0.000 C 
BRANCH  26  27
ATOM     27  C   UNL     1      32.414  64.394  19.863  1.00  0.00    -0.000 C 
BRANCH  27  28
ATOM     28  C   UNL     1      31.375  64.401  21.000  1.00  0.00    -0.000 C 
BRANCH  28  29
ATOM     29  C   UNL     1      30.514  65.673  21.005  1.00  0.00    -0.000 C 
BRANCH  29  30
ATOM     30  C   UNL     1      30.077  66.084  22.422  1.00  0.00    -0.000 C 
BRANCH  30  31
ATOM     31  C   UNL     1      30.806  65.291  23.517  1.00  0.00    -0.003 C 
ATOM     32  C   UNL     1      31.973  66.064  24.130  1.00  0.00     0.004 C 
ENDBRANCH  30  31
ENDBRANCH  29  30
ENDBRANCH  28  29
ENDBRANCH  27  28
ENDBRANCH  26  27
ENDBRANCH  25  26
ENDBRANCH  24  25
ENDBRANCH  23  24
ENDBRANCH  22  23
ENDBRANCH  21  22
ENDBRANCH  20  21
ENDBRANCH  19  20
ENDBRANCH  18  19
ENDBRANCH   1  18
TORSDOF 28
ENDMDL
MODEL 5
REMARK VINA RESULT:     0.309      1.843      2.736
REMARK INTER + INTRA:          -0.965
REMARK INTER:                  -0.601
REMARK INTRA:                  -0.365
REMARK UNBOUND:                -1.780
REMARK SMILES CCCCCCCCCCCCCCCCCCCCCCCCCCCCCC(=O)[O-]
REMARK SMILES IDX 16 1 17 2 18 3 19 4 20 5 21 6 22 7 23 8 24 9 25 10 26 11
REMARK SMILES IDX 27 12 28 13 29 14 30 15 31 16 32 17 15 18 14 19 13 20 12 21
REMARK SMILES IDX 11 22 10 23 9 24 8 25 7 26 6 27 5 28 4 29 3 30 2 31 1 32
REMARK H PARENT
REMARK Flexibility Score: inf
ROOT
ATOM      1  C   UNL     1      26.456  63.670  16.664  1.00  0.00     0.000 C 
ENDROOT
BRANCH   1   2
ATOM      2  C   UNL     1      26.382  64.900  17.595  1.00  0.00     0.000 C 
BRANCH   2   3
ATOM      3  C   UNL     1      27.369  66.009  17.187  1.00  0.00     0.000 C 
BRANCH   3   4
ATOM      4  C   UNL     1      28.609  66.057  18.106  1.00  0.00     0.000 C 
BRANCH   4   5
ATOM      5  C   UNL     1      28.281  65.857  19.595  1.00  0.00     0.000 C 
BRANCH   5   6
ATOM      6  C   UNL     1      29.484  66.119  20.510  1.00  0.00     0.000 C 
BRANCH   6   7
ATOM      7  C   UNL     1      29.093  65.978  21.988  1.00  0.00     0.000 C 
BRANCH   7   8
ATOM      8  C   UNL     1      30.094  65.131  22.794  1.00  0.00     0.000 C 
BRANCH   8   9
ATOM      9  C   UNL     1      30.864  65.893  23.891  1.00  0.00     0.000 C 
BRANCH   9  10
ATOM     10  C   UNL     1      32.386  65.978  23.685  1.00  0.00     0.000 C 
BRANCH  10  11
ATOM     11  C   UNL     1      32.782  66.123  22.204  1.00  0.00     0.000 C 
BRANCH  11  12
ATOM     12  C   UNL     1      32.943  64.755  21.505  1.00  0.00     0.000 C 
BRANCH  12  13
ATOM     13  C   UNL     1      32.686  64.798  19.989  1.00  0.00     0.006 C 
BRANCH  13  14
ATOM     14  C   UNL     1      31.982  63.541  19.466  1.00  0.00     0.053 C 
BRANCH  14  15
ATOM     15  C   UNL     1      32.643  63.053  18.215  1.00  0.00     0.041 C 
ATOM     16  O   UNL     1      33.028  61.857  18.130  1.00  0.00    -0.550 OA
ATOM     17  O   UNL     1      32.777  63.900  17.122  1.00  0.00    -0.550 OA
ENDBRANCH  14  15
ENDBRANCH  13  14
ENDBRANCH  12  13
ENDBRANCH  11  12
ENDBRANCH  10  11
ENDBRANCH   9  10
ENDBRANCH   8   9
ENDBRANCH   7   8
ENDBRANCH   6   7
ENDBRANCH   5   6
ENDBRANCH   4   5
ENDBRANCH   3   4
ENDBRANCH   2   3
ENDBRANCH   1   2
BRANCH   1  18
ATOM     18  C   UNL     1      25.998  63.952  15.221  1.00  0.00     0.000 C 
BRANCH  18  19
ATOM     19  C   UNL     1      24.669  64.720  15.095  1.00  0.00     0.000 C 
BRANCH  19  20
ATOM     20  C   UNL     1      24.143  65.331  16.407  1.00  0.00     0.000 C 
BRANCH  20  21
ATOM     21  C   UNL     1      22.813  66.078  16.230  1.00  0.00     0.000 C 
BRANCH  21  22
ATOM     22  C   UNL     1      21.636  65.096  16.190  1.00  0.00     0.000 C 
BRANCH  22  23
ATOM     23  C   UNL     1      20.410  65.724  15.516  1.00  0.00     0.000 C 
BRANCH  23  24
ATOM     24  C   UNL     1      19.300  65.992  16.542  1.00  0.00    -0.000 C 
BRANCH  24  25
ATOM     25  C   UNL     1      17.906  65.597  16.030  1.00  0.00    -0.000 C 
BRANCH  25  26
ATOM     26  C   UNL     1      17.786  65.707  14.499  1.00  0.00    -0.000 C 
BRANCH  26  27
ATOM     27  C   UNL     1      16.375  66.122  14.048  1.00  0.00    -0.000 C 
BRANCH  27  28
ATOM     28  C   UNL     1      16.029  65.605  12.640  1.00  0.00    -0.000 C 
BRANCH  28  29
ATOM     29  C   UNL     1      14.530  65.721  12.321  1.00  0.00    -0.000 C 
BRANCH  29  30
ATOM     30  C   UNL     1      13.696  64.619  12.999  1.00  0.00    -0.000 C 
BRANCH  30  31
ATOM     31  C   UNL     1      13.531  63.375  12.112  1.00  0.00    -0.003 C 
ATOM     32  C   UNL     1      13.124  62.134  12.905  1.00  0.00     0.004 C 
ENDBRANCH  30  31
ENDBRANCH  29  30
ENDBRANCH  28  29
ENDBRANCH  27  28
ENDBRANCH  26  27
ENDBRANCH  25  26
ENDBRANCH  24  25
ENDBRANCH  23  24
ENDBRANCH  22  23
ENDBRANCH  21  22
ENDBRANCH  20  21
ENDBRANCH  19  20
ENDBRANCH  18  19
ENDBRANCH   1  18
TORSDOF 28
ENDMDL
MODEL 6
REMARK VINA RESULT:     0.411      1.564      2.632
REMARK INTER + INTRA:          -0.697
REMARK INTER:                   0.156
REMARK INTRA:                  -0.852
REMARK UNBOUND:                -1.780
REMARK SMILES CCCCCCCCCCCCCCCCCCCCCCCCCCCCCC(=O)[O-]
REMARK SMILES IDX 16 1 17 2 18 3 19 4 20 5 21 6 22 7 23 8 24 9 25 10 26 11
REMARK SMILES IDX 27 12 28 13 29 14 30 15 31 16 32 17 15 18 14 19 13 20 12 21
REMARK SMILES IDX 11 22 10 23 9 24 8 25 7 26 6 27 5 28 4 29 3 30 2 31 1 32
REMARK H PARENT
REMARK Flexibility Score: inf
ROOT
ATOM      1  C   UNL     1      24.466  64.436  15.818  1.00  0.00     0.000 C 
ENDROOT
BRANCH   1   2
ATOM      2  C   UNL     1      25.627  64.929  14.927  1.00  0.00     0.000 C 
BRANCH   2   3
ATOM      3  C   UNL     1      26.657  65.764  15.710  1.00  0.00     0.000 C 
BRANCH   3   4
ATOM      4  C   UNL     1      27.543  64.893  16.626  1.00  0.00     0.000 C 
BRANCH   4   5
ATOM      5  C   UNL     1      27.414  65.238  18.119  1.00  0.00     0.000 C 
BRANCH   5   6
ATOM      6  C   UNL     1      28.732  65.729  18.733  1.00  0.00     0.000 C 
BRANCH   6   7
ATOM      7  C   UNL     1      29.815  65.888  17.657  1.00  0.00     0.000 C 
BRANCH   7   8
ATOM      8  C   UNL     1      30.166  64.562  16.959  1.00  0.00     0.000 C 
BRANCH   8   9
ATOM      9  C   UNL     1      31.672  64.237  16.888  1.00  0.00     0.000 C 
BRANCH   9  10
ATOM     10  C   UNL     1      32.580  65.157  17.723  1.00  0.00     0.000 C 
BRANCH  10  11
ATOM     11  C   UNL     1      33.044  64.505  19.039  1.00  0.00     0.000 C 
BRANCH  11  12
ATOM     12  C   UNL     1      32.660  63.011  19.119  1.00  0.00     0.000 C 
BRANCH  12  13
ATOM     13  C   UNL     1      32.465  62.497  20.555  1.00  0.00     0.006 C 
BRANCH  13  14
ATOM     14  C   UNL     1      32.904  63.510  21.618  1.00  0.00     0.053 C 
BRANCH  14  15
ATOM     15  C   UNL     1      32.685  62.956  22.991  1.00  0.00     0.041 C 
ATOM     16  O   UNL     1      32.836  61.724  23.206  1.00  0.00    -0.550 OA
ATOM     17  O   UNL     1      32.377  63.807  24.045  1.00  0.00    -0.550 OA
ENDBRANCH  14  15
ENDBRANCH  13  14
ENDBRANCH  12  13
ENDBRANCH  11  12
ENDBRANCH  10  11
ENDBRANCH   9  10
ENDBRANCH   8   9
ENDBRANCH   7   8
ENDBRANCH   6   7
ENDBRANCH   5   6
ENDBRANCH   4   5
ENDBRANCH   3   4
ENDBRANCH   2   3
ENDBRANCH   1   2
BRANCH   1  18
ATOM     18  C   UNL     1      24.005  65.464  16.868  1.00  0.00     0.000 C 
BRANCH  18  19
ATOM     19  C   UNL     1      22.611  66.071  16.622  1.00  0.00     0.000 C 
BRANCH  19  20
ATOM     20  C   UNL     1      21.698  65.249  15.693  1.00  0.00     0.000 C 
BRANCH  20  21
ATOM     21  C   UNL     1      20.836  66.124  14.771  1.00  0.00     0.000 C 
BRANCH  21  22
ATOM     22  C   UNL     1      19.346  65.947  15.086  1.00  0.00     0.000 C 
BRANCH  22  23
ATOM     23  C   UNL     1      19.084  64.614  15.799  1.00  0.00     0.000 C 
BRANCH  23  24
ATOM     24  C   UNL     1      18.129  64.809  16.986  1.00  0.00    -0.000 C 
BRANCH  24  25
ATOM     25  C   UNL     1      17.321  66.113  16.892  1.00  0.00    -0.000 C 
BRANCH  25  26
ATOM     26  C   UNL     1      16.325  66.107  15.718  1.00  0.00    -0.000 C 
BRANCH  26  27
ATOM     27  C   UNL     1      14.867  65.962  16.184  1.00  0.00    -0.000 C 
BRANCH  27  28
ATOM     28  C   UNL     1      14.442  64.491  16.348  1.00  0.00    -0.000 C 
BRANCH  28  29
ATOM     29  C   UNL     1      13.383  64.065  15.319  1.00  0.00    -0.000 C 
BRANCH  29  30
ATOM     30  C   UNL     1      13.150  65.132  14.236  1.00  0.00    -0.000 C 
BRANCH  30  31
ATOM     31  C   UNL     1      13.713  64.716  12.868  1.00  0.00    -0.003 C 
ATOM     32  C   UNL     1      13.279  63.311  12.453  1.00  0.00     0.004 C 
ENDBRANCH  30  31
ENDBRANCH  29  30
ENDBRANCH  28  29
ENDBRANCH  27  28
ENDBRANCH  26  27
ENDBRANCH  25  26
ENDBRANCH  24  25
ENDBRANCH  23  24
ENDBRANCH  22  23
ENDBRANCH  21  22
ENDBRANCH  20  21
ENDBRANCH  19  20
ENDBRANCH  18  19
ENDBRANCH   1  18
TORSDOF 28
ENDMDL
MODEL 7
REMARK VINA RESULT:     0.430      2.323      3.467
REMARK INTER + INTRA:          -0.647
REMARK INTER:                   0.033
REMARK INTRA:                  -0.680
REMARK UNBOUND:                -1.780
REMARK SMILES CCCCCCCCCCCCCCCCCCCCCCCCCCCCCC(=O)[O-]
REMARK SMILES IDX 16 1 17 2 18 3 19 4 20 5 21 6 22 7 23 8 24 9 25 10 26 11
REMARK SMILES IDX 27 12 28 13 29 14 30 15 31 16 32 17 15 18 14 19 13 20 12 21
REMARK SMILES IDX 11 22 10 23 9 24 8 25 7 26 6 27 5 28 4 29 3 30 2 31 1 32
REMARK H PARENT
REMARK Flexibility Score: inf
ROOT
ATOM      1  C   UNL     1      25.655  63.496  15.178  1.00  0.00     0.000 C 
ENDROOT
BRANCH   1   2
ATOM      2  C   UNL     1      26.825  64.426  14.787  1.00  0.00     0.000 C 
BRANCH   2   3
ATOM      3  C   UNL     1      27.352  65.243  15.981  1.00  0.00     0.000 C 
BRANCH   3   4
ATOM      4  C   UNL     1      28.894  65.312  16.008  1.00  0.00     0.000 C 
BRANCH   4   5
ATOM      5  C   UNL     1      29.472  65.656  17.391  1.00  0.00     0.000 C 
BRANCH   5   6
ATOM      6  C   UNL     1      28.436  65.533  18.516  1.00  0.00     0.000 C 
BRANCH   6   7
ATOM      7  C   UNL     1      28.975  66.124  19.827  1.00  0.00     0.000 C 
BRANCH   7   8
ATOM      8  C   UNL     1      29.936  65.174  20.562  1.00  0.00     0.000 C 
BRANCH   8   9
ATOM      9  C   UNL     1      31.403  65.645  20.626  1.00  0.00     0.000 C 
BRANCH   9  10
ATOM     10  C   UNL     1      32.041  65.985  19.268  1.00  0.00     0.000 C 
BRANCH  10  11
ATOM     11  C   UNL     1      33.124  64.975  18.846  1.00  0.00     0.000 C 
BRANCH  11  12
ATOM     12  C   UNL     1      32.579  63.531  18.772  1.00  0.00     0.000 C 
BRANCH  12  13
ATOM     13  C   UNL     1      32.699  62.893  17.378  1.00  0.00     0.006 C 
BRANCH  13  14
ATOM     14  C   UNL     1      32.482  63.896  16.240  1.00  0.00     0.053 C 
BRANCH  14  15
ATOM     15  C   UNL     1      31.895  63.213  15.044  1.00  0.00     0.041 C 
ATOM     16  O   UNL     1      30.823  62.562  15.153  1.00  0.00    -0.550 OA
ATOM     17  O   UNL     1      32.497  63.348  13.800  1.00  0.00    -0.550 OA
ENDBRANCH  14  15
ENDBRANCH  13  14
ENDBRANCH  12  13
ENDBRANCH  11  12
ENDBRANCH  10  11
ENDBRANCH   9  10
ENDBRANCH   8   9
ENDBRANCH   7   8
ENDBRANCH   6   7
ENDBRANCH   5   6
ENDBRANCH   4   5
ENDBRANCH   3   4
ENDBRANCH   2   3
ENDBRANCH   1   2
BRANCH   1  18
ATOM     18  C   UNL     1      24.285  64.198  15.214  1.00  0.00     0.000 C 
BRANCH  18  19
ATOM     19  C   UNL     1      24.125  65.264  16.314  1.00  0.00     0.000 C 
BRANCH  19  20
ATOM     20  C   UNL     1      22.837  66.104  16.224  1.00  0.00     0.000 C 
BRANCH  20  21
ATOM     21  C   UNL     1      21.561  65.268  16.408  1.00  0.00     0.000 C 
BRANCH  21  22
ATOM     22  C   UNL     1      20.424  65.811  15.534  1.00  0.00     0.000 C 
BRANCH  22  23
ATOM     23  C   UNL     1      19.165  64.943  15.658  1.00  0.00     0.000 C 
BRANCH  23  24
ATOM     24  C   UNL     1      18.129  65.613  16.572  1.00  0.00    -0.000 C 
BRANCH  24  25
ATOM     25  C   UNL     1      16.740  65.719  15.922  1.00  0.00    -0.000 C 
BRANCH  25  26
ATOM     26  C   UNL     1      16.813  66.110  14.434  1.00  0.00    -0.000 C 
BRANCH  26  27
ATOM     27  C   UNL     1      15.950  65.200  13.545  1.00  0.00    -0.000 C 
BRANCH  27  28
ATOM     28  C   UNL     1      15.548  65.875  12.221  1.00  0.00    -0.000 C 
BRANCH  28  29
ATOM     29  C   UNL     1      14.084  65.605  11.840  1.00  0.00    -0.000 C 
BRANCH  29  30
ATOM     30  C   UNL     1      13.649  64.163  12.155  1.00  0.00    -0.000 C 
BRANCH  30  31
ATOM     31  C   UNL     1      13.447  63.924  13.659  1.00  0.00    -0.003 C 
ATOM     32  C   UNL     1      12.937  65.164  14.392  1.00  0.00     0.004 C 
ENDBRANCH  30  31
ENDBRANCH  29  30
ENDBRANCH  28  29
ENDBRANCH  27  28
ENDBRANCH  26  27
ENDBRANCH  25  26
ENDBRANCH  24  25
ENDBRANCH  23  24
ENDBRANCH  22  23
ENDBRANCH  21  22
ENDBRANCH  20  21
ENDBRANCH  19  20
ENDBRANCH  18  19
ENDBRANCH   1  18
TORSDOF 28
ENDMDL
MODEL 8
REMARK VINA RESULT:     0.535      2.204      5.389
REMARK INTER + INTRA:          -0.369
REMARK INTER:                  -0.611
REMARK INTRA:                   0.242
REMARK UNBOUND:                -1.780
REMARK SMILES CCCCCCCCCCCCCCCCCCCCCCCCCCCCCC(=O)[O-]
REMARK SMILES IDX 16 1 17 2 18 3 19 4 20 5 21 6 22 7 23 8 24 9 25 10 26 11
REMARK SMILES IDX 27 12 28 13 29 14 30 15 31 16 32 17 15 18 14 19 13 20 12 21
REMARK SMILES IDX 11 22 10 23 9 24 8 25 7 26 6 27 5 28 4 29 3 30 2 31 1 32
REMARK H PARENT
REMARK Flexibility Score: inf
ROOT
ATOM      1  C   UNL     1      19.827  64.338  16.972  1.00  0.00     0.000 C 
ENDROOT
BRANCH   1   2
ATOM      2  C   UNL     1      20.849  64.777  15.900  1.00  0.00     0.000 C 
BRANCH   2   3
ATOM      3  C   UNL     1      21.763  65.916  16.388  1.00  0.00     0.000 C 
BRANCH   3   4
ATOM      4  C   UNL     1      23.140  65.901  15.693  1.00  0.00     0.000 C 
BRANCH   4   5
ATOM      5  C   UNL     1      23.932  64.602  15.920  1.00  0.00     0.000 C 
BRANCH   5   6
ATOM      6  C   UNL     1      25.397  64.712  15.477  1.00  0.00     0.000 C 
BRANCH   6   7
ATOM      7  C   UNL     1      26.171  65.686  16.376  1.00  0.00     0.000 C 
BRANCH   7   8
ATOM      8  C   UNL     1      26.905  64.981  17.531  1.00  0.00     0.000 C 
BRANCH   8   9
ATOM      9  C   UNL     1      27.899  65.864  18.312  1.00  0.00     0.000 C 
BRANCH   9  10
ATOM     10  C   UNL     1      29.339  65.328  18.379  1.00  0.00     0.000 C 
BRANCH  10  11
ATOM     11  C   UNL     1      29.891  65.272  19.815  1.00  0.00     0.000 C 
BRANCH  11  12
ATOM     12  C   UNL     1      31.428  65.120  19.845  1.00  0.00     0.000 C 
BRANCH  12  13
ATOM     13  C   UNL     1      31.911  63.667  19.698  1.00  0.00     0.006 C 
BRANCH  13  14
ATOM     14  C   UNL     1      32.870  63.472  18.519  1.00  0.00     0.053 C 
BRANCH  14  15
ATOM     15  C   UNL     1      32.401  64.248  17.328  1.00  0.00     0.041 C 
ATOM     16  O   UNL     1      33.097  65.196  16.878  1.00  0.00    -0.550 OA
ATOM     17  O   UNL     1      31.228  63.885  16.679  1.00  0.00    -0.550 OA
ENDBRANCH  14  15
ENDBRANCH  13  14
ENDBRANCH  12  13
ENDBRANCH  11  12
ENDBRANCH  10  11
ENDBRANCH   9  10
ENDBRANCH   8   9
ENDBRANCH   7   8
ENDBRANCH   6   7
ENDBRANCH   5   6
ENDBRANCH   4   5
ENDBRANCH   3   4
ENDBRANCH   2   3
ENDBRANCH   1   2
BRANCH   1  18
ATOM     18  C   UNL     1      18.376  64.745  16.653  1.00  0.00     0.000 C 
BRANCH  18  19
ATOM     19  C   UNL     1      17.292  63.851  17.284  1.00  0.00     0.000 C 
BRANCH  19  20
ATOM     20  C   UNL     1      16.402  64.546  18.331  1.00  0.00     0.000 C 
BRANCH  20  21
ATOM     21  C   UNL     1      14.980  64.824  17.821  1.00  0.00     0.000 C 
BRANCH  21  22
ATOM     22  C   UNL     1      14.758  64.182  16.446  1.00  0.00     0.000 C 
BRANCH  22  23
ATOM     23  C   UNL     1      14.880  65.218  15.322  1.00  0.00     0.000 C 
BRANCH  23  24
ATOM     24  C   UNL     1      13.557  65.973  15.130  1.00  0.00    -0.000 C 
BRANCH  24  25
ATOM     25  C   UNL     1      12.914  65.712  13.759  1.00  0.00    -0.000 C 
BRANCH  25  26
ATOM     26  C   UNL     1      13.759  64.771  12.881  1.00  0.00    -0.000 C 
BRANCH  26  27
ATOM     27  C   UNL     1      12.983  63.517  12.446  1.00  0.00    -0.000 C 
BRANCH  27  28
ATOM     28  C   UNL     1      12.875  63.389  10.916  1.00  0.00    -0.000 C 
BRANCH  28  29
ATOM     29  C   UNL     1      13.031  64.737  10.197  1.00  0.00    -0.000 C 
BRANCH  29  30
ATOM     30  C   UNL     1      14.398  65.393  10.462  1.00  0.00    -0.000 C 
BRANCH  30  31
ATOM     31  C   UNL     1      14.948  66.125   9.229  1.00  0.00    -0.003 C 
ATOM     32  C   UNL     1      16.466  66.001   9.096  1.00  0.00     0.004 C 
ENDBRANCH  30  31
ENDBRANCH  29  30
ENDBRANCH  28  29
ENDBRANCH  27  28
ENDBRANCH  26  27
ENDBRANCH  25  26
ENDBRANCH  24  25
ENDBRANCH  23  24
ENDBRANCH  22  23
ENDBRANCH  21  22
ENDBRANCH  20  21
ENDBRANCH  19  20
ENDBRANCH  18  19
ENDBRANCH   1  18
TORSDOF 28
ENDMDL
MODEL 9
REMARK VINA RESULT:     2.312      1.980      3.345
REMARK INTER + INTRA:           4.317
REMARK INTER:                   5.248
REMARK INTRA:                  -0.931
REMARK UNBOUND:                -1.780
REMARK SMILES CCCCCCCCCCCCCCCCCCCCCCCCCCCCCC(=O)[O-]
REMARK SMILES IDX 16 1 17 2 18 3 19 4 20 5 21 6 22 7 23 8 24 9 25 10 26 11
REMARK SMILES IDX 27 12 28 13 29 14 30 15 31 16 32 17 15 18 14 19 13 20 12 21
REMARK SMILES IDX 11 22 10 23 9 24 8 25 7 26 6 27 5 28 4 29 3 30 2 31 1 32
REMARK H PARENT
REMARK Flexibility Score: inf
ROOT
ATOM      1  C   UNL     1      26.773  66.063  16.003  1.00  0.00     0.000 C 
ENDROOT
BRANCH   1   2
ATOM      2  C   UNL     1      27.676  65.409  17.071  1.00  0.00     0.000 C 
BRANCH   2   3
ATOM      3  C   UNL     1      26.872  64.826  18.247  1.00  0.00     0.000 C 
BRANCH   3   4
ATOM      4  C   UNL     1      27.742  64.611  19.503  1.00  0.00     0.000 C 
BRANCH   4   5
ATOM      5  C   UNL     1      28.205  65.920  20.165  1.00  0.00     0.000 C 
BRANCH   5   6
ATOM      6  C   UNL     1      29.724  66.121  20.089  1.00  0.00     0.000 C 
BRANCH   6   7
ATOM      7  C   UNL     1      30.377  65.911  21.462  1.00  0.00     0.000 C 
BRANCH   7   8
ATOM      8  C   UNL     1      31.151  64.584  21.561  1.00  0.00     0.000 C 
BRANCH   8   9
ATOM      9  C   UNL     1      32.288  64.410  20.534  1.00  0.00     0.000 C 
BRANCH   9  10
ATOM     10  C   UNL     1      33.120  65.674  20.258  1.00  0.00     0.000 C 
BRANCH  10  11
ATOM     11  C   UNL     1      33.125  66.074  18.771  1.00  0.00     0.000 C 
BRANCH  11  12
ATOM     12  C   UNL     1      32.924  64.859  17.838  1.00  0.00     0.000 C 
BRANCH  12  13
ATOM     13  C   UNL     1      31.451  64.453  17.657  1.00  0.00     0.006 C 
BRANCH  13  14
ATOM     14  C   UNL     1      30.958  64.619  16.215  1.00  0.00     0.053 C 
BRANCH  14  15
ATOM     15  C   UNL     1      31.417  63.471  15.370  1.00  0.00     0.041 C 
ATOM     16  O   UNL     1      30.721  63.092  14.391  1.00  0.00    -0.550 OA
ATOM     17  O   UNL     1      32.638  62.862  15.626  1.00  0.00    -0.550 OA
ENDBRANCH  14  15
ENDBRANCH  13  14
ENDBRANCH  12  13
ENDBRANCH  11  12
ENDBRANCH  10  11
ENDBRANCH   9  10
ENDBRANCH   8   9
ENDBRANCH   7   8
ENDBRANCH   6   7
ENDBRANCH   5   6
ENDBRANCH   4   5
ENDBRANCH   3   4
ENDBRANCH   2   3
ENDBRANCH   1   2
BRANCH   1  18
ATOM     18  C   UNL     1      25.521  65.236  15.655  1.00  0.00     0.000 C 
BRANCH  18  19
ATOM     19  C   UNL     1      24.186  65.832  16.140  1.00  0.00     0.000 C 
BRANCH  19  20
ATOM     20  C   UNL     1      23.055  64.810  16.351  1.00  0.00     0.000 C 
BRANCH  20  21
ATOM     21  C   UNL     1      21.870  65.380  17.145  1.00  0.00     0.000 C 
BRANCH  21  22
ATOM     22  C   UNL     1      20.817  65.974  16.203  1.00  0.00     0.000 C 
BRANCH  22  23
ATOM     23  C   UNL     1      20.045  64.871  15.466  1.00  0.00     0.000 C 
BRANCH  23  24
ATOM     24  C   UNL     1      18.727  65.416  14.897  1.00  0.00    -0.000 C 
BRANCH  24  25
ATOM     25  C   UNL     1      17.867  66.125  15.955  1.00  0.00    -0.000 C 
BRANCH  25  26
ATOM     26  C   UNL     1      17.149  65.136  16.891  1.00  0.00    -0.000 C 
BRANCH  26  27
ATOM     27  C   UNL     1      15.760  64.735  16.368  1.00  0.00    -0.000 C 
BRANCH  27  28
ATOM     28  C   UNL     1      14.700  64.683  17.483  1.00  0.00    -0.000 C 
BRANCH  28  29
ATOM     29  C   UNL     1      13.364  65.311  17.058  1.00  0.00    -0.000 C 
BRANCH  29  30
ATOM     30  C   UNL     1      13.297  65.590  15.546  1.00  0.00    -0.000 C 
BRANCH  30  31
ATOM     31  C   UNL     1      13.211  64.303  14.712  1.00  0.00    -0.003 C 
ATOM     32  C   UNL     1      13.918  64.423  13.363  1.00  0.00     0.004 C 
ENDBRANCH  30  31
ENDBRANCH  29  30
ENDBRANCH  28  29
ENDBRANCH  27  28
ENDBRANCH  26  27
ENDBRANCH  25  26
ENDBRANCH  24  25
ENDBRANCH  23  24
ENDBRANCH  22  23
ENDBRANCH  21  22
ENDBRANCH  20  21
ENDBRANCH  19  20
ENDBRANCH  18  19
ENDBRANCH   1  18
TORSDOF 28
ENDMDL
