MODEL 1
REMARK VINA RESULT:    -3.062      0.000      0.000
REMARK INTER + INTRA:          -3.692
REMARK INTER:                  -3.599
REMARK INTRA:                  -0.094
REMARK UNBOUND:                -0.094
REMARK SMILES CCCCC(=O)[O-]
REMARK SMILES IDX 4 1 5 2 6 3 7 4 3 5 2 6 1 7
REMARK H PARENT
REMARK Flexibility Score: inf
ROOT
ATOM      1  C   UNL     1      20.845  36.396   2.278  1.00  0.00     0.053 C 
ENDROOT
BRANCH   1   2
ATOM      2  C   UNL     1      21.445  35.078   1.890  1.00  0.00     0.041 C 
ATOM      3  O   UNL     1      21.092  34.512   0.823  1.00  0.00    -0.550 OA
ATOM      4  O   UNL     1      22.416  34.494   2.692  1.00  0.00    -0.550 OA
ENDBRANCH   1   2
BRANCH   1   5
ATOM      5  C   UNL     1      20.598  36.489   3.792  1.00  0.00     0.006 C 
BRANCH   5   6
ATOM      6  C   UNL     1      21.597  37.393   4.538  1.00  0.00    -0.003 C 
ATOM      7  C   UNL     1      22.495  38.192   3.594  1.00  0.00     0.004 C 
ENDBRANCH   5   6
ENDBRANCH   1   5
TORSDOF 3
ENDMDL
MODEL 2
REMARK VINA RESULT:    -3.027     12.761     13.351
REMARK INTER + INTRA:          -3.651
REMARK INTER:                  -3.538
REMARK INTRA:                  -0.113
REMARK UNBOUND:                -0.094
REMARK SMILES CCCCC(=O)[O-]
REMARK SMILES IDX 4 1 5 2 6 3 7 4 3 5 2 6 1 7
REMARK H PARENT
REMARK Flexibility Score: inf
ROOT
ATOM      1  C   UNL     1      12.208  28.326   6.929  1.00  0.00     0.053 C 
ENDROOT
BRANCH   1   2
ATOM      2  C   UNL     1      11.389  27.151   7.374  1.00  0.00     0.041 C 
ATOM      3  O   UNL     1      10.151  27.276   7.559  1.00  0.00    -0.550 OA
ATOM      4  O   UNL     1      11.992  25.913   7.554  1.00  0.00    -0.550 OA
ENDBRANCH   1   2
BRANCH   1   5
ATOM      5  C   UNL     1      12.488  29.300   8.084  1.00  0.00     0.006 C 
BRANCH   5   6
ATOM      6  C   UNL     1      13.663  28.883   8.988  1.00  0.00    -0.003 C 
ATOM      7  C   UNL     1      14.835  28.294   8.205  1.00  0.00     0.004 C 
ENDBRANCH   5   6
ENDBRANCH   1   5
TORSDOF 3
ENDMDL
MODEL 3
REMARK VINA RESULT:    -2.999     15.527     16.460
REMARK INTER + INTRA:          -3.618
REMARK INTER:                  -3.591
REMARK INTRA:                  -0.028
REMARK UNBOUND:                -0.094
REMARK SMILES CCCCC(=O)[O-]
REMARK SMILES IDX 4 1 5 2 6 3 7 4 3 5 2 6 1 7
REMARK H PARENT
REMARK Flexibility Score: inf
ROOT
ATOM      1  C   UNL     1       6.756  33.442  -2.840  1.00  0.00     0.053 C 
ENDROOT
BRANCH   1   2
ATOM      2  C   UNL     1       7.842  33.438  -1.808  1.00  0.00     0.041 C 
ATOM      3  O   UNL     1       8.903  32.791  -2.008  1.00  0.00    -0.550 OA
ATOM      4  O   UNL     1       7.693  34.173  -0.640  1.00  0.00    -0.550 OA
ENDBRANCH   1   2
BRANCH   1   5
ATOM      5  C   UNL     1       5.461  34.076  -2.308  1.00  0.00     0.006 C 
BRANCH   5   6
ATOM      6  C   UNL     1       4.205  33.211  -2.516  1.00  0.00    -0.003 C 
ATOM      7  C   UNL     1       2.936  33.865  -1.971  1.00  0.00     0.004 C 
ENDBRANCH   5   6
ENDBRANCH   1   5
TORSDOF 3
ENDMDL
MODEL 4
REMARK VINA RESULT:    -2.939     11.651     12.531
REMARK INTER + INTRA:          -3.548
REMARK INTER:                  -3.444
REMARK INTRA:                  -0.103
REMARK UNBOUND:                -0.094
REMARK SMILES CCCCC(=O)[O-]
REMARK SMILES IDX 4 1 5 2 6 3 7 4 3 5 2 6 1 7
REMARK H PARENT
REMARK Flexibility Score: inf
ROOT
ATOM      1  C   UNL     1       9.264  33.841   0.023  1.00  0.00     0.053 C 
ENDROOT
BRANCH   1   2
ATOM      2  C   UNL     1      10.347  34.845  -0.235  1.00  0.00     0.041 C 
ATOM      3  O   UNL     1      10.633  35.707   0.636  1.00  0.00    -0.550 OA
ATOM      4  O   UNL     1      11.060  34.806  -1.426  1.00  0.00    -0.550 OA
ENDBRANCH   1   2
BRANCH   1   5
ATOM      5  C   UNL     1       9.221  32.752  -1.060  1.00  0.00     0.006 C 
BRANCH   5   6
ATOM      6  C   UNL     1      10.056  31.502  -0.731  1.00  0.00    -0.003 C 
ATOM      7  C   UNL     1      11.140  31.221  -1.770  1.00  0.00     0.004 C 
ENDBRANCH   5   6
ENDBRANCH   1   5
TORSDOF 3
ENDMDL
MODEL 5
REMARK VINA RESULT:    -2.920     12.848     13.795
REMARK INTER + INTRA:          -3.526
REMARK INTER:                  -3.484
REMARK INTRA:                  -0.042
REMARK UNBOUND:                -0.094
REMARK SMILES CCCCC(=O)[O-]
REMARK SMILES IDX 4 1 5 2 6 3 7 4 3 5 2 6 1 7
REMARK H PARENT
REMARK Flexibility Score: inf
ROOT
ATOM      1  C   UNL     1       9.637  32.642  -1.973  1.00  0.00     0.053 C 
ENDROOT
BRANCH   1   2
ATOM      2  C   UNL     1      10.366  31.528  -1.286  1.00  0.00     0.041 C 
ATOM      3  O   UNL     1       9.976  31.112  -0.164  1.00  0.00    -0.550 OA
ATOM      4  O   UNL     1      11.457  30.928  -1.901  1.00  0.00    -0.550 OA
ENDBRANCH   1   2
BRANCH   1   5
ATOM      5  C   UNL     1       8.591  33.295  -1.056  1.00  0.00     0.006 C 
BRANCH   5   6
ATOM      6  C   UNL     1       7.435  33.979  -1.807  1.00  0.00    -0.003 C 
ATOM      7  C   UNL     1       7.019  33.227  -3.070  1.00  0.00     0.004 C 
ENDBRANCH   5   6
ENDBRANCH   1   5
TORSDOF 3
ENDMDL
MODEL 6
REMARK VINA RESULT:    -2.878     13.998     14.933
REMARK INTER + INTRA:          -3.477
REMARK INTER:                  -3.447
REMARK INTRA:                  -0.029
REMARK UNBOUND:                -0.094
REMARK SMILES CCCCC(=O)[O-]
REMARK SMILES IDX 4 1 5 2 6 3 7 4 3 5 2 6 1 7
REMARK H PARENT
REMARK Flexibility Score: inf
ROOT
ATOM      1  C   UNL     1       7.694  33.888  -1.410  1.00  0.00     0.053 C 
ENDROOT
BRANCH   1   2
ATOM      2  C   UNL     1       6.540  33.665  -2.340  1.00  0.00     0.041 C 
ATOM      3  O   UNL     1       6.662  32.891  -3.326  1.00  0.00    -0.550 OA
ATOM      4  O   UNL     1       5.323  34.287  -2.099  1.00  0.00    -0.550 OA
ENDBRANCH   1   2
BRANCH   1   5
ATOM      5  C   UNL     1       8.896  32.999  -1.763  1.00  0.00     0.006 C 
BRANCH   5   6
ATOM      6  C   UNL     1       9.560  32.326  -0.549  1.00  0.00    -0.003 C 
ATOM      7  C   UNL     1      10.689  31.373  -0.940  1.00  0.00     0.004 C 
ENDBRANCH   5   6
ENDBRANCH   1   5
TORSDOF 3
ENDMDL
MODEL 7
REMARK VINA RESULT:    -2.868     11.443     12.215
REMARK INTER + INTRA:          -3.464
REMARK INTER:                  -3.392
REMARK INTRA:                  -0.073
REMARK UNBOUND:                -0.094
REMARK SMILES CCCCC(=O)[O-]
REMARK SMILES IDX 4 1 5 2 6 3 7 4 3 5 2 6 1 7
REMARK H PARENT
REMARK Flexibility Score: inf
ROOT
ATOM      1  C   UNL     1      14.307  27.544   8.518  1.00  0.00     0.053 C 
ENDROOT
BRANCH   1   2
ATOM      2  C   UNL     1      15.202  27.779   7.339  1.00  0.00     0.041 C 
ATOM      3  O   UNL     1      16.365  28.229   7.506  1.00  0.00    -0.550 OA
ATOM      4  O   UNL     1      14.760  27.471   6.059  1.00  0.00    -0.550 OA
ENDBRANCH   1   2
BRANCH   1   5
ATOM      5  C   UNL     1      13.682  28.850   9.033  1.00  0.00     0.006 C 
BRANCH   5   6
ATOM      6  C   UNL     1      12.377  29.248   8.320  1.00  0.00    -0.003 C 
ATOM      7  C   UNL     1      11.644  28.053   7.711  1.00  0.00     0.004 C 
ENDBRANCH   5   6
ENDBRANCH   1   5
TORSDOF 3
ENDMDL
MODEL 8
REMARK VINA RESULT:    -2.824     13.377     14.280
REMARK INTER + INTRA:          -3.413
REMARK INTER:                  -3.396
REMARK INTRA:                  -0.017
REMARK UNBOUND:                -0.094
REMARK SMILES CCCCC(=O)[O-]
REMARK SMILES IDX 4 1 5 2 6 3 7 4 3 5 2 6 1 7
REMARK H PARENT
REMARK Flexibility Score: inf
ROOT
ATOM      1  C   UNL     1       8.880  33.341  -0.638  1.00  0.00     0.053 C 
ENDROOT
BRANCH   1   2
ATOM      2  C   UNL     1       9.729  32.162  -1.007  1.00  0.00     0.041 C 
ATOM      3  O   UNL     1      10.287  32.111  -2.134  1.00  0.00    -0.550 OA
ATOM      4  O   UNL     1       9.927  31.137  -0.092  1.00  0.00    -0.550 OA
ENDBRANCH   1   2
BRANCH   1   5
ATOM      5  C   UNL     1       7.899  33.715  -1.760  1.00  0.00     0.006 C 
BRANCH   5   6
ATOM      6  C   UNL     1       6.651  34.475  -1.278  1.00  0.00    -0.003 C 
ATOM      7  C   UNL     1       5.416  34.194  -2.133  1.00  0.00     0.004 C 
ENDBRANCH   5   6
ENDBRANCH   1   5
TORSDOF 3
ENDMDL
MODEL 9
REMARK VINA RESULT:    -2.780     15.448     16.336
REMARK INTER + INTRA:          -3.361
REMARK INTER:                  -3.343
REMARK INTRA:                  -0.017
REMARK UNBOUND:                -0.094
REMARK SMILES CCCCC(=O)[O-]
REMARK SMILES IDX 4 1 5 2 6 3 7 4 3 5 2 6 1 7
REMARK H PARENT
REMARK Flexibility Score: inf
ROOT
ATOM      1  C   UNL     1       6.082  33.848  -2.548  1.00  0.00     0.053 C 
ENDROOT
BRANCH   1   2
ATOM      2  C   UNL     1       4.686  34.074  -2.051  1.00  0.00     0.041 C 
ATOM      3  O   UNL     1       4.442  35.020  -1.258  1.00  0.00    -0.550 OA
ATOM      4  O   UNL     1       3.652  33.259  -2.490  1.00  0.00    -0.550 OA
ENDBRANCH   1   2
BRANCH   1   5
ATOM      5  C   UNL     1       7.127  34.067  -1.443  1.00  0.00     0.006 C 
BRANCH   5   6
ATOM      6  C   UNL     1       8.457  33.329  -1.679  1.00  0.00    -0.003 C 
ATOM      7  C   UNL     1       9.231  33.070  -0.386  1.00  0.00     0.004 C 
ENDBRANCH   5   6
ENDBRANCH   1   5
TORSDOF 3
ENDMDL
