MODEL 1
REMARK VINA RESULT:    -5.038      0.000      0.000
REMARK INTER + INTRA:          -5.480
REMARK INTER:                  -5.480
REMARK INTRA:                   0.000
REMARK UNBOUND:                 0.000
REMARK SMILES Cc1cc(O)c2c(c1)C(=O)c1cc(O)cc(O)c1C2=O
REMARK SMILES IDX 1 1 2 2 8 3 7 4 6 5 4 6 3 7 19 8 20 9 18 10 11 11 9 12 10 13
REMARK SMILES IDX 12 14 13 15 15 16 16 17 5 18 17 20 14 22
REMARK H PARENT 5 19 17 21 14 23
REMARK Flexibility Score: inf
ROOT
ATOM      1  C   UNL     1     -13.647  -3.134  -9.746  1.00  0.00     0.044 C 
ATOM      2  C   UNL     1     -13.915  -3.915  -8.493  1.00  0.00    -0.047 A 
ATOM      3  C   UNL     1     -13.980  -5.312  -8.536  1.00  0.00     0.016 A 
ATOM      4  C   UNL     1     -14.203  -6.054  -7.362  1.00  0.00     0.038 A 
ATOM      5  C   UNL     1     -14.363  -5.386  -6.128  1.00  0.00     0.076 A 
ATOM      6  C   UNL     1     -14.211  -3.976  -6.080  1.00  0.00     0.127 A 
ATOM      7  C   UNL     1     -14.010  -3.258  -7.263  1.00  0.00     0.050 A 
ATOM      8  C   UNL     1     -14.742  -6.191  -4.938  1.00  0.00     0.201 C 
ATOM      9  O   UNL     1     -15.429  -5.667  -4.021  1.00  0.00    -0.288 OA
ATOM     10  C   UNL     1     -14.476  -7.653  -4.920  1.00  0.00     0.076 A 
ATOM     11  C   UNL     1     -14.314  -8.317  -6.157  1.00  0.00     0.041 A 
ATOM     12  C   UNL     1     -14.263  -7.534  -7.415  1.00  0.00     0.194 C 
ATOM     13  O   UNL     1     -14.245  -8.128  -8.528  1.00  0.00    -0.289 OA
ATOM     14  C   UNL     1     -14.198  -9.717  -6.188  1.00  0.00     0.059 A 
ATOM     15  C   UNL     1     -14.226 -10.458  -5.004  1.00  0.00     0.120 A 
ATOM     16  C   UNL     1     -14.345  -9.802  -3.779  1.00  0.00     0.093 A 
ATOM     17  C   UNL     1     -14.442  -8.408  -3.719  1.00  0.00     0.131 A 
ENDROOT
BRANCH   6  18
ATOM     18  O   UNL     1     -14.217  -3.257  -4.882  1.00  0.00    -0.507 OA
ATOM     19  H   UNL     1     -14.713  -2.387  -4.754  1.00  0.00     0.293 HD
ENDBRANCH   6  18
BRANCH  17  20
ATOM     20  O   UNL     1     -14.466  -7.817  -2.453  1.00  0.00    -0.507 OA
ATOM     21  H   UNL     1     -14.655  -8.329  -1.603  1.00  0.00     0.293 HD
ENDBRANCH  17  20
BRANCH  15  22
ATOM     22  O   UNL     1     -14.124 -11.846  -5.032  1.00  0.00    -0.508 OA
ATOM     23  H   UNL     1     -14.914 -12.441  -4.810  1.00  0.00     0.293 HD
ENDBRANCH  15  22
TORSDOF 3
ENDMDL
MODEL 2
REMARK VINA RESULT:    -5.014      1.446      5.586
REMARK INTER + INTRA:          -5.454
REMARK INTER:                  -5.454
REMARK INTRA:                   0.000
REMARK UNBOUND:                 0.000
REMARK SMILES Cc1cc(O)c2c(c1)C(=O)c1cc(O)cc(O)c1C2=O
REMARK SMILES IDX 1 1 2 2 8 3 7 4 6 5 4 6 3 7 19 8 20 9 18 10 11 11 9 12 10 13
REMARK SMILES IDX 12 14 13 15 15 16 16 17 5 18 17 20 14 22
REMARK H PARENT 5 19 17 21 14 23
REMARK Flexibility Score: inf
ROOT
ATOM      1  C   UNL     1     -14.476 -12.984  -5.263  1.00  0.00     0.044 C 
ATOM      2  C   UNL     1     -14.512 -11.501  -5.036  1.00  0.00    -0.047 A 
ATOM      3  C   UNL     1     -14.157 -10.622  -6.066  1.00  0.00     0.016 A 
ATOM      4  C   UNL     1     -14.214  -9.231  -5.872  1.00  0.00     0.038 A 
ATOM      5  C   UNL     1     -14.633  -8.712  -4.627  1.00  0.00     0.076 A 
ATOM      6  C   UNL     1     -15.072  -9.607  -3.617  1.00  0.00     0.127 A 
ATOM      7  C   UNL     1     -14.987 -10.986  -3.826  1.00  0.00     0.050 A 
ATOM      8  C   UNL     1     -14.540  -7.245  -4.410  1.00  0.00     0.201 C 
ATOM      9  O   UNL     1     -14.337  -6.795  -3.251  1.00  0.00    -0.288 OA
ATOM     10  C   UNL     1     -14.495  -6.328  -5.579  1.00  0.00     0.076 A 
ATOM     11  C   UNL     1     -14.078  -6.852  -6.823  1.00  0.00     0.041 A 
ATOM     12  C   UNL     1     -13.843  -8.308  -6.971  1.00  0.00     0.194 C 
ATOM     13  O   UNL     1     -13.351  -8.764  -8.039  1.00  0.00    -0.289 OA
ATOM     14  C   UNL     1     -13.892  -5.990  -7.917  1.00  0.00     0.059 A 
ATOM     15  C   UNL     1     -14.131  -4.619  -7.789  1.00  0.00     0.120 A 
ATOM     16  C   UNL     1     -14.582  -4.105  -6.574  1.00  0.00     0.093 A 
ATOM     17  C   UNL     1     -14.795  -4.945  -5.476  1.00  0.00     0.131 A 
ENDROOT
BRANCH   6  18
ATOM     18  O   UNL     1     -15.629  -9.170  -2.413  1.00  0.00    -0.507 OA
ATOM     19  H   UNL     1     -15.334  -8.331  -1.931  1.00  0.00     0.293 HD
ENDBRANCH   6  18
BRANCH  17  20
ATOM     20  O   UNL     1     -15.334  -4.371  -4.322  1.00  0.00    -0.507 OA
ATOM     21  H   UNL     1     -15.666  -3.419  -4.275  1.00  0.00     0.293 HD
ENDBRANCH  17  20
BRANCH  15  22
ATOM     22  O   UNL     1     -13.936  -3.760  -8.868  1.00  0.00    -0.508 OA
ATOM     23  H   UNL     1     -14.237  -2.793  -8.837  1.00  0.00     0.293 HD
ENDBRANCH  15  22
TORSDOF 3
ENDMDL
MODEL 3
REMARK VINA RESULT:    -4.921      2.824      4.842
REMARK INTER + INTRA:          -5.352
REMARK INTER:                  -5.352
REMARK INTRA:                   0.000
REMARK UNBOUND:                 0.000
REMARK SMILES Cc1cc(O)c2c(c1)C(=O)c1cc(O)cc(O)c1C2=O
REMARK SMILES IDX 1 1 2 2 8 3 7 4 6 5 4 6 3 7 19 8 20 9 18 10 11 11 9 12 10 13
REMARK SMILES IDX 12 14 13 15 15 16 16 17 5 18 17 20 14 22
REMARK H PARENT 5 19 17 21 14 23
REMARK Flexibility Score: inf
ROOT
ATOM      1  C   UNL     1     -12.228  -5.553  -5.022  1.00  0.00     0.044 C 
ATOM      2  C   UNL     1     -12.790  -6.835  -5.563  1.00  0.00    -0.047 A 
ATOM      3  C   UNL     1     -13.047  -7.909  -4.704  1.00  0.00     0.016 A 
ATOM      4  C   UNL     1     -13.598  -9.104  -5.197  1.00  0.00     0.038 A 
ATOM      5  C   UNL     1     -13.897  -9.225  -6.572  1.00  0.00     0.076 A 
ATOM      6  C   UNL     1     -13.713  -8.104  -7.422  1.00  0.00     0.127 A 
ATOM      7  C   UNL     1     -13.144  -6.933  -6.912  1.00  0.00     0.050 A 
ATOM      8  C   UNL     1     -14.339 -10.550  -7.081  1.00  0.00     0.201 C 
ATOM      9  O   UNL     1     -14.075 -10.886  -8.266  1.00  0.00    -0.288 OA
ATOM     10  C   UNL     1     -14.920 -11.544  -6.141  1.00  0.00     0.076 A 
ATOM     11  C   UNL     1     -14.621 -11.418  -4.766  1.00  0.00     0.041 A 
ATOM     12  C   UNL     1     -13.875 -10.234  -4.278  1.00  0.00     0.194 C 
ATOM     13  O   UNL     1     -13.496 -10.177  -3.076  1.00  0.00    -0.289 OA
ATOM     14  C   UNL     1     -15.037 -12.414  -3.866  1.00  0.00     0.059 A 
ATOM     15  C   UNL     1     -15.758 -13.522  -4.318  1.00  0.00     0.120 A 
ATOM     16  C   UNL     1     -16.090 -13.629  -5.668  1.00  0.00     0.093 A 
ATOM     17  C   UNL     1     -15.705 -12.642  -6.581  1.00  0.00     0.131 A 
ENDROOT
BRANCH   6  18
ATOM     18  O   UNL     1     -14.112  -8.098  -8.760  1.00  0.00    -0.507 OA
ATOM     19  H   UNL     1     -14.904  -7.575  -9.106  1.00  0.00     0.293 HD
ENDBRANCH   6  18
BRANCH  17  20
ATOM     20  O   UNL     1     -16.152 -12.772  -7.898  1.00  0.00    -0.507 OA
ATOM     21  H   UNL     1     -16.522 -12.004  -8.440  1.00  0.00     0.293 HD
ENDBRANCH  17  20
BRANCH  15  22
ATOM     22  O   UNL     1     -16.161 -14.517  -3.431  1.00  0.00    -0.508 OA
ATOM     23  H   UNL     1     -16.882 -14.351  -2.739  1.00  0.00     0.293 HD
ENDBRANCH  15  22
TORSDOF 3
ENDMDL
MODEL 4
REMARK VINA RESULT:    -4.875      1.584      6.320
REMARK INTER + INTRA:          -5.303
REMARK INTER:                  -5.303
REMARK INTRA:                   0.000
REMARK UNBOUND:                 0.000
REMARK SMILES Cc1cc(O)c2c(c1)C(=O)c1cc(O)cc(O)c1C2=O
REMARK SMILES IDX 1 1 2 2 8 3 7 4 6 5 4 6 3 7 19 8 20 9 18 10 11 11 9 12 10 13
REMARK SMILES IDX 12 14 13 15 15 16 16 17 5 18 17 20 14 22
REMARK H PARENT 5 19 17 21 14 23
REMARK Flexibility Score: inf
ROOT
ATOM      1  C   UNL     1     -14.143 -13.004  -3.517  1.00  0.00     0.044 C 
ATOM      2  C   UNL     1     -14.123 -11.787  -4.395  1.00  0.00    -0.047 A 
ATOM      3  C   UNL     1     -14.606 -10.565  -3.914  1.00  0.00     0.016 A 
ATOM      4  C   UNL     1     -14.566  -9.413  -4.719  1.00  0.00     0.038 A 
ATOM      5  C   UNL     1     -14.033  -9.487  -6.025  1.00  0.00     0.076 A 
ATOM      6  C   UNL     1     -13.468 -10.708  -6.474  1.00  0.00     0.127 A 
ATOM      7  C   UNL     1     -13.538 -11.845  -5.664  1.00  0.00     0.050 A 
ATOM      8  C   UNL     1     -14.142  -8.288  -6.897  1.00  0.00     0.201 C 
ATOM      9  O   UNL     1     -14.235  -8.428  -8.145  1.00  0.00    -0.288 OA
ATOM     10  C   UNL     1     -14.332  -6.946  -6.286  1.00  0.00     0.076 A 
ATOM     11  C   UNL     1     -14.863  -6.878  -4.978  1.00  0.00     0.041 A 
ATOM     12  C   UNL     1     -15.073  -8.121  -4.200  1.00  0.00     0.194 C 
ATOM     13  O   UNL     1     -15.662  -8.076  -3.084  1.00  0.00    -0.289 OA
ATOM     14  C   UNL     1     -15.184  -5.629  -4.420  1.00  0.00     0.059 A 
ATOM     15  C   UNL     1     -14.969  -4.452  -5.142  1.00  0.00     0.120 A 
ATOM     16  C   UNL     1     -14.407  -4.514  -6.416  1.00  0.00     0.093 A 
ATOM     17  C   UNL     1     -14.060  -5.743  -6.987  1.00  0.00     0.131 A 
ENDROOT
BRANCH   6  18
ATOM     18  O   UNL     1     -12.799 -10.826  -7.695  1.00  0.00    -0.507 OA
ATOM     19  H   UNL     1     -11.797 -10.923  -7.777  1.00  0.00     0.293 HD
ENDBRANCH   6  18
BRANCH  17  20
ATOM     20  O   UNL     1     -13.418  -5.719  -8.228  1.00  0.00    -0.507 OA
ATOM     21  H   UNL     1     -13.771  -6.192  -9.048  1.00  0.00     0.293 HD
ENDBRANCH  17  20
BRANCH  15  22
ATOM     22  O   UNL     1     -15.298  -3.213  -4.596  1.00  0.00    -0.508 OA
ATOM     23  H   UNL     1     -16.067  -2.662  -4.960  1.00  0.00     0.293 HD
ENDBRANCH  15  22
TORSDOF 3
ENDMDL
MODEL 5
REMARK VINA RESULT:    -4.860      3.204      4.596
REMARK INTER + INTRA:          -5.287
REMARK INTER:                  -5.287
REMARK INTRA:                   0.000
REMARK UNBOUND:                 0.000
REMARK SMILES Cc1cc(O)c2c(c1)C(=O)c1cc(O)cc(O)c1C2=O
REMARK SMILES IDX 1 1 2 2 8 3 7 4 6 5 4 6 3 7 19 8 20 9 18 10 11 11 9 12 10 13
REMARK SMILES IDX 12 14 13 15 15 16 16 17 5 18 17 20 14 22
REMARK H PARENT 5 19 17 21 14 23
REMARK Flexibility Score: inf
ROOT
ATOM      1  C   UNL     1     -11.330  -6.659  -6.772  1.00  0.00     0.044 C 
ATOM      2  C   UNL     1     -12.176  -7.714  -6.121  1.00  0.00    -0.047 A 
ATOM      3  C   UNL     1     -12.829  -8.674  -6.902  1.00  0.00     0.016 A 
ATOM      4  C   UNL     1     -13.601  -9.682  -6.299  1.00  0.00     0.038 A 
ATOM      5  C   UNL     1     -13.720  -9.730  -4.892  1.00  0.00     0.076 A 
ATOM      6  C   UNL     1     -12.986  -8.806  -4.104  1.00  0.00     0.127 A 
ATOM      7  C   UNL     1     -12.242  -7.799  -4.727  1.00  0.00     0.050 A 
ATOM      8  C   UNL     1     -14.660 -10.717  -4.300  1.00  0.00     0.201 C 
ATOM      9  O   UNL     1     -15.233 -10.459  -3.208  1.00  0.00    -0.288 OA
ATOM     10  C   UNL     1     -15.065 -11.913  -5.084  1.00  0.00     0.076 A 
ATOM     11  C   UNL     1     -14.942 -11.862  -6.490  1.00  0.00     0.041 A 
ATOM     12  C   UNL     1     -14.284 -10.700  -7.133  1.00  0.00     0.194 C 
ATOM     13  O   UNL     1     -14.283 -10.589  -8.390  1.00  0.00    -0.289 OA
ATOM     14  C   UNL     1     -15.440 -12.917  -7.274  1.00  0.00     0.059 A 
ATOM     15  C   UNL     1     -16.044 -14.024  -6.672  1.00  0.00     0.120 A 
ATOM     16  C   UNL     1     -16.130 -14.096  -5.282  1.00  0.00     0.093 A 
ATOM     17  C   UNL     1     -15.624 -13.068  -4.479  1.00  0.00     0.131 A 
ENDROOT
BRANCH   6  18
ATOM     18  O   UNL     1     -12.941  -8.873  -2.709  1.00  0.00    -0.507 OA
ATOM     19  H   UNL     1     -13.220  -8.114  -2.103  1.00  0.00     0.293 HD
ENDBRANCH   6  18
BRANCH  17  20
ATOM     20  O   UNL     1     -15.664 -13.254  -3.095  1.00  0.00    -0.507 OA
ATOM     21  H   UNL     1     -14.873 -13.567  -2.551  1.00  0.00     0.293 HD
ENDBRANCH  17  20
BRANCH  15  22
ATOM     22  O   UNL     1     -16.551 -15.065  -7.446  1.00  0.00    -0.508 OA
ATOM     23  H   UNL     1     -16.543 -15.026  -8.458  1.00  0.00     0.293 HD
ENDBRANCH  15  22
TORSDOF 3
ENDMDL
MODEL 6
REMARK VINA RESULT:    -4.813      6.159      8.887
REMARK INTER + INTRA:          -5.235
REMARK INTER:                  -5.235
REMARK INTRA:                   0.000
REMARK UNBOUND:                 0.000
REMARK SMILES Cc1cc(O)c2c(c1)C(=O)c1cc(O)cc(O)c1C2=O
REMARK SMILES IDX 1 1 2 2 8 3 7 4 6 5 4 6 3 7 19 8 20 9 18 10 11 11 9 12 10 13
REMARK SMILES IDX 12 14 13 15 15 16 16 17 5 18 17 20 14 22
REMARK H PARENT 5 19 17 21 14 23
REMARK Flexibility Score: inf
ROOT
ATOM      1  C   UNL     1     -14.603 -10.666  -3.548  1.00  0.00     0.044 C 
ATOM      2  C   UNL     1     -14.810 -11.861  -4.432  1.00  0.00    -0.047 A 
ATOM      3  C   UNL     1     -13.947 -12.099  -5.507  1.00  0.00     0.016 A 
ATOM      4  C   UNL     1     -14.116 -13.231  -6.323  1.00  0.00     0.038 A 
ATOM      5  C   UNL     1     -15.166 -14.139  -6.058  1.00  0.00     0.076 A 
ATOM      6  C   UNL     1     -15.983 -13.936  -4.916  1.00  0.00     0.127 A 
ATOM      7  C   UNL     1     -15.809 -12.792  -4.131  1.00  0.00     0.050 A 
ATOM      8  C   UNL     1     -15.403 -15.240  -7.026  1.00  0.00     0.201 C 
ATOM      9  O   UNL     1     -16.568 -15.694  -7.186  1.00  0.00    -0.288 OA
ATOM     10  C   UNL     1     -14.310 -15.671  -7.937  1.00  0.00     0.076 A 
ATOM     11  C   UNL     1     -13.261 -14.761  -8.197  1.00  0.00     0.041 A 
ATOM     12  C   UNL     1     -13.193 -13.480  -7.456  1.00  0.00     0.194 C 
ATOM     13  O   UNL     1     -12.333 -12.612  -7.772  1.00  0.00    -0.289 OA
ATOM     14  C   UNL     1     -12.283 -15.078  -9.156  1.00  0.00     0.059 A 
ATOM     15  C   UNL     1     -12.332 -16.294  -9.843  1.00  0.00     0.120 A 
ATOM     16  C   UNL     1     -13.342 -17.211  -9.559  1.00  0.00     0.093 A 
ATOM     17  C   UNL     1     -14.316 -16.928  -8.595  1.00  0.00     0.131 A 
ENDROOT
BRANCH   6  18
ATOM     18  O   UNL     1     -16.950 -14.858  -4.508  1.00  0.00    -0.507 OA
ATOM     19  H   UNL     1     -16.792 -15.555  -3.793  1.00  0.00     0.293 HD
ENDBRANCH   6  18
BRANCH  17  20
ATOM     20  O   UNL     1     -15.242 -17.932  -8.300  1.00  0.00    -0.507 OA
ATOM     21  H   UNL     1     -15.771 -17.968  -7.440  1.00  0.00     0.293 HD
ENDBRANCH  17  20
BRANCH  15  22
ATOM     22  O   UNL     1     -11.372 -16.606 -10.803  1.00  0.00    -0.508 OA
ATOM     23  H   UNL     1     -10.491 -17.039 -10.551  1.00  0.00     0.293 HD
ENDBRANCH  15  22
TORSDOF 3
ENDMDL
MODEL 7
REMARK VINA RESULT:    -4.786      3.126      5.468
REMARK INTER + INTRA:          -5.206
REMARK INTER:                  -5.206
REMARK INTRA:                   0.000
REMARK UNBOUND:                 0.000
REMARK SMILES Cc1cc(O)c2c(c1)C(=O)c1cc(O)cc(O)c1C2=O
REMARK SMILES IDX 1 1 2 2 8 3 7 4 6 5 4 6 3 7 19 8 20 9 18 10 11 11 9 12 10 13
REMARK SMILES IDX 12 14 13 15 15 16 16 17 5 18 17 20 14 22
REMARK H PARENT 5 19 17 21 14 23
REMARK Flexibility Score: inf
ROOT
ATOM      1  C   UNL     1     -15.375  -7.214  -1.661  1.00  0.00     0.044 C 
ATOM      2  C   UNL     1     -15.093  -7.896  -2.968  1.00  0.00    -0.047 A 
ATOM      3  C   UNL     1     -15.043  -9.292  -3.037  1.00  0.00     0.016 A 
ATOM      4  C   UNL     1     -14.808  -9.940  -4.262  1.00  0.00     0.038 A 
ATOM      5  C   UNL     1     -14.618  -9.178  -5.436  1.00  0.00     0.076 A 
ATOM      6  C   UNL     1     -14.754  -7.767  -5.373  1.00  0.00     0.127 A 
ATOM      7  C   UNL     1     -14.969  -7.144  -4.140  1.00  0.00     0.050 A 
ATOM      8  C   UNL     1     -14.226  -9.889  -6.680  1.00  0.00     0.201 C 
ATOM      9  O   UNL     1     -13.517  -9.302  -7.540  1.00  0.00    -0.288 OA
ATOM     10  C   UNL     1     -14.507 -11.342  -6.819  1.00  0.00     0.076 A 
ATOM     11  C   UNL     1     -14.698 -12.101  -5.643  1.00  0.00     0.041 A 
ATOM     12  C   UNL     1     -14.764 -11.421  -4.327  1.00  0.00     0.194 C 
ATOM     13  O   UNL     1     -14.809 -12.101  -3.266  1.00  0.00    -0.289 OA
ATOM     14  C   UNL     1     -14.829 -13.497  -5.726  1.00  0.00     0.059 A 
ATOM     15  C   UNL     1     -14.788 -14.141  -6.965  1.00  0.00     0.120 A 
ATOM     16  C   UNL     1     -14.640 -13.391  -8.131  1.00  0.00     0.093 A 
ATOM     17  C   UNL     1     -14.527 -11.998  -8.077  1.00  0.00     0.131 A 
ENDROOT
BRANCH   6  18
ATOM     18  O   UNL     1     -14.719  -6.955  -6.509  1.00  0.00    -0.507 OA
ATOM     19  H   UNL     1     -13.880  -6.507  -6.851  1.00  0.00     0.293 HD
ENDBRANCH   6  18
BRANCH  17  20
ATOM     20  O   UNL     1     -14.474 -11.309  -9.291  1.00  0.00    -0.507 OA
ATOM     21  H   UNL     1     -13.739 -10.660  -9.533  1.00  0.00     0.293 HD
ENDBRANCH  17  20
BRANCH  15  22
ATOM     22  O   UNL     1     -14.905 -15.527  -7.050  1.00  0.00    -0.508 OA
ATOM     23  H   UNL     1     -14.785 -16.120  -6.237  1.00  0.00     0.293 HD
ENDBRANCH  15  22
TORSDOF 3
ENDMDL
MODEL 8
REMARK VINA RESULT:    -4.760      1.466      5.471
REMARK INTER + INTRA:          -5.178
REMARK INTER:                  -5.178
REMARK INTRA:                   0.000
REMARK UNBOUND:                 0.000
REMARK SMILES Cc1cc(O)c2c(c1)C(=O)c1cc(O)cc(O)c1C2=O
REMARK SMILES IDX 1 1 2 2 8 3 7 4 6 5 4 6 3 7 19 8 20 9 18 10 11 11 9 12 10 13
REMARK SMILES IDX 12 14 13 15 15 16 16 17 5 18 17 20 14 22
REMARK H PARENT 5 19 17 21 14 23
REMARK Flexibility Score: inf
ROOT
ATOM      1  C   UNL     1     -14.776 -11.667  -3.824  1.00  0.00     0.044 C 
ATOM      2  C   UNL     1     -14.586 -10.257  -4.300  1.00  0.00    -0.047 A 
ATOM      3  C   UNL     1     -14.332  -9.998  -5.652  1.00  0.00     0.016 A 
ATOM      4  C   UNL     1     -14.181  -8.679  -6.111  1.00  0.00     0.038 A 
ATOM      5  C   UNL     1     -14.284  -7.602  -5.204  1.00  0.00     0.076 A 
ATOM      6  C   UNL     1     -14.626  -7.867  -3.852  1.00  0.00     0.127 A 
ATOM      7  C   UNL     1     -14.751  -9.188  -3.414  1.00  0.00     0.050 A 
ATOM      8  C   UNL     1     -13.973  -6.235  -5.697  1.00  0.00     0.201 C 
ATOM      9  O   UNL     1     -13.496  -5.377  -4.906  1.00  0.00    -0.288 OA
ATOM     10  C   UNL     1     -14.044  -5.941  -7.152  1.00  0.00     0.076 A 
ATOM     11  C   UNL     1     -13.942  -7.022  -8.057  1.00  0.00     0.041 A 
ATOM     12  C   UNL     1     -13.920  -8.413  -7.546  1.00  0.00     0.194 C 
ATOM     13  O   UNL     1     -13.703  -9.373  -8.337  1.00  0.00    -0.289 OA
ATOM     14  C   UNL     1     -13.868  -6.772  -9.437  1.00  0.00     0.059 A 
ATOM     15  C   UNL     1     -13.909  -5.463  -9.925  1.00  0.00     0.120 A 
ATOM     16  C   UNL     1     -14.050  -4.397  -9.038  1.00  0.00     0.093 A 
ATOM     17  C   UNL     1     -14.146  -4.620  -7.660  1.00  0.00     0.131 A 
ENDROOT
BRANCH   6  18
ATOM     18  O   UNL     1     -14.882  -6.852  -2.926  1.00  0.00    -0.507 OA
ATOM     19  H   UNL     1     -15.810  -6.597  -2.618  1.00  0.00     0.293 HD
ENDBRANCH   6  18
BRANCH  17  20
ATOM     20  O   UNL     1     -14.378  -3.511  -6.843  1.00  0.00    -0.507 OA
ATOM     21  H   UNL     1     -13.971  -3.400  -5.925  1.00  0.00     0.293 HD
ENDBRANCH  17  20
BRANCH  15  22
ATOM     22  O   UNL     1     -13.822  -5.211 -11.292  1.00  0.00    -0.508 OA
ATOM     23  H   UNL     1     -14.473  -4.591 -11.759  1.00  0.00     0.293 HD
ENDBRANCH  15  22
TORSDOF 3
ENDMDL
MODEL 9
REMARK VINA RESULT:    -4.753      4.400      7.457
REMARK INTER + INTRA:          -5.169
REMARK INTER:                  -5.169
REMARK INTRA:                   0.000
REMARK UNBOUND:                 0.000
REMARK SMILES Cc1cc(O)c2c(c1)C(=O)c1cc(O)cc(O)c1C2=O
REMARK SMILES IDX 1 1 2 2 8 3 7 4 6 5 4 6 3 7 19 8 20 9 18 10 11 11 9 12 10 13
REMARK SMILES IDX 12 14 13 15 15 16 16 17 5 18 17 20 14 22
REMARK H PARENT 5 19 17 21 14 23
REMARK Flexibility Score: inf
ROOT
ATOM      1  C   UNL     1     -14.982 -16.435  -8.760  1.00  0.00     0.044 C 
ATOM      2  C   UNL     1     -15.025 -15.378  -7.695  1.00  0.00    -0.047 A 
ATOM      3  C   UNL     1     -13.974 -14.464  -7.568  1.00  0.00     0.016 A 
ATOM      4  C   UNL     1     -14.019 -13.454  -6.592  1.00  0.00     0.038 A 
ATOM      5  C   UNL     1     -15.133 -13.358  -5.729  1.00  0.00     0.076 A 
ATOM      6  C   UNL     1     -16.232 -14.235  -5.920  1.00  0.00     0.127 A 
ATOM      7  C   UNL     1     -16.156 -15.244  -6.884  1.00  0.00     0.050 A 
ATOM      8  C   UNL     1     -15.078 -12.374  -4.617  1.00  0.00     0.201 C 
ATOM      9  O   UNL     1     -15.696 -12.607  -3.544  1.00  0.00    -0.288 OA
ATOM     10  C   UNL     1     -14.148 -11.217  -4.700  1.00  0.00     0.076 A 
ATOM     11  C   UNL     1     -13.036 -11.316  -5.566  1.00  0.00     0.041 A 
ATOM     12  C   UNL     1     -12.904 -12.484  -6.469  1.00  0.00     0.194 C 
ATOM     13  O   UNL     1     -11.854 -12.640  -7.151  1.00  0.00    -0.289 OA
ATOM     14  C   UNL     1     -12.062 -10.303  -5.571  1.00  0.00     0.059 A 
ATOM     15  C   UNL     1     -12.192  -9.190  -4.736  1.00  0.00     0.120 A 
ATOM     16  C   UNL     1     -13.309  -9.070  -3.910  1.00  0.00     0.093 A 
ATOM     17  C   UNL     1     -14.303 -10.055  -3.902  1.00  0.00     0.131 A 
ENDROOT
BRANCH   6  18
ATOM     18  O   UNL     1     -17.425 -14.116  -5.202  1.00  0.00    -0.507 OA
ATOM     19  H   UNL     1     -18.340 -14.128  -5.631  1.00  0.00     0.293 HD
ENDBRANCH   6  18
BRANCH  17  20
ATOM     20  O   UNL     1     -15.435  -9.821  -3.117  1.00  0.00    -0.507 OA
ATOM     21  H   UNL     1     -16.334 -10.245  -3.295  1.00  0.00     0.293 HD
ENDBRANCH  17  20
BRANCH  15  22
ATOM     22  O   UNL     1     -11.223  -8.190  -4.728  1.00  0.00    -0.508 OA
ATOM     23  H   UNL     1     -11.030  -7.645  -3.896  1.00  0.00     0.293 HD
ENDBRANCH  15  22
TORSDOF 3
ENDMDL
