MODEL 1
REMARK VINA RESULT:    54.985      0.000      0.000
REMARK INTER + INTRA:          90.525
REMARK INTER:                  90.344
REMARK INTRA:                   0.181
REMARK UNBOUND:                 0.181
REMARK SMILES OC[C@@H]1O[C@@H](O)[C@H](O)[C@@H](O)[C@H]1O[C@@H]1O[C@H](CO)[C@@H](O[C@@H]2O[C@H](CO)[C@H](O)[C@@H](O)[C@H]2O)[C@@H](O)[C@H]1O
REMARK SMILES IDX 18 1 15 2 14 3 13 4 33 5 31 6 19 7 20 8 22 9 25 10 21 11
REMARK SMILES IDX 27 12 29 13 23 14 24 15 26 17 28 19 30 21 16 23 17 24 32 26
REMARK SMILES IDX 34 28 12 30 11 31 3 32 9 33 4 34 7 35 5 36 2 37 1 38 10 40
REMARK SMILES IDX 8 42 6 44
REMARK H PARENT 24 16 26 18 28 20 30 22 17 25 32 27 34 29 1 39 10 41 8 43 6 45
REMARK Flexibility Score: inf
ROOT
ATOM      1  C   UNL     1       9.910 -13.049 -11.664  1.00  0.00     0.184 C 
ATOM      2  C   UNL     1      11.091 -11.966 -11.681  1.00  0.00     0.178 C 
ATOM      3  O   UNL     1      11.476 -11.545 -13.029  1.00  0.00    -0.341 OA
ATOM      4  C   UNL     1      10.414 -11.446 -13.963  1.00  0.00     0.282 C 
ATOM      5  C   UNL     1       9.846 -12.854 -14.338  1.00  0.00     0.202 C 
ATOM      6  C   UNL     1       9.854 -13.789 -13.092  1.00  0.00     0.180 C 
ENDROOT
BRANCH   1   7
ATOM      7  O   UNL     1       8.680 -12.460 -11.043  1.00  0.00    -0.341 OA
BRANCH   7   8
ATOM      8  C   UNL     1       8.915 -12.205  -9.582  1.00  0.00     0.282 C 
ATOM      9  C   UNL     1       7.725 -13.089  -7.634  1.00  0.00     0.178 C 
ATOM     10  C   UNL     1       6.428 -12.411  -8.137  1.00  0.00     0.177 C 
ATOM     11  O   UNL     1       8.654 -13.347  -8.713  1.00  0.00    -0.341 OA
ATOM     12  C   UNL     1       6.717 -11.115  -8.951  1.00  0.00     0.179 C 
ATOM     13  C   UNL     1       8.267 -10.826  -9.066  1.00  0.00     0.202 C 
BRANCH   9  14
ATOM     14  C   UNL     1       7.500 -14.179  -6.393  1.00  0.00     0.191 C 
BRANCH  14  15
ATOM     15  O   UNL     1       8.158 -14.477  -4.959  1.00  0.00    -0.394 OA
ATOM     16  H   UNL     1       7.696 -15.368  -4.522  1.00  0.00     0.210 HD
ENDBRANCH  14  15
ENDBRANCH   9  14
BRANCH  10  17
ATOM     17  O   UNL     1       5.603 -13.242  -8.911  1.00  0.00    -0.387 OA
ATOM     18  H   UNL     1       5.684 -14.138  -8.572  1.00  0.00     0.211 HD
ENDBRANCH  10  17
BRANCH  12  19
ATOM     19  O   UNL     1       5.902 -10.053  -8.401  1.00  0.00    -0.387 OA
ATOM     20  H   UNL     1       4.923  -9.706  -8.458  1.00  0.00     0.211 HD
ENDBRANCH  12  19
BRANCH  13  21
ATOM     21  O   UNL     1       8.769 -10.310  -7.867  1.00  0.00    -0.385 OA
ATOM     22  H   UNL     1       9.690 -10.045  -7.990  1.00  0.00     0.211 HD
ENDBRANCH  13  21
ENDBRANCH   7   8
ENDBRANCH   1   7
BRANCH   2  23
ATOM     23  C   UNL     1      12.376 -12.440 -10.942  1.00  0.00     0.191 C 
BRANCH  23  24
ATOM     24  O   UNL     1      13.563 -12.143 -11.623  1.00  0.00    -0.394 OA
ATOM     25  H   UNL     1      13.670 -11.150 -11.590  1.00  0.00     0.210 HD
ENDBRANCH  23  24
ENDBRANCH   2  23
BRANCH   6  26
ATOM     26  O   UNL     1       8.914 -14.887 -13.259  1.00  0.00    -0.387 OA
ATOM     27  H   UNL     1       9.280 -15.577 -13.961  1.00  0.00     0.211 HD
ENDBRANCH   6  26
BRANCH   5  28
ATOM     28  O   UNL     1       8.535 -12.689 -14.809  1.00  0.00    -0.385 OA
ATOM     29  H   UNL     1       8.621 -12.425 -15.754  1.00  0.00     0.211 HD
ENDBRANCH   5  28
BRANCH   4  30
ATOM     30  O   UNL     1      10.592 -10.623 -15.120  1.00  0.00    -0.341 OA
BRANCH  30  31
ATOM     31  C   UNL     1      10.899  -9.191 -14.868  1.00  0.00     0.184 C 
ATOM     32  C   UNL     1      10.146  -8.756 -13.617  1.00  0.00     0.178 C 
ATOM     33  C   UNL     1      12.413  -9.124 -14.702  1.00  0.00     0.180 C 
ATOM     34  O   UNL     1      10.654  -7.573 -13.150  1.00  0.00    -0.342 OA
ATOM     35  C   UNL     1      12.904  -7.950 -13.949  1.00  0.00     0.201 C 
ATOM     36  C   UNL     1      12.051  -7.548 -12.847  1.00  0.00     0.279 C 
BRANCH  32  37
ATOM     37  C   UNL     1       8.554  -8.294 -14.167  1.00  0.00     0.191 C 
BRANCH  37  38
ATOM     38  O   UNL     1       8.392  -6.909 -13.888  1.00  0.00    -0.394 OA
ATOM     39  H   UNL     1       8.198  -6.461 -14.806  1.00  0.00     0.210 HD
ENDBRANCH  37  38
ENDBRANCH  32  37
BRANCH  33  40
ATOM     40  O   UNL     1      12.873 -10.342 -14.115  1.00  0.00    -0.387 OA
ATOM     41  H   UNL     1      13.278 -10.910 -14.790  1.00  0.00     0.211 HD
ENDBRANCH  33  40
BRANCH  35  42
ATOM     42  O   UNL     1      13.007  -6.882 -14.770  1.00  0.00    -0.385 OA
ATOM     43  H   UNL     1      12.492  -6.151 -14.268  1.00  0.00     0.211 HD
ENDBRANCH  35  42
BRANCH  36  44
ATOM     44  O   UNL     1      12.375  -8.267 -11.646  1.00  0.00    -0.366 OA
ATOM     45  H   UNL     1      12.409  -7.550 -10.926  1.00  0.00     0.213 HD
ENDBRANCH  36  44
ENDBRANCH  30  31
ENDBRANCH   4  30
TORSDOF 18
ENDMDL
MODEL 2
REMARK VINA RESULT:    57.732     13.782     19.121
REMARK INTER + INTRA:          95.038
REMARK INTER:                  94.605
REMARK INTRA:                   0.433
REMARK UNBOUND:                 0.181
REMARK SMILES OC[C@@H]1O[C@@H](O)[C@H](O)[C@@H](O)[C@H]1O[C@@H]1O[C@H](CO)[C@@H](O[C@@H]2O[C@H](CO)[C@H](O)[C@@H](O)[C@H]2O)[C@@H](O)[C@H]1O
REMARK SMILES IDX 18 1 15 2 14 3 13 4 33 5 31 6 19 7 20 8 22 9 25 10 21 11
REMARK SMILES IDX 27 12 29 13 23 14 24 15 26 17 28 19 30 21 16 23 17 24 32 26
REMARK SMILES IDX 34 28 12 30 11 31 3 32 9 33 4 34 7 35 5 36 2 37 1 38 10 40
REMARK SMILES IDX 8 42 6 44
REMARK H PARENT 24 16 26 18 28 20 30 22 17 25 32 27 34 29 1 39 10 41 8 43 6 45
REMARK Flexibility Score: inf
ROOT
ATOM      1  C   UNL     1      12.836 -21.013   1.972  1.00  0.00     0.184 C 
ATOM      2  C   UNL     1      12.922 -22.203   3.041  1.00  0.00     0.178 C 
ATOM      3  O   UNL     1      13.981 -23.171   2.752  1.00  0.00    -0.341 OA
ATOM      4  C   UNL     1      15.171 -22.627   2.205  1.00  0.00     0.282 C 
ATOM      5  C   UNL     1      14.948 -22.118   0.743  1.00  0.00     0.202 C 
ATOM      6  C   UNL     1      13.530 -21.488   0.599  1.00  0.00     0.180 C 
ENDROOT
BRANCH   1   7
ATOM      7  O   UNL     1      13.198 -19.711   2.619  1.00  0.00    -0.341 OA
BRANCH   7   8
ATOM      8  C   UNL     1      12.067 -18.734   2.475  1.00  0.00     0.282 C 
ATOM      9  C   UNL     1      10.204 -18.730   0.887  1.00  0.00     0.178 C 
ATOM     10  C   UNL     1      11.215 -18.619  -0.278  1.00  0.00     0.177 C 
ATOM     11  O   UNL     1      10.798 -19.326   2.065  1.00  0.00    -0.341 OA
ATOM     12  C   UNL     1      12.513 -17.865   0.137  1.00  0.00     0.179 C 
ATOM     13  C   UNL     1      12.472 -17.413   1.651  1.00  0.00     0.202 C 
BRANCH   9  14
ATOM     14  C   UNL     1       8.644 -19.088   0.419  1.00  0.00     0.191 C 
BRANCH  14  15
ATOM     15  O   UNL     1       7.882 -19.449  -0.949  1.00  0.00    -0.394 OA
ATOM     16  H   UNL     1       8.319 -18.875  -1.772  1.00  0.00     0.210 HD
ENDBRANCH  14  15
ENDBRANCH   9  14
BRANCH  10  17
ATOM     17  O   UNL     1      11.584 -19.850  -0.845  1.00  0.00    -0.387 OA
ATOM     18  H   UNL     1      11.079 -19.966  -1.654  1.00  0.00     0.211 HD
ENDBRANCH  10  17
BRANCH  12  19
ATOM     19  O   UNL     1      12.756 -16.826  -0.840  1.00  0.00    -0.387 OA
ATOM     20  H   UNL     1      12.216 -16.136  -1.402  1.00  0.00     0.211 HD
ENDBRANCH  12  19
BRANCH  13  21
ATOM     21  O   UNL     1      11.645 -16.296   1.817  1.00  0.00    -0.385 OA
ATOM     22  H   UNL     1      11.309 -16.012   0.957  1.00  0.00     0.211 HD
ENDBRANCH  13  21
ENDBRANCH   7   8
ENDBRANCH   1   7
BRANCH   2  23
ATOM     23  C   UNL     1      11.588 -22.988   3.203  1.00  0.00     0.191 C 
BRANCH  23  24
ATOM     24  O   UNL     1      11.741 -24.251   3.789  1.00  0.00    -0.394 OA
ATOM     25  H   UNL     1      12.381 -24.138   4.547  1.00  0.00     0.210 HD
ENDBRANCH  23  24
ENDBRANCH   2  23
BRANCH   6  26
ATOM     26  O   UNL     1      13.473 -20.591  -0.545  1.00  0.00    -0.387 OA
ATOM     27  H   UNL     1      13.635 -19.600  -0.239  1.00  0.00     0.211 HD
ENDBRANCH   6  26
BRANCH   5  28
ATOM     28  O   UNL     1      15.933 -21.160   0.456  1.00  0.00    -0.385 OA
ATOM     29  H   UNL     1      15.669 -20.754  -0.401  1.00  0.00     0.211 HD
ENDBRANCH   5  28
BRANCH   4  30
ATOM     30  O   UNL     1      16.386 -23.372   2.325  1.00  0.00    -0.341 OA
BRANCH  30  31
ATOM     31  C   UNL     1      16.257 -24.760   2.843  1.00  0.00     0.184 C 
ATOM     32  C   UNL     1      16.515 -25.724   1.693  1.00  0.00     0.178 C 
ATOM     33  C   UNL     1      17.291 -24.874   3.957  1.00  0.00     0.180 C 
ATOM     34  O   UNL     1      16.749 -26.983   2.178  1.00  0.00    -0.342 OA
ATOM     35  C   UNL     1      17.718 -26.255   4.269  1.00  0.00     0.201 C 
ATOM     36  C   UNL     1      17.822 -27.124   3.111  1.00  0.00     0.279 C 
BRANCH  32  37
ATOM     37  C   UNL     1      14.979 -25.908   0.883  1.00  0.00     0.191 C 
BRANCH  37  38
ATOM     38  O   UNL     1      15.028 -27.124   0.148  1.00  0.00    -0.394 OA
ATOM     39  H   UNL     1      14.051 -27.478   0.129  1.00  0.00     0.210 HD
ENDBRANCH  37  38
ENDBRANCH  32  37
BRANCH  33  40
ATOM     40  O   UNL     1      18.413 -24.047   3.640  1.00  0.00    -0.387 OA
ATOM     41  H   UNL     1      18.197 -23.455   2.903  1.00  0.00     0.211 HD
ENDBRANCH  33  40
BRANCH  35  42
ATOM     42  O   UNL     1      16.835 -26.834   5.111  1.00  0.00    -0.385 OA
ATOM     43  H   UNL     1      17.436 -27.242   5.836  1.00  0.00     0.211 HD
ENDBRANCH  35  42
BRANCH  36  44
ATOM     44  O   UNL     1      19.116 -27.021   2.496  1.00  0.00    -0.366 OA
ATOM     45  H   UNL     1      19.767 -27.058   3.276  1.00  0.00     0.213 HD
ENDBRANCH  36  44
ENDBRANCH  30  31
ENDBRANCH   4  30
TORSDOF 18
ENDMDL
