MODEL 1
REMARK VINA RESULT:    -1.984      0.000      0.000
REMARK INTER + INTRA:          -2.740
REMARK INTER:                  -3.028
REMARK INTRA:                   0.288
REMARK UNBOUND:                 0.288
REMARK SMILES CCCCCCCCCCC(=O)[O-]
REMARK SMILES IDX 7 1 8 2 9 3 10 4 11 5 12 6 13 7 6 8 5 9 4 10 3 11 2 12 1 13
REMARK H PARENT
REMARK Flexibility Score: inf
ROOT
ATOM      1  C   UNL     1     -28.926  57.904  10.060  1.00  0.00     0.000 C 
ENDROOT
BRANCH   1   2
ATOM      2  C   UNL     1     -27.394  58.000  10.123  1.00  0.00     0.000 C 
BRANCH   2   3
ATOM      3  C   UNL     1     -26.712  56.623  10.110  1.00  0.00     0.006 C 
BRANCH   3   4
ATOM      4  C   UNL     1     -25.221  56.705   9.760  1.00  0.00     0.053 C 
BRANCH   4   5
ATOM      5  C   UNL     1     -24.958  57.877   8.866  1.00  0.00     0.041 C 
ATOM      6  O   UNL     1     -24.023  58.677   9.130  1.00  0.00    -0.550 OA
ATOM      7  O   UNL     1     -25.715  58.055   7.715  1.00  0.00    -0.550 OA
ENDBRANCH   4   5
ENDBRANCH   3   4
ENDBRANCH   2   3
ENDBRANCH   1   2
BRANCH   1   8
ATOM      8  C   UNL     1     -29.565  59.297  10.076  1.00  0.00     0.000 C 
BRANCH   8   9
ATOM      9  C   UNL     1     -30.942  59.278   9.395  1.00  0.00    -0.000 C 
BRANCH   9  10
ATOM     10  C   UNL     1     -31.815  58.101   9.859  1.00  0.00    -0.000 C 
BRANCH  10  11
ATOM     11  C   UNL     1     -31.635  56.849   8.987  1.00  0.00    -0.000 C 
BRANCH  11  12
ATOM     12  C   UNL     1     -31.788  55.573   9.823  1.00  0.00    -0.003 C 
ATOM     13  C   UNL     1     -32.010  54.354   8.931  1.00  0.00     0.004 C 
ENDBRANCH  11  12
ENDBRANCH  10  11
ENDBRANCH   9  10
ENDBRANCH   8   9
ENDBRANCH   1   8
TORSDOF 9
ENDMDL
MODEL 2
REMARK VINA RESULT:    -0.604     23.361     24.759
REMARK INTER + INTRA:          -0.634
REMARK INTER:                  -0.268
REMARK INTRA:                  -0.366
REMARK UNBOUND:                 0.288
REMARK SMILES CCCCCCCCCCC(=O)[O-]
REMARK SMILES IDX 7 1 8 2 9 3 10 4 11 5 12 6 13 7 6 8 5 9 4 10 3 11 2 12 1 13
REMARK H PARENT
REMARK Flexibility Score: inf
ROOT
ATOM      1  C   UNL     1     -12.667  60.760  -7.799  1.00  0.00     0.000 C 
ENDROOT
BRANCH   1   2
ATOM      2  C   UNL     1     -11.876  59.578  -8.380  1.00  0.00     0.000 C 
BRANCH   2   3
ATOM      3  C   UNL     1     -12.438  59.094  -9.726  1.00  0.00     0.006 C 
BRANCH   3   4
ATOM      4  C   UNL     1     -11.908  57.711 -10.124  1.00  0.00     0.053 C 
BRANCH   4   5
ATOM      5  C   UNL     1     -12.727  56.634  -9.485  1.00  0.00     0.041 C 
ATOM      6  O   UNL     1     -13.979  56.744  -9.422  1.00  0.00    -0.550 OA
ATOM      7  O   UNL     1     -12.111  55.486  -9.005  1.00  0.00    -0.550 OA
ENDBRANCH   4   5
ENDBRANCH   3   4
ENDBRANCH   2   3
ENDBRANCH   1   2
BRANCH   1   8
ATOM      8  C   UNL     1     -11.946  62.087  -8.064  1.00  0.00     0.000 C 
BRANCH   8   9
ATOM      9  C   UNL     1     -11.878  62.385  -9.569  1.00  0.00    -0.000 C 
BRANCH   9  10
ATOM     10  C   UNL     1     -13.135  63.104 -10.088  1.00  0.00    -0.000 C 
BRANCH  10  11
ATOM     11  C   UNL     1     -14.377  62.201 -10.083  1.00  0.00    -0.000 C 
BRANCH  11  12
ATOM     12  C   UNL     1     -15.648  63.021  -9.827  1.00  0.00    -0.003 C 
ATOM     13  C   UNL     1     -15.563  63.769  -8.499  1.00  0.00     0.004 C 
ENDBRANCH  11  12
ENDBRANCH  10  11
ENDBRANCH   9  10
ENDBRANCH   8   9
ENDBRANCH   1   8
TORSDOF 9
ENDMDL
MODEL 3
REMARK VINA RESULT:    -0.382     23.511     24.488
REMARK INTER + INTRA:          -0.294
REMARK INTER:                  -0.682
REMARK INTRA:                   0.387
REMARK UNBOUND:                 0.288
REMARK SMILES CCCCCCCCCCC(=O)[O-]
REMARK SMILES IDX 7 1 8 2 9 3 10 4 11 5 12 6 13 7 6 8 5 9 4 10 3 11 2 12 1 13
REMARK H PARENT
REMARK Flexibility Score: inf
ROOT
ATOM      1  C   UNL     1     -12.341  61.583  -7.963  1.00  0.00     0.000 C 
ENDROOT
BRANCH   1   2
ATOM      2  C   UNL     1     -11.875  60.120  -7.972  1.00  0.00     0.000 C 
BRANCH   2   3
ATOM      3  C   UNL     1     -12.252  59.385  -9.267  1.00  0.00     0.006 C 
BRANCH   3   4
ATOM      4  C   UNL     1     -13.030  58.089  -9.006  1.00  0.00     0.053 C 
BRANCH   4   5
ATOM      5  C   UNL     1     -14.496  58.309  -9.214  1.00  0.00     0.041 C 
ATOM      6  O   UNL     1     -15.309  57.364  -9.043  1.00  0.00    -0.550 OA
ATOM      7  O   UNL     1     -14.968  59.572  -9.549  1.00  0.00    -0.550 OA
ENDBRANCH   4   5
ENDBRANCH   3   4
ENDBRANCH   2   3
ENDBRANCH   1   2
BRANCH   1   8
ATOM      8  C   UNL     1     -12.060  62.257  -9.312  1.00  0.00     0.000 C 
BRANCH   8   9
ATOM      9  C   UNL     1     -12.284  63.774  -9.225  1.00  0.00    -0.000 C 
BRANCH   9  10
ATOM     10  C   UNL     1     -13.435  64.255 -10.125  1.00  0.00    -0.000 C 
BRANCH  10  11
ATOM     11  C   UNL     1     -14.746  64.459  -9.351  1.00  0.00    -0.000 C 
BRANCH  11  12
ATOM     12  C   UNL     1     -15.833  63.500  -9.853  1.00  0.00    -0.003 C 
ATOM     13  C   UNL     1     -15.344  62.054  -9.837  1.00  0.00     0.004 C 
ENDBRANCH  11  12
ENDBRANCH  10  11
ENDBRANCH   9  10
ENDBRANCH   8   9
ENDBRANCH   1   8
TORSDOF 9
ENDMDL
