MODEL 1
REMARK VINA RESULT:    -5.388      0.000      0.000
REMARK INTER + INTRA:         -11.396
REMARK INTER:                 -10.113
REMARK INTRA:                  -1.284
REMARK UNBOUND:                -1.284
REMARK SMILES O=C([O-])CCCCCCCCCCCCCCC(=O)[O-]
REMARK SMILES IDX 10 1 9 2 8 3 7 4 6 5 5 6 4 7 2 8 1 9 3 10 11 11 12 12 13 13
REMARK SMILES IDX 14 14 15 15 16 16 17 17 18 18 19 19 20 20
REMARK H PARENT
REMARK Flexibility Score: inf
ROOT
ATOM      1  C   UNL     1      16.299 -31.168  22.716  1.00  0.00     0.000 C 
ENDROOT
BRANCH   1   2
ATOM      2  C   UNL     1      14.837 -31.137  23.200  1.00  0.00     0.000 C 
BRANCH   2   3
ATOM      3  C   UNL     1      14.037 -29.885  22.785  1.00  0.00     0.000 C 
BRANCH   3   4
ATOM      4  C   UNL     1      12.852 -29.535  23.702  1.00  0.00     0.000 C 
BRANCH   4   5
ATOM      5  C   UNL     1      11.754 -28.737  22.982  1.00  0.00     0.000 C 
BRANCH   5   6
ATOM      6  C   UNL     1      11.535 -27.375  23.657  1.00  0.00     0.006 C 
BRANCH   6   7
ATOM      7  C   UNL     1      12.496 -27.148  24.830  1.00  0.00     0.053 C 
BRANCH   7   8
ATOM      8  C   UNL     1      13.484 -26.060  24.537  1.00  0.00     0.041 C 
ATOM      9  O   UNL     1      13.522 -25.530  23.395  1.00  0.00    -0.550 OA
ATOM     10  O   UNL     1      14.385 -25.657  25.513  1.00  0.00    -0.550 OA
ENDBRANCH   7   8
ENDBRANCH   6   7
ENDBRANCH   5   6
ENDBRANCH   4   5
ENDBRANCH   3   4
ENDBRANCH   2   3
ENDBRANCH   1   2
BRANCH   1  11
ATOM     11  C   UNL     1      16.517 -30.365  21.423  1.00  0.00     0.000 C 
BRANCH  11  12
ATOM     12  C   UNL     1      17.605 -30.984  20.525  1.00  0.00     0.000 C 
BRANCH  12  13
ATOM     13  C   UNL     1      18.186 -32.297  21.082  1.00  0.00     0.000 C 
BRANCH  13  14
ATOM     14  C   UNL     1      18.979 -33.109  20.031  1.00  0.00     0.000 C 
BRANCH  14  15
ATOM     15  C   UNL     1      18.277 -34.410  19.599  1.00  0.00     0.000 C 
BRANCH  15  16
ATOM     16  C   UNL     1      16.870 -34.212  19.000  1.00  0.00     0.006 C 
BRANCH  16  17
ATOM     17  C   UNL     1      15.761 -34.998  19.719  1.00  0.00     0.053 C 
BRANCH  17  18
ATOM     18  C   UNL     1      15.051 -34.162  20.739  1.00  0.00     0.041 C 
ATOM     19  O   UNL     1      15.251 -34.355  21.967  1.00  0.00    -0.550 OA
ATOM     20  O   UNL     1      14.192 -33.149  20.333  1.00  0.00    -0.550 OA
ENDBRANCH  17  18
ENDBRANCH  16  17
ENDBRANCH  15  16
ENDBRANCH  14  15
ENDBRANCH  13  14
ENDBRANCH  12  13
ENDBRANCH  11  12
ENDBRANCH   1  11
TORSDOF 15
ENDMDL
MODEL 2
REMARK VINA RESULT:    -5.194      2.291      4.191
REMARK INTER + INTRA:         -11.032
REMARK INTER:                  -9.231
REMARK INTRA:                  -1.801
REMARK UNBOUND:                -1.284
REMARK SMILES O=C([O-])CCCCCCCCCCCCCCC(=O)[O-]
REMARK SMILES IDX 10 1 9 2 8 3 7 4 6 5 5 6 4 7 2 8 1 9 3 10 11 11 12 12 13 13
REMARK SMILES IDX 14 14 15 15 16 16 17 17 18 18 19 19 20 20
REMARK H PARENT
REMARK Flexibility Score: inf
ROOT
ATOM      1  C   UNL     1      16.243 -34.941  19.564  1.00  0.00     0.000 C 
ENDROOT
BRANCH   1   2
ATOM      2  C   UNL     1      14.974 -34.261  20.111  1.00  0.00     0.000 C 
BRANCH   2   3
ATOM      3  C   UNL     1      14.989 -33.967  21.625  1.00  0.00     0.000 C 
BRANCH   3   4
ATOM      4  C   UNL     1      14.396 -32.606  22.032  1.00  0.00     0.000 C 
BRANCH   4   5
ATOM      5  C   UNL     1      13.634 -31.921  20.888  1.00  0.00     0.000 C 
BRANCH   5   6
ATOM      6  C   UNL     1      12.680 -30.847  21.432  1.00  0.00     0.006 C 
BRANCH   6   7
ATOM      7  C   UNL     1      13.025 -30.440  22.870  1.00  0.00     0.053 C 
BRANCH   7   8
ATOM      8  C   UNL     1      12.288 -29.205  23.290  1.00  0.00     0.041 C 
ATOM      9  O   UNL     1      12.756 -28.464  24.195  1.00  0.00    -0.550 OA
ATOM     10  O   UNL     1      11.068 -28.891  22.706  1.00  0.00    -0.550 OA
ENDBRANCH   7   8
ENDBRANCH   6   7
ENDBRANCH   5   6
ENDBRANCH   4   5
ENDBRANCH   3   4
ENDBRANCH   2   3
ENDBRANCH   1   2
BRANCH   1  11
ATOM     11  C   UNL     1      17.142 -33.975  18.772  1.00  0.00     0.000 C 
BRANCH  11  12
ATOM     12  C   UNL     1      18.608 -34.022  19.242  1.00  0.00     0.000 C 
BRANCH  12  13
ATOM     13  C   UNL     1      18.760 -34.113  20.772  1.00  0.00     0.000 C 
BRANCH  13  14
ATOM     14  C   UNL     1      19.723 -33.053  21.355  1.00  0.00     0.000 C 
BRANCH  14  15
ATOM     15  C   UNL     1      19.748 -31.737  20.555  1.00  0.00     0.000 C 
BRANCH  15  16
ATOM     16  C   UNL     1      18.947 -30.583  21.192  1.00  0.00     0.006 C 
BRANCH  16  17
ATOM     17  C   UNL     1      17.428 -30.670  20.968  1.00  0.00     0.053 C 
BRANCH  17  18
ATOM     18  C   UNL     1      16.666 -29.864  21.974  1.00  0.00     0.041 C 
ATOM     19  O   UNL     1      16.016 -28.849  21.610  1.00  0.00    -0.550 OA
ATOM     20  O   UNL     1      16.649 -30.251  23.308  1.00  0.00    -0.550 OA
ENDBRANCH  17  18
ENDBRANCH  16  17
ENDBRANCH  15  16
ENDBRANCH  14  15
ENDBRANCH  13  14
ENDBRANCH  12  13
ENDBRANCH  11  12
ENDBRANCH   1  11
TORSDOF 15
ENDMDL
MODEL 3
REMARK VINA RESULT:    -5.139      4.389      6.233
REMARK INTER + INTRA:         -10.929
REMARK INTER:                  -9.662
REMARK INTRA:                  -1.267
REMARK UNBOUND:                -1.284
REMARK SMILES O=C([O-])CCCCCCCCCCCCCCC(=O)[O-]
REMARK SMILES IDX 10 1 9 2 8 3 7 4 6 5 5 6 4 7 2 8 1 9 3 10 11 11 12 12 13 13
REMARK SMILES IDX 14 14 15 15 16 16 17 17 18 18 19 19 20 20
REMARK H PARENT
REMARK Flexibility Score: inf
ROOT
ATOM      1  C   UNL     1      16.394 -29.930  22.427  1.00  0.00     0.000 C 
ENDROOT
BRANCH   1   2
ATOM      2  C   UNL     1      17.262 -30.365  21.231  1.00  0.00     0.000 C 
BRANCH   2   3
ATOM      3  C   UNL     1      18.674 -29.748  21.189  1.00  0.00     0.000 C 
BRANCH   3   4
ATOM      4  C   UNL     1      18.724 -28.258  20.804  1.00  0.00     0.000 C 
BRANCH   4   5
ATOM      5  C   UNL     1      20.114 -27.636  21.003  1.00  0.00     0.000 C 
BRANCH   5   6
ATOM      6  C   UNL     1      20.019 -26.106  21.104  1.00  0.00     0.006 C 
BRANCH   6   7
ATOM      7  C   UNL     1      20.694 -25.405  19.917  1.00  0.00     0.053 C 
BRANCH   7   8
ATOM      8  C   UNL     1      22.185 -25.389  20.056  1.00  0.00     0.041 C 
ATOM      9  O   UNL     1      22.902 -26.072  19.279  1.00  0.00    -0.550 OA
ATOM     10  O   UNL     1      22.781 -24.646  21.068  1.00  0.00    -0.550 OA
ENDBRANCH   7   8
ENDBRANCH   6   7
ENDBRANCH   5   6
ENDBRANCH   4   5
ENDBRANCH   3   4
ENDBRANCH   2   3
ENDBRANCH   1   2
BRANCH   1  11
ATOM     11  C   UNL     1      15.183 -29.080  22.006  1.00  0.00     0.000 C 
BRANCH  11  12
ATOM     12  C   UNL     1      13.935 -29.376  22.860  1.00  0.00     0.000 C 
BRANCH  12  13
ATOM     13  C   UNL     1      13.340 -30.776  22.613  1.00  0.00     0.000 C 
BRANCH  13  14
ATOM     14  C   UNL     1      12.979 -31.034  21.133  1.00  0.00     0.000 C 
BRANCH  14  15
ATOM     15  C   UNL     1      13.712 -32.243  20.521  1.00  0.00     0.000 C 
BRANCH  15  16
ATOM     16  C   UNL     1      14.604 -33.021  21.510  1.00  0.00     0.006 C 
BRANCH  16  17
ATOM     17  C   UNL     1      15.124 -34.363  20.970  1.00  0.00     0.053 C 
BRANCH  17  18
ATOM     18  C   UNL     1      16.418 -34.209  20.233  1.00  0.00     0.041 C 
ATOM     19  O   UNL     1      17.456 -33.845  20.845  1.00  0.00    -0.550 OA
ATOM     20  O   UNL     1      16.485 -34.497  18.876  1.00  0.00    -0.550 OA
ENDBRANCH  17  18
ENDBRANCH  16  17
ENDBRANCH  15  16
ENDBRANCH  14  15
ENDBRANCH  13  14
ENDBRANCH  12  13
ENDBRANCH  11  12
ENDBRANCH   1  11
TORSDOF 15
ENDMDL
MODEL 4
REMARK VINA RESULT:    -5.125      2.670      4.845
REMARK INTER + INTRA:         -10.903
REMARK INTER:                  -8.782
REMARK INTRA:                  -2.122
REMARK UNBOUND:                -1.284
REMARK SMILES O=C([O-])CCCCCCCCCCCCCCC(=O)[O-]
REMARK SMILES IDX 10 1 9 2 8 3 7 4 6 5 5 6 4 7 2 8 1 9 3 10 11 11 12 12 13 13
REMARK SMILES IDX 14 14 15 15 16 16 17 17 18 18 19 19 20 20
REMARK H PARENT
REMARK Flexibility Score: inf
ROOT
ATOM      1  C   UNL     1      17.367 -35.110  19.013  1.00  0.00     0.000 C 
ENDROOT
BRANCH   1   2
ATOM      2  C   UNL     1      16.316 -33.993  19.161  1.00  0.00     0.000 C 
BRANCH   2   3
ATOM      3  C   UNL     1      15.105 -34.347  20.048  1.00  0.00     0.000 C 
BRANCH   3   4
ATOM      4  C   UNL     1      14.526 -33.175  20.860  1.00  0.00     0.000 C 
BRANCH   4   5
ATOM      5  C   UNL     1      13.616 -32.262  20.026  1.00  0.00     0.000 C 
BRANCH   5   6
ATOM      6  C   UNL     1      12.844 -31.287  20.927  1.00  0.00     0.006 C 
BRANCH   6   7
ATOM      7  C   UNL     1      13.778 -30.458  21.819  1.00  0.00     0.053 C 
BRANCH   7   8
ATOM      8  C   UNL     1      13.400 -30.561  23.265  1.00  0.00     0.041 C 
ATOM      9  O   UNL     1      12.950 -29.557  23.876  1.00  0.00    -0.550 OA
ATOM     10  O   UNL     1      13.580 -31.758  23.947  1.00  0.00    -0.550 OA
ENDBRANCH   7   8
ENDBRANCH   6   7
ENDBRANCH   5   6
ENDBRANCH   4   5
ENDBRANCH   3   4
ENDBRANCH   2   3
ENDBRANCH   1   2
BRANCH   1  11
ATOM     11  C   UNL     1      16.826 -36.494  19.410  1.00  0.00     0.000 C 
BRANCH  11  12
ATOM     12  C   UNL     1      17.612 -37.116  20.580  1.00  0.00     0.000 C 
BRANCH  12  13
ATOM     13  C   UNL     1      18.368 -36.079  21.432  1.00  0.00     0.000 C 
BRANCH  13  14
ATOM     14  C   UNL     1      17.522 -35.509  22.595  1.00  0.00     0.000 C 
BRANCH  14  15
ATOM     15  C   UNL     1      17.717 -33.997  22.816  1.00  0.00     0.000 C 
BRANCH  15  16
ATOM     16  C   UNL     1      18.806 -33.355  21.934  1.00  0.00     0.006 C 
BRANCH  16  17
ATOM     17  C   UNL     1      18.994 -31.845  22.161  1.00  0.00     0.053 C 
BRANCH  17  18
ATOM     18  C   UNL     1      17.742 -31.074  21.876  1.00  0.00     0.041 C 
ATOM     19  O   UNL     1      17.111 -30.522  22.814  1.00  0.00    -0.550 OA
ATOM     20  O   UNL     1      17.290 -30.940  20.569  1.00  0.00    -0.550 OA
ENDBRANCH  17  18
ENDBRANCH  16  17
ENDBRANCH  15  16
ENDBRANCH  14  15
ENDBRANCH  13  14
ENDBRANCH  12  13
ENDBRANCH  11  12
ENDBRANCH   1  11
TORSDOF 15
ENDMDL
MODEL 5
REMARK VINA RESULT:    -5.124      2.432      6.559
REMARK INTER + INTRA:         -10.901
REMARK INTER:                  -8.734
REMARK INTRA:                  -2.167
REMARK UNBOUND:                -1.284
REMARK SMILES O=C([O-])CCCCCCCCCCCCCCC(=O)[O-]
REMARK SMILES IDX 10 1 9 2 8 3 7 4 6 5 5 6 4 7 2 8 1 9 3 10 11 11 12 12 13 13
REMARK SMILES IDX 14 14 15 15 16 16 17 17 18 18 19 19 20 20
REMARK H PARENT
REMARK Flexibility Score: inf
ROOT
ATOM      1  C   UNL     1      17.260 -33.996  18.909  1.00  0.00     0.000 C 
ENDROOT
BRANCH   1   2
ATOM      2  C   UNL     1      16.389 -35.113  19.514  1.00  0.00     0.000 C 
BRANCH   2   3
ATOM      3  C   UNL     1      15.017 -34.654  20.051  1.00  0.00     0.000 C 
BRANCH   3   4
ATOM      4  C   UNL     1      15.062 -33.461  21.021  1.00  0.00     0.000 C 
BRANCH   4   5
ATOM      5  C   UNL     1      14.932 -33.881  22.493  1.00  0.00     0.000 C 
BRANCH   5   6
ATOM      6  C   UNL     1      16.284 -33.781  23.213  1.00  0.00     0.006 C 
BRANCH   6   7
ATOM      7  C   UNL     1      17.070 -35.098  23.157  1.00  0.00     0.053 C 
BRANCH   7   8
ATOM      8  C   UNL     1      17.494 -35.549  24.521  1.00  0.00     0.041 C 
ATOM      9  O   UNL     1      16.639 -35.967  25.346  1.00  0.00    -0.550 OA
ATOM     10  O   UNL     1      18.830 -35.475  24.894  1.00  0.00    -0.550 OA
ENDBRANCH   7   8
ENDBRANCH   6   7
ENDBRANCH   5   6
ENDBRANCH   4   5
ENDBRANCH   3   4
ENDBRANCH   2   3
ENDBRANCH   1   2
BRANCH   1  11
ATOM     11  C   UNL     1      18.703 -34.012  19.442  1.00  0.00     0.000 C 
BRANCH  11  12
ATOM     12  C   UNL     1      18.916 -33.003  20.587  1.00  0.00     0.000 C 
BRANCH  12  13
ATOM     13  C   UNL     1      17.967 -31.791  20.522  1.00  0.00     0.000 C 
BRANCH  13  14
ATOM     14  C   UNL     1      18.110 -30.837  21.730  1.00  0.00     0.000 C 
BRANCH  14  15
ATOM     15  C   UNL     1      16.977 -29.797  21.832  1.00  0.00     0.000 C 
BRANCH  15  16
ATOM     16  C   UNL     1      15.830 -30.189  22.783  1.00  0.00     0.006 C 
BRANCH  16  17
ATOM     17  C   UNL     1      14.523 -29.414  22.550  1.00  0.00     0.053 C 
BRANCH  17  18
ATOM     18  C   UNL     1      13.392 -29.961  23.365  1.00  0.00     0.041 C 
ATOM     19  O   UNL     1      13.213 -31.204  23.445  1.00  0.00    -0.550 OA
ATOM     20  O   UNL     1      12.554 -29.099  24.060  1.00  0.00    -0.550 OA
ENDBRANCH  17  18
ENDBRANCH  16  17
ENDBRANCH  15  16
ENDBRANCH  14  15
ENDBRANCH  13  14
ENDBRANCH  12  13
ENDBRANCH  11  12
ENDBRANCH   1  11
TORSDOF 15
ENDMDL
MODEL 6
REMARK VINA RESULT:    -5.096      2.508      7.002
REMARK INTER + INTRA:         -10.848
REMARK INTER:                  -8.782
REMARK INTRA:                  -2.066
REMARK UNBOUND:                -1.284
REMARK SMILES O=C([O-])CCCCCCCCCCCCCCC(=O)[O-]
REMARK SMILES IDX 10 1 9 2 8 3 7 4 6 5 5 6 4 7 2 8 1 9 3 10 11 11 12 12 13 13
REMARK SMILES IDX 14 14 15 15 16 16 17 17 18 18 19 19 20 20
REMARK H PARENT
REMARK Flexibility Score: inf
ROOT
ATOM      1  C   UNL     1      15.019 -33.832  22.255  1.00  0.00     0.000 C 
ENDROOT
BRANCH   1   2
ATOM      2  C   UNL     1      14.629 -33.262  20.878  1.00  0.00     0.000 C 
BRANCH   2   3
ATOM      3  C   UNL     1      15.135 -34.071  19.667  1.00  0.00     0.000 C 
BRANCH   3   4
ATOM      4  C   UNL     1      16.661 -34.259  19.598  1.00  0.00     0.000 C 
BRANCH   4   5
ATOM      5  C   UNL     1      17.434 -32.951  19.821  1.00  0.00     0.000 C 
BRANCH   5   6
ATOM      6  C   UNL     1      18.703 -33.199  20.650  1.00  0.00     0.006 C 
BRANCH   6   7
ATOM      7  C   UNL     1      19.682 -32.019  20.578  1.00  0.00     0.053 C 
BRANCH   7   8
ATOM      8  C   UNL     1      20.563 -31.955  21.788  1.00  0.00     0.041 C 
ATOM      9  O   UNL     1      21.786 -32.243  21.698  1.00  0.00    -0.550 OA
ATOM     10  O   UNL     1      20.026 -31.610  23.022  1.00  0.00    -0.550 OA
ENDBRANCH   7   8
ENDBRANCH   6   7
ENDBRANCH   5   6
ENDBRANCH   4   5
ENDBRANCH   3   4
ENDBRANCH   2   3
ENDBRANCH   1   2
BRANCH   1  11
ATOM     11  C   UNL     1      15.126 -32.748  23.341  1.00  0.00     0.000 C 
BRANCH  11  12
ATOM     12  C   UNL     1      16.556 -32.191  23.473  1.00  0.00     0.000 C 
BRANCH  12  13
ATOM     13  C   UNL     1      16.631 -30.657  23.358  1.00  0.00     0.000 C 
BRANCH  13  14
ATOM     14  C   UNL     1      16.469 -30.143  21.909  1.00  0.00     0.000 C 
BRANCH  14  15
ATOM     15  C   UNL     1      15.045 -29.651  21.585  1.00  0.00     0.000 C 
BRANCH  15  16
ATOM     16  C   UNL     1      14.360 -28.874  22.726  1.00  0.00     0.006 C 
BRANCH  16  17
ATOM     17  C   UNL     1      12.989 -29.435  23.138  1.00  0.00     0.053 C 
BRANCH  17  18
ATOM     18  C   UNL     1      12.069 -28.362  23.635  1.00  0.00     0.041 C 
ATOM     19  O   UNL     1      10.950 -28.185  23.087  1.00  0.00    -0.550 OA
ATOM     20  O   UNL     1      12.437 -27.579  24.722  1.00  0.00    -0.550 OA
ENDBRANCH  17  18
ENDBRANCH  16  17
ENDBRANCH  15  16
ENDBRANCH  14  15
ENDBRANCH  13  14
ENDBRANCH  12  13
ENDBRANCH  11  12
ENDBRANCH   1  11
TORSDOF 15
ENDMDL
MODEL 7
REMARK VINA RESULT:    -5.085      4.348      6.383
REMARK INTER + INTRA:         -10.827
REMARK INTER:                  -9.313
REMARK INTRA:                  -1.514
REMARK UNBOUND:                -1.284
REMARK SMILES O=C([O-])CCCCCCCCCCCCCCC(=O)[O-]
REMARK SMILES IDX 10 1 9 2 8 3 7 4 6 5 5 6 4 7 2 8 1 9 3 10 11 11 12 12 13 13
REMARK SMILES IDX 14 14 15 15 16 16 17 17 18 18 19 19 20 20
REMARK H PARENT
REMARK Flexibility Score: inf
ROOT
ATOM      1  C   UNL     1      20.028 -31.514  20.768  1.00  0.00     0.000 C 
ENDROOT
BRANCH   1   2
ATOM      2  C   UNL     1      20.914 -30.949  21.894  1.00  0.00     0.000 C 
BRANCH   2   3
ATOM      3  C   UNL     1      20.973 -29.409  21.970  1.00  0.00     0.000 C 
BRANCH   3   4
ATOM      4  C   UNL     1      20.811 -28.682  20.623  1.00  0.00     0.000 C 
BRANCH   4   5
ATOM      5  C   UNL     1      19.604 -27.733  20.599  1.00  0.00     0.000 C 
BRANCH   5   6
ATOM      6  C   UNL     1      19.981 -26.353  21.160  1.00  0.00     0.006 C 
BRANCH   6   7
ATOM      7  C   UNL     1      20.425 -25.382  20.058  1.00  0.00     0.053 C 
BRANCH   7   8
ATOM      8  C   UNL     1      21.894 -25.096  20.129  1.00  0.00     0.041 C 
ATOM      9  O   UNL     1      22.430 -24.798  21.229  1.00  0.00    -0.550 OA
ATOM     10  O   UNL     1      22.664 -25.123  18.974  1.00  0.00    -0.550 OA
ENDBRANCH   7   8
ENDBRANCH   6   7
ENDBRANCH   5   6
ENDBRANCH   4   5
ENDBRANCH   3   4
ENDBRANCH   2   3
ENDBRANCH   1   2
BRANCH   1  11
ATOM     11  C   UNL     1      18.624 -31.910  21.256  1.00  0.00     0.000 C 
BRANCH  11  12
ATOM     12  C   UNL     1      17.557 -30.865  20.879  1.00  0.00     0.000 C 
BRANCH  12  13
ATOM     13  C   UNL     1      17.157 -29.948  22.049  1.00  0.00     0.000 C 
BRANCH  13  14
ATOM     14  C   UNL     1      16.429 -30.695  23.190  1.00  0.00     0.000 C 
BRANCH  14  15
ATOM     15  C   UNL     1      14.944 -30.979  22.892  1.00  0.00     0.000 C 
BRANCH  15  16
ATOM     16  C   UNL     1      14.483 -32.409  23.239  1.00  0.00     0.006 C 
BRANCH  16  17
ATOM     17  C   UNL     1      15.080 -33.502  22.337  1.00  0.00     0.053 C 
BRANCH  17  18
ATOM     18  C   UNL     1      14.777 -33.263  20.890  1.00  0.00     0.041 C 
ATOM     19  O   UNL     1      15.549 -33.705  20.000  1.00  0.00    -0.550 OA
ATOM     20  O   UNL     1      13.626 -32.577  20.524  1.00  0.00    -0.550 OA
ENDBRANCH  17  18
ENDBRANCH  16  17
ENDBRANCH  15  16
ENDBRANCH  14  15
ENDBRANCH  13  14
ENDBRANCH  12  13
ENDBRANCH  11  12
ENDBRANCH   1  11
TORSDOF 15
ENDMDL
MODEL 8
REMARK VINA RESULT:    -5.069      2.677      4.662
REMARK INTER + INTRA:         -10.797
REMARK INTER:                  -8.537
REMARK INTRA:                  -2.260
REMARK UNBOUND:                -1.284
REMARK SMILES O=C([O-])CCCCCCCCCCCCCCC(=O)[O-]
REMARK SMILES IDX 10 1 9 2 8 3 7 4 6 5 5 6 4 7 2 8 1 9 3 10 11 11 12 12 13 13
REMARK SMILES IDX 14 14 15 15 16 16 17 17 18 18 19 19 20 20
REMARK H PARENT
REMARK Flexibility Score: inf
ROOT
ATOM      1  C   UNL     1      19.199 -33.042  20.852  1.00  0.00     0.000 C 
ENDROOT
BRANCH   1   2
ATOM      2  C   UNL     1      20.052 -31.760  20.818  1.00  0.00     0.000 C 
BRANCH   2   3
ATOM      3  C   UNL     1      19.299 -30.463  21.177  1.00  0.00     0.000 C 
BRANCH   3   4
ATOM      4  C   UNL     1      17.808 -30.447  20.795  1.00  0.00     0.000 C 
BRANCH   4   5
ATOM      5  C   UNL     1      16.886 -30.191  21.996  1.00  0.00     0.000 C 
BRANCH   5   6
ATOM      6  C   UNL     1      15.465 -29.839  21.530  1.00  0.00     0.006 C 
BRANCH   6   7
ATOM      7  C   UNL     1      14.547 -29.470  22.702  1.00  0.00     0.053 C 
BRANCH   7   8
ATOM      8  C   UNL     1      13.451 -30.474  22.888  1.00  0.00     0.041 C 
ATOM      9  O   UNL     1      13.346 -31.106  23.972  1.00  0.00    -0.550 OA
ATOM     10  O   UNL     1      12.567 -30.739  21.849  1.00  0.00    -0.550 OA
ENDBRANCH   7   8
ENDBRANCH   6   7
ENDBRANCH   5   6
ENDBRANCH   4   5
ENDBRANCH   3   4
ENDBRANCH   2   3
ENDBRANCH   1   2
BRANCH   1  11
ATOM     11  C   UNL     1      19.009 -33.669  19.460  1.00  0.00     0.000 C 
BRANCH  11  12
ATOM     12  C   UNL     1      17.852 -34.685  19.429  1.00  0.00     0.000 C 
BRANCH  12  13
ATOM     13  C   UNL     1      16.503 -34.068  19.016  1.00  0.00     0.000 C 
BRANCH  13  14
ATOM     14  C   UNL     1      15.332 -34.483  19.936  1.00  0.00     0.000 C 
BRANCH  14  15
ATOM     15  C   UNL     1      14.921 -33.390  20.941  1.00  0.00     0.000 C 
BRANCH  15  16
ATOM     16  C   UNL     1      14.970 -33.825  22.419  1.00  0.00     0.006 C 
BRANCH  16  17
ATOM     17  C   UNL     1      16.351 -33.669  23.078  1.00  0.00     0.053 C 
BRANCH  17  18
ATOM     18  C   UNL     1      16.915 -34.984  23.520  1.00  0.00     0.041 C 
ATOM     19  O   UNL     1      17.540 -35.711  22.704  1.00  0.00    -0.550 OA
ATOM     20  O   UNL     1      16.776 -35.392  24.840  1.00  0.00    -0.550 OA
ENDBRANCH  17  18
ENDBRANCH  16  17
ENDBRANCH  15  16
ENDBRANCH  14  15
ENDBRANCH  13  14
ENDBRANCH  12  13
ENDBRANCH  11  12
ENDBRANCH   1  11
TORSDOF 15
ENDMDL
MODEL 9
REMARK VINA RESULT:    -5.006      1.993      7.076
REMARK INTER + INTRA:         -10.680
REMARK INTER:                  -9.020
REMARK INTRA:                  -1.660
REMARK UNBOUND:                -1.284
REMARK SMILES O=C([O-])CCCCCCCCCCCCCCC(=O)[O-]
REMARK SMILES IDX 10 1 9 2 8 3 7 4 6 5 5 6 4 7 2 8 1 9 3 10 11 11 12 12 13 13
REMARK SMILES IDX 14 14 15 15 16 16 17 17 18 18 19 19 20 20
REMARK H PARENT
REMARK Flexibility Score: inf
ROOT
ATOM      1  C   UNL     1      15.075 -34.346  19.754  1.00  0.00     0.000 C 
ENDROOT
BRANCH   1   2
ATOM      2  C   UNL     1      16.191 -35.387  19.960  1.00  0.00     0.000 C 
BRANCH   2   3
ATOM      3  C   UNL     1      17.383 -35.272  18.988  1.00  0.00     0.000 C 
BRANCH   3   4
ATOM      4  C   UNL     1      18.458 -34.248  19.392  1.00  0.00     0.000 C 
BRANCH   4   5
ATOM      5  C   UNL     1      18.989 -34.469  20.816  1.00  0.00     0.000 C 
BRANCH   5   6
ATOM      6  C   UNL     1      19.518 -33.157  21.414  1.00  0.00     0.006 C 
BRANCH   6   7
ATOM      7  C   UNL     1      19.036 -31.928  20.632  1.00  0.00     0.053 C 
BRANCH   7   8
ATOM      8  C   UNL     1      18.129 -31.067  21.456  1.00  0.00     0.041 C 
ATOM      9  O   UNL     1      17.260 -30.345  20.899  1.00  0.00    -0.550 OA
ATOM     10  O   UNL     1      18.266 -31.035  22.838  1.00  0.00    -0.550 OA
ENDBRANCH   7   8
ENDBRANCH   6   7
ENDBRANCH   5   6
ENDBRANCH   4   5
ENDBRANCH   3   4
ENDBRANCH   2   3
ENDBRANCH   1   2
BRANCH   1  11
ATOM     11  C   UNL     1      14.889 -33.422  20.970  1.00  0.00     0.000 C 
BRANCH  11  12
ATOM     12  C   UNL     1      15.502 -34.014  22.253  1.00  0.00     0.000 C 
BRANCH  12  13
ATOM     13  C   UNL     1      15.299 -33.127  23.496  1.00  0.00     0.000 C 
BRANCH  13  14
ATOM     14  C   UNL     1      14.848 -31.689  23.154  1.00  0.00     0.000 C 
BRANCH  14  15
ATOM     15  C   UNL     1      13.379 -31.400  23.516  1.00  0.00     0.000 C 
BRANCH  15  16
ATOM     16  C   UNL     1      12.746 -30.227  22.741  1.00  0.00     0.006 C 
BRANCH  16  17
ATOM     17  C   UNL     1      13.273 -28.842  23.151  1.00  0.00     0.053 C 
BRANCH  17  18
ATOM     18  C   UNL     1      12.207 -27.998  23.780  1.00  0.00     0.041 C 
ATOM     19  O   UNL     1      11.051 -27.965  23.284  1.00  0.00    -0.550 OA
ATOM     20  O   UNL     1      12.483 -27.274  24.933  1.00  0.00    -0.550 OA
ENDBRANCH  17  18
ENDBRANCH  16  17
ENDBRANCH  15  16
ENDBRANCH  14  15
ENDBRANCH  13  14
ENDBRANCH  12  13
ENDBRANCH  11  12
ENDBRANCH   1  11
TORSDOF 15
ENDMDL
