MODEL 1
REMARK VINA RESULT:    -5.579      0.000      0.000
REMARK INTER + INTRA:         -13.298
REMARK INTER:                 -10.471
REMARK INTRA:                  -2.827
REMARK UNBOUND:                -2.827
REMARK SMILES CCCCCCCCC=CCCCCCCCC(=O)[O-]
REMARK SMILES IDX 10 1 9 2 11 3 12 4 13 5 14 6 15 7 16 8 17 9 18 10 19 11
REMARK SMILES IDX 20 12 8 13 7 14 6 15 5 16 4 17 3 18 2 19 1 20
REMARK H PARENT
REMARK Flexibility Score: inf
ROOT
ATOM      1  C   UNL     1       5.405  20.876  43.391  1.00  0.00    -0.031 C 
ATOM      2  C   UNL     1       5.233  20.433  44.651  1.00  0.00    -0.031 C 
ENDROOT
BRANCH   1   3
ATOM      3  C   UNL     1       5.138  22.288  42.920  1.00  0.00     0.027 C 
BRANCH   3   4
ATOM      4  C   UNL     1       6.380  22.900  42.263  1.00  0.00     0.004 C 
BRANCH   4   5
ATOM      5  C   UNL     1       6.785  24.229  42.919  1.00  0.00     0.000 C 
BRANCH   5   6
ATOM      6  C   UNL     1       5.705  24.783  43.864  1.00  0.00     0.000 C 
BRANCH   6   7
ATOM      7  C   UNL     1       4.967  26.016  43.301  1.00  0.00     0.000 C 
BRANCH   7   8
ATOM      8  C   UNL     1       3.579  25.656  42.743  1.00  0.00     0.006 C 
BRANCH   8   9
ATOM      9  C   UNL     1       2.461  25.893  43.767  1.00  0.00     0.053 C 
BRANCH   9  10
ATOM     10  C   UNL     1       1.548  27.003  43.345  1.00  0.00     0.041 C 
ATOM     11  O   UNL     1       1.766  27.632  42.276  1.00  0.00    -0.550 OA
ATOM     12  O   UNL     1       0.438  27.321  44.116  1.00  0.00    -0.550 OA
ENDBRANCH   9  10
ENDBRANCH   8   9
ENDBRANCH   7   8
ENDBRANCH   6   7
ENDBRANCH   5   6
ENDBRANCH   4   5
ENDBRANCH   3   4
ENDBRANCH   1   3
BRANCH   2  13
ATOM     13  C   UNL     1       4.796  21.287  45.812  1.00  0.00     0.027 C 
BRANCH  13  14
ATOM     14  C   UNL     1       5.969  21.569  46.760  1.00  0.00     0.004 C 
BRANCH  14  15
ATOM     15  C   UNL     1       6.538  22.977  46.526  1.00  0.00     0.000 C 
BRANCH  15  16
ATOM     16  C   UNL     1       8.047  22.955  46.198  1.00  0.00     0.000 C 
BRANCH  16  17
ATOM     17  C   UNL     1       8.559  21.582  45.724  1.00  0.00    -0.000 C 
BRANCH  17  18
ATOM     18  C   UNL     1       9.160  21.564  44.306  1.00  0.00    -0.000 C 
BRANCH  18  19
ATOM     19  C   UNL     1       8.905  20.269  43.514  1.00  0.00    -0.003 C 
ATOM     20  C   UNL     1       8.666  19.057  44.413  1.00  0.00     0.004 C 
ENDBRANCH  18  19
ENDBRANCH  17  18
ENDBRANCH  16  17
ENDBRANCH  15  16
ENDBRANCH  14  15
ENDBRANCH  13  14
ENDBRANCH   2  13
TORSDOF 15
ENDMDL
MODEL 2
REMARK VINA RESULT:    -5.564      6.125      9.159
REMARK INTER + INTRA:         -13.269
REMARK INTER:                 -10.940
REMARK INTRA:                  -2.329
REMARK UNBOUND:                -2.827
REMARK SMILES CCCCCCCCC=CCCCCCCCC(=O)[O-]
REMARK SMILES IDX 10 1 9 2 11 3 12 4 13 5 14 6 15 7 16 8 17 9 18 10 19 11
REMARK SMILES IDX 20 12 8 13 7 14 6 15 5 16 4 17 3 18 2 19 1 20
REMARK H PARENT
REMARK Flexibility Score: inf
ROOT
ATOM      1  C   UNL     1       8.267  22.529  45.927  1.00  0.00    -0.031 C 
ATOM      2  C   UNL     1       7.040  23.067  46.057  1.00  0.00    -0.031 C 
ENDROOT
BRANCH   1   3
ATOM      3  C   UNL     1       8.565  21.048  45.853  1.00  0.00     0.027 C 
BRANCH   3   4
ATOM      4  C   UNL     1       9.851  20.779  45.062  1.00  0.00     0.004 C 
BRANCH   4   5
ATOM      5  C   UNL     1       9.624  19.788  43.910  1.00  0.00     0.000 C 
BRANCH   5   6
ATOM      6  C   UNL     1       9.906  18.330  44.312  1.00  0.00     0.000 C 
BRANCH   6   7
ATOM      7  C   UNL     1      11.156  18.167  45.201  1.00  0.00     0.000 C 
BRANCH   7   8
ATOM      8  C   UNL     1      11.828  16.796  45.012  1.00  0.00     0.006 C 
BRANCH   8   9
ATOM      9  C   UNL     1      13.339  16.849  45.268  1.00  0.00     0.053 C 
BRANCH   9  10
ATOM     10  C   UNL     1      14.041  15.655  44.695  1.00  0.00     0.041 C 
ATOM     11  O   UNL     1      13.513  14.514  44.766  1.00  0.00    -0.550 OA
ATOM     12  O   UNL     1      15.263  15.809  44.053  1.00  0.00    -0.550 OA
ENDBRANCH   9  10
ENDBRANCH   8   9
ENDBRANCH   7   8
ENDBRANCH   6   7
ENDBRANCH   5   6
ENDBRANCH   4   5
ENDBRANCH   3   4
ENDBRANCH   1   3
BRANCH   2  13
ATOM     13  C   UNL     1       5.754  22.283  46.094  1.00  0.00     0.027 C 
BRANCH  13  14
ATOM     14  C   UNL     1       4.697  22.913  45.179  1.00  0.00     0.004 C 
BRANCH  14  15
ATOM     15  C   UNL     1       4.383  21.995  43.988  1.00  0.00     0.000 C 
BRANCH  15  16
ATOM     16  C   UNL     1       5.193  20.681  44.026  1.00  0.00     0.000 C 
BRANCH  16  17
ATOM     17  C   UNL     1       6.245  20.569  42.907  1.00  0.00    -0.000 C 
BRANCH  17  18
ATOM     18  C   UNL     1       6.437  21.842  42.061  1.00  0.00    -0.000 C 
BRANCH  18  19
ATOM     19  C   UNL     1       7.842  22.467  42.144  1.00  0.00    -0.003 C 
ATOM     20  C   UNL     1       7.817  23.940  42.549  1.00  0.00     0.004 C 
ENDBRANCH  18  19
ENDBRANCH  17  18
ENDBRANCH  16  17
ENDBRANCH  15  16
ENDBRANCH  14  15
ENDBRANCH  13  14
ENDBRANCH   2  13
TORSDOF 15
ENDMDL
MODEL 3
REMARK VINA RESULT:    -5.485      3.932      6.647
REMARK INTER + INTRA:         -13.121
REMARK INTER:                 -10.425
REMARK INTRA:                  -2.697
REMARK UNBOUND:                -2.827
REMARK SMILES CCCCCCCCC=CCCCCCCCC(=O)[O-]
REMARK SMILES IDX 10 1 9 2 11 3 12 4 13 5 14 6 15 7 16 8 17 9 18 10 19 11
REMARK SMILES IDX 20 12 8 13 7 14 6 15 5 16 4 17 3 18 2 19 1 20
REMARK H PARENT
REMARK Flexibility Score: inf
ROOT
ATOM      1  C   UNL     1       8.505  23.336  45.042  1.00  0.00    -0.031 C 
ATOM      2  C   UNL     1       7.772  23.015  46.126  1.00  0.00    -0.031 C 
ENDROOT
BRANCH   1   3
ATOM      3  C   UNL     1       8.311  24.572  44.194  1.00  0.00     0.027 C 
BRANCH   3   4
ATOM      4  C   UNL     1       7.800  24.212  42.794  1.00  0.00     0.004 C 
BRANCH   4   5
ATOM      5  C   UNL     1       8.076  22.743  42.438  1.00  0.00     0.000 C 
BRANCH   5   6
ATOM      6  C   UNL     1       6.797  21.958  42.103  1.00  0.00     0.000 C 
BRANCH   6   7
ATOM      7  C   UNL     1       6.786  20.525  42.675  1.00  0.00     0.000 C 
BRANCH   7   8
ATOM      8  C   UNL     1       8.147  20.127  43.270  1.00  0.00     0.006 C 
BRANCH   8   9
ATOM      9  C   UNL     1       8.005  19.382  44.603  1.00  0.00     0.053 C 
BRANCH   9  10
ATOM     10  C   UNL     1       9.095  19.748  45.563  1.00  0.00     0.041 C 
ATOM     11  O   UNL     1       8.987  19.462  46.785  1.00  0.00    -0.550 OA
ATOM     12  O   UNL     1      10.245  20.376  45.103  1.00  0.00    -0.550 OA
ENDBRANCH   9  10
ENDBRANCH   8   9
ENDBRANCH   7   8
ENDBRANCH   6   7
ENDBRANCH   5   6
ENDBRANCH   4   5
ENDBRANCH   3   4
ENDBRANCH   1   3
BRANCH   2  13
ATOM     13  C   UNL     1       6.672  23.866  46.704  1.00  0.00     0.027 C 
BRANCH  13  14
ATOM     14  C   UNL     1       5.401  23.779  45.848  1.00  0.00     0.004 C 
BRANCH  14  15
ATOM     15  C   UNL     1       5.077  22.320  45.494  1.00  0.00     0.000 C 
BRANCH  15  16
ATOM     16  C   UNL     1       4.038  22.207  44.357  1.00  0.00     0.000 C 
BRANCH  16  17
ATOM     17  C   UNL     1       3.399  23.552  43.964  1.00  0.00    -0.000 C 
BRANCH  17  18
ATOM     18  C   UNL     1       4.020  24.234  42.731  1.00  0.00    -0.000 C 
BRANCH  18  19
ATOM     19  C   UNL     1       4.227  25.753  42.869  1.00  0.00    -0.003 C 
ATOM     20  C   UNL     1       2.915  26.536  42.861  1.00  0.00     0.004 C 
ENDBRANCH  18  19
ENDBRANCH  17  18
ENDBRANCH  16  17
ENDBRANCH  15  16
ENDBRANCH  14  15
ENDBRANCH  13  14
ENDBRANCH   2  13
TORSDOF 15
ENDMDL
MODEL 4
REMARK VINA RESULT:    -5.466      6.239      9.273
REMARK INTER + INTRA:         -13.085
REMARK INTER:                 -10.976
REMARK INTRA:                  -2.109
REMARK UNBOUND:                -2.827
REMARK SMILES CCCCCCCCC=CCCCCCCCC(=O)[O-]
REMARK SMILES IDX 10 1 9 2 11 3 12 4 13 5 14 6 15 7 16 8 17 9 18 10 19 11
REMARK SMILES IDX 20 12 8 13 7 14 6 15 5 16 4 17 3 18 2 19 1 20
REMARK H PARENT
REMARK Flexibility Score: inf
ROOT
ATOM      1  C   UNL     1       7.757  20.270  43.080  1.00  0.00    -0.031 C 
ATOM      2  C   UNL     1       6.520  20.745  42.846  1.00  0.00    -0.031 C 
ENDROOT
BRANCH   1   3
ATOM      3  C   UNL     1       8.123  19.297  44.179  1.00  0.00     0.027 C 
BRANCH   3   4
ATOM      4  C   UNL     1       9.623  18.982  44.165  1.00  0.00     0.004 C 
BRANCH   4   5
ATOM      5  C   UNL     1      10.298  19.323  45.503  1.00  0.00     0.000 C 
BRANCH   5   6
ATOM      6  C   UNL     1      11.423  18.341  45.873  1.00  0.00     0.000 C 
BRANCH   6   7
ATOM      7  C   UNL     1      11.526  17.135  44.918  1.00  0.00     0.000 C 
BRANCH   7   8
ATOM      8  C   UNL     1      12.638  16.157  45.336  1.00  0.00     0.006 C 
BRANCH   8   9
ATOM      9  C   UNL     1      12.478  15.678  46.784  1.00  0.00     0.053 C 
BRANCH   9  10
ATOM     10  C   UNL     1      13.671  16.029  47.620  1.00  0.00     0.041 C 
ATOM     11  O   UNL     1      13.595  16.004  48.877  1.00  0.00    -0.550 OA
ATOM     12  O   UNL     1      14.876  16.351  47.010  1.00  0.00    -0.550 OA
ENDBRANCH   9  10
ENDBRANCH   8   9
ENDBRANCH   7   8
ENDBRANCH   6   7
ENDBRANCH   5   6
ENDBRANCH   4   5
ENDBRANCH   3   4
ENDBRANCH   1   3
BRANCH   2  13
ATOM     13  C   UNL     1       5.284  20.344  43.607  1.00  0.00     0.027 C 
BRANCH  13  14
ATOM     14  C   UNL     1       4.703  21.534  44.381  1.00  0.00     0.004 C 
BRANCH  14  15
ATOM     15  C   UNL     1       4.675  21.248  45.890  1.00  0.00     0.000 C 
BRANCH  15  16
ATOM     16  C   UNL     1       6.084  21.278  46.521  1.00  0.00     0.000 C 
BRANCH  16  17
ATOM     17  C   UNL     1       6.766  22.657  46.451  1.00  0.00    -0.000 C 
BRANCH  17  18
ATOM     18  C   UNL     1       8.173  22.658  45.823  1.00  0.00    -0.000 C 
BRANCH  18  19
ATOM     19  C   UNL     1       8.474  23.866  44.917  1.00  0.00    -0.003 C 
ATOM     20  C   UNL     1       7.335  24.185  43.950  1.00  0.00     0.004 C 
ENDBRANCH  18  19
ENDBRANCH  17  18
ENDBRANCH  16  17
ENDBRANCH  15  16
ENDBRANCH  14  15
ENDBRANCH  13  14
ENDBRANCH   2  13
TORSDOF 15
ENDMDL
MODEL 5
REMARK VINA RESULT:    -5.449      3.894      9.494
REMARK INTER + INTRA:         -13.053
REMARK INTER:                 -11.040
REMARK INTRA:                  -2.014
REMARK UNBOUND:                -2.827
REMARK SMILES CCCCCCCCC=CCCCCCCCC(=O)[O-]
REMARK SMILES IDX 10 1 9 2 11 3 12 4 13 5 14 6 15 7 16 8 17 9 18 10 19 11
REMARK SMILES IDX 20 12 8 13 7 14 6 15 5 16 4 17 3 18 2 19 1 20
REMARK H PARENT
REMARK Flexibility Score: inf
ROOT
ATOM      1  C   UNL     1       1.725  27.865  42.976  1.00  0.00    -0.031 C 
ATOM      2  C   UNL     1       1.124  28.452  41.924  1.00  0.00    -0.031 C 
ENDROOT
BRANCH   1   3
ATOM      3  C   UNL     1       1.295  26.561  43.609  1.00  0.00     0.027 C 
BRANCH   3   4
ATOM      4  C   UNL     1       2.505  25.692  43.969  1.00  0.00     0.004 C 
BRANCH   4   5
ATOM      5  C   UNL     1       3.635  25.816  42.935  1.00  0.00     0.000 C 
BRANCH   5   6
ATOM      6  C   UNL     1       5.029  25.584  43.541  1.00  0.00     0.000 C 
BRANCH   6   7
ATOM      7  C   UNL     1       5.675  24.252  43.108  1.00  0.00     0.000 C 
BRANCH   7   8
ATOM      8  C   UNL     1       7.209  24.286  43.223  1.00  0.00     0.006 C 
BRANCH   8   9
ATOM      9  C   UNL     1       7.771  23.025  43.890  1.00  0.00     0.053 C 
BRANCH   9  10
ATOM     10  C   UNL     1       7.261  22.863  45.290  1.00  0.00     0.041 C 
ATOM     11  O   UNL     1       6.701  21.790  45.640  1.00  0.00    -0.550 OA
ATOM     12  O   UNL     1       7.436  23.883  46.215  1.00  0.00    -0.550 OA
ENDBRANCH   9  10
ENDBRANCH   8   9
ENDBRANCH   7   8
ENDBRANCH   6   7
ENDBRANCH   5   6
ENDBRANCH   4   5
ENDBRANCH   3   4
ENDBRANCH   1   3
BRANCH   2  13
ATOM     13  C   UNL     1      -0.046  27.877  41.170  1.00  0.00     0.027 C 
BRANCH  13  14
ATOM     14  C   UNL     1      -1.005  28.985  40.712  1.00  0.00     0.004 C 
BRANCH  14  15
ATOM     15  C   UNL     1      -0.325  30.361  40.779  1.00  0.00     0.000 C 
BRANCH  15  16
ATOM     16  C   UNL     1      -1.224  31.432  41.434  1.00  0.00     0.000 C 
BRANCH  16  17
ATOM     17  C   UNL     1      -1.890  30.966  42.743  1.00  0.00    -0.000 C 
BRANCH  17  18
ATOM     18  C   UNL     1      -0.975  30.984  43.982  1.00  0.00    -0.000 C 
BRANCH  18  19
ATOM     19  C   UNL     1      -0.967  29.678  44.798  1.00  0.00    -0.003 C 
ATOM     20  C   UNL     1      -1.987  28.656  44.297  1.00  0.00     0.004 C 
ENDBRANCH  18  19
ENDBRANCH  17  18
ENDBRANCH  16  17
ENDBRANCH  15  16
ENDBRANCH  14  15
ENDBRANCH  13  14
ENDBRANCH   2  13
TORSDOF 15
ENDMDL
MODEL 6
REMARK VINA RESULT:    -5.422      6.121      9.077
REMARK INTER + INTRA:         -13.003
REMARK INTER:                 -10.612
REMARK INTRA:                  -2.391
REMARK UNBOUND:                -2.827
REMARK SMILES CCCCCCCCC=CCCCCCCCC(=O)[O-]
REMARK SMILES IDX 10 1 9 2 11 3 12 4 13 5 14 6 15 7 16 8 17 9 18 10 19 11
REMARK SMILES IDX 20 12 8 13 7 14 6 15 5 16 4 17 3 18 2 19 1 20
REMARK H PARENT
REMARK Flexibility Score: inf
ROOT
ATOM      1  C   UNL     1       7.397  21.148  42.735  1.00  0.00    -0.031 C 
ATOM      2  C   UNL     1       6.969  22.376  42.388  1.00  0.00    -0.031 C 
ENDROOT
BRANCH   1   3
ATOM      3  C   UNL     1       8.724  20.839  43.390  1.00  0.00     0.027 C 
BRANCH   3   4
ATOM      4  C   UNL     1       8.679  19.500  44.135  1.00  0.00     0.004 C 
BRANCH   4   5
ATOM      5  C   UNL     1       9.340  19.587  45.520  1.00  0.00     0.000 C 
BRANCH   5   6
ATOM      6  C   UNL     1      10.713  18.897  45.571  1.00  0.00     0.000 C 
BRANCH   6   7
ATOM      7  C   UNL     1      10.814  17.657  44.657  1.00  0.00     0.000 C 
BRANCH   7   8
ATOM      8  C   UNL     1      12.087  16.837  44.930  1.00  0.00     0.006 C 
BRANCH   8   9
ATOM      9  C   UNL     1      12.541  16.936  46.391  1.00  0.00     0.053 C 
BRANCH   9  10
ATOM     10  C   UNL     1      13.518  15.855  46.743  1.00  0.00     0.041 C 
ATOM     11  O   UNL     1      14.753  16.038  46.577  1.00  0.00    -0.550 OA
ATOM     12  O   UNL     1      13.066  14.660  47.286  1.00  0.00    -0.550 OA
ENDBRANCH   9  10
ENDBRANCH   8   9
ENDBRANCH   7   8
ENDBRANCH   6   7
ENDBRANCH   5   6
ENDBRANCH   4   5
ENDBRANCH   3   4
ENDBRANCH   1   3
BRANCH   2  13
ATOM     13  C   UNL     1       7.723  23.655  42.646  1.00  0.00     0.027 C 
BRANCH  13  14
ATOM     14  C   UNL     1       7.365  24.236  44.020  1.00  0.00     0.004 C 
BRANCH  14  15
ATOM     15  C   UNL     1       8.537  24.084  45.003  1.00  0.00     0.000 C 
BRANCH  15  16
ATOM     16  C   UNL     1       8.210  23.123  46.165  1.00  0.00     0.000 C 
BRANCH  16  17
ATOM     17  C   UNL     1       6.703  22.863  46.350  1.00  0.00    -0.000 C 
BRANCH  17  18
ATOM     18  C   UNL     1       6.290  21.379  46.331  1.00  0.00    -0.000 C 
BRANCH  18  19
ATOM     19  C   UNL     1       4.880  21.109  45.775  1.00  0.00    -0.003 C 
ATOM     20  C   UNL     1       4.279  22.318  45.061  1.00  0.00     0.004 C 
ENDBRANCH  18  19
ENDBRANCH  17  18
ENDBRANCH  16  17
ENDBRANCH  15  16
ENDBRANCH  14  15
ENDBRANCH  13  14
ENDBRANCH   2  13
TORSDOF 15
ENDMDL
MODEL 7
REMARK VINA RESULT:    -5.419      3.229      6.817
REMARK INTER + INTRA:         -12.997
REMARK INTER:                 -11.120
REMARK INTRA:                  -1.877
REMARK UNBOUND:                -2.827
REMARK SMILES CCCCCCCCC=CCCCCCCCC(=O)[O-]
REMARK SMILES IDX 10 1 9 2 11 3 12 4 13 5 14 6 15 7 16 8 17 9 18 10 19 11
REMARK SMILES IDX 20 12 8 13 7 14 6 15 5 16 4 17 3 18 2 19 1 20
REMARK H PARENT
REMARK Flexibility Score: inf
ROOT
ATOM      1  C   UNL     1       1.014  28.494  42.024  1.00  0.00    -0.031 C 
ATOM      2  C   UNL     1       1.649  27.874  43.036  1.00  0.00    -0.031 C 
ENDROOT
BRANCH   1   3
ATOM      3  C   UNL     1      -0.152  27.925  41.247  1.00  0.00     0.027 C 
BRANCH   3   4
ATOM      4  C   UNL     1      -0.807  28.994  40.364  1.00  0.00     0.004 C 
BRANCH   4   5
ATOM      5  C   UNL     1      -0.164  30.376  40.557  1.00  0.00     0.000 C 
BRANCH   5   6
ATOM      6  C   UNL     1      -1.105  31.384  41.237  1.00  0.00     0.000 C 
BRANCH   6   7
ATOM      7  C   UNL     1      -2.427  30.758  41.728  1.00  0.00     0.000 C 
BRANCH   7   8
ATOM      8  C   UNL     1      -2.509  30.705  43.264  1.00  0.00     0.006 C 
BRANCH   8   9
ATOM      9  C   UNL     1      -2.437  29.270  43.801  1.00  0.00     0.053 C 
BRANCH   9  10
ATOM     10  C   UNL     1      -1.372  29.121  44.845  1.00  0.00     0.041 C 
ATOM     11  O   UNL     1      -0.507  30.023  45.001  1.00  0.00    -0.550 OA
ATOM     12  O   UNL     1      -1.357  28.001  45.666  1.00  0.00    -0.550 OA
ENDBRANCH   9  10
ENDBRANCH   8   9
ENDBRANCH   7   8
ENDBRANCH   6   7
ENDBRANCH   5   6
ENDBRANCH   4   5
ENDBRANCH   3   4
ENDBRANCH   1   3
BRANCH   2  13
ATOM     13  C   UNL     1       1.265  26.530  43.598  1.00  0.00     0.027 C 
BRANCH  13  14
ATOM     14  C   UNL     1       2.509  25.718  43.982  1.00  0.00     0.004 C 
BRANCH  14  15
ATOM     15  C   UNL     1       3.636  25.924  42.959  1.00  0.00     0.000 C 
BRANCH  15  16
ATOM     16  C   UNL     1       4.905  25.117  43.310  1.00  0.00     0.000 C 
BRANCH  16  17
ATOM     17  C   UNL     1       4.941  24.620  44.767  1.00  0.00    -0.000 C 
BRANCH  17  18
ATOM     18  C   UNL     1       5.280  23.127  44.939  1.00  0.00    -0.000 C 
BRANCH  18  19
ATOM     19  C   UNL     1       4.287  22.159  44.268  1.00  0.00    -0.003 C 
ATOM     20  C   UNL     1       4.933  20.841  43.845  1.00  0.00     0.004 C 
ENDBRANCH  18  19
ENDBRANCH  17  18
ENDBRANCH  16  17
ENDBRANCH  15  16
ENDBRANCH  14  15
ENDBRANCH  13  14
ENDBRANCH   2  13
TORSDOF 15
ENDMDL
MODEL 8
REMARK VINA RESULT:    -5.408      6.496      9.704
REMARK INTER + INTRA:         -12.976
REMARK INTER:                 -10.818
REMARK INTRA:                  -2.159
REMARK UNBOUND:                -2.827
REMARK SMILES CCCCCCCCC=CCCCCCCCC(=O)[O-]
REMARK SMILES IDX 10 1 9 2 11 3 12 4 13 5 14 6 15 7 16 8 17 9 18 10 19 11
REMARK SMILES IDX 20 12 8 13 7 14 6 15 5 16 4 17 3 18 2 19 1 20
REMARK H PARENT
REMARK Flexibility Score: inf
ROOT
ATOM      1  C   UNL     1       8.494  21.016  45.825  1.00  0.00    -0.031 C 
ATOM      2  C   UNL     1       7.759  22.140  45.913  1.00  0.00    -0.031 C 
ENDROOT
BRANCH   1   3
ATOM      3  C   UNL     1       9.784  20.876  45.048  1.00  0.00     0.027 C 
BRANCH   3   4
ATOM      4  C   UNL     1       9.627  19.893  43.882  1.00  0.00     0.004 C 
BRANCH   4   5
ATOM      5  C   UNL     1       9.745  18.431  44.339  1.00  0.00     0.000 C 
BRANCH   5   6
ATOM      6  C   UNL     1      11.079  18.130  45.042  1.00  0.00     0.000 C 
BRANCH   6   7
ATOM      7  C   UNL     1      11.644  16.731  44.720  1.00  0.00     0.000 C 
BRANCH   7   8
ATOM      8  C   UNL     1      13.181  16.699  44.774  1.00  0.00     0.006 C 
BRANCH   8   9
ATOM      9  C   UNL     1      13.712  15.460  45.505  1.00  0.00     0.053 C 
BRANCH   9  10
ATOM     10  C   UNL     1      13.946  14.318  44.564  1.00  0.00     0.041 C 
ATOM     11  O   UNL     1      14.162  13.160  45.012  1.00  0.00    -0.550 OA
ATOM     12  O   UNL     1      13.893  14.526  43.192  1.00  0.00    -0.550 OA
ENDBRANCH   9  10
ENDBRANCH   8   9
ENDBRANCH   7   8
ENDBRANCH   6   7
ENDBRANCH   5   6
ENDBRANCH   4   5
ENDBRANCH   3   4
ENDBRANCH   1   3
BRANCH   2  13
ATOM     13  C   UNL     1       8.130  23.462  45.293  1.00  0.00     0.027 C 
BRANCH  13  14
ATOM     14  C   UNL     1       6.884  24.209  44.801  1.00  0.00     0.004 C 
BRANCH  14  15
ATOM     15  C   UNL     1       6.862  24.290  43.267  1.00  0.00     0.000 C 
BRANCH  15  16
ATOM     16  C   UNL     1       8.114  23.655  42.625  1.00  0.00     0.000 C 
BRANCH  16  17
ATOM     17  C   UNL     1       7.813  22.396  41.791  1.00  0.00    -0.000 C 
BRANCH  17  18
ATOM     18  C   UNL     1       6.358  21.896  41.867  1.00  0.00    -0.000 C 
BRANCH  18  19
ATOM     19  C   UNL     1       6.171  20.569  42.627  1.00  0.00    -0.003 C 
ATOM     20  C   UNL     1       5.170  20.676  43.775  1.00  0.00     0.004 C 
ENDBRANCH  18  19
ENDBRANCH  17  18
ENDBRANCH  16  17
ENDBRANCH  15  16
ENDBRANCH  14  15
ENDBRANCH  13  14
ENDBRANCH   2  13
TORSDOF 15
ENDMDL
MODEL 9
REMARK VINA RESULT:    -5.387      4.168      9.569
REMARK INTER + INTRA:         -12.937
REMARK INTER:                 -11.181
REMARK INTRA:                  -1.756
REMARK UNBOUND:                -2.827
REMARK SMILES CCCCCCCCC=CCCCCCCCC(=O)[O-]
REMARK SMILES IDX 10 1 9 2 11 3 12 4 13 5 14 6 15 7 16 8 17 9 18 10 19 11
REMARK SMILES IDX 20 12 8 13 7 14 6 15 5 16 4 17 3 18 2 19 1 20
REMARK H PARENT
REMARK Flexibility Score: inf
ROOT
ATOM      1  C   UNL     1       0.614  27.235  42.832  1.00  0.00    -0.031 C 
ATOM      2  C   UNL     1      -0.347  27.727  43.636  1.00  0.00    -0.031 C 
ENDROOT
BRANCH   1   3
ATOM      3  C   UNL     1       2.075  27.618  42.885  1.00  0.00     0.027 C 
BRANCH   3   4
ATOM      4  C   UNL     1       2.972  26.379  42.988  1.00  0.00     0.004 C 
BRANCH   4   5
ATOM      5  C   UNL     1       2.463  25.384  44.043  1.00  0.00     0.000 C 
BRANCH   5   6
ATOM      6  C   UNL     1       3.588  24.530  44.651  1.00  0.00     0.000 C 
BRANCH   6   7
ATOM      7  C   UNL     1       3.660  23.102  44.071  1.00  0.00     0.000 C 
BRANCH   7   8
ATOM      8  C   UNL     1       4.665  22.217  44.829  1.00  0.00     0.006 C 
BRANCH   8   9
ATOM      9  C   UNL     1       4.567  20.743  44.419  1.00  0.00     0.053 C 
BRANCH   9  10
ATOM     10  C   UNL     1       5.678  20.349  43.494  1.00  0.00     0.041 C 
ATOM     11  O   UNL     1       5.624  20.654  42.273  1.00  0.00    -0.550 OA
ATOM     12  O   UNL     1       6.787  19.675  43.987  1.00  0.00    -0.550 OA
ENDBRANCH   9  10
ENDBRANCH   8   9
ENDBRANCH   7   8
ENDBRANCH   6   7
ENDBRANCH   5   6
ENDBRANCH   4   5
ENDBRANCH   3   4
ENDBRANCH   1   3
BRANCH   2  13
ATOM     13  C   UNL     1      -0.113  28.703  44.759  1.00  0.00     0.027 C 
BRANCH  13  14
ATOM     14  C   UNL     1      -1.435  29.311  45.245  1.00  0.00     0.004 C 
BRANCH  14  15
ATOM     15  C   UNL     1      -2.402  29.533  44.072  1.00  0.00     0.000 C 
BRANCH  15  16
ATOM     16  C   UNL     1      -2.362  30.983  43.541  1.00  0.00     0.000 C 
BRANCH  16  17
ATOM     17  C   UNL     1      -1.986  31.088  42.051  1.00  0.00    -0.000 C 
BRANCH  17  18
ATOM     18  C   UNL     1      -0.479  30.974  41.750  1.00  0.00    -0.000 C 
BRANCH  18  19
ATOM     19  C   UNL     1      -0.128  30.077  40.548  1.00  0.00    -0.003 C 
ATOM     20  C   UNL     1      -1.211  29.046  40.237  1.00  0.00     0.004 C 
ENDBRANCH  18  19
ENDBRANCH  17  18
ENDBRANCH  16  17
ENDBRANCH  15  16
ENDBRANCH  14  15
ENDBRANCH  13  14
ENDBRANCH   2  13
TORSDOF 15
ENDMDL
