MODEL 1
REMARK VINA RESULT:    -3.586      0.000      0.000
REMARK INTER + INTRA:          -8.599
REMARK INTER:                  -6.311
REMARK INTRA:                  -2.288
REMARK UNBOUND:                -2.288
REMARK SMILES CCCCCCCCCCCCCCC(=O)[O-]
REMARK SMILES IDX 9 1 10 2 11 3 12 4 13 5 14 6 15 7 16 8 17 9 8 10 7 11 6 12
REMARK SMILES IDX 5 13 4 14 3 15 2 16 1 17
REMARK H PARENT
REMARK Flexibility Score: inf
ROOT
ATOM      1  C   UNL     1       3.700  16.989  29.138  1.00  0.00     0.000 C 
ENDROOT
BRANCH   1   2
ATOM      2  C   UNL     1       3.589  16.455  30.579  1.00  0.00     0.000 C 
BRANCH   2   3
ATOM      3  C   UNL     1       2.742  15.178  30.740  1.00  0.00     0.000 C 
BRANCH   3   4
ATOM      4  C   UNL     1       1.235  15.451  30.928  1.00  0.00     0.000 C 
BRANCH   4   5
ATOM      5  C   UNL     1       0.356  14.400  30.227  1.00  0.00     0.006 C 
BRANCH   5   6
ATOM      6  C   UNL     1       1.192  13.325  29.519  1.00  0.00     0.053 C 
BRANCH   6   7
ATOM      7  C   UNL     1       0.347  12.172  29.071  1.00  0.00     0.041 C 
ATOM      8  O   UNL     1       0.607  11.577  27.993  1.00  0.00    -0.550 OA
ATOM      9  O   UNL     1      -0.749  11.775  29.829  1.00  0.00    -0.550 OA
ENDBRANCH   6   7
ENDBRANCH   5   6
ENDBRANCH   4   5
ENDBRANCH   3   4
ENDBRANCH   2   3
ENDBRANCH   1   2
BRANCH   1  10
ATOM     10  C   UNL     1       3.432  15.949  28.033  1.00  0.00     0.000 C 
BRANCH  10  11
ATOM     11  C   UNL     1       2.129  16.220  27.262  1.00  0.00    -0.000 C 
BRANCH  11  12
ATOM     12  C   UNL     1       1.461  17.548  27.666  1.00  0.00    -0.000 C 
BRANCH  12  13
ATOM     13  C   UNL     1      -0.022  17.443  28.076  1.00  0.00    -0.000 C 
BRANCH  13  14
ATOM     14  C   UNL     1      -0.478  18.455  29.144  1.00  0.00    -0.000 C 
BRANCH  14  15
ATOM     15  C   UNL     1       0.630  18.802  30.147  1.00  0.00    -0.000 C 
BRANCH  15  16
ATOM     16  C   UNL     1       0.919  20.308  30.146  1.00  0.00    -0.003 C 
ATOM     17  C   UNL     1       2.367  20.592  29.760  1.00  0.00     0.004 C 
ENDBRANCH  15  16
ENDBRANCH  14  15
ENDBRANCH  13  14
ENDBRANCH  12  13
ENDBRANCH  11  12
ENDBRANCH  10  11
ENDBRANCH   1  10
TORSDOF 13
ENDMDL
MODEL 2
REMARK VINA RESULT:    -3.581      1.269      3.841
REMARK INTER + INTRA:          -8.591
REMARK INTER:                  -6.740
REMARK INTRA:                  -1.851
REMARK UNBOUND:                -2.288
REMARK SMILES CCCCCCCCCCCCCCC(=O)[O-]
REMARK SMILES IDX 9 1 10 2 11 3 12 4 13 5 14 6 15 7 16 8 17 9 8 10 7 11 6 12
REMARK SMILES IDX 5 13 4 14 3 15 2 16 1 17
REMARK H PARENT
REMARK Flexibility Score: inf
ROOT
ATOM      1  C   UNL     1       0.284  18.778  30.270  1.00  0.00     0.000 C 
ENDROOT
BRANCH   1   2
ATOM      2  C   UNL     1      -0.408  18.081  29.083  1.00  0.00     0.000 C 
BRANCH   2   3
ATOM      3  C   UNL     1      -0.275  16.546  29.059  1.00  0.00     0.000 C 
BRANCH   3   4
ATOM      4  C   UNL     1       0.718  15.991  30.101  1.00  0.00     0.000 C 
BRANCH   4   5
ATOM      5  C   UNL     1       0.665  14.457  30.204  1.00  0.00     0.006 C 
BRANCH   5   6
ATOM      6  C   UNL     1      -0.715  13.899  29.830  1.00  0.00     0.053 C 
BRANCH   6   7
ATOM      7  C   UNL     1      -0.664  12.426  29.565  1.00  0.00     0.041 C 
ATOM      8  O   UNL     1      -1.441  11.645  30.174  1.00  0.00    -0.550 OA
ATOM      9  O   UNL     1       0.264  11.910  28.668  1.00  0.00    -0.550 OA
ENDBRANCH   6   7
ENDBRANCH   5   6
ENDBRANCH   4   5
ENDBRANCH   3   4
ENDBRANCH   2   3
ENDBRANCH   1   2
BRANCH   1  10
ATOM     10  C   UNL     1       0.434  20.305  30.135  1.00  0.00     0.000 C 
BRANCH  10  11
ATOM     11  C   UNL     1       1.893  20.776  30.263  1.00  0.00    -0.000 C 
BRANCH  11  12
ATOM     12  C   UNL     1       2.871  19.618  30.538  1.00  0.00    -0.000 C 
BRANCH  12  13
ATOM     13  C   UNL     1       4.034  19.483  29.535  1.00  0.00    -0.000 C 
BRANCH  13  14
ATOM     14  C   UNL     1       3.637  19.609  28.053  1.00  0.00    -0.000 C 
BRANCH  14  15
ATOM     15  C   UNL     1       2.823  18.408  27.550  1.00  0.00    -0.000 C 
BRANCH  15  16
ATOM     16  C   UNL     1       3.523  17.089  27.894  1.00  0.00    -0.003 C 
ATOM     17  C   UNL     1       2.926  15.925  27.108  1.00  0.00     0.004 C 
ENDBRANCH  15  16
ENDBRANCH  14  15
ENDBRANCH  13  14
ENDBRANCH  12  13
ENDBRANCH  11  12
ENDBRANCH  10  11
ENDBRANCH   1  10
TORSDOF 13
ENDMDL
MODEL 3
REMARK VINA RESULT:    -3.560      1.576      3.514
REMARK INTER + INTRA:          -8.553
REMARK INTER:                  -6.616
REMARK INTRA:                  -1.937
REMARK UNBOUND:                -2.288
REMARK SMILES CCCCCCCCCCCCCCC(=O)[O-]
REMARK SMILES IDX 9 1 10 2 11 3 12 4 13 5 14 6 15 7 16 8 17 9 8 10 7 11 6 12
REMARK SMILES IDX 5 13 4 14 3 15 2 16 1 17
REMARK H PARENT
REMARK Flexibility Score: inf
ROOT
ATOM      1  C   UNL     1      -0.354  17.709  28.563  1.00  0.00     0.000 C 
ENDROOT
BRANCH   1   2
ATOM      2  C   UNL     1      -0.316  16.286  29.152  1.00  0.00     0.000 C 
BRANCH   2   3
ATOM      3  C   UNL     1       1.054  15.584  29.080  1.00  0.00     0.000 C 
BRANCH   3   4
ATOM      4  C   UNL     1       1.667  15.272  30.461  1.00  0.00     0.000 C 
BRANCH   4   5
ATOM      5  C   UNL     1       0.607  14.837  31.488  1.00  0.00     0.006 C 
BRANCH   5   6
ATOM      6  C   UNL     1       0.411  13.315  31.510  1.00  0.00     0.053 C 
BRANCH   6   7
ATOM      7  C   UNL     1      -0.900  12.918  30.904  1.00  0.00     0.041 C 
ATOM      8  O   UNL     1      -1.006  12.775  29.658  1.00  0.00    -0.550 OA
ATOM      9  O   UNL     1      -2.015  12.735  31.714  1.00  0.00    -0.550 OA
ENDBRANCH   6   7
ENDBRANCH   5   6
ENDBRANCH   4   5
ENDBRANCH   3   4
ENDBRANCH   2   3
ENDBRANCH   1   2
BRANCH   1  10
ATOM     10  C   UNL     1      -1.045  18.765  29.447  1.00  0.00     0.000 C 
BRANCH  10  11
ATOM     11  C   UNL     1      -0.048  19.728  30.115  1.00  0.00    -0.000 C 
BRANCH  11  12
ATOM     12  C   UNL     1       0.972  19.004  31.012  1.00  0.00    -0.000 C 
BRANCH  12  13
ATOM     13  C   UNL     1       2.452  19.319  30.718  1.00  0.00    -0.000 C 
BRANCH  13  14
ATOM     14  C   UNL     1       2.702  20.172  29.461  1.00  0.00    -0.000 C 
BRANCH  14  15
ATOM     15  C   UNL     1       3.731  19.547  28.510  1.00  0.00    -0.000 C 
BRANCH  15  16
ATOM     16  C   UNL     1       3.125  18.363  27.747  1.00  0.00    -0.003 C 
ATOM     17  C   UNL     1       4.052  17.152  27.782  1.00  0.00     0.004 C 
ENDBRANCH  15  16
ENDBRANCH  14  15
ENDBRANCH  13  14
ENDBRANCH  12  13
ENDBRANCH  11  12
ENDBRANCH  10  11
ENDBRANCH   1  10
TORSDOF 13
ENDMDL
MODEL 4
REMARK VINA RESULT:    -3.557      2.214      5.166
REMARK INTER + INTRA:          -8.549
REMARK INTER:                  -7.120
REMARK INTRA:                  -1.429
REMARK UNBOUND:                -2.288
REMARK SMILES CCCCCCCCCCCCCCC(=O)[O-]
REMARK SMILES IDX 9 1 10 2 11 3 12 4 13 5 14 6 15 7 16 8 17 9 8 10 7 11 6 12
REMARK SMILES IDX 5 13 4 14 3 15 2 16 1 17
REMARK H PARENT
REMARK Flexibility Score: inf
ROOT
ATOM      1  C   UNL     1       0.698  19.347  30.566  1.00  0.00     0.000 C 
ENDROOT
BRANCH   1   2
ATOM      2  C   UNL     1       1.892  20.243  30.187  1.00  0.00     0.000 C 
BRANCH   2   3
ATOM      3  C   UNL     1       3.192  19.489  29.846  1.00  0.00     0.000 C 
BRANCH   3   4
ATOM      4  C   UNL     1       3.573  19.550  28.351  1.00  0.00     0.000 C 
BRANCH   4   5
ATOM      5  C   UNL     1       3.042  18.341  27.561  1.00  0.00     0.006 C 
BRANCH   5   6
ATOM      6  C   UNL     1       3.784  17.046  27.916  1.00  0.00     0.053 C 
BRANCH   6   7
ATOM      7  C   UNL     1       3.550  15.976  26.894  1.00  0.00     0.041 C 
ATOM      8  O   UNL     1       4.410  15.754  26.001  1.00  0.00    -0.550 OA
ATOM      9  O   UNL     1       2.369  15.245  26.907  1.00  0.00    -0.550 OA
ENDBRANCH   6   7
ENDBRANCH   5   6
ENDBRANCH   4   5
ENDBRANCH   3   4
ENDBRANCH   2   3
ENDBRANCH   1   2
BRANCH   1  10
ATOM     10  C   UNL     1      -0.639  19.722  29.900  1.00  0.00     0.000 C 
BRANCH  10  11
ATOM     11  C   UNL     1      -1.250  18.564  29.092  1.00  0.00    -0.000 C 
BRANCH  11  12
ATOM     12  C   UNL     1      -0.190  17.571  28.579  1.00  0.00    -0.000 C 
BRANCH  12  13
ATOM     13  C   UNL     1      -0.390  16.106  29.018  1.00  0.00    -0.000 C 
BRANCH  13  14
ATOM     14  C   UNL     1       0.601  15.602  30.084  1.00  0.00    -0.000 C 
BRANCH  14  15
ATOM     15  C   UNL     1       0.238  14.213  30.626  1.00  0.00    -0.000 C 
BRANCH  15  16
ATOM     16  C   UNL     1      -0.928  13.605  29.838  1.00  0.00    -0.003 C 
ATOM     17  C   UNL     1      -1.676  12.568  30.672  1.00  0.00     0.004 C 
ENDBRANCH  15  16
ENDBRANCH  14  15
ENDBRANCH  13  14
ENDBRANCH  12  13
ENDBRANCH  11  12
ENDBRANCH  10  11
ENDBRANCH   1  10
TORSDOF 13
ENDMDL
MODEL 5
REMARK VINA RESULT:    -3.552      1.592      2.799
REMARK INTER + INTRA:          -8.539
REMARK INTER:                  -6.974
REMARK INTRA:                  -1.564
REMARK UNBOUND:                -2.288
REMARK SMILES CCCCCCCCCCCCCCC(=O)[O-]
REMARK SMILES IDX 9 1 10 2 11 3 12 4 13 5 14 6 15 7 16 8 17 9 8 10 7 11 6 12
REMARK SMILES IDX 5 13 4 14 3 15 2 16 1 17
REMARK H PARENT
REMARK Flexibility Score: inf
ROOT
ATOM      1  C   UNL     1       0.923  16.320  28.491  1.00  0.00     0.000 C 
ENDROOT
BRANCH   1   2
ATOM      2  C   UNL     1       0.154  15.434  29.490  1.00  0.00     0.000 C 
BRANCH   2   3
ATOM      3  C   UNL     1       0.871  15.190  30.832  1.00  0.00     0.000 C 
BRANCH   3   4
ATOM      4  C   UNL     1       0.317  13.986  31.623  1.00  0.00     0.000 C 
BRANCH   4   5
ATOM      5  C   UNL     1      -0.702  13.169  30.810  1.00  0.00     0.006 C 
BRANCH   5   6
ATOM      6  C   UNL     1      -0.230  11.729  30.569  1.00  0.00     0.053 C 
BRANCH   6   7
ATOM      7  C   UNL     1       0.980  11.683  29.687  1.00  0.00     0.041 C 
ATOM      8  O   UNL     1       2.099  11.354  30.162  1.00  0.00    -0.550 OA
ATOM      9  O   UNL     1       0.879  12.034  28.346  1.00  0.00    -0.550 OA
ENDBRANCH   6   7
ENDBRANCH   5   6
ENDBRANCH   4   5
ENDBRANCH   3   4
ENDBRANCH   2   3
ENDBRANCH   1   2
BRANCH   1  10
ATOM     10  C   UNL     1       0.152  17.554  27.983  1.00  0.00     0.000 C 
BRANCH  10  11
ATOM     11  C   UNL     1      -0.892  18.062  28.993  1.00  0.00    -0.000 C 
BRANCH  11  12
ATOM     12  C   UNL     1      -0.443  19.342  29.722  1.00  0.00    -0.000 C 
BRANCH  12  13
ATOM     13  C   UNL     1       0.688  19.154  30.753  1.00  0.00    -0.000 C 
BRANCH  13  14
ATOM     14  C   UNL     1       1.569  20.394  30.991  1.00  0.00    -0.000 C 
BRANCH  14  15
ATOM     15  C   UNL     1       2.478  20.717  29.797  1.00  0.00    -0.000 C 
BRANCH  15  16
ATOM     16  C   UNL     1       3.287  19.485  29.374  1.00  0.00    -0.003 C 
ATOM     17  C   UNL     1       3.339  19.354  27.855  1.00  0.00     0.004 C 
ENDBRANCH  15  16
ENDBRANCH  14  15
ENDBRANCH  13  14
ENDBRANCH  12  13
ENDBRANCH  11  12
ENDBRANCH  10  11
ENDBRANCH   1  10
TORSDOF 13
ENDMDL
MODEL 6
REMARK VINA RESULT:    -3.506      1.359      2.685
REMARK INTER + INTRA:          -8.459
REMARK INTER:                  -6.119
REMARK INTRA:                  -2.340
REMARK UNBOUND:                -2.288
REMARK SMILES CCCCCCCCCCCCCCC(=O)[O-]
REMARK SMILES IDX 9 1 10 2 11 3 12 4 13 5 14 6 15 7 16 8 17 9 8 10 7 11 6 12
REMARK SMILES IDX 5 13 4 14 3 15 2 16 1 17
REMARK H PARENT
REMARK Flexibility Score: inf
ROOT
ATOM      1  C   UNL     1       0.447  16.647  29.691  1.00  0.00     0.000 C 
ENDROOT
BRANCH   1   2
ATOM      2  C   UNL     1       1.361  17.070  30.857  1.00  0.00     0.000 C 
BRANCH   2   3
ATOM      3  C   UNL     1       2.344  15.988  31.343  1.00  0.00     0.000 C 
BRANCH   3   4
ATOM      4  C   UNL     1       1.819  14.547  31.169  1.00  0.00     0.000 C 
BRANCH   4   5
ATOM      5  C   UNL     1       2.794  13.659  30.375  1.00  0.00     0.006 C 
BRANCH   5   6
ATOM      6  C   UNL     1       2.206  13.212  29.030  1.00  0.00     0.053 C 
BRANCH   6   7
ATOM      7  C   UNL     1       1.426  11.941  29.163  1.00  0.00     0.041 C 
ATOM      8  O   UNL     1       1.539  11.232  30.197  1.00  0.00    -0.550 OA
ATOM      9  O   UNL     1       0.595  11.522  28.130  1.00  0.00    -0.550 OA
ENDBRANCH   6   7
ENDBRANCH   5   6
ENDBRANCH   4   5
ENDBRANCH   3   4
ENDBRANCH   2   3
ENDBRANCH   1   2
BRANCH   1  10
ATOM     10  C   UNL     1       0.233  17.719  28.605  1.00  0.00     0.000 C 
BRANCH  10  11
ATOM     11  C   UNL     1       0.653  17.241  27.204  1.00  0.00    -0.000 C 
BRANCH  11  12
ATOM     12  C   UNL     1       1.843  16.264  27.239  1.00  0.00    -0.000 C 
BRANCH  12  13
ATOM     13  C   UNL     1       3.235  16.914  27.105  1.00  0.00    -0.000 C 
BRANCH  13  14
ATOM     14  C   UNL     1       4.101  16.873  28.377  1.00  0.00    -0.000 C 
BRANCH  14  15
ATOM     15  C   UNL     1       4.524  18.269  28.855  1.00  0.00    -0.000 C 
BRANCH  15  16
ATOM     16  C   UNL     1       3.600  19.349  28.280  1.00  0.00    -0.003 C 
ATOM     17  C   UNL     1       2.892  20.118  29.391  1.00  0.00     0.004 C 
ENDBRANCH  15  16
ENDBRANCH  14  15
ENDBRANCH  13  14
ENDBRANCH  12  13
ENDBRANCH  11  12
ENDBRANCH  10  11
ENDBRANCH   1  10
TORSDOF 13
ENDMDL
MODEL 7
REMARK VINA RESULT:    -3.502      1.961      3.078
REMARK INTER + INTRA:          -8.451
REMARK INTER:                  -6.292
REMARK INTRA:                  -2.158
REMARK UNBOUND:                -2.288
REMARK SMILES CCCCCCCCCCCCCCC(=O)[O-]
REMARK SMILES IDX 9 1 10 2 11 3 12 4 13 5 14 6 15 7 16 8 17 9 8 10 7 11 6 12
REMARK SMILES IDX 5 13 4 14 3 15 2 16 1 17
REMARK H PARENT
REMARK Flexibility Score: inf
ROOT
ATOM      1  C   UNL     1       1.903  14.720  30.967  1.00  0.00     0.000 C 
ENDROOT
BRANCH   1   2
ATOM      2  C   UNL     1       3.042  14.460  29.963  1.00  0.00     0.000 C 
BRANCH   2   3
ATOM      3  C   UNL     1       3.021  13.071  29.295  1.00  0.00     0.000 C 
BRANCH   3   4
ATOM      4  C   UNL     1       1.725  12.778  28.510  1.00  0.00     0.000 C 
BRANCH   4   5
ATOM      5  C   UNL     1       0.907  11.634  29.134  1.00  0.00     0.006 C 
BRANCH   5   6
ATOM      6  C   UNL     1      -0.548  12.041  29.399  1.00  0.00     0.053 C 
BRANCH   6   7
ATOM      7  C   UNL     1      -0.834  12.152  30.865  1.00  0.00     0.041 C 
ATOM      8  O   UNL     1      -1.894  12.702  31.264  1.00  0.00    -0.550 OA
ATOM      9  O   UNL     1       0.085  11.677  31.792  1.00  0.00    -0.550 OA
ENDBRANCH   6   7
ENDBRANCH   5   6
ENDBRANCH   4   5
ENDBRANCH   3   4
ENDBRANCH   2   3
ENDBRANCH   1   2
BRANCH   1  10
ATOM     10  C   UNL     1       1.018  15.941  30.650  1.00  0.00     0.000 C 
BRANCH  10  11
ATOM     11  C   UNL     1      -0.019  15.658  29.549  1.00  0.00    -0.000 C 
BRANCH  11  12
ATOM     12  C   UNL     1      -0.417  16.923  28.765  1.00  0.00    -0.000 C 
BRANCH  12  13
ATOM     13  C   UNL     1       0.664  17.482  27.820  1.00  0.00    -0.000 C 
BRANCH  13  14
ATOM     14  C   UNL     1       1.588  16.426  27.185  1.00  0.00    -0.000 C 
BRANCH  14  15
ATOM     15  C   UNL     1       3.073  16.801  27.277  1.00  0.00    -0.000 C 
BRANCH  15  16
ATOM     16  C   UNL     1       3.256  18.144  27.993  1.00  0.00    -0.003 C 
ATOM     17  C   UNL     1       4.052  17.977  29.284  1.00  0.00     0.004 C 
ENDBRANCH  15  16
ENDBRANCH  14  15
ENDBRANCH  13  14
ENDBRANCH  12  13
ENDBRANCH  11  12
ENDBRANCH  10  11
ENDBRANCH   1  10
TORSDOF 13
ENDMDL
MODEL 8
REMARK VINA RESULT:    -3.476      3.982      6.107
REMARK INTER + INTRA:          -8.405
REMARK INTER:                  -6.087
REMARK INTRA:                  -2.317
REMARK UNBOUND:                -2.288
REMARK SMILES CCCCCCCCCCCCCCC(=O)[O-]
REMARK SMILES IDX 9 1 10 2 11 3 12 4 13 5 14 6 15 7 16 8 17 9 8 10 7 11 6 12
REMARK SMILES IDX 5 13 4 14 3 15 2 16 1 17
REMARK H PARENT
REMARK Flexibility Score: inf
ROOT
ATOM      1  C   UNL     1      -0.105  19.416  29.865  1.00  0.00     0.000 C 
ENDROOT
BRANCH   1   2
ATOM      2  C   UNL     1       1.003  18.725  30.683  1.00  0.00     0.000 C 
BRANCH   2   3
ATOM      3  C   UNL     1       2.338  19.491  30.753  1.00  0.00     0.000 C 
BRANCH   3   4
ATOM      4  C   UNL     1       2.634  20.341  29.499  1.00  0.00     0.000 C 
BRANCH   4   5
ATOM      5  C   UNL     1       3.336  19.532  28.394  1.00  0.00     0.006 C 
BRANCH   5   6
ATOM      6  C   UNL     1       4.714  19.023  28.836  1.00  0.00     0.053 C 
BRANCH   6   7
ATOM      7  C   UNL     1       5.735  20.120  28.838  1.00  0.00     0.041 C 
ATOM      8  O   UNL     1       6.578  20.199  29.770  1.00  0.00    -0.550 OA
ATOM      9  O   UNL     1       5.736  21.073  27.828  1.00  0.00    -0.550 OA
ENDBRANCH   6   7
ENDBRANCH   5   6
ENDBRANCH   4   5
ENDBRANCH   3   4
ENDBRANCH   2   3
ENDBRANCH   1   2
BRANCH   1  10
ATOM     10  C   UNL     1      -1.028  18.464  29.080  1.00  0.00     0.000 C 
BRANCH  10  11
ATOM     11  C   UNL     1      -0.331  17.152  28.680  1.00  0.00    -0.000 C 
BRANCH  11  12
ATOM     12  C   UNL     1       0.488  17.283  27.382  1.00  0.00    -0.000 C 
BRANCH  12  13
ATOM     13  C   UNL     1       1.771  16.429  27.322  1.00  0.00    -0.000 C 
BRANCH  13  14
ATOM     14  C   UNL     1       1.937  15.416  28.470  1.00  0.00    -0.000 C 
BRANCH  14  15
ATOM     15  C   UNL     1       3.192  15.673  29.315  1.00  0.00    -0.000 C 
BRANCH  15  16
ATOM     16  C   UNL     1       2.840  15.774  30.803  1.00  0.00    -0.003 C 
ATOM     17  C   UNL     1       1.541  15.036  31.114  1.00  0.00     0.004 C 
ENDBRANCH  15  16
ENDBRANCH  14  15
ENDBRANCH  13  14
ENDBRANCH  12  13
ENDBRANCH  11  12
ENDBRANCH  10  11
ENDBRANCH   1  10
TORSDOF 13
ENDMDL
MODEL 9
REMARK VINA RESULT:    -3.447      1.396      2.627
REMARK INTER + INTRA:          -8.354
REMARK INTER:                  -6.372
REMARK INTRA:                  -1.982
REMARK UNBOUND:                -2.288
REMARK SMILES CCCCCCCCCCCCCCC(=O)[O-]
REMARK SMILES IDX 9 1 10 2 11 3 12 4 13 5 14 6 15 7 16 8 17 9 8 10 7 11 6 12
REMARK SMILES IDX 5 13 4 14 3 15 2 16 1 17
REMARK H PARENT
REMARK Flexibility Score: inf
ROOT
ATOM      1  C   UNL     1       1.990  16.593  27.477  1.00  0.00     0.000 C 
ENDROOT
BRANCH   1   2
ATOM      2  C   UNL     1       0.620  17.128  27.934  1.00  0.00     0.000 C 
BRANCH   2   3
ATOM      3  C   UNL     1      -0.089  16.278  29.007  1.00  0.00     0.000 C 
BRANCH   3   4
ATOM      4  C   UNL     1       0.749  16.062  30.284  1.00  0.00     0.000 C 
BRANCH   4   5
ATOM      5  C   UNL     1       0.960  14.571  30.602  1.00  0.00     0.006 C 
BRANCH   5   6
ATOM      6  C   UNL     1       0.178  13.659  29.648  1.00  0.00     0.053 C 
BRANCH   6   7
ATOM      7  C   UNL     1       1.071  12.657  28.983  1.00  0.00     0.041 C 
ATOM      8  O   UNL     1       0.965  11.433  29.257  1.00  0.00    -0.550 OA
ATOM      9  O   UNL     1       2.042  13.079  28.083  1.00  0.00    -0.550 OA
ENDBRANCH   6   7
ENDBRANCH   5   6
ENDBRANCH   4   5
ENDBRANCH   3   4
ENDBRANCH   2   3
ENDBRANCH   1   2
BRANCH   1  10
ATOM     10  C   UNL     1       3.195  17.479  27.847  1.00  0.00     0.000 C 
BRANCH  10  11
ATOM     11  C   UNL     1       2.837  18.974  27.915  1.00  0.00    -0.000 C 
BRANCH  11  12
ATOM     12  C   UNL     1       3.380  19.661  29.182  1.00  0.00    -0.000 C 
BRANCH  12  13
ATOM     13  C   UNL     1       3.002  18.984  30.514  1.00  0.00    -0.000 C 
BRANCH  13  14
ATOM     14  C   UNL     1       1.630  19.387  31.087  1.00  0.00    -0.000 C 
BRANCH  14  15
ATOM     15  C   UNL     1       1.356  20.893  30.972  1.00  0.00    -0.000 C 
BRANCH  15  16
ATOM     16  C   UNL     1      -0.008  21.154  30.324  1.00  0.00    -0.003 C 
ATOM     17  C   UNL     1      -0.720  19.847  29.990  1.00  0.00     0.004 C 
ENDBRANCH  15  16
ENDBRANCH  14  15
ENDBRANCH  13  14
ENDBRANCH  12  13
ENDBRANCH  11  12
ENDBRANCH  10  11
ENDBRANCH   1  10
TORSDOF 13
ENDMDL
