MODEL 1
REMARK VINA RESULT:    -5.565      0.000      0.000
REMARK INTER + INTRA:          -9.478
REMARK INTER:                  -8.655
REMARK INTRA:                  -0.823
REMARK UNBOUND:                -0.823
REMARK SMILES COc1cc(CNC(=O)CCCCC=CC(C)C)ccc1O
REMARK SMILES IDX 11 1 12 2 13 3 14 4 15 5 16 6 17 7 18 8 10 9 8 10 9 11 7 12
REMARK SMILES IDX 6 14 5 15 4 16 19 17 3 18 20 19 21 20 2 21 1 22 22 23
REMARK H PARENT 7 13 22 24
REMARK Flexibility Score: inf
ROOT
ATOM      1  C   UNL     1     -21.005  22.985  38.929  1.00  0.00     0.010 C 
ENDROOT
BRANCH   1   2
ATOM      2  C   UNL     1     -20.048  22.594  40.067  1.00  0.00     0.005 C 
BRANCH   2   3
ATOM      3  C   UNL     1     -20.773  22.408  41.408  1.00  0.00     0.027 C 
BRANCH   3   4
ATOM      4  C   UNL     1     -20.789  20.966  41.852  1.00  0.00    -0.031 C 
ATOM      5  C   UNL     1     -19.745  20.182  42.213  1.00  0.00    -0.028 C 
BRANCH   5   6
ATOM      6  C   UNL     1     -18.248  20.462  42.191  1.00  0.00     0.005 C 
ATOM      7  C   UNL     1     -17.779  21.072  43.515  1.00  0.00     0.012 C 
ATOM      8  C   UNL     1     -17.346  19.309  41.739  1.00  0.00     0.012 C 
ENDBRANCH   5   6
ENDBRANCH   3   4
ENDBRANCH   2   3
ENDBRANCH   1   2
BRANCH   1   9
ATOM      9  C   UNL     1     -21.970  21.853  38.553  1.00  0.00     0.100 C 
BRANCH   9  10
ATOM     10  C   UNL     1     -21.914  21.590  37.079  1.00  0.00     0.220 C 
ATOM     11  O   UNL     1     -22.757  20.811  36.555  1.00  0.00    -0.275 OA
ATOM     12  N   UNL     1     -20.878  22.179  36.280  1.00  0.00    -0.352 N 
ATOM     13  H   UNL     1     -20.158  22.779  36.745  1.00  0.00     0.163 HD
BRANCH  12  14
ATOM     14  C   UNL     1     -20.783  21.965  34.839  1.00  0.00     0.151 C 
BRANCH  14  15
ATOM     15  C   UNL     1     -20.105  23.135  34.180  1.00  0.00    -0.025 A 
ATOM     16  C   UNL     1     -19.886  24.318  34.906  1.00  0.00     0.056 A 
ATOM     17  C   UNL     1     -19.713  23.069  32.836  1.00  0.00     0.009 A 
ATOM     18  C   UNL     1     -19.271  25.430  34.296  1.00  0.00     0.160 A 
ATOM     19  C   UNL     1     -19.103  24.166  32.226  1.00  0.00     0.050 A 
ATOM     20  C   UNL     1     -18.879  25.344  32.947  1.00  0.00     0.157 A 
BRANCH  18  21
ATOM     21  O   UNL     1     -19.039  26.626  34.995  1.00  0.00    -0.493 OA
ATOM     22  C   UNL     1     -19.982  27.687  35.115  1.00  0.00     0.278 C 
ENDBRANCH  18  21
BRANCH  20  23
ATOM     23  O   UNL     1     -18.266  26.420  32.305  1.00  0.00    -0.504 OA
ATOM     24  H   UNL     1     -18.783  27.067  31.723  1.00  0.00     0.293 HD
ENDBRANCH  20  23
ENDBRANCH  14  15
ENDBRANCH  12  14
ENDBRANCH   9  10
ENDBRANCH   1   9
TORSDOF 10
ENDMDL
MODEL 2
REMARK VINA RESULT:    -5.239      1.678      2.334
REMARK INTER + INTRA:          -8.973
REMARK INTER:                  -8.250
REMARK INTRA:                  -0.723
REMARK UNBOUND:                -0.823
REMARK SMILES COc1cc(CNC(=O)CCCCC=CC(C)C)ccc1O
REMARK SMILES IDX 11 1 12 2 13 3 14 4 15 5 16 6 17 7 18 8 10 9 8 10 9 11 7 12
REMARK SMILES IDX 6 14 5 15 4 16 19 17 3 18 20 19 21 20 2 21 1 22 22 23
REMARK H PARENT 7 13 22 24
REMARK Flexibility Score: inf
ROOT
ATOM      1  C   UNL     1     -21.666  21.991  38.772  1.00  0.00     0.010 C 
ENDROOT
BRANCH   1   2
ATOM      2  C   UNL     1     -22.134  22.250  40.213  1.00  0.00     0.005 C 
BRANCH   2   3
ATOM      3  C   UNL     1     -21.129  21.746  41.258  1.00  0.00     0.027 C 
BRANCH   3   4
ATOM      4  C   UNL     1     -19.703  22.054  40.873  1.00  0.00    -0.031 C 
ATOM      5  C   UNL     1     -18.564  21.464  41.308  1.00  0.00    -0.028 C 
BRANCH   5   6
ATOM      6  C   UNL     1     -18.351  20.398  42.374  1.00  0.00     0.005 C 
ATOM      7  C   UNL     1     -17.618  19.181  41.800  1.00  0.00     0.012 C 
ATOM      8  C   UNL     1     -17.735  20.869  43.695  1.00  0.00     0.012 C 
ENDBRANCH   5   6
ENDBRANCH   3   4
ENDBRANCH   2   3
ENDBRANCH   1   2
BRANCH   1   9
ATOM      9  C   UNL     1     -22.737  21.302  37.917  1.00  0.00     0.100 C 
BRANCH   9  10
ATOM     10  C   UNL     1     -22.332  21.303  36.474  1.00  0.00     0.220 C 
ATOM     11  O   UNL     1     -23.087  20.767  35.618  1.00  0.00    -0.275 OA
ATOM     12  N   UNL     1     -21.072  21.864  36.080  1.00  0.00    -0.352 N 
ATOM     13  H   UNL     1     -20.439  22.256  36.815  1.00  0.00     0.163 HD
BRANCH  12  14
ATOM     14  C   UNL     1     -20.633  21.902  34.688  1.00  0.00     0.151 C 
BRANCH  14  15
ATOM     15  C   UNL     1     -19.691  23.054  34.468  1.00  0.00    -0.025 A 
ATOM     16  C   UNL     1     -18.325  22.811  34.250  1.00  0.00     0.056 A 
ATOM     17  C   UNL     1     -20.159  24.376  34.507  1.00  0.00     0.009 A 
ATOM     18  C   UNL     1     -17.427  23.882  34.063  1.00  0.00     0.160 A 
ATOM     19  C   UNL     1     -19.275  25.440  34.322  1.00  0.00     0.050 A 
ATOM     20  C   UNL     1     -17.915  25.201  34.100  1.00  0.00     0.157 A 
BRANCH  18  21
ATOM     21  O   UNL     1     -16.056  23.671  33.843  1.00  0.00    -0.493 OA
ATOM     22  C   UNL     1     -15.118  23.333  34.859  1.00  0.00     0.278 C 
ENDBRANCH  18  21
BRANCH  20  23
ATOM     23  O   UNL     1     -17.061  26.289  33.919  1.00  0.00    -0.504 OA
ATOM     24  H   UNL     1     -17.366  27.244  34.060  1.00  0.00     0.293 HD
ENDBRANCH  20  23
ENDBRANCH  14  15
ENDBRANCH  12  14
ENDBRANCH   9  10
ENDBRANCH   1   9
TORSDOF 10
ENDMDL
MODEL 3
REMARK VINA RESULT:    -5.172      3.300      8.868
REMARK INTER + INTRA:          -8.867
REMARK INTER:                  -8.161
REMARK INTRA:                  -0.707
REMARK UNBOUND:                -0.823
REMARK SMILES COc1cc(CNC(=O)CCCCC=CC(C)C)ccc1O
REMARK SMILES IDX 11 1 12 2 13 3 14 4 15 5 16 6 17 7 18 8 10 9 8 10 9 11 7 12
REMARK SMILES IDX 6 14 5 15 4 16 19 17 3 18 20 19 21 20 2 21 1 22 22 23
REMARK H PARENT 7 13 22 24
REMARK Flexibility Score: inf
ROOT
ATOM      1  C   UNL     1     -22.296  21.536  38.377  1.00  0.00     0.010 C 
ENDROOT
BRANCH   1   2
ATOM      2  C   UNL     1     -22.412  21.222  36.877  1.00  0.00     0.005 C 
BRANCH   2   3
ATOM      3  C   UNL     1     -21.776  22.309  35.998  1.00  0.00     0.027 C 
BRANCH   3   4
ATOM      4  C   UNL     1     -20.817  21.733  34.984  1.00  0.00    -0.031 C 
ATOM      5  C   UNL     1     -19.741  22.322  34.411  1.00  0.00    -0.028 C 
BRANCH   5   6
ATOM      6  C   UNL     1     -19.220  23.749  34.523  1.00  0.00     0.005 C 
ATOM      7  C   UNL     1     -17.726  23.820  34.196  1.00  0.00     0.012 C 
ATOM      8  C   UNL     1     -20.022  24.826  33.785  1.00  0.00     0.012 C 
ENDBRANCH   5   6
ENDBRANCH   3   4
ENDBRANCH   2   3
ENDBRANCH   1   2
BRANCH   1   9
ATOM      9  C   UNL     1     -21.052  22.368  38.714  1.00  0.00     0.100 C 
BRANCH   9  10
ATOM     10  C   UNL     1     -20.831  22.400  40.196  1.00  0.00     0.220 C 
ATOM     11  O   UNL     1     -21.808  22.617  40.963  1.00  0.00    -0.275 OA
ATOM     12  N   UNL     1     -19.510  22.235  40.731  1.00  0.00    -0.352 N 
ATOM     13  H   UNL     1     -18.708  22.108  40.072  1.00  0.00     0.163 HD
BRANCH  12  14
ATOM     14  C   UNL     1     -19.240  22.246  42.166  1.00  0.00     0.151 C 
BRANCH  14  15
ATOM     15  C   UNL     1     -18.542  20.978  42.576  1.00  0.00    -0.025 A 
ATOM     16  C   UNL     1     -18.290  19.977  41.624  1.00  0.00     0.056 A 
ATOM     17  C   UNL     1     -18.163  20.772  43.911  1.00  0.00     0.009 A 
ATOM     18  C   UNL     1     -17.656  18.775  41.998  1.00  0.00     0.160 A 
ATOM     19  C   UNL     1     -17.534  19.584  44.287  1.00  0.00     0.050 A 
ATOM     20  C   UNL     1     -17.278  18.587  43.341  1.00  0.00     0.157 A 
BRANCH  18  21
ATOM     21  O   UNL     1     -17.390  17.755  41.069  1.00  0.00    -0.493 OA
ATOM     22  C   UNL     1     -16.127  17.540  40.447  1.00  0.00     0.278 C 
ENDBRANCH  18  21
BRANCH  20  23
ATOM     23  O   UNL     1     -16.647  17.413  43.753  1.00  0.00    -0.504 OA
ATOM     24  H   UNL     1     -16.038  17.383  44.561  1.00  0.00     0.293 HD
ENDBRANCH  20  23
ENDBRANCH  14  15
ENDBRANCH  12  14
ENDBRANCH   9  10
ENDBRANCH   1   9
TORSDOF 10
ENDMDL
MODEL 4
REMARK VINA RESULT:    -5.101      2.578      7.589
REMARK INTER + INTRA:          -8.758
REMARK INTER:                  -7.695
REMARK INTRA:                  -1.064
REMARK UNBOUND:                -0.823
REMARK SMILES COc1cc(CNC(=O)CCCCC=CC(C)C)ccc1O
REMARK SMILES IDX 11 1 12 2 13 3 14 4 15 5 16 6 17 7 18 8 10 9 8 10 9 11 7 12
REMARK SMILES IDX 6 14 5 15 4 16 19 17 3 18 20 19 21 20 2 21 1 22 22 23
REMARK H PARENT 7 13 22 24
REMARK Flexibility Score: inf
ROOT
ATOM      1  C   UNL     1     -20.030  24.467  34.952  1.00  0.00     0.010 C 
ENDROOT
BRANCH   1   2
ATOM      2  C   UNL     1     -20.028  23.217  34.057  1.00  0.00     0.005 C 
BRANCH   2   3
ATOM      3  C   UNL     1     -20.696  22.010  34.731  1.00  0.00     0.027 C 
BRANCH   3   4
ATOM      4  C   UNL     1     -21.002  22.268  36.186  1.00  0.00    -0.031 C 
ATOM      5  C   UNL     1     -22.023  21.783  36.933  1.00  0.00    -0.028 C 
BRANCH   5   6
ATOM      6  C   UNL     1     -23.217  20.926  36.535  1.00  0.00     0.005 C 
ATOM      7  C   UNL     1     -24.122  20.644  37.737  1.00  0.00     0.012 C 
ATOM      8  C   UNL     1     -24.014  21.394  35.313  1.00  0.00     0.012 C 
ENDBRANCH   5   6
ENDBRANCH   3   4
ENDBRANCH   2   3
ENDBRANCH   1   2
BRANCH   1   9
ATOM      9  C   UNL     1     -18.621  24.876  35.401  1.00  0.00     0.100 C 
BRANCH   9  10
ATOM     10  C   UNL     1     -18.623  25.241  36.854  1.00  0.00     0.220 C 
ATOM     11  O   UNL     1     -18.384  26.433  37.194  1.00  0.00    -0.275 OA
ATOM     12  N   UNL     1     -18.844  24.233  37.850  1.00  0.00    -0.352 N 
ATOM     13  H   UNL     1     -18.987  23.243  37.547  1.00  0.00     0.163 HD
BRANCH  12  14
ATOM     14  C   UNL     1     -18.868  24.536  39.279  1.00  0.00     0.151 C 
BRANCH  14  15
ATOM     15  C   UNL     1     -19.355  23.345  40.057  1.00  0.00    -0.025 A 
ATOM     16  C   UNL     1     -18.434  22.507  40.708  1.00  0.00     0.056 A 
ATOM     17  C   UNL     1     -20.723  23.043  40.118  1.00  0.00     0.009 A 
ATOM     18  C   UNL     1     -18.874  21.375  41.423  1.00  0.00     0.160 A 
ATOM     19  C   UNL     1     -21.165  21.924  40.826  1.00  0.00     0.050 A 
ATOM     20  C   UNL     1     -20.251  21.091  41.478  1.00  0.00     0.157 A 
BRANCH  18  21
ATOM     21  O   UNL     1     -17.977  20.520  42.084  1.00  0.00    -0.493 OA
ATOM     22  C   UNL     1     -17.619  20.632  43.458  1.00  0.00     0.278 C 
ENDBRANCH  18  21
BRANCH  20  23
ATOM     23  O   UNL     1     -20.729  19.982  42.176  1.00  0.00    -0.504 OA
ATOM     24  H   UNL     1     -21.565  19.486  41.894  1.00  0.00     0.293 HD
ENDBRANCH  20  23
ENDBRANCH  14  15
ENDBRANCH  12  14
ENDBRANCH   9  10
ENDBRANCH   1   9
TORSDOF 10
ENDMDL
MODEL 5
REMARK VINA RESULT:    -5.046      2.464      4.347
REMARK INTER + INTRA:          -8.671
REMARK INTER:                  -7.903
REMARK INTRA:                  -0.769
REMARK UNBOUND:                -0.823
REMARK SMILES COc1cc(CNC(=O)CCCCC=CC(C)C)ccc1O
REMARK SMILES IDX 11 1 12 2 13 3 14 4 15 5 16 6 17 7 18 8 10 9 8 10 9 11 7 12
REMARK SMILES IDX 6 14 5 15 4 16 19 17 3 18 20 19 21 20 2 21 1 22 22 23
REMARK H PARENT 7 13 22 24
REMARK Flexibility Score: inf
ROOT
ATOM      1  C   UNL     1     -18.803  20.560  41.641  1.00  0.00     0.010 C 
ENDROOT
BRANCH   1   2
ATOM      2  C   UNL     1     -17.984  20.124  42.867  1.00  0.00     0.005 C 
BRANCH   2   3
ATOM      3  C   UNL     1     -17.326  18.749  42.676  1.00  0.00     0.027 C 
BRANCH   3   4
ATOM      4  C   UNL     1     -17.348  18.302  41.235  1.00  0.00    -0.031 C 
ATOM      5  C   UNL     1     -16.837  17.170  40.695  1.00  0.00    -0.028 C 
BRANCH   5   6
ATOM      6  C   UNL     1     -16.009  16.061  41.329  1.00  0.00     0.005 C 
ATOM      7  C   UNL     1     -16.891  14.879  41.741  1.00  0.00     0.012 C 
ATOM      8  C   UNL     1     -14.768  15.608  40.553  1.00  0.00     0.012 C 
ENDBRANCH   5   6
ENDBRANCH   3   4
ENDBRANCH   2   3
ENDBRANCH   1   2
BRANCH   1   9
ATOM      9  C   UNL     1     -20.308  20.626  41.929  1.00  0.00     0.100 C 
BRANCH   9  10
ATOM     10  C   UNL     1     -20.940  21.738  41.148  1.00  0.00     0.220 C 
ATOM     11  O   UNL     1     -22.190  21.898  41.196  1.00  0.00    -0.275 OA
ATOM     12  N   UNL     1     -20.133  22.580  40.312  1.00  0.00    -0.352 N 
ATOM     13  H   UNL     1     -19.106  22.396  40.247  1.00  0.00     0.163 HD
BRANCH  12  14
ATOM     14  C   UNL     1     -20.694  23.685  39.539  1.00  0.00     0.151 C 
BRANCH  14  15
ATOM     15  C   UNL     1     -20.690  23.351  38.072  1.00  0.00    -0.025 A 
ATOM     16  C   UNL     1     -19.968  24.151  37.173  1.00  0.00     0.056 A 
ATOM     17  C   UNL     1     -21.427  22.261  37.587  1.00  0.00     0.009 A 
ATOM     18  C   UNL     1     -19.972  23.864  35.793  1.00  0.00     0.160 A 
ATOM     19  C   UNL     1     -21.435  21.970  36.222  1.00  0.00     0.050 A 
ATOM     20  C   UNL     1     -20.713  22.763  35.324  1.00  0.00     0.157 A 
BRANCH  18  21
ATOM     21  O   UNL     1     -19.259  24.645  34.869  1.00  0.00    -0.493 OA
ATOM     22  C   UNL     1     -19.549  26.008  34.571  1.00  0.00     0.278 C 
ENDBRANCH  18  21
BRANCH  20  23
ATOM     23  O   UNL     1     -20.743  22.442  33.967  1.00  0.00    -0.504 OA
ATOM     24  H   UNL     1     -21.411  22.857  33.329  1.00  0.00     0.293 HD
ENDBRANCH  20  23
ENDBRANCH  14  15
ENDBRANCH  12  14
ENDBRANCH   9  10
ENDBRANCH   1   9
TORSDOF 10
ENDMDL
MODEL 6
REMARK VINA RESULT:    -4.995      6.946      9.398
REMARK INTER + INTRA:          -8.593
REMARK INTER:                  -7.608
REMARK INTRA:                  -0.985
REMARK UNBOUND:                -0.823
REMARK SMILES COc1cc(CNC(=O)CCCCC=CC(C)C)ccc1O
REMARK SMILES IDX 11 1 12 2 13 3 14 4 15 5 16 6 17 7 18 8 10 9 8 10 9 11 7 12
REMARK SMILES IDX 6 14 5 15 4 16 19 17 3 18 20 19 21 20 2 21 1 22 22 23
REMARK H PARENT 7 13 22 24
REMARK Flexibility Score: inf
ROOT
ATOM      1  C   UNL     1     -12.101  22.147  33.192  1.00  0.00     0.010 C 
ENDROOT
BRANCH   1   2
ATOM      2  C   UNL     1     -12.531  20.992  32.271  1.00  0.00     0.005 C 
BRANCH   2   3
ATOM      3  C   UNL     1     -11.355  20.087  31.876  1.00  0.00     0.027 C 
BRANCH   3   4
ATOM      4  C   UNL     1     -10.950  19.158  32.993  1.00  0.00    -0.031 C 
ATOM      5  C   UNL     1      -9.757  19.071  33.629  1.00  0.00    -0.028 C 
BRANCH   5   6
ATOM      6  C   UNL     1      -8.443  19.792  33.361  1.00  0.00     0.005 C 
ATOM      7  C   UNL     1      -7.872  19.411  31.992  1.00  0.00     0.012 C 
ATOM      8  C   UNL     1      -8.439  21.307  33.584  1.00  0.00     0.012 C 
ENDBRANCH   5   6
ENDBRANCH   3   4
ENDBRANCH   2   3
ENDBRANCH   1   2
BRANCH   1   9
ATOM      9  C   UNL     1     -11.699  23.406  32.413  1.00  0.00     0.100 C 
BRANCH   9  10
ATOM     10  C   UNL     1     -12.758  24.458  32.539  1.00  0.00     0.220 C 
ATOM     11  O   UNL     1     -12.487  25.545  33.119  1.00  0.00    -0.275 OA
ATOM     12  N   UNL     1     -14.083  24.208  32.049  1.00  0.00    -0.352 N 
ATOM     13  H   UNL     1     -14.299  23.279  31.618  1.00  0.00     0.163 HD
BRANCH  12  14
ATOM     14  C   UNL     1     -15.150  25.201  32.135  1.00  0.00     0.151 C 
BRANCH  14  15
ATOM     15  C   UNL     1     -16.449  24.542  32.509  1.00  0.00    -0.025 A 
ATOM     16  C   UNL     1     -17.665  25.084  32.062  1.00  0.00     0.056 A 
ATOM     17  C   UNL     1     -16.462  23.403  33.327  1.00  0.00     0.009 A 
ATOM     18  C   UNL     1     -18.892  24.490  32.422  1.00  0.00     0.160 A 
ATOM     19  C   UNL     1     -17.673  22.809  33.686  1.00  0.00     0.050 A 
ATOM     20  C   UNL     1     -18.885  23.344  33.239  1.00  0.00     0.157 A 
BRANCH  18  21
ATOM     21  O   UNL     1     -20.124  25.009  31.991  1.00  0.00    -0.493 OA
ATOM     22  C   UNL     1     -20.786  26.118  32.590  1.00  0.00     0.278 C 
ENDBRANCH  18  21
BRANCH  20  23
ATOM     23  O   UNL     1     -20.076  22.723  33.617  1.00  0.00    -0.504 OA
ATOM     24  H   UNL     1     -20.116  21.746  33.880  1.00  0.00     0.293 HD
ENDBRANCH  20  23
ENDBRANCH  14  15
ENDBRANCH  12  14
ENDBRANCH   9  10
ENDBRANCH   1   9
TORSDOF 10
ENDMDL
MODEL 7
REMARK VINA RESULT:    -4.909      6.057      7.954
REMARK INTER + INTRA:          -8.459
REMARK INTER:                  -7.547
REMARK INTRA:                  -0.912
REMARK UNBOUND:                -0.823
REMARK SMILES COc1cc(CNC(=O)CCCCC=CC(C)C)ccc1O
REMARK SMILES IDX 11 1 12 2 13 3 14 4 15 5 16 6 17 7 18 8 10 9 8 10 9 11 7 12
REMARK SMILES IDX 6 14 5 15 4 16 19 17 3 18 20 19 21 20 2 21 1 22 22 23
REMARK H PARENT 7 13 22 24
REMARK Flexibility Score: inf
ROOT
ATOM      1  C   UNL     1     -12.705  22.318  33.483  1.00  0.00     0.010 C 
ENDROOT
BRANCH   1   2
ATOM      2  C   UNL     1     -12.590  21.377  32.273  1.00  0.00     0.005 C 
BRANCH   2   3
ATOM      3  C   UNL     1     -11.173  20.813  32.098  1.00  0.00     0.027 C 
BRANCH   3   4
ATOM      4  C   UNL     1     -11.055  19.398  32.610  1.00  0.00    -0.031 C 
ATOM      5  C   UNL     1     -10.460  18.957  33.744  1.00  0.00    -0.028 C 
BRANCH   5   6
ATOM      6  C   UNL     1      -9.651  19.711  34.791  1.00  0.00     0.005 C 
ATOM      7  C   UNL     1     -10.557  20.273  35.890  1.00  0.00     0.012 C 
ATOM      8  C   UNL     1      -8.434  18.981  35.367  1.00  0.00     0.012 C 
ENDBRANCH   5   6
ENDBRANCH   3   4
ENDBRANCH   2   3
ENDBRANCH   1   2
BRANCH   1   9
ATOM      9  C   UNL     1     -13.724  23.443  33.263  1.00  0.00     0.100 C 
BRANCH   9  10
ATOM     10  C   UNL     1     -15.043  23.079  33.875  1.00  0.00     0.220 C 
ATOM     11  O   UNL     1     -15.198  23.186  35.122  1.00  0.00    -0.275 OA
ATOM     12  N   UNL     1     -16.100  22.564  33.053  1.00  0.00    -0.352 N 
ATOM     13  H   UNL     1     -15.931  22.435  32.030  1.00  0.00     0.163 HD
BRANCH  12  14
ATOM     14  C   UNL     1     -17.408  22.204  33.595  1.00  0.00     0.151 C 
BRANCH  14  15
ATOM     15  C   UNL     1     -18.373  23.347  33.433  1.00  0.00    -0.025 A 
ATOM     16  C   UNL     1     -18.650  24.190  34.521  1.00  0.00     0.056 A 
ATOM     17  C   UNL     1     -19.024  23.563  32.210  1.00  0.00     0.009 A 
ATOM     18  C   UNL     1     -19.568  25.252  34.391  1.00  0.00     0.160 A 
ATOM     19  C   UNL     1     -19.934  24.613  32.074  1.00  0.00     0.050 A 
ATOM     20  C   UNL     1     -20.208  25.458  33.155  1.00  0.00     0.157 A 
BRANCH  18  21
ATOM     21  O   UNL     1     -19.865  26.113  35.460  1.00  0.00    -0.493 OA
ATOM     22  C   UNL     1     -18.904  26.908  36.147  1.00  0.00     0.278 C 
ENDBRANCH  18  21
BRANCH  20  23
ATOM     23  O   UNL     1     -21.122  26.497  32.982  1.00  0.00    -0.504 OA
ATOM     24  H   UNL     1     -22.102  26.329  32.790  1.00  0.00     0.293 HD
ENDBRANCH  20  23
ENDBRANCH  14  15
ENDBRANCH  12  14
ENDBRANCH   9  10
ENDBRANCH   1   9
TORSDOF 10
ENDMDL
MODEL 8
REMARK VINA RESULT:    -4.895      5.697      9.145
REMARK INTER + INTRA:          -8.437
REMARK INTER:                  -7.692
REMARK INTRA:                  -0.745
REMARK UNBOUND:                -0.823
REMARK SMILES COc1cc(CNC(=O)CCCCC=CC(C)C)ccc1O
REMARK SMILES IDX 11 1 12 2 13 3 14 4 15 5 16 6 17 7 18 8 10 9 8 10 9 11 7 12
REMARK SMILES IDX 6 14 5 15 4 16 19 17 3 18 20 19 21 20 2 21 1 22 22 23
REMARK H PARENT 7 13 22 24
REMARK Flexibility Score: inf
ROOT
ATOM      1  C   UNL     1     -18.238  19.685  41.621  1.00  0.00     0.010 C 
ENDROOT
BRANCH   1   2
ATOM      2  C   UNL     1     -17.995  21.193  41.794  1.00  0.00     0.005 C 
BRANCH   2   3
ATOM      3  C   UNL     1     -19.170  22.040  41.285  1.00  0.00     0.027 C 
BRANCH   3   4
ATOM      4  C   UNL     1     -20.505  21.422  41.618  1.00  0.00    -0.031 C 
ATOM      5  C   UNL     1     -21.703  21.624  41.019  1.00  0.00    -0.028 C 
BRANCH   5   6
ATOM      6  C   UNL     1     -22.101  22.591  39.911  1.00  0.00     0.005 C 
ATOM      7  C   UNL     1     -21.971  24.045  40.373  1.00  0.00     0.012 C 
ATOM      8  C   UNL     1     -21.452  22.363  38.542  1.00  0.00     0.012 C 
ENDBRANCH   5   6
ENDBRANCH   3   4
ENDBRANCH   2   3
ENDBRANCH   1   2
BRANCH   1   9
ATOM      9  C   UNL     1     -17.417  18.837  42.601  1.00  0.00     0.100 C 
BRANCH   9  10
ATOM     10  C   UNL     1     -16.907  17.603  41.922  1.00  0.00     0.220 C 
ATOM     11  O   UNL     1     -16.634  16.582  42.612  1.00  0.00    -0.275 OA
ATOM     12  N   UNL     1     -16.682  17.601  40.505  1.00  0.00    -0.352 N 
ATOM     13  H   UNL     1     -16.866  18.475  39.961  1.00  0.00     0.163 HD
BRANCH  12  14
ATOM     14  C   UNL     1     -16.197  16.423  39.790  1.00  0.00     0.151 C 
BRANCH  14  15
ATOM     15  C   UNL     1     -14.694  16.375  39.822  1.00  0.00    -0.025 A 
ATOM     16  C   UNL     1     -13.948  17.513  39.475  1.00  0.00     0.056 A 
ATOM     17  C   UNL     1     -14.026  15.192  40.169  1.00  0.00     0.009 A 
ATOM     18  C   UNL     1     -12.539  17.476  39.480  1.00  0.00     0.160 A 
ATOM     19  C   UNL     1     -12.631  15.149  40.177  1.00  0.00     0.050 A 
ATOM     20  C   UNL     1     -11.885  16.281  39.836  1.00  0.00     0.157 A 
BRANCH  18  21
ATOM     21  O   UNL     1     -11.765  18.597  39.138  1.00  0.00    -0.493 OA
ATOM     22  C   UNL     1     -11.894  19.881  39.741  1.00  0.00     0.278 C 
ENDBRANCH  18  21
BRANCH  20  23
ATOM     23  O   UNL     1     -10.492  16.202  39.855  1.00  0.00    -0.504 OA
ATOM     24  H   UNL     1      -9.913  16.961  40.192  1.00  0.00     0.293 HD
ENDBRANCH  20  23
ENDBRANCH  14  15
ENDBRANCH  12  14
ENDBRANCH   9  10
ENDBRANCH   1   9
TORSDOF 10
ENDMDL
MODEL 9
REMARK VINA RESULT:    -4.885      1.932      2.977
REMARK INTER + INTRA:          -8.422
REMARK INTER:                  -7.428
REMARK INTRA:                  -0.994
REMARK UNBOUND:                -0.823
REMARK SMILES COc1cc(CNC(=O)CCCCC=CC(C)C)ccc1O
REMARK SMILES IDX 11 1 12 2 13 3 14 4 15 5 16 6 17 7 18 8 10 9 8 10 9 11 7 12
REMARK SMILES IDX 6 14 5 15 4 16 19 17 3 18 20 19 21 20 2 21 1 22 22 23
REMARK H PARENT 7 13 22 24
REMARK Flexibility Score: inf
ROOT
ATOM      1  C   UNL     1     -21.169  22.679  38.667  1.00  0.00     0.010 C 
ENDROOT
BRANCH   1   2
ATOM      2  C   UNL     1     -20.699  22.349  40.093  1.00  0.00     0.005 C 
BRANCH   2   3
ATOM      3  C   UNL     1     -21.810  22.531  41.137  1.00  0.00     0.027 C 
BRANCH   3   4
ATOM      4  C   UNL     1     -22.621  23.781  40.893  1.00  0.00    -0.031 C 
ATOM      5  C   UNL     1     -22.381  25.041  41.328  1.00  0.00    -0.028 C 
BRANCH   5   6
ATOM      6  C   UNL     1     -21.303  25.573  42.262  1.00  0.00     0.005 C 
ATOM      7  C   UNL     1     -19.959  25.701  41.539  1.00  0.00     0.012 C 
ATOM      8  C   UNL     1     -21.650  26.838  43.054  1.00  0.00     0.012 C 
ENDBRANCH   5   6
ENDBRANCH   3   4
ENDBRANCH   2   3
ENDBRANCH   1   2
BRANCH   1   9
ATOM      9  C   UNL     1     -22.112  21.614  38.094  1.00  0.00     0.100 C 
BRANCH   9  10
ATOM     10  C   UNL     1     -21.961  21.532  36.605  1.00  0.00     0.220 C 
ATOM     11  O   UNL     1     -22.860  20.972  35.920  1.00  0.00    -0.275 OA
ATOM     12  N   UNL     1     -20.778  22.041  35.972  1.00  0.00    -0.352 N 
ATOM     13  H   UNL     1     -20.023  22.454  36.565  1.00  0.00     0.163 HD
BRANCH  12  14
ATOM     14  C   UNL     1     -20.584  21.997  34.525  1.00  0.00     0.151 C 
BRANCH  14  15
ATOM     15  C   UNL     1     -19.918  23.259  34.049  1.00  0.00    -0.025 A 
ATOM     16  C   UNL     1     -20.422  24.509  34.442  1.00  0.00     0.056 A 
ATOM     17  C   UNL     1     -18.812  23.200  33.189  1.00  0.00     0.009 A 
ATOM     18  C   UNL     1     -19.821  25.700  33.986  1.00  0.00     0.160 A 
ATOM     19  C   UNL     1     -18.212  24.376  32.734  1.00  0.00     0.050 A 
ATOM     20  C   UNL     1     -18.709  25.623  33.128  1.00  0.00     0.157 A 
BRANCH  18  21
ATOM     21  O   UNL     1     -20.302  26.965  34.362  1.00  0.00    -0.493 OA
ATOM     22  C   UNL     1     -20.075  27.570  35.632  1.00  0.00     0.278 C 
ENDBRANCH  18  21
BRANCH  20  23
ATOM     23  O   UNL     1     -18.084  26.777  32.655  1.00  0.00    -0.504 OA
ATOM     24  H   UNL     1     -17.271  27.175  33.109  1.00  0.00     0.293 HD
ENDBRANCH  20  23
ENDBRANCH  14  15
ENDBRANCH  12  14
ENDBRANCH   9  10
ENDBRANCH   1   9
TORSDOF 10
ENDMDL
