MODEL 1
REMARK VINA RESULT:    -4.353      0.000      0.000
REMARK INTER + INTRA:         -11.572
REMARK INTER:                  -9.443
REMARK INTRA:                  -2.129
REMARK UNBOUND:                -2.129
REMARK SMILES CCCCCCCCCCCCCCCCCCCCCC(=O)[O-]
REMARK SMILES IDX 12 1 11 2 10 3 9 4 8 5 7 6 6 7 5 8 4 9 3 10 2 11 1 12 13 13
REMARK SMILES IDX 14 14 15 15 16 16 17 17 18 18 19 19 20 20 21 21 22 22 23 23
REMARK SMILES IDX 24 24
REMARK H PARENT
REMARK Flexibility Score: inf
ROOT
ATOM      1  C   UNL     1      31.293   5.020  39.974  1.00  0.00     0.000 C 
ENDROOT
BRANCH   1   2
ATOM      2  C   UNL     1      32.587   5.833  40.197  1.00  0.00     0.000 C 
BRANCH   2   3
ATOM      3  C   UNL     1      33.184   5.690  41.610  1.00  0.00     0.000 C 
BRANCH   3   4
ATOM      4  C   UNL     1      33.027   6.925  42.518  1.00  0.00    -0.000 C 
BRANCH   4   5
ATOM      5  C   UNL     1      32.203   6.693  43.799  1.00  0.00    -0.000 C 
BRANCH   5   6
ATOM      6  C   UNL     1      31.891   5.217  44.114  1.00  0.00    -0.000 C 
BRANCH   6   7
ATOM      7  C   UNL     1      31.434   4.973  45.569  1.00  0.00    -0.000 C 
BRANCH   7   8
ATOM      8  C   UNL     1      30.734   6.200  46.179  1.00  0.00    -0.000 C 
BRANCH   8   9
ATOM      9  C   UNL     1      31.289   6.566  47.565  1.00  0.00    -0.000 C 
BRANCH   9  10
ATOM     10  C   UNL     1      30.768   5.638  48.675  1.00  0.00    -0.000 C 
BRANCH  10  11
ATOM     11  C   UNL     1      31.901   5.015  49.505  1.00  0.00    -0.003 C 
ATOM     12  C   UNL     1      31.860   3.487  49.507  1.00  0.00     0.004 C 
ENDBRANCH  10  11
ENDBRANCH   9  10
ENDBRANCH   8   9
ENDBRANCH   7   8
ENDBRANCH   6   7
ENDBRANCH   5   6
ENDBRANCH   4   5
ENDBRANCH   3   4
ENDBRANCH   2   3
ENDBRANCH   1   2
BRANCH   1  13
ATOM     13  C   UNL     1      30.041   5.743  40.504  1.00  0.00     0.000 C 
BRANCH  13  14
ATOM     14  C   UNL     1      29.373   4.995  41.669  1.00  0.00     0.000 C 
BRANCH  14  15
ATOM     15  C   UNL     1      28.658   5.943  42.649  1.00  0.00     0.000 C 
BRANCH  15  16
ATOM     16  C   UNL     1      27.366   5.330  43.217  1.00  0.00     0.000 C 
BRANCH  16  17
ATOM     17  C   UNL     1      27.038   3.963  42.590  1.00  0.00     0.000 C 
BRANCH  17  18
ATOM     18  C   UNL     1      25.886   4.042  41.575  1.00  0.00     0.000 C 
BRANCH  18  19
ATOM     19  C   UNL     1      26.314   3.606  40.165  1.00  0.00     0.000 C 
BRANCH  19  20
ATOM     20  C   UNL     1      25.091   3.287  39.292  1.00  0.00     0.006 C 
BRANCH  20  21
ATOM     21  C   UNL     1      23.962   2.626  40.095  1.00  0.00     0.053 C 
BRANCH  21  22
ATOM     22  C   UNL     1      23.334   1.495  39.341  1.00  0.00     0.041 C 
ATOM     23  O   UNL     1      22.253   1.671  38.719  1.00  0.00    -0.550 OA
ATOM     24  O   UNL     1      23.923   0.237  39.354  1.00  0.00    -0.550 OA
ENDBRANCH  21  22
ENDBRANCH  20  21
ENDBRANCH  19  20
ENDBRANCH  18  19
ENDBRANCH  17  18
ENDBRANCH  16  17
ENDBRANCH  15  16
ENDBRANCH  14  15
ENDBRANCH  13  14
ENDBRANCH   1  13
TORSDOF 20
ENDMDL
MODEL 2
REMARK VINA RESULT:    -4.285      1.225      2.474
REMARK INTER + INTRA:         -11.425
REMARK INTER:                  -9.070
REMARK INTRA:                  -2.354
REMARK UNBOUND:                -2.129
REMARK SMILES CCCCCCCCCCCCCCCCCCCCCC(=O)[O-]
REMARK SMILES IDX 12 1 11 2 10 3 9 4 8 5 7 6 6 7 5 8 4 9 3 10 2 11 1 12 13 13
REMARK SMILES IDX 14 14 15 15 16 16 17 17 18 18 19 19 20 20 21 21 22 22 23 23
REMARK SMILES IDX 24 24
REMARK H PARENT
REMARK Flexibility Score: inf
ROOT
ATOM      1  C   UNL     1      33.239   5.085  41.507  1.00  0.00     0.000 C 
ENDROOT
BRANCH   1   2
ATOM      2  C   UNL     1      33.372   6.252  42.509  1.00  0.00     0.000 C 
BRANCH   2   3
ATOM      3  C   UNL     1      32.085   7.079  42.685  1.00  0.00     0.000 C 
BRANCH   3   4
ATOM      4  C   UNL     1      31.266   6.762  43.951  1.00  0.00    -0.000 C 
BRANCH   4   5
ATOM      5  C   UNL     1      31.169   5.266  44.307  1.00  0.00    -0.000 C 
BRANCH   5   6
ATOM      6  C   UNL     1      31.401   4.934  45.794  1.00  0.00    -0.000 C 
BRANCH   6   7
ATOM      7  C   UNL     1      30.543   5.776  46.762  1.00  0.00    -0.000 C 
BRANCH   7   8
ATOM      8  C   UNL     1      31.397   6.605  47.738  1.00  0.00    -0.000 C 
BRANCH   8   9
ATOM      9  C   UNL     1      31.916   5.773  48.920  1.00  0.00    -0.000 C 
BRANCH   9  10
ATOM     10  C   UNL     1      30.805   4.957  49.602  1.00  0.00    -0.000 C 
BRANCH  10  11
ATOM     11  C   UNL     1      31.264   3.542  49.991  1.00  0.00    -0.003 C 
ATOM     12  C   UNL     1      32.447   3.055  49.153  1.00  0.00     0.004 C 
ENDBRANCH  10  11
ENDBRANCH   9  10
ENDBRANCH   8   9
ENDBRANCH   7   8
ENDBRANCH   6   7
ENDBRANCH   5   6
ENDBRANCH   4   5
ENDBRANCH   3   4
ENDBRANCH   2   3
ENDBRANCH   1   2
BRANCH   1  13
ATOM     13  C   UNL     1      32.780   5.551  40.113  1.00  0.00     0.000 C 
BRANCH  13  14
ATOM     14  C   UNL     1      31.401   4.993  39.725  1.00  0.00     0.000 C 
BRANCH  14  15
ATOM     15  C   UNL     1      30.392   6.100  39.371  1.00  0.00     0.000 C 
BRANCH  15  16
ATOM     16  C   UNL     1      29.295   6.253  40.438  1.00  0.00     0.000 C 
BRANCH  16  17
ATOM     17  C   UNL     1      29.217   5.040  41.381  1.00  0.00     0.000 C 
BRANCH  17  18
ATOM     18  C   UNL     1      27.955   5.055  42.258  1.00  0.00     0.000 C 
BRANCH  18  19
ATOM     19  C   UNL     1      26.799   5.834  41.611  1.00  0.00     0.000 C 
BRANCH  19  20
ATOM     20  C   UNL     1      25.454   5.140  41.870  1.00  0.00     0.006 C 
BRANCH  20  21
ATOM     21  C   UNL     1      25.553   3.615  41.733  1.00  0.00     0.053 C 
BRANCH  21  22
ATOM     22  C   UNL     1      24.836   3.120  40.515  1.00  0.00     0.041 C 
ATOM     23  O   UNL     1      24.028   2.158  40.600  1.00  0.00    -0.550 OA
ATOM     24  O   UNL     1      25.089   3.697  39.276  1.00  0.00    -0.550 OA
ENDBRANCH  21  22
ENDBRANCH  20  21
ENDBRANCH  19  20
ENDBRANCH  18  19
ENDBRANCH  17  18
ENDBRANCH  16  17
ENDBRANCH  15  16
ENDBRANCH  14  15
ENDBRANCH  13  14
ENDBRANCH   1  13
TORSDOF 20
ENDMDL
MODEL 3
REMARK VINA RESULT:    -4.238      2.318      4.424
REMARK INTER + INTRA:         -11.321
REMARK INTER:                  -8.469
REMARK INTRA:                  -2.853
REMARK UNBOUND:                -2.129
REMARK SMILES CCCCCCCCCCCCCCCCCCCCCC(=O)[O-]
REMARK SMILES IDX 12 1 11 2 10 3 9 4 8 5 7 6 6 7 5 8 4 9 3 10 2 11 1 12 13 13
REMARK SMILES IDX 14 14 15 15 16 16 17 17 18 18 19 19 20 20 21 21 22 22 23 23
REMARK SMILES IDX 24 24
REMARK H PARENT
REMARK Flexibility Score: inf
ROOT
ATOM      1  C   UNL     1      33.774   7.711  44.272  1.00  0.00     0.000 C 
ENDROOT
BRANCH   1   2
ATOM      2  C   UNL     1      33.955   7.755  45.805  1.00  0.00     0.000 C 
BRANCH   2   3
ATOM      3  C   UNL     1      33.301   8.975  46.480  1.00  0.00     0.000 C 
BRANCH   3   4
ATOM      4  C   UNL     1      32.242   9.706  45.632  1.00  0.00    -0.000 C 
BRANCH   4   5
ATOM      5  C   UNL     1      30.789   9.543  46.121  1.00  0.00    -0.000 C 
BRANCH   5   6
ATOM      6  C   UNL     1      30.157   8.167  45.836  1.00  0.00    -0.000 C 
BRANCH   6   7
ATOM      7  C   UNL     1      30.137   7.226  47.060  1.00  0.00    -0.000 C 
BRANCH   7   8
ATOM      8  C   UNL     1      30.461   5.768  46.688  1.00  0.00    -0.000 C 
BRANCH   8   9
ATOM      9  C   UNL     1      31.639   5.201  47.496  1.00  0.00    -0.000 C 
BRANCH   9  10
ATOM     10  C   UNL     1      31.598   5.621  48.975  1.00  0.00    -0.000 C 
BRANCH  10  11
ATOM     11  C   UNL     1      31.957   4.468  49.926  1.00  0.00    -0.003 C 
ATOM     12  C   UNL     1      32.246   3.161  49.186  1.00  0.00     0.004 C 
ENDBRANCH  10  11
ENDBRANCH   9  10
ENDBRANCH   8   9
ENDBRANCH   7   8
ENDBRANCH   6   7
ENDBRANCH   5   6
ENDBRANCH   4   5
ENDBRANCH   3   4
ENDBRANCH   2   3
ENDBRANCH   1   2
BRANCH   1  13
ATOM     13  C   UNL     1      32.850   6.566  43.817  1.00  0.00     0.000 C 
BRANCH  13  14
ATOM     14  C   UNL     1      33.235   6.005  42.439  1.00  0.00     0.000 C 
BRANCH  14  15
ATOM     15  C   UNL     1      32.157   5.074  41.855  1.00  0.00     0.000 C 
BRANCH  15  16
ATOM     16  C   UNL     1      31.625   5.574  40.501  1.00  0.00     0.000 C 
BRANCH  16  17
ATOM     17  C   UNL     1      31.186   7.048  40.549  1.00  0.00     0.000 C 
BRANCH  17  18
ATOM     18  C   UNL     1      29.678   7.206  40.803  1.00  0.00     0.000 C 
BRANCH  18  19
ATOM     19  C   UNL     1      29.342   7.305  42.299  1.00  0.00     0.000 C 
BRANCH  19  20
ATOM     20  C   UNL     1      28.457   6.131  42.744  1.00  0.00     0.006 C 
BRANCH  20  21
ATOM     21  C   UNL     1      27.303   5.871  41.765  1.00  0.00     0.053 C 
BRANCH  21  22
ATOM     22  C   UNL     1      26.902   4.428  41.750  1.00  0.00     0.041 C 
ATOM     23  O   UNL     1      26.763   3.798  42.831  1.00  0.00    -0.550 OA
ATOM     24  O   UNL     1      26.718   3.769  40.541  1.00  0.00    -0.550 OA
ENDBRANCH  21  22
ENDBRANCH  20  21
ENDBRANCH  19  20
ENDBRANCH  18  19
ENDBRANCH  17  18
ENDBRANCH  16  17
ENDBRANCH  15  16
ENDBRANCH  14  15
ENDBRANCH  13  14
ENDBRANCH   1  13
TORSDOF 20
ENDMDL
MODEL 4
REMARK VINA RESULT:    -4.147      1.597      2.985
REMARK INTER + INTRA:         -11.124
REMARK INTER:                  -9.153
REMARK INTRA:                  -1.971
REMARK UNBOUND:                -2.129
REMARK SMILES CCCCCCCCCCCCCCCCCCCCCC(=O)[O-]
REMARK SMILES IDX 12 1 11 2 10 3 9 4 8 5 7 6 6 7 5 8 4 9 3 10 2 11 1 12 13 13
REMARK SMILES IDX 14 14 15 15 16 16 17 17 18 18 19 19 20 20 21 21 22 22 23 23
REMARK SMILES IDX 24 24
REMARK H PARENT
REMARK Flexibility Score: inf
ROOT
ATOM      1  C   UNL     1      33.059   6.141  42.636  1.00  0.00     0.000 C 
ENDROOT
BRANCH   1   2
ATOM      2  C   UNL     1      32.935   7.611  42.180  1.00  0.00     0.000 C 
BRANCH   2   3
ATOM      3  C   UNL     1      33.073   8.637  43.321  1.00  0.00     0.000 C 
BRANCH   3   4
ATOM      4  C   UNL     1      34.361   8.519  44.159  1.00  0.00    -0.000 C 
BRANCH   4   5
ATOM      5  C   UNL     1      34.156   8.029  45.605  1.00  0.00    -0.000 C 
BRANCH   5   6
ATOM      6  C   UNL     1      32.742   8.255  46.175  1.00  0.00    -0.000 C 
BRANCH   6   7
ATOM      7  C   UNL     1      31.872   6.980  46.208  1.00  0.00    -0.000 C 
BRANCH   7   8
ATOM      8  C   UNL     1      30.514   7.211  46.895  1.00  0.00    -0.000 C 
BRANCH   8   9
ATOM      9  C   UNL     1      30.215   6.161  47.976  1.00  0.00    -0.000 C 
BRANCH   9  10
ATOM     10  C   UNL     1      31.372   5.166  48.171  1.00  0.00    -0.000 C 
BRANCH  10  11
ATOM     11  C   UNL     1      31.791   5.030  49.643  1.00  0.00    -0.003 C 
ATOM     12  C   UNL     1      31.899   3.573  50.093  1.00  0.00     0.004 C 
ENDBRANCH  10  11
ENDBRANCH   9  10
ENDBRANCH   8   9
ENDBRANCH   7   8
ENDBRANCH   6   7
ENDBRANCH   5   6
ENDBRANCH   4   5
ENDBRANCH   3   4
ENDBRANCH   2   3
ENDBRANCH   1   2
BRANCH   1  13
ATOM     13  C   UNL     1      33.221   5.166  41.455  1.00  0.00     0.000 C 
BRANCH  13  14
ATOM     14  C   UNL     1      32.579   5.689  40.160  1.00  0.00     0.000 C 
BRANCH  14  15
ATOM     15  C   UNL     1      31.268   4.963  39.813  1.00  0.00     0.000 C 
BRANCH  15  16
ATOM     16  C   UNL     1      30.081   5.931  39.677  1.00  0.00     0.000 C 
BRANCH  16  17
ATOM     17  C   UNL     1      29.463   6.300  41.037  1.00  0.00     0.000 C 
BRANCH  17  18
ATOM     18  C   UNL     1      29.425   5.110  42.010  1.00  0.00     0.000 C 
BRANCH  18  19
ATOM     19  C   UNL     1      28.277   4.136  41.703  1.00  0.00     0.000 C 
BRANCH  19  20
ATOM     20  C   UNL     1      26.975   4.896  41.405  1.00  0.00     0.006 C 
BRANCH  20  21
ATOM     21  C   UNL     1      25.732   4.102  41.827  1.00  0.00     0.053 C 
BRANCH  21  22
ATOM     22  C   UNL     1      25.198   3.269  40.702  1.00  0.00     0.041 C 
ATOM     23  O   UNL     1      25.695   3.365  39.550  1.00  0.00    -0.550 OA
ATOM     24  O   UNL     1      24.125   2.412  40.919  1.00  0.00    -0.550 OA
ENDBRANCH  21  22
ENDBRANCH  20  21
ENDBRANCH  19  20
ENDBRANCH  18  19
ENDBRANCH  17  18
ENDBRANCH  16  17
ENDBRANCH  15  16
ENDBRANCH  14  15
ENDBRANCH  13  14
ENDBRANCH   1  13
TORSDOF 20
ENDMDL
MODEL 5
REMARK VINA RESULT:    -4.135      2.030      2.628
REMARK INTER + INTRA:         -11.099
REMARK INTER:                  -7.734
REMARK INTRA:                  -3.365
REMARK UNBOUND:                -2.129
REMARK SMILES CCCCCCCCCCCCCCCCCCCCCC(=O)[O-]
REMARK SMILES IDX 12 1 11 2 10 3 9 4 8 5 7 6 6 7 5 8 4 9 3 10 2 11 1 12 13 13
REMARK SMILES IDX 14 14 15 15 16 16 17 17 18 18 19 19 20 20 21 21 22 22 23 23
REMARK SMILES IDX 24 24
REMARK H PARENT
REMARK Flexibility Score: inf
ROOT
ATOM      1  C   UNL     1      30.331   5.860  39.063  1.00  0.00     0.000 C 
ENDROOT
BRANCH   1   2
ATOM      2  C   UNL     1      31.796   6.156  39.453  1.00  0.00     0.000 C 
BRANCH   2   3
ATOM      3  C   UNL     1      32.453   5.058  40.309  1.00  0.00     0.000 C 
BRANCH   3   4
ATOM      4  C   UNL     1      32.715   5.438  41.779  1.00  0.00    -0.000 C 
BRANCH   4   5
ATOM      5  C   UNL     1      31.594   5.049  42.763  1.00  0.00    -0.000 C 
BRANCH   5   6
ATOM      6  C   UNL     1      31.111   6.186  43.683  1.00  0.00    -0.000 C 
BRANCH   6   7
ATOM      7  C   UNL     1      30.253   7.249  42.963  1.00  0.00    -0.000 C 
BRANCH   7   8
ATOM      8  C   UNL     1      28.838   7.364  43.555  1.00  0.00    -0.000 C 
BRANCH   8   9
ATOM      9  C   UNL     1      28.685   6.587  44.873  1.00  0.00    -0.000 C 
BRANCH   9  10
ATOM     10  C   UNL     1      28.549   7.513  46.093  1.00  0.00    -0.000 C 
BRANCH  10  11
ATOM     11  C   UNL     1      29.908   7.894  46.700  1.00  0.00    -0.003 C 
ATOM     12  C   UNL     1      30.349   9.308  46.319  1.00  0.00     0.004 C 
ENDBRANCH  10  11
ENDBRANCH   9  10
ENDBRANCH   8   9
ENDBRANCH   7   8
ENDBRANCH   6   7
ENDBRANCH   5   6
ENDBRANCH   4   5
ENDBRANCH   3   4
ENDBRANCH   2   3
ENDBRANCH   1   2
BRANCH   1  13
ATOM     13  C   UNL     1      30.019   4.352  39.036  1.00  0.00     0.000 C 
BRANCH  13  14
ATOM     14  C   UNL     1      28.656   4.017  39.660  1.00  0.00     0.000 C 
BRANCH  14  15
ATOM     15  C   UNL     1      28.362   4.846  40.923  1.00  0.00     0.000 C 
BRANCH  15  16
ATOM     16  C   UNL     1      28.082   3.963  42.150  1.00  0.00     0.000 C 
BRANCH  16  17
ATOM     17  C   UNL     1      26.653   4.146  42.693  1.00  0.00     0.000 C 
BRANCH  17  18
ATOM     18  C   UNL     1      25.876   5.244  41.950  1.00  0.00     0.000 C 
BRANCH  18  19
ATOM     19  C   UNL     1      24.627   4.701  41.238  1.00  0.00     0.000 C 
BRANCH  19  20
ATOM     20  C   UNL     1      24.682   3.171  41.119  1.00  0.00     0.006 C 
BRANCH  20  21
ATOM     21  C   UNL     1      24.899   2.709  39.672  1.00  0.00     0.053 C 
BRANCH  21  22
ATOM     22  C   UNL     1      23.898   1.671  39.265  1.00  0.00     0.041 C 
ATOM     23  O   UNL     1      22.827   2.011  38.698  1.00  0.00    -0.550 OA
ATOM     24  O   UNL     1      24.133   0.330  39.545  1.00  0.00    -0.550 OA
ENDBRANCH  21  22
ENDBRANCH  20  21
ENDBRANCH  19  20
ENDBRANCH  18  19
ENDBRANCH  17  18
ENDBRANCH  16  17
ENDBRANCH  15  16
ENDBRANCH  14  15
ENDBRANCH  13  14
ENDBRANCH   1  13
TORSDOF 20
ENDMDL
MODEL 6
REMARK VINA RESULT:    -4.131      7.039     11.247
REMARK INTER + INTRA:         -11.090
REMARK INTER:                  -8.922
REMARK INTRA:                  -2.167
REMARK UNBOUND:                -2.129
REMARK SMILES CCCCCCCCCCCCCCCCCCCCCC(=O)[O-]
REMARK SMILES IDX 12 1 11 2 10 3 9 4 8 5 7 6 6 7 5 8 4 9 3 10 2 11 1 12 13 13
REMARK SMILES IDX 14 14 15 15 16 16 17 17 18 18 19 19 20 20 21 21 22 22 23 23
REMARK SMILES IDX 24 24
REMARK H PARENT
REMARK Flexibility Score: inf
ROOT
ATOM      1  C   UNL     1      19.202   1.240  43.909  1.00  0.00     0.000 C 
ENDROOT
BRANCH   1   2
ATOM      2  C   UNL     1      19.252   2.627  43.233  1.00  0.00     0.000 C 
BRANCH   2   3
ATOM      3  C   UNL     1      20.628   2.989  42.644  1.00  0.00     0.000 C 
BRANCH   3   4
ATOM      4  C   UNL     1      21.718   1.912  42.807  1.00  0.00    -0.000 C 
BRANCH   4   5
ATOM      5  C   UNL     1      23.165   2.419  42.647  1.00  0.00    -0.000 C 
BRANCH   5   6
ATOM      6  C   UNL     1      23.327   3.648  41.732  1.00  0.00    -0.000 C 
BRANCH   6   7
ATOM      7  C   UNL     1      24.681   3.700  40.992  1.00  0.00    -0.000 C 
BRANCH   7   8
ATOM      8  C   UNL     1      24.784   2.644  39.877  1.00  0.00    -0.000 C 
BRANCH   8   9
ATOM      9  C   UNL     1      23.464   2.466  39.111  1.00  0.00    -0.000 C 
BRANCH   9  10
ATOM     10  C   UNL     1      23.059   0.989  38.964  1.00  0.00    -0.000 C 
BRANCH  10  11
ATOM     11  C   UNL     1      23.922   0.052  39.823  1.00  0.00    -0.003 C 
ATOM     12  C   UNL     1      23.734  -1.421  39.461  1.00  0.00     0.004 C 
ENDBRANCH  10  11
ENDBRANCH   9  10
ENDBRANCH   8   9
ENDBRANCH   7   8
ENDBRANCH   6   7
ENDBRANCH   5   6
ENDBRANCH   4   5
ENDBRANCH   3   4
ENDBRANCH   2   3
ENDBRANCH   1   2
BRANCH   1  13
ATOM     13  C   UNL     1      17.871   0.506  43.661  1.00  0.00     0.000 C 
BRANCH  13  14
ATOM     14  C   UNL     1      18.040  -1.019  43.580  1.00  0.00     0.000 C 
BRANCH  14  15
ATOM     15  C   UNL     1      17.600  -1.733  44.871  1.00  0.00     0.000 C 
BRANCH  15  16
ATOM     16  C   UNL     1      18.763  -2.468  45.558  1.00  0.00     0.000 C 
BRANCH  16  17
ATOM     17  C   UNL     1      20.118  -2.179  44.889  1.00  0.00     0.000 C 
BRANCH  17  18
ATOM     18  C   UNL     1      21.213  -3.166  45.326  1.00  0.00     0.000 C 
BRANCH  18  19
ATOM     19  C   UNL     1      22.050  -2.634  46.500  1.00  0.00     0.000 C 
BRANCH  19  20
ATOM     20  C   UNL     1      22.783  -1.342  46.112  1.00  0.00     0.006 C 
BRANCH  20  21
ATOM     21  C   UNL     1      22.862  -0.348  47.279  1.00  0.00     0.053 C 
BRANCH  21  22
ATOM     22  C   UNL     1      21.688   0.582  47.296  1.00  0.00     0.041 C 
ATOM     23  O   UNL     1      20.694   0.334  48.028  1.00  0.00    -0.550 OA
ATOM     24  O   UNL     1      21.676   1.704  46.475  1.00  0.00    -0.550 OA
ENDBRANCH  21  22
ENDBRANCH  20  21
ENDBRANCH  19  20
ENDBRANCH  18  19
ENDBRANCH  17  18
ENDBRANCH  16  17
ENDBRANCH  15  16
ENDBRANCH  14  15
ENDBRANCH  13  14
ENDBRANCH   1  13
TORSDOF 20
ENDMDL
MODEL 7
REMARK VINA RESULT:    -4.116      4.384      8.744
REMARK INTER + INTRA:         -11.058
REMARK INTER:                  -8.138
REMARK INTRA:                  -2.919
REMARK UNBOUND:                -2.129
REMARK SMILES CCCCCCCCCCCCCCCCCCCCCC(=O)[O-]
REMARK SMILES IDX 12 1 11 2 10 3 9 4 8 5 7 6 6 7 5 8 4 9 3 10 2 11 1 12 13 13
REMARK SMILES IDX 14 14 15 15 16 16 17 17 18 18 19 19 20 20 21 21 22 22 23 23
REMARK SMILES IDX 24 24
REMARK H PARENT
REMARK Flexibility Score: inf
ROOT
ATOM      1  C   UNL     1      29.816   6.520  42.109  1.00  0.00     0.000 C 
ENDROOT
BRANCH   1   2
ATOM      2  C   UNL     1      28.585   7.043  41.339  1.00  0.00     0.000 C 
BRANCH   2   3
ATOM      3  C   UNL     1      27.795   8.135  42.085  1.00  0.00     0.000 C 
BRANCH   3   4
ATOM      4  C   UNL     1      26.305   8.244  41.706  1.00  0.00    -0.000 C 
BRANCH   4   5
ATOM      5  C   UNL     1      25.375   7.247  42.425  1.00  0.00    -0.000 C 
BRANCH   5   6
ATOM      6  C   UNL     1      25.134   5.924  41.674  1.00  0.00    -0.000 C 
BRANCH   6   7
ATOM      7  C   UNL     1      24.152   4.971  42.390  1.00  0.00    -0.000 C 
BRANCH   7   8
ATOM      8  C   UNL     1      24.110   3.574  41.744  1.00  0.00    -0.000 C 
BRANCH   8   9
ATOM      9  C   UNL     1      25.282   3.336  40.779  1.00  0.00    -0.000 C 
BRANCH   9  10
ATOM     10  C   UNL     1      24.815   2.980  39.358  1.00  0.00    -0.000 C 
BRANCH  10  11
ATOM     11  C   UNL     1      23.566   2.085  39.353  1.00  0.00    -0.003 C 
ATOM     12  C   UNL     1      23.889   0.620  39.643  1.00  0.00     0.004 C 
ENDBRANCH  10  11
ENDBRANCH   9  10
ENDBRANCH   8   9
ENDBRANCH   7   8
ENDBRANCH   6   7
ENDBRANCH   5   6
ENDBRANCH   4   5
ENDBRANCH   3   4
ENDBRANCH   2   3
ENDBRANCH   1   2
BRANCH   1  13
ATOM     13  C   UNL     1      29.801   4.989  42.281  1.00  0.00     0.000 C 
BRANCH  13  14
ATOM     14  C   UNL     1      28.386   4.431  42.502  1.00  0.00     0.000 C 
BRANCH  14  15
ATOM     15  C   UNL     1      28.129   4.030  43.966  1.00  0.00     0.000 C 
BRANCH  15  16
ATOM     16  C   UNL     1      27.230   5.039  44.700  1.00  0.00     0.000 C 
BRANCH  16  17
ATOM     17  C   UNL     1      28.026   6.216  45.289  1.00  0.00     0.000 C 
BRANCH  17  18
ATOM     18  C   UNL     1      29.312   5.762  46.000  1.00  0.00     0.000 C 
BRANCH  18  19
ATOM     19  C   UNL     1      30.154   6.944  46.503  1.00  0.00     0.000 C 
BRANCH  19  20
ATOM     20  C   UNL     1      31.428   6.452  47.207  1.00  0.00     0.006 C 
BRANCH  20  21
ATOM     21  C   UNL     1      31.480   4.922  47.307  1.00  0.00     0.053 C 
BRANCH  21  22
ATOM     22  C   UNL     1      31.737   4.466  48.711  1.00  0.00     0.041 C 
ATOM     23  O   UNL     1      32.284   3.353  48.927  1.00  0.00    -0.550 OA
ATOM     24  O   UNL     1      31.338   5.256  49.783  1.00  0.00    -0.550 OA
ENDBRANCH  21  22
ENDBRANCH  20  21
ENDBRANCH  19  20
ENDBRANCH  18  19
ENDBRANCH  17  18
ENDBRANCH  16  17
ENDBRANCH  15  16
ENDBRANCH  14  15
ENDBRANCH  13  14
ENDBRANCH   1  13
TORSDOF 20
ENDMDL
MODEL 8
REMARK VINA RESULT:    -4.095      5.328      8.625
REMARK INTER + INTRA:         -11.013
REMARK INTER:                  -8.654
REMARK INTRA:                  -2.358
REMARK UNBOUND:                -2.129
REMARK SMILES CCCCCCCCCCCCCCCCCCCCCC(=O)[O-]
REMARK SMILES IDX 12 1 11 2 10 3 9 4 8 5 7 6 6 7 5 8 4 9 3 10 2 11 1 12 13 13
REMARK SMILES IDX 14 14 15 15 16 16 17 17 18 18 19 19 20 20 21 21 22 22 23 23
REMARK SMILES IDX 24 24
REMARK H PARENT
REMARK Flexibility Score: inf
ROOT
ATOM      1  C   UNL     1      33.142   9.106  41.859  1.00  0.00     0.000 C 
ENDROOT
BRANCH   1   2
ATOM      2  C   UNL     1      34.372   8.911  40.946  1.00  0.00     0.000 C 
BRANCH   2   3
ATOM      3  C   UNL     1      34.024   8.480  39.508  1.00  0.00     0.000 C 
BRANCH   3   4
ATOM      4  C   UNL     1      35.208   8.461  38.523  1.00  0.00    -0.000 C 
BRANCH   4   5
ATOM      5  C   UNL     1      35.721   7.056  38.147  1.00  0.00    -0.000 C 
BRANCH   5   6
ATOM      6  C   UNL     1      36.294   6.237  39.319  1.00  0.00    -0.000 C 
BRANCH   6   7
ATOM      7  C   UNL     1      36.105   4.713  39.165  1.00  0.00    -0.000 C 
BRANCH   7   8
ATOM      8  C   UNL     1      34.905   4.183  39.971  1.00  0.00    -0.000 C 
BRANCH   8   9
ATOM      9  C   UNL     1      34.472   5.148  41.086  1.00  0.00    -0.000 C 
BRANCH   9  10
ATOM     10  C   UNL     1      32.956   5.409  41.087  1.00  0.00    -0.000 C 
BRANCH  10  11
ATOM     11  C   UNL     1      32.292   5.028  42.420  1.00  0.00    -0.003 C 
ATOM     12  C   UNL     1      30.801   5.361  42.451  1.00  0.00     0.004 C 
ENDBRANCH  10  11
ENDBRANCH   9  10
ENDBRANCH   8   9
ENDBRANCH   7   8
ENDBRANCH   6   7
ENDBRANCH   5   6
ENDBRANCH   4   5
ENDBRANCH   3   4
ENDBRANCH   2   3
ENDBRANCH   1   2
BRANCH   1  13
ATOM     13  C   UNL     1      33.438  10.018  43.064  1.00  0.00     0.000 C 
BRANCH  13  14
ATOM     14  C   UNL     1      32.698   9.578  44.337  1.00  0.00     0.000 C 
BRANCH  14  15
ATOM     15  C   UNL     1      33.607   9.575  45.579  1.00  0.00     0.000 C 
BRANCH  15  16
ATOM     16  C   UNL     1      33.559   8.236  46.335  1.00  0.00     0.000 C 
BRANCH  16  17
ATOM     17  C   UNL     1      33.321   7.039  45.397  1.00  0.00     0.000 C 
BRANCH  17  18
ATOM     18  C   UNL     1      32.254   6.072  45.935  1.00  0.00     0.000 C 
BRANCH  18  19
ATOM     19  C   UNL     1      31.647   6.546  47.264  1.00  0.00     0.000 C 
BRANCH  19  20
ATOM     20  C   UNL     1      30.971   5.383  48.006  1.00  0.00     0.006 C 
BRANCH  20  21
ATOM     21  C   UNL     1      31.408   5.302  49.475  1.00  0.00     0.053 C 
BRANCH  21  22
ATOM     22  C   UNL     1      32.218   4.071  49.746  1.00  0.00     0.041 C 
ATOM     23  O   UNL     1      32.304   3.165  48.877  1.00  0.00    -0.550 OA
ATOM     24  O   UNL     1      32.849   3.909  50.974  1.00  0.00    -0.550 OA
ENDBRANCH  21  22
ENDBRANCH  20  21
ENDBRANCH  19  20
ENDBRANCH  18  19
ENDBRANCH  17  18
ENDBRANCH  16  17
ENDBRANCH  15  16
ENDBRANCH  14  15
ENDBRANCH  13  14
ENDBRANCH   1  13
TORSDOF 20
ENDMDL
MODEL 9
REMARK VINA RESULT:    -4.053     13.281     16.678
REMARK INTER + INTRA:         -10.922
REMARK INTER:                  -7.518
REMARK INTRA:                  -3.403
REMARK UNBOUND:                -2.129
REMARK SMILES CCCCCCCCCCCCCCCCCCCCCC(=O)[O-]
REMARK SMILES IDX 12 1 11 2 10 3 9 4 8 5 7 6 6 7 5 8 4 9 3 10 2 11 1 12 13 13
REMARK SMILES IDX 14 14 15 15 16 16 17 17 18 18 19 19 20 20 21 21 22 22 23 23
REMARK SMILES IDX 24 24
REMARK H PARENT
REMARK Flexibility Score: inf
ROOT
ATOM      1  C   UNL     1      21.747  -0.643  55.460  1.00  0.00     0.000 C 
ENDROOT
BRANCH   1   2
ATOM      2  C   UNL     1      22.025  -0.615  56.979  1.00  0.00     0.000 C 
BRANCH   2   3
ATOM      3  C   UNL     1      20.824  -1.036  57.846  1.00  0.00     0.000 C 
BRANCH   3   4
ATOM      4  C   UNL     1      20.049  -2.269  57.343  1.00  0.00    -0.000 C 
BRANCH   4   5
ATOM      5  C   UNL     1      20.814  -3.604  57.440  1.00  0.00    -0.000 C 
BRANCH   5   6
ATOM      6  C   UNL     1      20.294  -4.721  56.514  1.00  0.00    -0.000 C 
BRANCH   6   7
ATOM      7  C   UNL     1      21.103  -6.033  56.606  1.00  0.00    -0.000 C 
BRANCH   7   8
ATOM      8  C   UNL     1      20.539  -7.138  55.695  1.00  0.00    -0.000 C 
BRANCH   8   9
ATOM      9  C   UNL     1      21.632  -7.839  54.873  1.00  0.00    -0.000 C 
BRANCH   9  10
ATOM     10  C   UNL     1      21.592  -7.454  53.385  1.00  0.00    -0.000 C 
BRANCH  10  11
ATOM     11  C   UNL     1      20.270  -6.779  52.984  1.00  0.00    -0.003 C 
ATOM     12  C   UNL     1      20.481  -5.419  52.319  1.00  0.00     0.004 C 
ENDBRANCH  10  11
ENDBRANCH   9  10
ENDBRANCH   8   9
ENDBRANCH   7   8
ENDBRANCH   6   7
ENDBRANCH   5   6
ENDBRANCH   4   5
ENDBRANCH   3   4
ENDBRANCH   2   3
ENDBRANCH   1   2
BRANCH   1  13
ATOM     13  C   UNL     1      22.622  -1.669  54.716  1.00  0.00     0.000 C 
BRANCH  13  14
ATOM     14  C   UNL     1      23.854  -2.098  55.528  1.00  0.00     0.000 C 
BRANCH  14  15
ATOM     15  C   UNL     1      24.047  -3.625  55.551  1.00  0.00     0.000 C 
BRANCH  15  16
ATOM     16  C   UNL     1      23.424  -4.311  54.325  1.00  0.00     0.000 C 
BRANCH  16  17
ATOM     17  C   UNL     1      24.420  -5.228  53.593  1.00  0.00     0.000 C 
BRANCH  17  18
ATOM     18  C   UNL     1      24.271  -5.160  52.065  1.00  0.00     0.000 C 
BRANCH  18  19
ATOM     19  C   UNL     1      23.799  -3.781  51.581  1.00  0.00     0.000 C 
BRANCH  19  20
ATOM     20  C   UNL     1      23.181  -3.871  50.177  1.00  0.00     0.006 C 
BRANCH  20  21
ATOM     21  C   UNL     1      23.835  -2.893  49.192  1.00  0.00     0.053 C 
BRANCH  21  22
ATOM     22  C   UNL     1      24.227  -3.571  47.915  1.00  0.00     0.041 C 
ATOM     23  O   UNL     1      25.256  -3.202  47.291  1.00  0.00    -0.550 OA
ATOM     24  O   UNL     1      23.434  -4.587  47.395  1.00  0.00    -0.550 OA
ENDBRANCH  21  22
ENDBRANCH  20  21
ENDBRANCH  19  20
ENDBRANCH  18  19
ENDBRANCH  17  18
ENDBRANCH  16  17
ENDBRANCH  15  16
ENDBRANCH  14  15
ENDBRANCH  13  14
ENDBRANCH   1  13
TORSDOF 20
ENDMDL
