MODEL 1
REMARK VINA RESULT:    -4.435      0.000      0.000
REMARK INTER + INTRA:          -5.633
REMARK INTER:                  -5.472
REMARK INTRA:                  -0.162
REMARK UNBOUND:                -0.162
REMARK SMILES C=CC[C@H](C)C(=O)CC
REMARK SMILES IDX 4 1 5 2 6 3 7 4 8 5 9 6 3 7 2 8 1 9
REMARK H PARENT
REMARK Flexibility Score: inf
ROOT
ATOM      1  C   UNL     1       8.625 -24.709 -24.222  1.00  0.00     0.057 C 
ATOM      2  C   UNL     1       8.191 -26.033 -24.861  1.00  0.00     0.016 C 
ENDROOT
BRANCH   1   3
ATOM      3  C   UNL     1       7.418 -23.987 -23.657  1.00  0.00     0.135 C 
ATOM      4  O   UNL     1       7.521 -22.821 -23.303  1.00  0.00    -0.299 OA
BRANCH   3   5
ATOM      5  C   UNL     1       6.083 -24.675 -23.539  1.00  0.00     0.072 C 
ATOM      6  C   UNL     1       5.510 -24.517 -22.134  1.00  0.00     0.012 C 
ENDBRANCH   3   5
ENDBRANCH   1   3
BRANCH   1   7
ATOM      7  C   UNL     1       9.370 -23.832 -25.250  1.00  0.00     0.038 C 
BRANCH   7   8
ATOM      8  C   UNL     1      10.507 -24.569 -25.908  1.00  0.00    -0.034 C 
ATOM      9  C   UNL     1      11.655 -23.959 -26.220  1.00  0.00     0.004 C 
ENDBRANCH   7   8
ENDBRANCH   1   7
TORSDOF 4
ENDMDL
MODEL 2
REMARK VINA RESULT:    -4.005      8.791      9.968
REMARK INTER + INTRA:          -5.104
REMARK INTER:                  -4.903
REMARK INTRA:                  -0.201
REMARK UNBOUND:                -0.162
REMARK SMILES C=CC[C@H](C)C(=O)CC
REMARK SMILES IDX 4 1 5 2 6 3 7 4 8 5 9 6 3 7 2 8 1 9
REMARK H PARENT
REMARK Flexibility Score: inf
ROOT
ATOM      1  C   UNL     1      13.898 -18.346 -18.782  1.00  0.00     0.057 C 
ATOM      2  C   UNL     1      15.002 -17.636 -17.992  1.00  0.00     0.016 C 
ENDROOT
BRANCH   1   3
ATOM      3  C   UNL     1      14.510 -19.188 -19.884  1.00  0.00     0.135 C 
ATOM      4  O   UNL     1      15.399 -18.720 -20.582  1.00  0.00    -0.299 OA
BRANCH   3   5
ATOM      5  C   UNL     1      14.056 -20.604 -20.126  1.00  0.00     0.072 C 
ATOM      6  C   UNL     1      14.708 -21.180 -21.380  1.00  0.00     0.012 C 
ENDBRANCH   3   5
ENDBRANCH   1   3
BRANCH   1   7
ATOM      7  C   UNL     1      12.897 -17.320 -19.354  1.00  0.00     0.038 C 
BRANCH   7   8
ATOM      8  C   UNL     1      11.542 -17.926 -19.606  1.00  0.00    -0.034 C 
ATOM      9  C   UNL     1      10.483 -17.623 -18.849  1.00  0.00     0.004 C 
ENDBRANCH   7   8
ENDBRANCH   1   7
TORSDOF 4
ENDMDL
MODEL 3
REMARK VINA RESULT:    -3.962      8.990      9.756
REMARK INTER + INTRA:          -5.050
REMARK INTER:                  -4.667
REMARK INTRA:                  -0.383
REMARK UNBOUND:                -0.162
REMARK SMILES C=CC[C@H](C)C(=O)CC
REMARK SMILES IDX 4 1 5 2 6 3 7 4 8 5 9 6 3 7 2 8 1 9
REMARK H PARENT
REMARK Flexibility Score: inf
ROOT
ATOM      1  C   UNL     1      13.187 -18.553 -19.472  1.00  0.00     0.057 C 
ATOM      2  C   UNL     1      12.067 -17.507 -19.472  1.00  0.00     0.016 C 
ENDROOT
BRANCH   1   3
ATOM      3  C   UNL     1      14.532 -17.870 -19.323  1.00  0.00     0.135 C 
ATOM      4  O   UNL     1      15.119 -17.465 -20.317  1.00  0.00    -0.299 OA
BRANCH   3   5
ATOM      5  C   UNL     1      15.156 -17.663 -17.967  1.00  0.00     0.072 C 
ATOM      6  C   UNL     1      14.740 -18.767 -17.000  1.00  0.00     0.012 C 
ENDBRANCH   3   5
ENDBRANCH   1   3
BRANCH   1   7
ATOM      7  C   UNL     1      13.131 -19.404 -20.758  1.00  0.00     0.038 C 
BRANCH   7   8
ATOM      8  C   UNL     1      13.783 -20.749 -20.578  1.00  0.00    -0.034 C 
ATOM      9  C   UNL     1      14.807 -21.144 -21.341  1.00  0.00     0.004 C 
ENDBRANCH   7   8
ENDBRANCH   1   7
TORSDOF 4
ENDMDL
MODEL 4
REMARK VINA RESULT:    -3.935      8.719      9.316
REMARK INTER + INTRA:          -5.017
REMARK INTER:                  -4.647
REMARK INTRA:                  -0.369
REMARK UNBOUND:                -0.162
REMARK SMILES C=CC[C@H](C)C(=O)CC
REMARK SMILES IDX 4 1 5 2 6 3 7 4 8 5 9 6 3 7 2 8 1 9
REMARK H PARENT
REMARK Flexibility Score: inf
ROOT
ATOM      1  C   UNL     1      13.602 -19.018 -19.848  1.00  0.00     0.057 C 
ATOM      2  C   UNL     1      14.280 -20.208 -20.535  1.00  0.00     0.016 C 
ENDROOT
BRANCH   1   3
ATOM      3  C   UNL     1      12.462 -18.506 -20.707  1.00  0.00     0.135 C 
ATOM      4  O   UNL     1      12.697 -18.058 -21.821  1.00  0.00    -0.299 OA
BRANCH   3   5
ATOM      5  C   UNL     1      11.037 -18.554 -20.221  1.00  0.00     0.072 C 
ATOM      6  C   UNL     1      10.849 -17.671 -18.992  1.00  0.00     0.012 C 
ENDBRANCH   3   5
ENDBRANCH   1   3
BRANCH   1   7
ATOM      7  C   UNL     1      14.629 -17.903 -19.561  1.00  0.00     0.038 C 
BRANCH   7   8
ATOM      8  C   UNL     1      14.830 -17.682 -18.085  1.00  0.00    -0.034 C 
ATOM      9  C   UNL     1      14.641 -18.660 -17.194  1.00  0.00     0.004 C 
ENDBRANCH   7   8
ENDBRANCH   1   7
TORSDOF 4
ENDMDL
MODEL 5
REMARK VINA RESULT:    -3.925      8.690      9.600
REMARK INTER + INTRA:          -5.004
REMARK INTER:                  -4.639
REMARK INTRA:                  -0.365
REMARK UNBOUND:                -0.162
REMARK SMILES C=CC[C@H](C)C(=O)CC
REMARK SMILES IDX 4 1 5 2 6 3 7 4 8 5 9 6 3 7 2 8 1 9
REMARK H PARENT
REMARK Flexibility Score: inf
ROOT
ATOM      1  C   UNL     1      13.053 -17.980 -19.655  1.00  0.00     0.057 C 
ATOM      2  C   UNL     1      11.581 -17.756 -19.295  1.00  0.00     0.016 C 
ENDROOT
BRANCH   1   3
ATOM      3  C   UNL     1      13.165 -19.030 -20.743  1.00  0.00     0.135 C 
ATOM      4  O   UNL     1      13.070 -18.699 -21.916  1.00  0.00    -0.299 OA
BRANCH   3   5
ATOM      5  C   UNL     1      13.409 -20.478 -20.406  1.00  0.00     0.072 C 
ATOM      6  C   UNL     1      14.683 -20.987 -21.072  1.00  0.00     0.012 C 
ENDBRANCH   3   5
ENDBRANCH   1   3
BRANCH   1   7
ATOM      7  C   UNL     1      13.861 -18.383 -18.404  1.00  0.00     0.038 C 
BRANCH   7   8
ATOM      8  C   UNL     1      15.087 -17.529 -18.219  1.00  0.00    -0.034 C 
ATOM      9  C   UNL     1      16.107 -17.564 -19.083  1.00  0.00     0.004 C 
ENDBRANCH   7   8
ENDBRANCH   1   7
TORSDOF 4
ENDMDL
MODEL 6
REMARK VINA RESULT:    -3.919      8.260      8.943
REMARK INTER + INTRA:          -4.997
REMARK INTER:                  -4.666
REMARK INTRA:                  -0.330
REMARK UNBOUND:                -0.162
REMARK SMILES C=CC[C@H](C)C(=O)CC
REMARK SMILES IDX 4 1 5 2 6 3 7 4 8 5 9 6 3 7 2 8 1 9
REMARK H PARENT
REMARK Flexibility Score: inf
ROOT
ATOM      1  C   UNL     1      14.192 -18.325 -19.710  1.00  0.00     0.057 C 
ATOM      2  C   UNL     1      14.679 -17.524 -18.499  1.00  0.00     0.016 C 
ENDROOT
BRANCH   1   3
ATOM      3  C   UNL     1      12.850 -17.795 -20.175  1.00  0.00     0.135 C 
ATOM      4  O   UNL     1      12.722 -17.392 -21.322  1.00  0.00    -0.299 OA
BRANCH   3   5
ATOM      5  C   UNL     1      11.659 -17.770 -19.252  1.00  0.00     0.072 C 
ATOM      6  C   UNL     1      10.395 -18.214 -19.979  1.00  0.00     0.012 C 
ENDBRANCH   3   5
ENDBRANCH   1   3
BRANCH   1   7
ATOM      7  C   UNL     1      14.110 -19.827 -19.367  1.00  0.00     0.038 C 
BRANCH   7   8
ATOM      8  C   UNL     1      13.698 -20.660 -20.552  1.00  0.00    -0.034 C 
ATOM      9  C   UNL     1      14.592 -21.135 -21.425  1.00  0.00     0.004 C 
ENDBRANCH   7   8
ENDBRANCH   1   7
TORSDOF 4
ENDMDL
MODEL 7
REMARK VINA RESULT:    -3.885      8.067     10.203
REMARK INTER + INTRA:          -4.955
REMARK INTER:                  -4.526
REMARK INTRA:                  -0.429
REMARK UNBOUND:                -0.162
REMARK SMILES C=CC[C@H](C)C(=O)CC
REMARK SMILES IDX 4 1 5 2 6 3 7 4 8 5 9 6 3 7 2 8 1 9
REMARK H PARENT
REMARK Flexibility Score: inf
ROOT
ATOM      1  C   UNL     1      16.992 -23.599 -23.326  1.00  0.00     0.057 C 
ATOM      2  C   UNL     1      15.581 -23.002 -23.311  1.00  0.00     0.016 C 
ENDROOT
BRANCH   1   3
ATOM      3  C   UNL     1      17.625 -23.394 -24.688  1.00  0.00     0.135 C 
ATOM      4  O   UNL     1      17.226 -22.494 -25.413  1.00  0.00    -0.299 OA
BRANCH   3   5
ATOM      5  C   UNL     1      18.754 -24.272 -25.162  1.00  0.00     0.072 C 
ATOM      6  C   UNL     1      20.100 -23.741 -24.678  1.00  0.00     0.012 C 
ENDBRANCH   3   5
ENDBRANCH   1   3
BRANCH   1   7
ATOM      7  C   UNL     1      16.950 -25.094 -22.948  1.00  0.00     0.038 C 
BRANCH   7   8
ATOM      8  C   UNL     1      17.604 -25.363 -21.618  1.00  0.00    -0.034 C 
ATOM      9  C   UNL     1      18.929 -25.294 -21.458  1.00  0.00     0.004 C 
ENDBRANCH   7   8
ENDBRANCH   1   7
TORSDOF 4
ENDMDL
MODEL 8
REMARK VINA RESULT:    -3.879      8.531     10.652
REMARK INTER + INTRA:          -4.947
REMARK INTER:                  -4.474
REMARK INTRA:                  -0.473
REMARK UNBOUND:                -0.162
REMARK SMILES C=CC[C@H](C)C(=O)CC
REMARK SMILES IDX 4 1 5 2 6 3 7 4 8 5 9 6 3 7 2 8 1 9
REMARK H PARENT
REMARK Flexibility Score: inf
ROOT
ATOM      1  C   UNL     1      18.418 -25.543 -22.683  1.00  0.00     0.057 C 
ATOM      2  C   UNL     1      18.800 -25.344 -21.213  1.00  0.00     0.016 C 
ENDROOT
BRANCH   1   3
ATOM      3  C   UNL     1      19.231 -24.611 -23.559  1.00  0.00     0.135 C 
ATOM      4  O   UNL     1      19.981 -23.795 -23.043  1.00  0.00    -0.299 OA
BRANCH   3   5
ATOM      5  C   UNL     1      19.148 -24.682 -25.062  1.00  0.00     0.072 C 
ATOM      6  C   UNL     1      18.764 -23.330 -25.652  1.00  0.00     0.012 C 
ENDBRANCH   3   5
ENDBRANCH   1   3
BRANCH   1   7
ATOM      7  C   UNL     1      16.904 -25.318 -22.883  1.00  0.00     0.038 C 
BRANCH   7   8
ATOM      8  C   UNL     1      16.494 -23.903 -22.572  1.00  0.00    -0.034 C 
ATOM      9  C   UNL     1      15.735 -23.189 -23.409  1.00  0.00     0.004 C 
ENDBRANCH   7   8
ENDBRANCH   1   7
TORSDOF 4
ENDMDL
MODEL 9
REMARK VINA RESULT:    -3.836      9.266     10.200
REMARK INTER + INTRA:          -4.895
REMARK INTER:                  -4.618
REMARK INTRA:                  -0.277
REMARK UNBOUND:                -0.162
REMARK SMILES C=CC[C@H](C)C(=O)CC
REMARK SMILES IDX 4 1 5 2 6 3 7 4 8 5 9 6 3 7 2 8 1 9
REMARK H PARENT
REMARK Flexibility Score: inf
ROOT
ATOM      1  C   UNL     1      13.978 -18.409 -20.402  1.00  0.00     0.057 C 
ATOM      2  C   UNL     1      13.608 -19.882 -20.206  1.00  0.00     0.016 C 
ENDROOT
BRANCH   1   3
ATOM      3  C   UNL     1      15.141 -18.044 -19.500  1.00  0.00     0.135 C 
ATOM      4  O   UNL     1      16.286 -18.133 -19.922  1.00  0.00    -0.299 OA
BRANCH   3   5
ATOM      5  C   UNL     1      14.914 -17.555 -18.094  1.00  0.00     0.072 C 
ATOM      6  C   UNL     1      14.708 -18.723 -17.135  1.00  0.00     0.012 C 
ENDBRANCH   3   5
ENDBRANCH   1   3
BRANCH   1   7
ATOM      7  C   UNL     1      12.757 -17.505 -20.132  1.00  0.00     0.038 C 
BRANCH   7   8
ATOM      8  C   UNL     1      11.485 -18.296 -19.983  1.00  0.00    -0.034 C 
ATOM      9  C   UNL     1      10.471 -17.865 -19.226  1.00  0.00     0.004 C 
ENDBRANCH   7   8
ENDBRANCH   1   7
TORSDOF 4
ENDMDL
