MODEL 1
REMARK VINA RESULT:    -4.001      0.000      0.000
REMARK INTER + INTRA:          -5.153
REMARK INTER:                  -4.937
REMARK INTRA:                  -0.216
REMARK UNBOUND:                -0.216
REMARK SMILES Oc1cc(O)c2cc(O)c(-c3cc(O)c(O)c(O)c3)[o+]c2c1
REMARK SMILES IDX 10 1 20 2 21 3 22 4 2 5 3 6 4 7 6 8 7 9 8 10 11 11 12 12
REMARK SMILES IDX 13 13 19 14 15 15 17 16 14 17 16 19 18 21 9 23 1 25 5 27
REMARK H PARENT 14 18 16 20 18 22 9 24 1 26 5 28
REMARK Flexibility Score: inf
ROOT
ATOM      1  C   UNL     1     -17.286  44.774  -8.084  1.00  0.00     0.402 A 
ATOM      2  O   UNL     1     -18.363  45.393  -8.561  1.00  0.00    -0.202 OA
ATOM      3  C   UNL     1     -19.238  44.811  -9.373  1.00  0.00     0.368 A 
ATOM      4  C   UNL     1     -20.338  45.544  -9.826  1.00  0.00     0.162 A 
ATOM      5  C   UNL     1     -21.273  44.960 -10.682  1.00  0.00     0.128 A 
ATOM      6  C   UNL     1     -21.108  43.631 -11.089  1.00  0.00     0.093 A 
ATOM      7  C   UNL     1     -20.014  42.875 -10.650  1.00  0.00     0.136 A 
ATOM      8  C   UNL     1     -19.063  43.465  -9.777  1.00  0.00     0.125 A 
ATOM      9  C   UNL     1     -17.945  42.780  -9.278  1.00  0.00     0.078 A 
ATOM     10  C   UNL     1     -17.053  43.428  -8.417  1.00  0.00     0.223 A 
ENDROOT
BRANCH   1  11
ATOM     11  C   UNL     1     -16.378  45.535  -7.194  1.00  0.00     0.091 A 
ATOM     12  C   UNL     1     -16.256  45.160  -5.848  1.00  0.00     0.068 A 
ATOM     13  C   UNL     1     -15.422  45.872  -4.980  1.00  0.00     0.162 A 
ATOM     14  C   UNL     1     -15.678  46.662  -7.655  1.00  0.00     0.068 A 
ATOM     15  C   UNL     1     -14.707  46.987  -5.451  1.00  0.00     0.200 A 
ATOM     16  C   UNL     1     -14.840  47.384  -6.793  1.00  0.00     0.162 A 
BRANCH  13  17
ATOM     17  O   UNL     1     -15.318  45.457  -3.653  1.00  0.00    -0.504 OA
ATOM     18  H   UNL     1     -16.106  45.483  -3.017  1.00  0.00     0.293 HD
ENDBRANCH  13  17
BRANCH  15  19
ATOM     19  O   UNL     1     -13.875  47.690  -4.579  1.00  0.00    -0.502 OA
ATOM     20  H   UNL     1     -13.600  48.649  -4.753  1.00  0.00     0.293 HD
ENDBRANCH  15  19
BRANCH  16  21
ATOM     21  O   UNL     1     -14.145  48.496  -7.263  1.00  0.00    -0.504 OA
ATOM     22  H   UNL     1     -14.173  48.767  -8.240  1.00  0.00     0.293 HD
ENDBRANCH  16  21
ENDBRANCH   1  11
BRANCH  10  23
ATOM     23  O   UNL     1     -15.969  42.732  -7.880  1.00  0.00    -0.500 OA
ATOM     24  H   UNL     1     -15.205  42.405  -8.459  1.00  0.00     0.294 HD
ENDBRANCH  10  23
BRANCH   5  25
ATOM     25  O   UNL     1     -22.363  45.707 -11.122  1.00  0.00    -0.507 OA
ATOM     26  H   UNL     1     -23.297  45.539 -10.769  1.00  0.00     0.293 HD
ENDBRANCH   5  25
BRANCH   7  27
ATOM     27  O   UNL     1     -19.918  41.556 -11.106  1.00  0.00    -0.507 OA
ATOM     28  H   UNL     1     -19.074  41.138 -11.467  1.00  0.00     0.293 HD
ENDBRANCH   7  27
TORSDOF 7
ENDMDL
MODEL 2
REMARK VINA RESULT:    -3.705      1.233      7.060
REMARK INTER + INTRA:          -4.787
REMARK INTER:                  -4.876
REMARK INTRA:                   0.088
REMARK UNBOUND:                -0.216
REMARK SMILES Oc1cc(O)c2cc(O)c(-c3cc(O)c(O)c(O)c3)[o+]c2c1
REMARK SMILES IDX 10 1 20 2 21 3 22 4 2 5 3 6 4 7 6 8 7 9 8 10 11 11 12 12
REMARK SMILES IDX 13 13 19 14 15 15 17 16 14 17 16 19 18 21 9 23 1 25 5 27
REMARK H PARENT 14 18 16 20 18 22 9 24 1 26 5 28
REMARK Flexibility Score: inf
ROOT
ATOM      1  C   UNL     1     -17.487  45.021  -7.907  1.00  0.00     0.402 A 
ATOM      2  O   UNL     1     -16.918  46.167  -8.271  1.00  0.00    -0.202 OA
ATOM      3  C   UNL     1     -15.946  46.752  -7.580  1.00  0.00     0.368 A 
ATOM      4  C   UNL     1     -15.414  47.958  -8.041  1.00  0.00     0.162 A 
ATOM      5  C   UNL     1     -14.394  48.597  -7.333  1.00  0.00     0.128 A 
ATOM      6  C   UNL     1     -13.901  48.025  -6.155  1.00  0.00     0.093 A 
ATOM      7  C   UNL     1     -14.418  46.816  -5.671  1.00  0.00     0.136 A 
ATOM      8  C   UNL     1     -15.453  46.163  -6.390  1.00  0.00     0.125 A 
ATOM      9  C   UNL     1     -16.021  44.945  -5.988  1.00  0.00     0.078 A 
ATOM     10  C   UNL     1     -17.036  44.358  -6.750  1.00  0.00     0.223 A 
ENDROOT
BRANCH   1  11
ATOM     11  C   UNL     1     -18.569  44.475  -8.757  1.00  0.00     0.091 A 
ATOM     12  C   UNL     1     -19.550  45.338  -9.267  1.00  0.00     0.068 A 
ATOM     13  C   UNL     1     -20.594  44.847 -10.056  1.00  0.00     0.162 A 
ATOM     14  C   UNL     1     -18.668  43.098  -9.020  1.00  0.00     0.068 A 
ATOM     15  C   UNL     1     -20.678  43.472 -10.334  1.00  0.00     0.200 A 
ATOM     16  C   UNL     1     -19.712  42.596  -9.810  1.00  0.00     0.162 A 
BRANCH  13  17
ATOM     17  O   UNL     1     -21.541  45.742 -10.555  1.00  0.00    -0.504 OA
ATOM     18  H   UNL     1     -22.274  46.130  -9.974  1.00  0.00     0.293 HD
ENDBRANCH  13  17
BRANCH  15  19
ATOM     19  O   UNL     1     -21.722  42.991 -11.125  1.00  0.00    -0.502 OA
ATOM     20  H   UNL     1     -22.168  42.099 -10.946  1.00  0.00     0.293 HD
ENDBRANCH  15  19
BRANCH  16  21
ATOM     21  O   UNL     1     -19.797  41.229 -10.069  1.00  0.00    -0.504 OA
ATOM     22  H   UNL     1     -20.587  40.829 -10.562  1.00  0.00     0.293 HD
ENDBRANCH  16  21
ENDBRANCH   1  11
BRANCH  10  23
ATOM     23  O   UNL     1     -17.565  43.122  -6.378  1.00  0.00    -0.500 OA
ATOM     24  H   UNL     1     -18.560  42.936  -6.412  1.00  0.00     0.294 HD
ENDBRANCH  10  23
BRANCH   5  25
ATOM     25  O   UNL     1     -13.877  49.800  -7.810  1.00  0.00    -0.507 OA
ATOM     26  H   UNL     1     -14.470  50.605  -7.969  1.00  0.00     0.293 HD
ENDBRANCH   5  25
BRANCH   7  27
ATOM     27  O   UNL     1     -13.875  46.313  -4.486  1.00  0.00    -0.507 OA
ATOM     28  H   UNL     1     -14.407  45.843  -3.769  1.00  0.00     0.293 HD
ENDBRANCH   7  27
TORSDOF 7
ENDMDL
MODEL 3
REMARK VINA RESULT:    -3.688      1.249      7.240
REMARK INTER + INTRA:          -4.766
REMARK INTER:                  -4.902
REMARK INTRA:                   0.135
REMARK UNBOUND:                -0.216
REMARK SMILES Oc1cc(O)c2cc(O)c(-c3cc(O)c(O)c(O)c3)[o+]c2c1
REMARK SMILES IDX 10 1 20 2 21 3 22 4 2 5 3 6 4 7 6 8 7 9 8 10 11 11 12 12
REMARK SMILES IDX 13 13 19 14 15 15 17 16 14 17 16 19 18 21 9 23 1 25 5 27
REMARK H PARENT 14 18 16 20 18 22 9 24 1 26 5 28
REMARK Flexibility Score: inf
ROOT
ATOM      1  C   UNL     1     -17.404  45.601  -8.349  1.00  0.00     0.402 A 
ATOM      2  O   UNL     1     -16.936  45.170  -7.181  1.00  0.00    -0.202 OA
ATOM      3  C   UNL     1     -16.010  45.818  -6.482  1.00  0.00     0.368 A 
ATOM      4  C   UNL     1     -15.578  45.284  -5.266  1.00  0.00     0.162 A 
ATOM      5  C   UNL     1     -14.605  45.941  -4.512  1.00  0.00     0.128 A 
ATOM      6  C   UNL     1     -14.058  47.142  -4.977  1.00  0.00     0.093 A 
ATOM      7  C   UNL     1     -14.473  47.698  -6.194  1.00  0.00     0.136 A 
ATOM      8  C   UNL     1     -15.465  47.034  -6.961  1.00  0.00     0.125 A 
ATOM      9  C   UNL     1     -15.951  47.523  -8.184  1.00  0.00     0.078 A 
ATOM     10  C   UNL     1     -16.933  46.814  -8.882  1.00  0.00     0.223 A 
ENDROOT
BRANCH   1  11
ATOM     11  C   UNL     1     -18.430  44.783  -9.037  1.00  0.00     0.091 A 
ATOM     12  C   UNL     1     -18.324  43.384  -9.020  1.00  0.00     0.068 A 
ATOM     13  C   UNL     1     -19.267  42.588  -9.677  1.00  0.00     0.162 A 
ATOM     14  C   UNL     1     -19.479  45.380  -9.756  1.00  0.00     0.068 A 
ATOM     15  C   UNL     1     -20.326  43.188 -10.378  1.00  0.00     0.200 A 
ATOM     16  C   UNL     1     -20.429  44.589 -10.419  1.00  0.00     0.162 A 
BRANCH  13  17
ATOM     17  O   UNL     1     -19.132  41.200  -9.623  1.00  0.00    -0.504 OA
ATOM     18  H   UNL     1     -18.324  40.753  -9.207  1.00  0.00     0.293 HD
ENDBRANCH  13  17
BRANCH  15  19
ATOM     19  O   UNL     1     -21.265  42.386 -11.029  1.00  0.00    -0.502 OA
ATOM     20  H   UNL     1     -21.006  41.748 -11.772  1.00  0.00     0.293 HD
ENDBRANCH  15  19
BRANCH  16  21
ATOM     21  O   UNL     1     -21.469  45.192 -11.124  1.00  0.00    -0.504 OA
ATOM     22  H   UNL     1     -21.565  45.085 -12.127  1.00  0.00     0.293 HD
ENDBRANCH  16  21
ENDBRANCH   1  11
BRANCH  10  23
ATOM     23  O   UNL     1     -17.452  47.326 -10.072  1.00  0.00    -0.500 OA
ATOM     24  H   UNL     1     -18.276  46.931 -10.508  1.00  0.00     0.294 HD
ENDBRANCH  10  23
BRANCH   5  25
ATOM     25  O   UNL     1     -14.187  45.392  -3.301  1.00  0.00    -0.507 OA
ATOM     26  H   UNL     1     -14.307  44.407  -3.097  1.00  0.00     0.293 HD
ENDBRANCH   5  25
BRANCH   7  27
ATOM     27  O   UNL     1     -13.876  48.898  -6.591  1.00  0.00    -0.507 OA
ATOM     28  H   UNL     1     -12.956  48.969  -6.999  1.00  0.00     0.293 HD
ENDBRANCH   7  27
TORSDOF 7
ENDMDL
MODEL 4
REMARK VINA RESULT:    -3.560      1.230      6.934
REMARK INTER + INTRA:          -4.608
REMARK INTER:                  -4.705
REMARK INTRA:                   0.097
REMARK UNBOUND:                -0.216
REMARK SMILES Oc1cc(O)c2cc(O)c(-c3cc(O)c(O)c(O)c3)[o+]c2c1
REMARK SMILES IDX 10 1 20 2 21 3 22 4 2 5 3 6 4 7 6 8 7 9 8 10 11 11 12 12
REMARK SMILES IDX 13 13 19 14 15 15 17 16 14 17 16 19 18 21 9 23 1 25 5 27
REMARK H PARENT 14 18 16 20 18 22 9 24 1 26 5 28
REMARK Flexibility Score: inf
ROOT
ATOM      1  C   UNL     1     -17.483  45.035  -7.805  1.00  0.00     0.402 A 
ATOM      2  O   UNL     1     -16.914  46.181  -8.172  1.00  0.00    -0.202 OA
ATOM      3  C   UNL     1     -15.943  46.767  -7.480  1.00  0.00     0.368 A 
ATOM      4  C   UNL     1     -15.411  47.973  -7.944  1.00  0.00     0.162 A 
ATOM      5  C   UNL     1     -14.393  48.613  -7.237  1.00  0.00     0.128 A 
ATOM      6  C   UNL     1     -13.901  48.044  -6.057  1.00  0.00     0.093 A 
ATOM      7  C   UNL     1     -14.417  46.837  -5.571  1.00  0.00     0.136 A 
ATOM      8  C   UNL     1     -15.451  46.181  -6.289  1.00  0.00     0.125 A 
ATOM      9  C   UNL     1     -16.019  44.964  -5.885  1.00  0.00     0.078 A 
ATOM     10  C   UNL     1     -17.033  44.375  -6.647  1.00  0.00     0.223 A 
ENDROOT
BRANCH   1  11
ATOM     11  C   UNL     1     -18.564  44.486  -8.656  1.00  0.00     0.091 A 
ATOM     12  C   UNL     1     -18.593  43.112  -8.936  1.00  0.00     0.068 A 
ATOM     13  C   UNL     1     -19.590  42.570  -9.752  1.00  0.00     0.162 A 
ATOM     14  C   UNL     1     -19.533  45.322  -9.236  1.00  0.00     0.068 A 
ATOM     15  C   UNL     1     -20.569  43.407 -10.314  1.00  0.00     0.200 A 
ATOM     16  C   UNL     1     -20.537  44.788 -10.057  1.00  0.00     0.162 A 
BRANCH  13  17
ATOM     17  O   UNL     1     -19.591  41.196  -9.994  1.00  0.00    -0.504 OA
ATOM     18  H   UNL     1     -19.567  40.814 -10.932  1.00  0.00     0.293 HD
ENDBRANCH  13  17
BRANCH  15  19
ATOM     19  O   UNL     1     -21.563  42.857 -11.125  1.00  0.00    -0.502 OA
ATOM     20  H   UNL     1     -21.579  42.995 -12.128  1.00  0.00     0.293 HD
ENDBRANCH  15  19
BRANCH  16  21
ATOM     21  O   UNL     1     -21.496  45.626 -10.622  1.00  0.00    -0.504 OA
ATOM     22  H   UNL     1     -21.237  46.464 -11.130  1.00  0.00     0.293 HD
ENDBRANCH  16  21
ENDBRANCH   1  11
BRANCH  10  23
ATOM     23  O   UNL     1     -17.562  43.139  -6.273  1.00  0.00    -0.500 OA
ATOM     24  H   UNL     1     -17.052  42.276  -6.414  1.00  0.00     0.294 HD
ENDBRANCH  10  23
BRANCH   5  25
ATOM     25  O   UNL     1     -13.875  49.815  -7.715  1.00  0.00    -0.507 OA
ATOM     26  H   UNL     1     -12.963  50.151  -7.428  1.00  0.00     0.293 HD
ENDBRANCH   5  25
BRANCH   7  27
ATOM     27  O   UNL     1     -13.875  46.336  -4.384  1.00  0.00    -0.507 OA
ATOM     28  H   UNL     1     -13.780  46.867  -3.531  1.00  0.00     0.293 HD
ENDBRANCH   7  27
TORSDOF 7
ENDMDL
MODEL 5
REMARK VINA RESULT:    -2.549      2.559      3.317
REMARK INTER + INTRA:          -3.361
REMARK INTER:                  -2.986
REMARK INTRA:                  -0.375
REMARK UNBOUND:                -0.216
REMARK SMILES Oc1cc(O)c2cc(O)c(-c3cc(O)c(O)c(O)c3)[o+]c2c1
REMARK SMILES IDX 10 1 20 2 21 3 22 4 2 5 3 6 4 7 6 8 7 9 8 10 11 11 12 12
REMARK SMILES IDX 13 13 19 14 15 15 17 16 14 17 16 19 18 21 9 23 1 25 5 27
REMARK H PARENT 14 18 16 20 18 22 9 24 1 26 5 28
REMARK Flexibility Score: inf
ROOT
ATOM      1  C   UNL     1     -16.985  46.505  -9.489  1.00  0.00     0.402 A 
ATOM      2  O   UNL     1     -18.142  46.434  -8.835  1.00  0.00    -0.202 OA
ATOM      3  C   UNL     1     -18.954  45.385  -8.900  1.00  0.00     0.368 A 
ATOM      4  C   UNL     1     -20.151  45.405  -8.180  1.00  0.00     0.162 A 
ATOM      5  C   UNL     1     -21.025  44.318  -8.232  1.00  0.00     0.128 A 
ATOM      6  C   UNL     1     -20.700  43.201  -9.009  1.00  0.00     0.093 A 
ATOM      7  C   UNL     1     -19.507  43.156  -9.741  1.00  0.00     0.136 A 
ATOM      8  C   UNL     1     -18.615  44.258  -9.689  1.00  0.00     0.125 A 
ATOM      9  C   UNL     1     -17.393  44.296 -10.378  1.00  0.00     0.078 A 
ATOM     10  C   UNL     1     -16.564  45.416 -10.274  1.00  0.00     0.223 A 
ENDROOT
BRANCH   1  11
ATOM     11  C   UNL     1     -16.173  47.734  -9.344  1.00  0.00     0.091 A 
ATOM     12  C   UNL     1     -15.401  47.919  -8.187  1.00  0.00     0.068 A 
ATOM     13  C   UNL     1     -14.640  49.079  -8.013  1.00  0.00     0.162 A 
ATOM     14  C   UNL     1     -16.201  48.749 -10.316  1.00  0.00     0.068 A 
ATOM     15  C   UNL     1     -14.655  50.082  -8.998  1.00  0.00     0.200 A 
ATOM     16  C   UNL     1     -15.441  49.916 -10.150  1.00  0.00     0.162 A 
BRANCH  13  17
ATOM     17  O   UNL     1     -13.876  49.218  -6.854  1.00  0.00    -0.504 OA
ATOM     18  H   UNL     1     -13.870  50.073  -6.312  1.00  0.00     0.293 HD
ENDBRANCH  13  17
BRANCH  15  19
ATOM     19  O   UNL     1     -13.890  51.236  -8.818  1.00  0.00    -0.502 OA
ATOM     20  H   UNL     1     -14.305  52.159  -8.787  1.00  0.00     0.293 HD
ENDBRANCH  15  19
BRANCH  16  21
ATOM     21  O   UNL     1     -15.472  50.912 -11.124  1.00  0.00    -0.504 OA
ATOM     22  H   UNL     1     -14.993  51.796 -10.996  1.00  0.00     0.293 HD
ENDBRANCH  16  21
ENDBRANCH   1  11
BRANCH  10  23
ATOM     23  O   UNL     1     -15.326  45.432 -10.919  1.00  0.00    -0.500 OA
ATOM     24  H   UNL     1     -14.670  44.665 -10.834  1.00  0.00     0.294 HD
ENDBRANCH  10  23
BRANCH   5  25
ATOM     25  O   UNL     1     -22.213  44.357  -7.506  1.00  0.00    -0.507 OA
ATOM     26  H   UNL     1     -23.113  44.428  -7.966  1.00  0.00     0.293 HD
ENDBRANCH   5  25
BRANCH   7  27
ATOM     27  O   UNL     1     -19.258  42.006 -10.497  1.00  0.00    -0.507 OA
ATOM     28  H   UNL     1     -18.511  41.354 -10.314  1.00  0.00     0.293 HD
ENDBRANCH   7  27
TORSDOF 7
ENDMDL
MODEL 6
REMARK VINA RESULT:    -2.237      2.026      6.969
REMARK INTER + INTRA:          -2.976
REMARK INTER:                  -2.813
REMARK INTRA:                  -0.163
REMARK UNBOUND:                -0.216
REMARK SMILES Oc1cc(O)c2cc(O)c(-c3cc(O)c(O)c(O)c3)[o+]c2c1
REMARK SMILES IDX 10 1 20 2 21 3 22 4 2 5 3 6 4 7 6 8 7 9 8 10 11 11 12 12
REMARK SMILES IDX 13 13 19 14 15 15 17 16 14 17 16 19 18 21 9 23 1 25 5 27
REMARK H PARENT 14 18 16 20 18 22 9 24 1 26 5 28
REMARK Flexibility Score: inf
ROOT
ATOM      1  C   UNL     1     -17.760  44.605  -7.522  1.00  0.00     0.402 A 
ATOM      2  O   UNL     1     -18.477  45.415  -6.748  1.00  0.00    -0.202 OA
ATOM      3  C   UNL     1     -17.938  46.246  -5.862  1.00  0.00     0.368 A 
ATOM      4  C   UNL     1     -18.774  47.055  -5.091  1.00  0.00     0.162 A 
ATOM      5  C   UNL     1     -18.236  47.935  -4.150  1.00  0.00     0.128 A 
ATOM      6  C   UNL     1     -16.849  48.007  -3.979  1.00  0.00     0.093 A 
ATOM      7  C   UNL     1     -15.988  47.205  -4.740  1.00  0.00     0.136 A 
ATOM      8  C   UNL     1     -16.532  46.312  -5.699  1.00  0.00     0.125 A 
ATOM      9  C   UNL     1     -15.747  45.482  -6.513  1.00  0.00     0.078 A 
ATOM     10  C   UNL     1     -16.355  44.629  -7.439  1.00  0.00     0.223 A 
ENDROOT
BRANCH   1  11
ATOM     11  C   UNL     1     -18.480  43.718  -8.464  1.00  0.00     0.091 A 
ATOM     12  C   UNL     1     -19.420  44.267  -9.349  1.00  0.00     0.068 A 
ATOM     13  C   UNL     1     -20.129  43.450 -10.235  1.00  0.00     0.162 A 
ATOM     14  C   UNL     1     -18.283  42.327  -8.453  1.00  0.00     0.068 A 
ATOM     15  C   UNL     1     -19.914  42.062 -10.235  1.00  0.00     0.200 A 
ATOM     16  C   UNL     1     -18.990  41.499  -9.338  1.00  0.00     0.162 A 
BRANCH  13  17
ATOM     17  O   UNL     1     -21.045  44.038 -11.108  1.00  0.00    -0.504 OA
ATOM     18  H   UNL     1     -21.782  43.505 -11.554  1.00  0.00     0.293 HD
ENDBRANCH  13  17
BRANCH  15  19
ATOM     19  O   UNL     1     -20.623  41.254 -11.125  1.00  0.00    -0.502 OA
ATOM     20  H   UNL     1     -21.391  41.610 -11.682  1.00  0.00     0.293 HD
ENDBRANCH  15  19
BRANCH  16  21
ATOM     21  O   UNL     1     -18.781  40.122  -9.322  1.00  0.00    -0.504 OA
ATOM     22  H   UNL     1     -19.124  39.540  -8.566  1.00  0.00     0.293 HD
ENDBRANCH  16  21
ENDBRANCH   1  11
BRANCH  10  23
ATOM     23  O   UNL     1     -15.573  43.841  -8.284  1.00  0.00    -0.500 OA
ATOM     24  H   UNL     1     -14.809  44.232  -8.822  1.00  0.00     0.294 HD
ENDBRANCH  10  23
BRANCH   5  25
ATOM     25  O   UNL     1     -19.088  48.734  -3.391  1.00  0.00    -0.507 OA
ATOM     26  H   UNL     1     -18.801  49.110  -2.494  1.00  0.00     0.293 HD
ENDBRANCH   5  25
BRANCH   7  27
ATOM     27  O   UNL     1     -14.616  47.333  -4.506  1.00  0.00    -0.507 OA
ATOM     28  H   UNL     1     -13.923  47.458  -5.229  1.00  0.00     0.293 HD
ENDBRANCH   7  27
TORSDOF 7
ENDMDL
