MODEL 1
REMARK VINA RESULT:    -4.023      0.000      0.000
REMARK INTER + INTRA:          -9.767
REMARK INTER:                  -7.550
REMARK INTRA:                  -2.217
REMARK UNBOUND:                -2.217
REMARK SMILES CCCCCCCCC=CCCCCCCCC(=O)[O-]
REMARK SMILES IDX 10 1 9 2 11 3 12 4 13 5 14 6 15 7 16 8 17 9 18 10 19 11
REMARK SMILES IDX 20 12 8 13 7 14 6 15 5 16 4 17 3 18 2 19 1 20
REMARK H PARENT
REMARK Flexibility Score: inf
ROOT
ATOM      1  C   UNL     1       4.997  11.271   6.638  1.00  0.00    -0.031 C 
ATOM      2  C   UNL     1       4.315  12.336   7.084  1.00  0.00    -0.031 C 
ENDROOT
BRANCH   1   3
ATOM      3  C   UNL     1       4.839   9.913   7.267  1.00  0.00     0.027 C 
BRANCH   3   4
ATOM      4  C   UNL     1       4.028   9.969   8.571  1.00  0.00     0.004 C 
BRANCH   4   5
ATOM      5  C   UNL     1       4.851   9.512   9.784  1.00  0.00     0.000 C 
BRANCH   5   6
ATOM      6  C   UNL     1       5.260   8.041   9.652  1.00  0.00     0.000 C 
BRANCH   6   7
ATOM      7  C   UNL     1       4.062   7.112   9.891  1.00  0.00     0.000 C 
BRANCH   7   8
ATOM      8  C   UNL     1       3.799   6.225   8.665  1.00  0.00     0.006 C 
BRANCH   8   9
ATOM      9  C   UNL     1       2.954   4.991   9.012  1.00  0.00     0.053 C 
BRANCH   9  10
ATOM     10  C   UNL     1       2.813   4.065   7.843  1.00  0.00     0.041 C 
ATOM     11  O   UNL     1       2.627   4.528   6.687  1.00  0.00    -0.550 OA
ATOM     12  O   UNL     1       2.939   2.694   8.024  1.00  0.00    -0.550 OA
ENDBRANCH   9  10
ENDBRANCH   8   9
ENDBRANCH   7   8
ENDBRANCH   6   7
ENDBRANCH   5   6
ENDBRANCH   4   5
ENDBRANCH   3   4
ENDBRANCH   1   3
BRANCH   2  13
ATOM     13  C   UNL     1       4.482  13.693   6.459  1.00  0.00     0.027 C 
BRANCH  13  14
ATOM     14  C   UNL     1       5.796  14.347   6.906  1.00  0.00     0.004 C 
BRANCH  14  15
ATOM     15  C   UNL     1       5.766  14.807   8.374  1.00  0.00     0.000 C 
BRANCH  15  16
ATOM     16  C   UNL     1       6.727  14.018   9.290  1.00  0.00     0.000 C 
BRANCH  16  17
ATOM     17  C   UNL     1       7.709  13.150   8.488  1.00  0.00    -0.000 C 
BRANCH  17  18
ATOM     18  C   UNL     1       7.738  11.711   9.025  1.00  0.00    -0.000 C 
BRANCH  18  19
ATOM     19  C   UNL     1       8.495  10.750   8.097  1.00  0.00    -0.003 C 
ATOM     20  C   UNL     1       8.534  11.232   6.648  1.00  0.00     0.004 C 
ENDBRANCH  18  19
ENDBRANCH  17  18
ENDBRANCH  16  17
ENDBRANCH  15  16
ENDBRANCH  14  15
ENDBRANCH  13  14
ENDBRANCH   2  13
TORSDOF 15
ENDMDL
MODEL 2
REMARK VINA RESULT:    -3.885     18.491     22.006
REMARK INTER + INTRA:          -9.508
REMARK INTER:                  -6.796
REMARK INTRA:                  -2.712
REMARK UNBOUND:                -2.217
REMARK SMILES CCCCCCCCC=CCCCCCCCC(=O)[O-]
REMARK SMILES IDX 10 1 9 2 11 3 12 4 13 5 14 6 15 7 16 8 17 9 18 10 19 11
REMARK SMILES IDX 20 12 8 13 7 14 6 15 5 16 4 17 3 18 2 19 1 20
REMARK H PARENT
REMARK Flexibility Score: inf
ROOT
ATOM      1  C   UNL     1      -8.221  -0.951  -5.582  1.00  0.00    -0.031 C 
ATOM      2  C   UNL     1      -9.492  -1.107  -5.182  1.00  0.00    -0.031 C 
ENDROOT
BRANCH   1   3
ATOM      3  C   UNL     1      -7.866  -0.094  -6.766  1.00  0.00     0.027 C 
BRANCH   3   4
ATOM      4  C   UNL     1      -6.703   0.862  -6.461  1.00  0.00     0.004 C 
BRANCH   4   5
ATOM      5  C   UNL     1      -7.189   2.286  -6.154  1.00  0.00     0.000 C 
BRANCH   5   6
ATOM      6  C   UNL     1      -7.000   2.626  -4.672  1.00  0.00     0.000 C 
BRANCH   6   7
ATOM      7  C   UNL     1      -8.347   2.660  -3.938  1.00  0.00     0.000 C 
BRANCH   7   8
ATOM      8  C   UNL     1      -8.409   1.579  -2.849  1.00  0.00     0.006 C 
BRANCH   8   9
ATOM      9  C   UNL     1      -7.081   0.822  -2.706  1.00  0.00     0.053 C 
BRANCH   9  10
ATOM     10  C   UNL     1      -6.936   0.201  -1.351  1.00  0.00     0.041 C 
ATOM     11  O   UNL     1      -7.117   0.893  -0.314  1.00  0.00    -0.550 OA
ATOM     12  O   UNL     1      -6.651  -1.153  -1.234  1.00  0.00    -0.550 OA
ENDBRANCH   9  10
ENDBRANCH   8   9
ENDBRANCH   7   8
ENDBRANCH   6   7
ENDBRANCH   5   6
ENDBRANCH   4   5
ENDBRANCH   3   4
ENDBRANCH   1   3
BRANCH   2  13
ATOM     13  C   UNL     1      -9.844  -1.972  -4.004  1.00  0.00     0.027 C 
BRANCH  13  14
ATOM     14  C   UNL     1      -8.635  -2.798  -3.546  1.00  0.00     0.004 C 
BRANCH  14  15
ATOM     15  C   UNL     1      -8.756  -4.287  -3.911  1.00  0.00     0.000 C 
BRANCH  15  16
ATOM     16  C   UNL     1      -7.394  -4.988  -4.111  1.00  0.00     0.000 C 
BRANCH  16  17
ATOM     17  C   UNL     1      -6.938  -4.960  -5.579  1.00  0.00    -0.000 C 
BRANCH  17  18
ATOM     18  C   UNL     1      -8.103  -4.590  -6.510  1.00  0.00    -0.000 C 
BRANCH  18  19
ATOM     19  C   UNL     1      -7.627  -3.975  -7.834  1.00  0.00    -0.003 C 
ATOM     20  C   UNL     1      -6.254  -3.314  -7.722  1.00  0.00     0.004 C 
ENDBRANCH  18  19
ENDBRANCH  17  18
ENDBRANCH  16  17
ENDBRANCH  15  16
ENDBRANCH  14  15
ENDBRANCH  13  14
ENDBRANCH   2  13
TORSDOF 15
ENDMDL
MODEL 3
REMARK VINA RESULT:    -3.880      4.272      8.281
REMARK INTER + INTRA:          -9.499
REMARK INTER:                  -8.283
REMARK INTRA:                  -1.216
REMARK UNBOUND:                -2.217
REMARK SMILES CCCCCCCCC=CCCCCCCCC(=O)[O-]
REMARK SMILES IDX 10 1 9 2 11 3 12 4 13 5 14 6 15 7 16 8 17 9 18 10 19 11
REMARK SMILES IDX 20 12 8 13 7 14 6 15 5 16 4 17 3 18 2 19 1 20
REMARK H PARENT
REMARK Flexibility Score: inf
ROOT
ATOM      1  C   UNL     1       4.350   8.036   8.801  1.00  0.00    -0.031 C 
ATOM      2  C   UNL     1       4.092   6.957   9.554  1.00  0.00    -0.031 C 
ENDROOT
BRANCH   1   3
ATOM      3  C   UNL     1       3.793   9.391   9.146  1.00  0.00     0.027 C 
BRANCH   3   4
ATOM      4  C   UNL     1       4.758  10.526   8.772  1.00  0.00     0.004 C 
BRANCH   4   5
ATOM      5  C   UNL     1       5.489  10.253   7.449  1.00  0.00     0.000 C 
BRANCH   5   6
ATOM      6  C   UNL     1       4.869  11.054   6.300  1.00  0.00     0.000 C 
BRANCH   6   7
ATOM      7  C   UNL     1       4.059  12.243   6.832  1.00  0.00     0.000 C 
BRANCH   7   8
ATOM      8  C   UNL     1       4.707  13.577   6.428  1.00  0.00     0.006 C 
BRANCH   8   9
ATOM      9  C   UNL     1       5.103  14.422   7.647  1.00  0.00     0.053 C 
BRANCH   9  10
ATOM     10  C   UNL     1       6.295  13.854   8.355  1.00  0.00     0.041 C 
ATOM     11  O   UNL     1       7.323  13.527   7.705  1.00  0.00    -0.550 OA
ATOM     12  O   UNL     1       6.289  13.734   9.738  1.00  0.00    -0.550 OA
ENDBRANCH   9  10
ENDBRANCH   8   9
ENDBRANCH   7   8
ENDBRANCH   6   7
ENDBRANCH   5   6
ENDBRANCH   4   5
ENDBRANCH   3   4
ENDBRANCH   1   3
BRANCH   2  13
ATOM     13  C   UNL     1       4.642   5.603   9.201  1.00  0.00     0.027 C 
BRANCH  13  14
ATOM     14  C   UNL     1       3.756   4.902   8.163  1.00  0.00     0.004 C 
BRANCH  14  15
ATOM     15  C   UNL     1       4.443   3.689   7.512  1.00  0.00     0.000 C 
BRANCH  15  16
ATOM     16  C   UNL     1       5.941   3.564   7.864  1.00  0.00     0.000 C 
BRANCH  16  17
ATOM     17  C   UNL     1       6.831   3.560   6.611  1.00  0.00    -0.000 C 
BRANCH  17  18
ATOM     18  C   UNL     1       7.597   2.233   6.484  1.00  0.00    -0.000 C 
BRANCH  18  19
ATOM     19  C   UNL     1       8.303   2.087   5.128  1.00  0.00    -0.003 C 
ATOM     20  C   UNL     1       8.419   3.411   4.374  1.00  0.00     0.004 C 
ENDBRANCH  18  19
ENDBRANCH  17  18
ENDBRANCH  16  17
ENDBRANCH  15  16
ENDBRANCH  14  15
ENDBRANCH  13  14
ENDBRANCH   2  13
TORSDOF 15
ENDMDL
MODEL 4
REMARK VINA RESULT:    -3.834      3.226      4.747
REMARK INTER + INTRA:          -9.413
REMARK INTER:                  -8.343
REMARK INTRA:                  -1.070
REMARK UNBOUND:                -2.217
REMARK SMILES CCCCCCCCC=CCCCCCCCC(=O)[O-]
REMARK SMILES IDX 10 1 9 2 11 3 12 4 13 5 14 6 15 7 16 8 17 9 18 10 19 11
REMARK SMILES IDX 20 12 8 13 7 14 6 15 5 16 4 17 3 18 2 19 1 20
REMARK H PARENT
REMARK Flexibility Score: inf
ROOT
ATOM      1  C   UNL     1       4.075   7.787   8.731  1.00  0.00    -0.031 C 
ATOM      2  C   UNL     1       4.105   9.017   9.267  1.00  0.00    -0.031 C 
ENDROOT
BRANCH   1   3
ATOM      3  C   UNL     1       4.162   6.552   9.585  1.00  0.00     0.027 C 
BRANCH   3   4
ATOM      4  C   UNL     1       3.469   5.346   8.932  1.00  0.00     0.004 C 
BRANCH   4   5
ATOM      5  C   UNL     1       4.328   4.076   9.003  1.00  0.00     0.000 C 
BRANCH   5   6
ATOM      6  C   UNL     1       5.357   4.041   7.867  1.00  0.00     0.000 C 
BRANCH   6   7
ATOM      7  C   UNL     1       6.562   3.170   8.242  1.00  0.00     0.000 C 
BRANCH   7   8
ATOM      8  C   UNL     1       7.082   2.393   7.023  1.00  0.00     0.006 C 
BRANCH   8   9
ATOM      9  C   UNL     1       7.586   3.326   5.913  1.00  0.00     0.053 C 
BRANCH   9  10
ATOM     10  C   UNL     1       8.202   2.563   4.780  1.00  0.00     0.041 C 
ATOM     11  O   UNL     1       8.624   3.171   3.761  1.00  0.00    -0.550 OA
ATOM     12  O   UNL     1       8.356   1.186   4.872  1.00  0.00    -0.550 OA
ENDBRANCH   9  10
ENDBRANCH   8   9
ENDBRANCH   7   8
ENDBRANCH   6   7
ENDBRANCH   5   6
ENDBRANCH   4   5
ENDBRANCH   3   4
ENDBRANCH   1   3
BRANCH   2  13
ATOM     13  C   UNL     1       4.027  10.249   8.409  1.00  0.00     0.027 C 
BRANCH  13  14
ATOM     14  C   UNL     1       5.109  10.231   7.321  1.00  0.00     0.004 C 
BRANCH  14  15
ATOM     15  C   UNL     1       4.862  11.274   6.216  1.00  0.00     0.000 C 
BRANCH  15  16
ATOM     16  C   UNL     1       4.103  12.526   6.706  1.00  0.00     0.000 C 
BRANCH  16  17
ATOM     17  C   UNL     1       4.908  13.816   6.481  1.00  0.00    -0.000 C 
BRANCH  17  18
ATOM     18  C   UNL     1       5.335  14.437   7.820  1.00  0.00    -0.000 C 
BRANCH  18  19
ATOM     19  C   UNL     1       6.390  13.594   8.552  1.00  0.00    -0.003 C 
ATOM     20  C   UNL     1       7.695  13.465   7.766  1.00  0.00     0.004 C 
ENDBRANCH  18  19
ENDBRANCH  17  18
ENDBRANCH  16  17
ENDBRANCH  15  16
ENDBRANCH  14  15
ENDBRANCH  13  14
ENDBRANCH   2  13
TORSDOF 15
ENDMDL
MODEL 5
REMARK VINA RESULT:    -3.752      3.393      5.728
REMARK INTER + INTRA:          -9.260
REMARK INTER:                  -8.083
REMARK INTRA:                  -1.176
REMARK UNBOUND:                -2.217
REMARK SMILES CCCCCCCCC=CCCCCCCCC(=O)[O-]
REMARK SMILES IDX 10 1 9 2 11 3 12 4 13 5 14 6 15 7 16 8 17 9 18 10 19 11
REMARK SMILES IDX 20 12 8 13 7 14 6 15 5 16 4 17 3 18 2 19 1 20
REMARK H PARENT
REMARK Flexibility Score: inf
ROOT
ATOM      1  C   UNL     1       3.511   5.798   9.190  1.00  0.00    -0.031 C 
ATOM      2  C   UNL     1       3.984   6.992   8.805  1.00  0.00    -0.031 C 
ENDROOT
BRANCH   1   3
ATOM      3  C   UNL     1       2.928   4.824   8.203  1.00  0.00     0.027 C 
BRANCH   3   4
ATOM      4  C   UNL     1       4.014   4.018   7.474  1.00  0.00     0.004 C 
BRANCH   4   5
ATOM      5  C   UNL     1       4.393   2.738   8.234  1.00  0.00     0.000 C 
BRANCH   5   6
ATOM      6  C   UNL     1       5.906   2.495   8.184  1.00  0.00     0.000 C 
BRANCH   6   7
ATOM      7  C   UNL     1       6.656   3.773   7.787  1.00  0.00     0.000 C 
BRANCH   7   8
ATOM      8  C   UNL     1       7.901   3.443   6.950  1.00  0.00     0.006 C 
BRANCH   8   9
ATOM      9  C   UNL     1       7.548   3.100   5.496  1.00  0.00     0.053 C 
BRANCH   9  10
ATOM     10  C   UNL     1       8.266   1.875   5.022  1.00  0.00     0.041 C 
ATOM     11  O   UNL     1       7.980   0.746   5.503  1.00  0.00    -0.550 OA
ATOM     12  O   UNL     1       9.216   1.972   4.013  1.00  0.00    -0.550 OA
ENDBRANCH   9  10
ENDBRANCH   8   9
ENDBRANCH   7   8
ENDBRANCH   6   7
ENDBRANCH   5   6
ENDBRANCH   4   5
ENDBRANCH   3   4
ENDBRANCH   1   3
BRANCH   2  13
ATOM     13  C   UNL     1       4.558   7.966   9.796  1.00  0.00     0.027 C 
BRANCH  13  14
ATOM     14  C   UNL     1       5.759   8.713   9.202  1.00  0.00     0.004 C 
BRANCH  14  15
ATOM     15  C   UNL     1       5.383   9.580   7.988  1.00  0.00     0.000 C 
BRANCH  15  16
ATOM     16  C   UNL     1       4.437  10.752   8.332  1.00  0.00     0.000 C 
BRANCH  16  17
ATOM     17  C   UNL     1       3.755  11.332   7.083  1.00  0.00    -0.000 C 
BRANCH  17  18
ATOM     18  C   UNL     1       4.714  12.250   6.309  1.00  0.00    -0.000 C 
BRANCH  18  19
ATOM     19  C   UNL     1       4.531  13.732   6.671  1.00  0.00    -0.003 C 
ATOM     20  C   UNL     1       5.810  14.371   7.212  1.00  0.00     0.004 C 
ENDBRANCH  18  19
ENDBRANCH  17  18
ENDBRANCH  16  17
ENDBRANCH  15  16
ENDBRANCH  14  15
ENDBRANCH  13  14
ENDBRANCH   2  13
TORSDOF 15
ENDMDL
MODEL 6
REMARK VINA RESULT:    -3.675     18.994     21.941
REMARK INTER + INTRA:          -9.115
REMARK INTER:                  -6.596
REMARK INTRA:                  -2.520
REMARK UNBOUND:                -2.217
REMARK SMILES CCCCCCCCC=CCCCCCCCC(=O)[O-]
REMARK SMILES IDX 10 1 9 2 11 3 12 4 13 5 14 6 15 7 16 8 17 9 18 10 19 11
REMARK SMILES IDX 20 12 8 13 7 14 6 15 5 16 4 17 3 18 2 19 1 20
REMARK H PARENT
REMARK Flexibility Score: inf
ROOT
ATOM      1  C   UNL     1      -9.180  -1.442  -4.690  1.00  0.00    -0.031 C 
ATOM      2  C   UNL     1      -9.601  -0.275  -5.199  1.00  0.00    -0.031 C 
ENDROOT
BRANCH   1   3
ATOM      3  C   UNL     1      -9.971  -2.178  -3.644  1.00  0.00     0.027 C 
BRANCH   3   4
ATOM      4  C   UNL     1      -9.382  -3.564  -3.339  1.00  0.00     0.004 C 
BRANCH   4   5
ATOM      5  C   UNL     1      -7.900  -3.662  -3.733  1.00  0.00     0.000 C 
BRANCH   5   6
ATOM      6  C   UNL     1      -7.534  -5.090  -4.150  1.00  0.00     0.000 C 
BRANCH   6   7
ATOM      7  C   UNL     1      -6.898  -5.110  -5.547  1.00  0.00     0.000 C 
BRANCH   7   8
ATOM      8  C   UNL     1      -7.948  -4.837  -6.634  1.00  0.00     0.006 C 
BRANCH   8   9
ATOM      9  C   UNL     1      -7.660  -3.544  -7.409  1.00  0.00     0.053 C 
BRANCH   9  10
ATOM     10  C   UNL     1      -6.342  -3.601  -8.119  1.00  0.00     0.041 C 
ATOM     11  O   UNL     1      -6.115  -4.509  -8.962  1.00  0.00    -0.550 OA
ATOM     12  O   UNL     1      -5.384  -2.623  -7.886  1.00  0.00    -0.550 OA
ENDBRANCH   9  10
ENDBRANCH   8   9
ENDBRANCH   7   8
ENDBRANCH   6   7
ENDBRANCH   5   6
ENDBRANCH   4   5
ENDBRANCH   3   4
ENDBRANCH   1   3
BRANCH   2  13
ATOM     13  C   UNL     1      -8.802   0.462  -6.238  1.00  0.00     0.027 C 
BRANCH  13  14
ATOM     14  C   UNL     1      -7.358  -0.054  -6.292  1.00  0.00     0.004 C 
BRANCH  14  15
ATOM     15  C   UNL     1      -6.337   0.973  -5.774  1.00  0.00     0.000 C 
BRANCH  15  16
ATOM     16  C   UNL     1      -6.884   1.876  -4.646  1.00  0.00     0.000 C 
BRANCH  16  17
ATOM     17  C   UNL     1      -6.504   1.356  -3.251  1.00  0.00    -0.000 C 
BRANCH  17  18
ATOM     18  C   UNL     1      -7.755   1.135  -2.387  1.00  0.00    -0.000 C 
BRANCH  18  19
ATOM     19  C   UNL     1      -7.456   0.332  -1.112  1.00  0.00    -0.003 C 
ATOM     20  C   UNL     1      -6.785  -1.011  -1.400  1.00  0.00     0.004 C 
ENDBRANCH  18  19
ENDBRANCH  17  18
ENDBRANCH  16  17
ENDBRANCH  15  16
ENDBRANCH  14  15
ENDBRANCH  13  14
ENDBRANCH   2  13
TORSDOF 15
ENDMDL
MODEL 7
REMARK VINA RESULT:    -3.666      3.888      8.430
REMARK INTER + INTRA:          -9.098
REMARK INTER:                  -7.464
REMARK INTRA:                  -1.634
REMARK UNBOUND:                -2.217
REMARK SMILES CCCCCCCCC=CCCCCCCCC(=O)[O-]
REMARK SMILES IDX 10 1 9 2 11 3 12 4 13 5 14 6 15 7 16 8 17 9 18 10 19 11
REMARK SMILES IDX 20 12 8 13 7 14 6 15 5 16 4 17 3 18 2 19 1 20
REMARK H PARENT
REMARK Flexibility Score: inf
ROOT
ATOM      1  C   UNL     1       3.604   5.664   9.613  1.00  0.00    -0.031 C 
ATOM      2  C   UNL     1       3.398   5.382   8.318  1.00  0.00    -0.031 C 
ENDROOT
BRANCH   1   3
ATOM      3  C   UNL     1       4.140   6.999  10.055  1.00  0.00     0.027 C 
BRANCH   3   4
ATOM      4  C   UNL     1       4.037   8.059   8.948  1.00  0.00     0.004 C 
BRANCH   4   5
ATOM      5  C   UNL     1       3.988   9.485   9.516  1.00  0.00     0.000 C 
BRANCH   5   6
ATOM      6  C   UNL     1       4.945  10.414   8.759  1.00  0.00     0.000 C 
BRANCH   6   7
ATOM      7  C   UNL     1       5.125   9.953   7.307  1.00  0.00     0.000 C 
BRANCH   7   8
ATOM      8  C   UNL     1       5.058  11.144   6.339  1.00  0.00     0.006 C 
BRANCH   8   9
ATOM      9  C   UNL     1       4.041  12.202   6.790  1.00  0.00     0.053 C 
BRANCH   9  10
ATOM     10  C   UNL     1       4.658  13.564   6.884  1.00  0.00     0.041 C 
ATOM     11  O   UNL     1       4.759  14.286   5.857  1.00  0.00    -0.550 OA
ATOM     12  O   UNL     1       5.075  14.054   8.114  1.00  0.00    -0.550 OA
ENDBRANCH   9  10
ENDBRANCH   8   9
ENDBRANCH   7   8
ENDBRANCH   6   7
ENDBRANCH   5   6
ENDBRANCH   4   5
ENDBRANCH   3   4
ENDBRANCH   1   3
BRANCH   2  13
ATOM     13  C   UNL     1       2.871   4.044   7.880  1.00  0.00     0.027 C 
BRANCH  13  14
ATOM     14  C   UNL     1       2.527   3.164   9.090  1.00  0.00     0.004 C 
BRANCH  14  15
ATOM     15  C   UNL     1       3.543   2.030   9.312  1.00  0.00     0.000 C 
BRANCH  15  16
ATOM     16  C   UNL     1       4.640   1.960   8.227  1.00  0.00     0.000 C 
BRANCH  16  17
ATOM     17  C   UNL     1       6.033   2.281   8.791  1.00  0.00    -0.000 C 
BRANCH  17  18
ATOM     18  C   UNL     1       6.621   3.535   8.125  1.00  0.00    -0.000 C 
BRANCH  18  19
ATOM     19  C   UNL     1       6.386   3.560   6.607  1.00  0.00    -0.003 C 
ATOM     20  C   UNL     1       7.688   3.565   5.806  1.00  0.00     0.004 C 
ENDBRANCH  18  19
ENDBRANCH  17  18
ENDBRANCH  16  17
ENDBRANCH  15  16
ENDBRANCH  14  15
ENDBRANCH  13  14
ENDBRANCH   2  13
TORSDOF 15
ENDMDL
MODEL 8
REMARK VINA RESULT:    -3.622     14.526     15.903
REMARK INTER + INTRA:          -9.015
REMARK INTER:                  -7.519
REMARK INTRA:                  -1.496
REMARK UNBOUND:                -2.217
REMARK SMILES CCCCCCCCC=CCCCCCCCC(=O)[O-]
REMARK SMILES IDX 10 1 9 2 11 3 12 4 13 5 14 6 15 7 16 8 17 9 18 10 19 11
REMARK SMILES IDX 20 12 8 13 7 14 6 15 5 16 4 17 3 18 2 19 1 20
REMARK H PARENT
REMARK Flexibility Score: inf
ROOT
ATOM      1  C   UNL     1       4.191   8.669  -7.869  1.00  0.00    -0.031 C 
ATOM      2  C   UNL     1       5.243   7.984  -7.396  1.00  0.00    -0.031 C 
ENDROOT
BRANCH   1   3
ATOM      3  C   UNL     1       3.155   8.019  -8.745  1.00  0.00     0.027 C 
BRANCH   3   4
ATOM      4  C   UNL     1       3.492   6.551  -9.048  1.00  0.00     0.004 C 
BRANCH   4   5
ATOM      5  C   UNL     1       2.239   5.727  -9.385  1.00  0.00     0.000 C 
BRANCH   5   6
ATOM      6  C   UNL     1       2.586   4.245  -9.564  1.00  0.00     0.000 C 
BRANCH   6   7
ATOM      7  C   UNL     1       4.093   4.008  -9.401  1.00  0.00     0.000 C 
BRANCH   7   8
ATOM      8  C   UNL     1       4.368   2.896  -8.377  1.00  0.00     0.006 C 
BRANCH   8   9
ATOM      9  C   UNL     1       5.869   2.683  -8.141  1.00  0.00     0.053 C 
BRANCH   9  10
ATOM     10  C   UNL     1       6.371   3.486  -6.981  1.00  0.00     0.041 C 
ATOM     11  O   UNL     1       6.742   4.678  -7.148  1.00  0.00    -0.550 OA
ATOM     12  O   UNL     1       6.381   2.935  -5.706  1.00  0.00    -0.550 OA
ENDBRANCH   9  10
ENDBRANCH   8   9
ENDBRANCH   7   8
ENDBRANCH   6   7
ENDBRANCH   5   6
ENDBRANCH   4   5
ENDBRANCH   3   4
ENDBRANCH   1   3
BRANCH   2  13
ATOM     13  C   UNL     1       6.281   8.640  -6.528  1.00  0.00     0.027 C 
BRANCH  13  14
ATOM     14  C   UNL     1       7.687   8.128  -6.868  1.00  0.00     0.004 C 
BRANCH  14  15
ATOM     15  C   UNL     1       8.694   8.342  -5.725  1.00  0.00     0.000 C 
BRANCH  15  16
ATOM     16  C   UNL     1       8.089   9.049  -4.492  1.00  0.00     0.000 C 
BRANCH  16  17
ATOM     17  C   UNL     1       8.983  10.191  -3.983  1.00  0.00    -0.000 C 
BRANCH  17  18
ATOM     18  C   UNL     1       9.119  11.296  -5.042  1.00  0.00    -0.000 C 
BRANCH  18  19
ATOM     19  C   UNL     1       7.882  12.204  -5.109  1.00  0.00    -0.003 C 
ATOM     20  C   UNL     1       7.190  12.165  -6.472  1.00  0.00     0.004 C 
ENDBRANCH  18  19
ENDBRANCH  17  18
ENDBRANCH  16  17
ENDBRANCH  15  16
ENDBRANCH  14  15
ENDBRANCH  13  14
ENDBRANCH   2  13
TORSDOF 15
ENDMDL
MODEL 9
REMARK VINA RESULT:    -3.622      0.987      2.873
REMARK INTER + INTRA:          -9.014
REMARK INTER:                  -6.995
REMARK INTRA:                  -2.019
REMARK UNBOUND:                -2.217
REMARK SMILES CCCCCCCCC=CCCCCCCCC(=O)[O-]
REMARK SMILES IDX 10 1 9 2 11 3 12 4 13 5 14 6 15 7 16 8 17 9 18 10 19 11
REMARK SMILES IDX 20 12 8 13 7 14 6 15 5 16 4 17 3 18 2 19 1 20
REMARK H PARENT
REMARK Flexibility Score: inf
ROOT
ATOM      1  C   UNL     1       6.055  10.584   7.788  1.00  0.00    -0.031 C 
ATOM      2  C   UNL     1       7.133   9.933   8.249  1.00  0.00    -0.031 C 
ENDROOT
BRANCH   1   3
ATOM      3  C   UNL     1       4.671  10.273   8.290  1.00  0.00     0.027 C 
BRANCH   3   4
ATOM      4  C   UNL     1       4.676   9.818   9.757  1.00  0.00     0.004 C 
BRANCH   4   5
ATOM      5  C   UNL     1       3.794   8.581   9.983  1.00  0.00     0.000 C 
BRANCH   5   6
ATOM      6  C   UNL     1       4.043   7.522   8.904  1.00  0.00     0.000 C 
BRANCH   6   7
ATOM      7  C   UNL     1       4.969   6.414   9.423  1.00  0.00     0.000 C 
BRANCH   7   8
ATOM      8  C   UNL     1       4.238   5.064   9.476  1.00  0.00     0.006 C 
BRANCH   8   9
ATOM      9  C   UNL     1       2.976   5.053   8.602  1.00  0.00     0.053 C 
BRANCH   9  10
ATOM     10  C   UNL     1       3.040   3.994   7.545  1.00  0.00     0.041 C 
ATOM     11  O   UNL     1       3.023   2.776   7.865  1.00  0.00    -0.550 OA
ATOM     12  O   UNL     1       3.067   4.352   6.203  1.00  0.00    -0.550 OA
ENDBRANCH   9  10
ENDBRANCH   8   9
ENDBRANCH   7   8
ENDBRANCH   6   7
ENDBRANCH   5   6
ENDBRANCH   4   5
ENDBRANCH   3   4
ENDBRANCH   1   3
BRANCH   2  13
ATOM     13  C   UNL     1       8.514  10.239   7.739  1.00  0.00     0.027 C 
BRANCH  13  14
ATOM     14  C   UNL     1       8.482  11.384   6.717  1.00  0.00     0.004 C 
BRANCH  14  15
ATOM     15  C   UNL     1       9.312  12.602   7.158  1.00  0.00     0.000 C 
BRANCH  15  16
ATOM     16  C   UNL     1       8.463  13.860   7.441  1.00  0.00     0.000 C 
BRANCH  16  17
ATOM     17  C   UNL     1       7.626  13.718   8.722  1.00  0.00    -0.000 C 
BRANCH  17  18
ATOM     18  C   UNL     1       6.210  14.278   8.519  1.00  0.00    -0.000 C 
BRANCH  18  19
ATOM     19  C   UNL     1       5.833  14.404   7.036  1.00  0.00    -0.003 C 
ATOM     20  C   UNL     1       4.497  13.738   6.705  1.00  0.00     0.004 C 
ENDBRANCH  18  19
ENDBRANCH  17  18
ENDBRANCH  16  17
ENDBRANCH  15  16
ENDBRANCH  14  15
ENDBRANCH  13  14
ENDBRANCH   2  13
TORSDOF 15
ENDMDL
