MODEL 1
REMARK VINA RESULT:    -4.530      0.000      0.000
REMARK INTER + INTRA:          -9.695
REMARK INTER:                  -8.237
REMARK INTRA:                  -1.459
REMARK UNBOUND:                -1.459
REMARK SMILES CCCCCCCCCCCCCC[C@H](C)C(=O)[O-]
REMARK SMILES IDX 9 1 10 2 11 3 12 4 13 5 14 6 15 7 16 8 17 9 18 10 19 11 8 12
REMARK SMILES IDX 7 13 6 14 5 15 4 16 3 17 2 18 1 19
REMARK H PARENT
REMARK Flexibility Score: inf
ROOT
ATOM      1  C   UNL     1      -5.472  -7.101  -7.543  1.00  0.00     0.000 C 
ENDROOT
BRANCH   1   2
ATOM      2  C   UNL     1      -5.726  -8.392  -8.346  1.00  0.00     0.000 C 
BRANCH   2   3
ATOM      3  C   UNL     1      -6.466  -9.486  -7.546  1.00  0.00     0.000 C 
BRANCH   3   4
ATOM      4  C   UNL     1      -7.992  -9.395  -7.697  1.00  0.00     0.000 C 
BRANCH   4   5
ATOM      5  C   UNL     1      -8.639  -8.840  -6.423  1.00  0.00     0.001 C 
BRANCH   5   6
ATOM      6  C   UNL     1      -7.655  -8.878  -5.244  1.00  0.00     0.009 C 
BRANCH   6   7
ATOM      7  C   UNL     1      -8.075  -7.946  -4.086  1.00  0.00     0.032 C 
ATOM      8  C   UNL     1      -7.945  -6.462  -4.456  1.00  0.00     0.014 C 
BRANCH   7   9
ATOM      9  C   UNL     1      -7.236  -8.237  -2.871  1.00  0.00     0.044 C 
ATOM     10  O   UNL     1      -6.014  -7.936  -2.860  1.00  0.00    -0.550 OA
ATOM     11  O   UNL     1      -7.804  -8.837  -1.753  1.00  0.00    -0.550 OA
ENDBRANCH   7   9
ENDBRANCH   6   7
ENDBRANCH   5   6
ENDBRANCH   4   5
ENDBRANCH   3   4
ENDBRANCH   2   3
ENDBRANCH   1   2
BRANCH   1  12
ATOM     12  C   UNL     1      -6.531  -5.998  -7.729  1.00  0.00     0.000 C 
BRANCH  12  13
ATOM     13  C   UNL     1      -6.835  -5.629  -9.193  1.00  0.00    -0.000 C 
BRANCH  13  14
ATOM     14  C   UNL     1      -6.633  -4.136  -9.488  1.00  0.00    -0.000 C 
BRANCH  14  15
ATOM     15  C   UNL     1      -5.861  -3.451  -8.353  1.00  0.00    -0.000 C 
BRANCH  15  16
ATOM     16  C   UNL     1      -6.534  -2.131  -7.949  1.00  0.00    -0.000 C 
BRANCH  16  17
ATOM     17  C   UNL     1      -5.640  -0.902  -8.200  1.00  0.00    -0.000 C 
BRANCH  17  18
ATOM     18  C   UNL     1      -4.929  -0.887  -9.565  1.00  0.00    -0.003 C 
ATOM     19  C   UNL     1      -3.544  -0.245  -9.510  1.00  0.00     0.004 C 
ENDBRANCH  17  18
ENDBRANCH  16  17
ENDBRANCH  15  16
ENDBRANCH  14  15
ENDBRANCH  13  14
ENDBRANCH  12  13
ENDBRANCH   1  12
TORSDOF 14
ENDMDL
MODEL 2
REMARK VINA RESULT:    -4.450     16.820     18.669
REMARK INTER + INTRA:          -9.551
REMARK INTER:                  -7.737
REMARK INTRA:                  -1.813
REMARK UNBOUND:                -1.459
REMARK SMILES CCCCCCCCCCCCCC[C@H](C)C(=O)[O-]
REMARK SMILES IDX 9 1 10 2 11 3 12 4 13 5 14 6 15 7 16 8 17 9 18 10 19 11 8 12
REMARK SMILES IDX 7 13 6 14 5 15 4 16 3 17 2 18 1 19
REMARK H PARENT
REMARK Flexibility Score: inf
ROOT
ATOM      1  C   UNL     1      -1.640   2.514   8.899  1.00  0.00     0.000 C 
ENDROOT
BRANCH   1   2
ATOM      2  C   UNL     1      -2.375   1.221   9.304  1.00  0.00     0.000 C 
BRANCH   2   3
ATOM      3  C   UNL     1      -1.430   0.038   9.604  1.00  0.00     0.000 C 
BRANCH   3   4
ATOM      4  C   UNL     1      -1.192  -0.852   8.374  1.00  0.00     0.000 C 
BRANCH   4   5
ATOM      5  C   UNL     1       0.167  -0.551   7.732  1.00  0.00     0.001 C 
BRANCH   5   6
ATOM      6  C   UNL     1       0.030  -0.371   6.212  1.00  0.00     0.009 C 
BRANCH   6   7
ATOM      7  C   UNL     1      -0.487   1.031   5.822  1.00  0.00     0.032 C 
ATOM      8  C   UNL     1      -1.962   1.011   5.397  1.00  0.00     0.014 C 
BRANCH   7   9
ATOM      9  C   UNL     1       0.351   1.587   4.703  1.00  0.00     0.044 C 
ATOM     10  O   UNL     1      -0.120   2.468   3.938  1.00  0.00    -0.550 OA
ATOM     11  O   UNL     1       1.652   1.134   4.509  1.00  0.00    -0.550 OA
ENDBRANCH   7   9
ENDBRANCH   6   7
ENDBRANCH   5   6
ENDBRANCH   4   5
ENDBRANCH   3   4
ENDBRANCH   2   3
ENDBRANCH   1   2
BRANCH   1  12
ATOM     12  C   UNL     1      -0.718   3.107   9.980  1.00  0.00     0.000 C 
BRANCH  12  13
ATOM     13  C   UNL     1       0.634   3.634   9.463  1.00  0.00    -0.000 C 
BRANCH  13  14
ATOM     14  C   UNL     1       1.010   3.068   8.086  1.00  0.00    -0.000 C 
BRANCH  14  15
ATOM     15  C   UNL     1       2.079   3.935   7.409  1.00  0.00    -0.000 C 
BRANCH  15  16
ATOM     16  C   UNL     1       2.414   5.164   8.266  1.00  0.00    -0.000 C 
BRANCH  16  17
ATOM     17  C   UNL     1       3.899   5.227   8.669  1.00  0.00    -0.000 C 
BRANCH  17  18
ATOM     18  C   UNL     1       4.574   6.591   8.439  1.00  0.00    -0.003 C 
ATOM     19  C   UNL     1       4.070   7.304   7.185  1.00  0.00     0.004 C 
ENDBRANCH  17  18
ENDBRANCH  16  17
ENDBRANCH  15  16
ENDBRANCH  14  15
ENDBRANCH  13  14
ENDBRANCH  12  13
ENDBRANCH   1  12
TORSDOF 14
ENDMDL
MODEL 3
REMARK VINA RESULT:    -4.337     17.131     18.702
REMARK INTER + INTRA:          -9.344
REMARK INTER:                  -7.997
REMARK INTRA:                  -1.347
REMARK UNBOUND:                -1.459
REMARK SMILES CCCCCCCCCCCCCC[C@H](C)C(=O)[O-]
REMARK SMILES IDX 9 1 10 2 11 3 12 4 13 5 14 6 15 7 16 8 17 9 18 10 19 11 8 12
REMARK SMILES IDX 7 13 6 14 5 15 4 16 3 17 2 18 1 19
REMARK H PARENT
REMARK Flexibility Score: inf
ROOT
ATOM      1  C   UNL     1       1.378   2.455   6.138  1.00  0.00     0.000 C 
ENDROOT
BRANCH   1   2
ATOM      2  C   UNL     1       0.784   1.224   5.427  1.00  0.00     0.000 C 
BRANCH   2   3
ATOM      3  C   UNL     1      -0.601   1.479   4.795  1.00  0.00     0.000 C 
BRANCH   3   4
ATOM      4  C   UNL     1      -1.720   0.686   5.487  1.00  0.00     0.000 C 
BRANCH   4   5
ATOM      5  C   UNL     1      -2.336   1.492   6.637  1.00  0.00     0.001 C 
BRANCH   5   6
ATOM      6  C   UNL     1      -2.017   0.846   7.994  1.00  0.00     0.009 C 
BRANCH   6   7
ATOM      7  C   UNL     1      -1.621  -0.642   7.869  1.00  0.00     0.032 C 
ATOM      8  C   UNL     1      -2.722  -1.581   8.380  1.00  0.00     0.014 C 
BRANCH   7   9
ATOM      9  C   UNL     1      -0.350  -0.894   8.633  1.00  0.00     0.044 C 
ATOM     10  O   UNL     1       0.749  -0.973   8.024  1.00  0.00    -0.550 OA
ATOM     11  O   UNL     1      -0.379  -1.037  10.016  1.00  0.00    -0.550 OA
ENDBRANCH   7   9
ENDBRANCH   6   7
ENDBRANCH   5   6
ENDBRANCH   4   5
ENDBRANCH   3   4
ENDBRANCH   2   3
ENDBRANCH   1   2
BRANCH   1  12
ATOM     12  C   UNL     1       0.945   2.635   7.604  1.00  0.00     0.000 C 
BRANCH  12  13
ATOM     13  C   UNL     1       1.647   3.783   8.354  1.00  0.00    -0.000 C 
BRANCH  13  14
ATOM     14  C   UNL     1       2.660   4.537   7.479  1.00  0.00    -0.000 C 
BRANCH  14  15
ATOM     15  C   UNL     1       3.207   5.769   8.211  1.00  0.00    -0.000 C 
BRANCH  15  16
ATOM     16  C   UNL     1       4.289   5.370   9.225  1.00  0.00    -0.000 C 
BRANCH  16  17
ATOM     17  C   UNL     1       5.560   6.233   9.116  1.00  0.00    -0.000 C 
BRANCH  17  18
ATOM     18  C   UNL     1       5.424   7.473   8.214  1.00  0.00    -0.003 C 
ATOM     19  C   UNL     1       6.490   7.537   7.121  1.00  0.00     0.004 C 
ENDBRANCH  17  18
ENDBRANCH  16  17
ENDBRANCH  15  16
ENDBRANCH  14  15
ENDBRANCH  13  14
ENDBRANCH  12  13
ENDBRANCH   1  12
TORSDOF 14
ENDMDL
MODEL 4
REMARK VINA RESULT:    -4.251     17.394     19.746
REMARK INTER + INTRA:          -9.189
REMARK INTER:                  -7.186
REMARK INTRA:                  -2.004
REMARK UNBOUND:                -1.459
REMARK SMILES CCCCCCCCCCCCCC[C@H](C)C(=O)[O-]
REMARK SMILES IDX 9 1 10 2 11 3 12 4 13 5 14 6 15 7 16 8 17 9 18 10 19 11 8 12
REMARK SMILES IDX 7 13 6 14 5 15 4 16 3 17 2 18 1 19
REMARK H PARENT
REMARK Flexibility Score: inf
ROOT
ATOM      1  C   UNL     1      -1.676   1.996   8.712  1.00  0.00     0.000 C 
ENDROOT
BRANCH   1   2
ATOM      2  C   UNL     1      -0.883   2.712   9.823  1.00  0.00     0.000 C 
BRANCH   2   3
ATOM      3  C   UNL     1       0.427   3.363   9.331  1.00  0.00     0.000 C 
BRANCH   3   4
ATOM      4  C   UNL     1       0.887   2.809   7.974  1.00  0.00     0.000 C 
BRANCH   4   5
ATOM      5  C   UNL     1       1.928   3.729   7.327  1.00  0.00     0.001 C 
BRANCH   5   6
ATOM      6  C   UNL     1       2.251   4.923   8.239  1.00  0.00     0.009 C 
BRANCH   6   7
ATOM      7  C   UNL     1       3.620   5.563   7.923  1.00  0.00     0.032 C 
ATOM      8  C   UNL     1       4.648   5.318   9.036  1.00  0.00     0.014 C 
BRANCH   7   9
ATOM      9  C   UNL     1       3.452   7.042   7.711  1.00  0.00     0.044 C 
ATOM     10  O   UNL     1       2.561   7.674   8.338  1.00  0.00    -0.550 OA
ATOM     11  O   UNL     1       4.279   7.723   6.824  1.00  0.00    -0.550 OA
ENDBRANCH   7   9
ENDBRANCH   6   7
ENDBRANCH   5   6
ENDBRANCH   4   5
ENDBRANCH   3   4
ENDBRANCH   2   3
ENDBRANCH   1   2
BRANCH   1  12
ATOM     12  C   UNL     1      -2.333   0.668   9.131  1.00  0.00     0.000 C 
BRANCH  12  13
ATOM     13  C   UNL     1      -1.897  -0.560   8.311  1.00  0.00    -0.000 C 
BRANCH  13  14
ATOM     14  C   UNL     1      -0.602  -1.200   8.832  1.00  0.00    -0.000 C 
BRANCH  14  15
ATOM     15  C   UNL     1       0.563  -0.948   7.866  1.00  0.00    -0.000 C 
BRANCH  15  16
ATOM     16  C   UNL     1       0.065  -0.866   6.415  1.00  0.00    -0.000 C 
BRANCH  16  17
ATOM     17  C   UNL     1       0.922   0.067   5.540  1.00  0.00    -0.000 C 
BRANCH  17  18
ATOM     18  C   UNL     1       0.123   0.988   4.601  1.00  0.00    -0.003 C 
ATOM     19  C   UNL     1      -1.237   1.389   5.170  1.00  0.00     0.004 C 
ENDBRANCH  17  18
ENDBRANCH  16  17
ENDBRANCH  15  16
ENDBRANCH  14  15
ENDBRANCH  13  14
ENDBRANCH  12  13
ENDBRANCH   1  12
TORSDOF 14
ENDMDL
MODEL 5
REMARK VINA RESULT:    -4.179     18.062     20.709
REMARK INTER + INTRA:          -9.058
REMARK INTER:                  -7.733
REMARK INTRA:                  -1.325
REMARK UNBOUND:                -1.459
REMARK SMILES CCCCCCCCCCCCCC[C@H](C)C(=O)[O-]
REMARK SMILES IDX 9 1 10 2 11 3 12 4 13 5 14 6 15 7 16 8 17 9 18 10 19 11 8 12
REMARK SMILES IDX 7 13 6 14 5 15 4 16 3 17 2 18 1 19
REMARK H PARENT
REMARK Flexibility Score: inf
ROOT
ATOM      1  C   UNL     1       0.954   2.867   7.750  1.00  0.00     0.000 C 
ENDROOT
BRANCH   1   2
ATOM      2  C   UNL     1       2.044   3.861   7.303  1.00  0.00     0.000 C 
BRANCH   2   3
ATOM      3  C   UNL     1       2.405   4.910   8.376  1.00  0.00     0.000 C 
BRANCH   3   4
ATOM      4  C   UNL     1       3.369   5.984   7.850  1.00  0.00     0.000 C 
BRANCH   4   5
ATOM      5  C   UNL     1       2.773   7.387   8.012  1.00  0.00     0.001 C 
BRANCH   5   6
ATOM      6  C   UNL     1       3.643   8.439   7.306  1.00  0.00     0.009 C 
BRANCH   6   7
ATOM      7  C   UNL     1       4.909   7.833   6.663  1.00  0.00     0.032 C 
ATOM      8  C   UNL     1       6.189   8.228   7.413  1.00  0.00     0.014 C 
BRANCH   7   9
ATOM      9  C   UNL     1       5.010   8.274   5.228  1.00  0.00     0.044 C 
ATOM     10  O   UNL     1       4.163   9.074   4.752  1.00  0.00    -0.550 OA
ATOM     11  O   UNL     1       6.041   7.806   4.421  1.00  0.00    -0.550 OA
ENDBRANCH   7   9
ENDBRANCH   6   7
ENDBRANCH   5   6
ENDBRANCH   4   5
ENDBRANCH   3   4
ENDBRANCH   2   3
ENDBRANCH   1   2
BRANCH   1  12
ATOM     12  C   UNL     1       0.305   3.178   9.111  1.00  0.00     0.000 C 
BRANCH  12  13
ATOM     13  C   UNL     1      -0.938   2.332   9.446  1.00  0.00    -0.000 C 
BRANCH  13  14
ATOM     14  C   UNL     1      -1.844   2.091   8.230  1.00  0.00    -0.000 C 
BRANCH  14  15
ATOM     15  C   UNL     1      -2.177   0.601   8.081  1.00  0.00    -0.000 C 
BRANCH  15  16
ATOM     16  C   UNL     1      -1.776   0.085   6.691  1.00  0.00    -0.000 C 
BRANCH  16  17
ATOM     17  C   UNL     1      -1.835   1.176   5.607  1.00  0.00    -0.000 C 
BRANCH  17  18
ATOM     18  C   UNL     1      -0.550   1.330   4.773  1.00  0.00    -0.003 C 
ATOM     19  C   UNL     1       0.549   0.351   5.183  1.00  0.00     0.004 C 
ENDBRANCH  17  18
ENDBRANCH  16  17
ENDBRANCH  15  16
ENDBRANCH  14  15
ENDBRANCH  13  14
ENDBRANCH  12  13
ENDBRANCH   1  12
TORSDOF 14
ENDMDL
MODEL 6
REMARK VINA RESULT:    -4.149     18.398     21.104
REMARK INTER + INTRA:          -9.003
REMARK INTER:                  -8.116
REMARK INTRA:                  -0.887
REMARK UNBOUND:                -1.459
REMARK SMILES CCCCCCCCCCCCCC[C@H](C)C(=O)[O-]
REMARK SMILES IDX 9 1 10 2 11 3 12 4 13 5 14 6 15 7 16 8 17 9 18 10 19 11 8 12
REMARK SMILES IDX 7 13 6 14 5 15 4 16 3 17 2 18 1 19
REMARK H PARENT
REMARK Flexibility Score: inf
ROOT
ATOM      1  C   UNL     1       2.115   3.818   7.117  1.00  0.00     0.000 C 
ENDROOT
BRANCH   1   2
ATOM      2  C   UNL     1       2.089   4.571   8.462  1.00  0.00     0.000 C 
BRANCH   2   3
ATOM      3  C   UNL     1       3.105   5.730   8.544  1.00  0.00     0.000 C 
BRANCH   3   4
ATOM      4  C   UNL     1       4.406   5.324   9.253  1.00  0.00     0.000 C 
BRANCH   4   5
ATOM      5  C   UNL     1       5.511   6.359   9.013  1.00  0.00     0.001 C 
BRANCH   5   6
ATOM      6  C   UNL     1       5.226   7.186   7.749  1.00  0.00     0.009 C 
BRANCH   6   7
ATOM      7  C   UNL     1       6.514   7.703   7.072  1.00  0.00     0.032 C 
ATOM      8  C   UNL     1       7.030   8.998   7.715  1.00  0.00     0.014 C 
BRANCH   7   9
ATOM      9  C   UNL     1       6.257   7.937   5.608  1.00  0.00     0.044 C 
ATOM     10  O   UNL     1       5.088   7.854   5.149  1.00  0.00    -0.550 OA
ATOM     11  O   UNL     1       7.308   8.250   4.752  1.00  0.00    -0.550 OA
ENDBRANCH   7   9
ENDBRANCH   6   7
ENDBRANCH   5   6
ENDBRANCH   4   5
ENDBRANCH   3   4
ENDBRANCH   2   3
ENDBRANCH   1   2
BRANCH   1  12
ATOM     12  C   UNL     1       1.145   2.626   7.017  1.00  0.00     0.000 C 
BRANCH  12  13
ATOM     13  C   UNL     1       1.183   1.868   5.677  1.00  0.00    -0.000 C 
BRANCH  13  14
ATOM     14  C   UNL     1       0.168   0.718   5.612  1.00  0.00    -0.000 C 
BRANCH  14  15
ATOM     15  C   UNL     1      -1.212   1.226   5.175  1.00  0.00    -0.000 C 
BRANCH  15  16
ATOM     16  C   UNL     1      -2.315   0.676   6.089  1.00  0.00    -0.000 C 
BRANCH  16  17
ATOM     17  C   UNL     1      -2.010   0.878   7.585  1.00  0.00    -0.000 C 
BRANCH  17  18
ATOM     18  C   UNL     1      -2.185  -0.379   8.456  1.00  0.00    -0.003 C 
ATOM     19  C   UNL     1      -1.398  -1.581   7.937  1.00  0.00     0.004 C 
ENDBRANCH  17  18
ENDBRANCH  16  17
ENDBRANCH  15  16
ENDBRANCH  14  15
ENDBRANCH  13  14
ENDBRANCH  12  13
ENDBRANCH   1  12
TORSDOF 14
ENDMDL
MODEL 7
REMARK VINA RESULT:    -4.135     18.145     20.519
REMARK INTER + INTRA:          -8.977
REMARK INTER:                  -7.514
REMARK INTRA:                  -1.463
REMARK UNBOUND:                -1.459
REMARK SMILES CCCCCCCCCCCCCC[C@H](C)C(=O)[O-]
REMARK SMILES IDX 9 1 10 2 11 3 12 4 13 5 14 6 15 7 16 8 17 9 18 10 19 11 8 12
REMARK SMILES IDX 7 13 6 14 5 15 4 16 3 17 2 18 1 19
REMARK H PARENT
REMARK Flexibility Score: inf
ROOT
ATOM      1  C   UNL     1       1.103   2.301   6.389  1.00  0.00     0.000 C 
ENDROOT
BRANCH   1   2
ATOM      2  C   UNL     1       0.681   2.555   7.849  1.00  0.00     0.000 C 
BRANCH   2   3
ATOM      3  C   UNL     1       1.481   3.680   8.540  1.00  0.00     0.000 C 
BRANCH   3   4
ATOM      4  C   UNL     1       2.433   4.403   7.576  1.00  0.00     0.000 C 
BRANCH   4   5
ATOM      5  C   UNL     1       2.339   5.924   7.747  1.00  0.00     0.001 C 
BRANCH   5   6
ATOM      6  C   UNL     1       3.258   6.408   8.880  1.00  0.00     0.009 C 
BRANCH   6   7
ATOM      7  C   UNL     1       4.743   6.068   8.629  1.00  0.00     0.032 C 
ATOM      8  C   UNL     1       5.423   5.480   9.873  1.00  0.00     0.014 C 
BRANCH   7   9
ATOM      9  C   UNL     1       5.479   7.305   8.192  1.00  0.00     0.044 C 
ATOM     10  O   UNL     1       5.064   8.443   8.534  1.00  0.00    -0.550 OA
ATOM     11  O   UNL     1       6.625   7.200   7.410  1.00  0.00    -0.550 OA
ENDBRANCH   7   9
ENDBRANCH   6   7
ENDBRANCH   5   6
ENDBRANCH   4   5
ENDBRANCH   3   4
ENDBRANCH   2   3
ENDBRANCH   1   2
BRANCH   1  12
ATOM     12  C   UNL     1       0.398   1.116   5.702  1.00  0.00     0.000 C 
BRANCH  12  13
ATOM     13  C   UNL     1      -1.026   1.411   5.196  1.00  0.00    -0.000 C 
BRANCH  13  14
ATOM     14  C   UNL     1      -2.117   0.925   6.161  1.00  0.00    -0.000 C 
BRANCH  14  15
ATOM     15  C   UNL     1      -1.652  -0.314   6.936  1.00  0.00    -0.000 C 
BRANCH  15  16
ATOM     16  C   UNL     1      -2.479  -0.504   8.216  1.00  0.00    -0.000 C 
BRANCH  16  17
ATOM     17  C   UNL     1      -1.900   0.257   9.423  1.00  0.00    -0.000 C 
BRANCH  17  18
ATOM     18  C   UNL     1      -2.832   1.326  10.021  1.00  0.00    -0.003 C 
ATOM     19  C   UNL     1      -2.663   2.698   9.371  1.00  0.00     0.004 C 
ENDBRANCH  17  18
ENDBRANCH  16  17
ENDBRANCH  15  16
ENDBRANCH  14  15
ENDBRANCH  13  14
ENDBRANCH  12  13
ENDBRANCH   1  12
TORSDOF 14
ENDMDL
MODEL 8
REMARK VINA RESULT:    -4.120     16.791     18.442
REMARK INTER + INTRA:          -8.951
REMARK INTER:                  -7.612
REMARK INTRA:                  -1.339
REMARK UNBOUND:                -1.459
REMARK SMILES CCCCCCCCCCCCCC[C@H](C)C(=O)[O-]
REMARK SMILES IDX 9 1 10 2 11 3 12 4 13 5 14 6 15 7 16 8 17 9 18 10 19 11 8 12
REMARK SMILES IDX 7 13 6 14 5 15 4 16 3 17 2 18 1 19
REMARK H PARENT
REMARK Flexibility Score: inf
ROOT
ATOM      1  C   UNL     1       0.996   1.921   6.056  1.00  0.00     0.000 C 
ENDROOT
BRANCH   1   2
ATOM      2  C   UNL     1       0.000   1.011   5.310  1.00  0.00     0.000 C 
BRANCH   2   3
ATOM      3  C   UNL     1      -1.473   1.248   5.704  1.00  0.00     0.000 C 
BRANCH   3   4
ATOM      4  C   UNL     1      -2.051   0.097   6.542  1.00  0.00     0.000 C 
BRANCH   4   5
ATOM      5  C   UNL     1      -2.318   0.545   7.984  1.00  0.00     0.001 C 
BRANCH   5   6
ATOM      6  C   UNL     1      -1.820  -0.505   8.988  1.00  0.00     0.009 C 
BRANCH   6   7
ATOM      7  C   UNL     1      -1.175  -1.729   8.301  1.00  0.00     0.032 C 
ATOM      8  C   UNL     1      -1.907  -3.036   8.635  1.00  0.00     0.014 C 
BRANCH   7   9
ATOM      9  C   UNL     1       0.267  -1.841   8.714  1.00  0.00     0.044 C 
ATOM     10  O   UNL     1       1.112  -1.008   8.293  1.00  0.00    -0.550 OA
ATOM     11  O   UNL     1       0.676  -2.861   9.566  1.00  0.00    -0.550 OA
ENDBRANCH   7   9
ENDBRANCH   6   7
ENDBRANCH   5   6
ENDBRANCH   4   5
ENDBRANCH   3   4
ENDBRANCH   2   3
ENDBRANCH   1   2
BRANCH   1  12
ATOM     12  C   UNL     1       0.684   2.145   7.547  1.00  0.00     0.000 C 
BRANCH  12  13
ATOM     13  C   UNL     1       1.241   3.453   8.138  1.00  0.00    -0.000 C 
BRANCH  13  14
ATOM     14  C   UNL     1       2.289   4.120   7.235  1.00  0.00    -0.000 C 
BRANCH  14  15
ATOM     15  C   UNL     1       3.123   5.140   8.021  1.00  0.00    -0.000 C 
BRANCH  15  16
ATOM     16  C   UNL     1       2.634   5.248   9.472  1.00  0.00    -0.000 C 
BRANCH  16  17
ATOM     17  C   UNL     1       2.379   6.701   9.912  1.00  0.00    -0.000 C 
BRANCH  17  18
ATOM     18  C   UNL     1       1.061   7.309   9.400  1.00  0.00    -0.003 C 
ATOM     19  C   UNL     1       1.244   8.169   8.151  1.00  0.00     0.004 C 
ENDBRANCH  17  18
ENDBRANCH  16  17
ENDBRANCH  15  16
ENDBRANCH  14  15
ENDBRANCH  13  14
ENDBRANCH  12  13
ENDBRANCH   1  12
TORSDOF 14
ENDMDL
MODEL 9
REMARK VINA RESULT:    -4.092     17.639     19.390
REMARK INTER + INTRA:          -8.899
REMARK INTER:                  -7.851
REMARK INTRA:                  -1.048
REMARK UNBOUND:                -1.459
REMARK SMILES CCCCCCCCCCCCCC[C@H](C)C(=O)[O-]
REMARK SMILES IDX 9 1 10 2 11 3 12 4 13 5 14 6 15 7 16 8 17 9 18 10 19 11 8 12
REMARK SMILES IDX 7 13 6 14 5 15 4 16 3 17 2 18 1 19
REMARK H PARENT
REMARK Flexibility Score: inf
ROOT
ATOM      1  C   UNL     1       0.834   2.985   8.067  1.00  0.00     0.000 C 
ENDROOT
BRANCH   1   2
ATOM      2  C   UNL     1      -0.376   2.552   8.918  1.00  0.00     0.000 C 
BRANCH   2   3
ATOM      3  C   UNL     1      -1.630   2.210   8.086  1.00  0.00     0.000 C 
BRANCH   3   4
ATOM      4  C   UNL     1      -1.981   0.716   8.136  1.00  0.00     0.000 C 
BRANCH   4   5
ATOM      5  C   UNL     1      -2.255   0.167   6.730  1.00  0.00     0.001 C 
BRANCH   5   6
ATOM      6  C   UNL     1      -1.591   1.044   5.658  1.00  0.00     0.009 C 
BRANCH   6   7
ATOM      7  C   UNL     1      -0.304   0.412   5.083  1.00  0.00     0.032 C 
ATOM      8  C   UNL     1       0.490  -0.359   6.146  1.00  0.00     0.014 C 
BRANCH   7   9
ATOM      9  C   UNL     1       0.565   1.485   4.486  1.00  0.00     0.044 C 
ATOM     10  O   UNL     1       1.818   1.406   4.575  1.00  0.00    -0.550 OA
ATOM     11  O   UNL     1      -0.009   2.569   3.831  1.00  0.00    -0.550 OA
ENDBRANCH   7   9
ENDBRANCH   6   7
ENDBRANCH   5   6
ENDBRANCH   4   5
ENDBRANCH   3   4
ENDBRANCH   2   3
ENDBRANCH   1   2
BRANCH   1  12
ATOM     12  C   UNL     1       1.698   4.102   8.681  1.00  0.00     0.000 C 
BRANCH  12  13
ATOM     13  C   UNL     1       2.737   4.719   7.727  1.00  0.00    -0.000 C 
BRANCH  13  14
ATOM     14  C   UNL     1       3.596   5.802   8.396  1.00  0.00    -0.000 C 
BRANCH  14  15
ATOM     15  C   UNL     1       4.916   5.215   8.911  1.00  0.00    -0.000 C 
BRANCH  15  16
ATOM     16  C   UNL     1       5.727   6.273   9.674  1.00  0.00    -0.000 C 
BRANCH  16  17
ATOM     17  C   UNL     1       5.891   7.586   8.886  1.00  0.00    -0.000 C 
BRANCH  17  18
ATOM     18  C   UNL     1       6.987   7.560   7.806  1.00  0.00    -0.003 C 
ATOM     19  C   UNL     1       6.450   7.838   6.403  1.00  0.00     0.004 C 
ENDBRANCH  17  18
ENDBRANCH  16  17
ENDBRANCH  15  16
ENDBRANCH  14  15
ENDBRANCH  13  14
ENDBRANCH  12  13
ENDBRANCH   1  12
TORSDOF 14
ENDMDL
