MODEL 1
REMARK VINA RESULT:    -3.238      0.000      0.000
REMARK INTER + INTRA:          -4.348
REMARK INTER:                  -4.942
REMARK INTRA:                   0.593
REMARK UNBOUND:                 0.593
REMARK SMILES CC1=CCC[C@@H](C)C(=O)C[C@@H](C(C)C)C(=O)C1
REMARK SMILES IDX 8 1 9 2 6 3 7 4 5 5 4 6 3 7 2 8 1 9 10 11 11 12 15 13 16 14
REMARK SMILES IDX 17 15 12 17 13 18 14 19
REMARK H PARENT
REMARK Flexibility Score: 70.00
ROOT
ATOM      1  C   UNL     1       7.603 -32.628  16.436  1.00  0.00     0.136 C 
ATOM      2  O   UNL     1       6.585 -32.264  15.866  1.00  0.00    -0.299 OA
ENDROOT
BRANCH   1   3
ATOM      3  C   UNL     1       7.613 -32.674  17.955  1.00  0.00     0.053 C 
ATOM      4  C   UNL     1       8.952 -32.128  18.468  1.00  0.00     0.016 C 
BRANCH   3   5
ATOM      5  C   UNL     1       7.347 -34.091  18.529  1.00  0.00     0.015 C 
BRANCH   5   6
ATOM      6  C   UNL     1       7.828 -35.275  17.664  1.00  0.00     0.028 C 
BRANCH   6   7
ATOM      7  C   UNL     1       6.790 -35.948  16.797  1.00  0.00    -0.028 C 
ATOM      8  C   UNL     1       6.932 -36.269  15.491  1.00  0.00    -0.070 CG0
ATOM      9  C   UNL     1       5.876 -37.161  14.881  1.00  0.00     0.039 C 
ATOM     10  G   UNL     1       8.116 -35.831  14.643  1.00  0.00     0.000 G0
ENDBRANCH   6   7
ENDBRANCH   5   6
ENDBRANCH   3   5
ENDBRANCH   1   3
BRANCH   1  11
ATOM     11  C   UNL     1       8.856 -32.878  15.624  1.00  0.00     0.087 C 
BRANCH  11  12
ATOM     12  C   UNL     1       8.598 -33.236  14.136  1.00  0.00     0.066 C 
BRANCH  12  13
ATOM     13  C   UNL     1       7.856 -34.549  13.889  1.00  0.00     0.140 C 
ATOM     14  O   UNL     1       7.000 -34.564  13.017  1.00  0.00    -0.299 OA
BRANCH  13  15
ATOM     15  C   UNL     1       8.120 -35.836  14.646  1.00  0.00     0.106 CG0
ATOM     16  G   UNL     1       6.916 -36.238  15.483  1.00  0.00     0.000 G0
ENDBRANCH  13  15
ENDBRANCH  12  13
BRANCH  12  17
ATOM     17  C   UNL     1       9.924 -33.150  13.313  1.00  0.00    -0.006 C 
ATOM     18  C   UNL     1      10.922 -32.123  13.877  1.00  0.00     0.008 C 
ATOM     19  C   UNL     1      10.605 -34.521  13.171  1.00  0.00     0.008 C 
ENDBRANCH  12  17
ENDBRANCH  11  12
ENDBRANCH   1  11
TORSDOF 1
ENDMDL
MODEL 2
REMARK VINA RESULT:    -3.119      1.914      4.727
REMARK INTER + INTRA:          -4.167
REMARK INTER:                  -4.334
REMARK INTRA:                   0.167
REMARK UNBOUND:                 0.593
REMARK SMILES CC1=CCC[C@@H](C)C(=O)C[C@@H](C(C)C)C(=O)C1
REMARK SMILES IDX 8 1 9 2 6 3 7 4 5 5 4 6 3 7 2 8 1 9 10 11 11 12 15 13 16 14
REMARK SMILES IDX 17 15 12 17 13 18 14 19
REMARK H PARENT
REMARK Flexibility Score: 70.00
ROOT
ATOM      1  C   UNL     1       7.281 -36.093  16.962  1.00  0.00     0.136 C 
ATOM      2  O   UNL     1       7.025 -36.735  17.970  1.00  0.00    -0.299 OA
ENDROOT
BRANCH   1   3
ATOM      3  C   UNL     1       6.651 -36.517  15.646  1.00  0.00     0.053 C 
ATOM      4  C   UNL     1       6.009 -37.901  15.816  1.00  0.00     0.016 C 
BRANCH   3   5
ATOM      5  C   UNL     1       7.651 -36.523  14.459  1.00  0.00     0.015 C 
BRANCH   5   6
ATOM      6  C   UNL     1       7.443 -35.429  13.390  1.00  0.00     0.028 C 
BRANCH   6   7
ATOM      7  C   UNL     1       8.668 -34.657  12.961  1.00  0.00    -0.028 C 
ATOM      8  C   UNL     1       9.043 -33.441  13.420  1.00  0.00    -0.070 CG0
ATOM      9  C   UNL     1      10.427 -32.961  13.053  1.00  0.00     0.039 C 
ATOM     10  G   UNL     1       8.171 -32.580  14.322  1.00  0.00     0.000 G0
ENDBRANCH   6   7
ENDBRANCH   5   6
ENDBRANCH   3   5
ENDBRANCH   1   3
BRANCH   1  11
ATOM     11  C   UNL     1       8.323 -34.996  17.029  1.00  0.00     0.087 C 
BRANCH  11  12
ATOM     12  C   UNL     1       7.769 -33.566  16.788  1.00  0.00     0.066 C 
BRANCH  12  13
ATOM     13  C   UNL     1       8.538 -32.719  15.775  1.00  0.00     0.140 C 
ATOM     14  O   UNL     1       9.527 -32.119  16.169  1.00  0.00    -0.299 OA
BRANCH  13  15
ATOM     15  C   UNL     1       8.160 -32.581  14.314  1.00  0.00     0.106 CG0
ATOM     16  G   UNL     1       9.062 -33.428  13.430  1.00  0.00     0.000 G0
ENDBRANCH  13  15
ENDBRANCH  12  13
BRANCH  12  17
ATOM     17  C   UNL     1       7.574 -32.818  18.147  1.00  0.00    -0.006 C 
ATOM     18  C   UNL     1       6.458 -31.759  18.101  1.00  0.00     0.008 C 
ATOM     19  C   UNL     1       7.328 -33.791  19.312  1.00  0.00     0.008 C 
ENDBRANCH  12  17
ENDBRANCH  11  12
ENDBRANCH   1  11
TORSDOF 1
ENDMDL
MODEL 3
REMARK VINA RESULT:    -3.095      1.686      3.870
REMARK INTER + INTRA:          -4.130
REMARK INTER:                  -4.344
REMARK INTRA:                   0.214
REMARK UNBOUND:                 0.593
REMARK SMILES CC1=CCC[C@@H](C)C(=O)C[C@@H](C(C)C)C(=O)C1
REMARK SMILES IDX 8 1 9 2 6 3 7 4 5 5 4 6 3 7 2 8 1 9 10 11 11 12 15 13 16 14
REMARK SMILES IDX 17 15 12 17 13 18 14 19
REMARK H PARENT
REMARK Flexibility Score: 70.00
ROOT
ATOM      1  C   UNL     1       6.995 -34.557  17.412  1.00  0.00     0.136 C 
ATOM      2  O   UNL     1       7.562 -35.389  18.106  1.00  0.00    -0.299 OA
ENDROOT
BRANCH   1   3
ATOM      3  C   UNL     1       7.222 -33.083  17.704  1.00  0.00     0.053 C 
ATOM      4  C   UNL     1       6.201 -32.250  16.919  1.00  0.00     0.016 C 
BRANCH   3   5
ATOM      5  C   UNL     1       8.667 -32.611  17.391  1.00  0.00     0.015 C 
BRANCH   5   6
ATOM      6  C   UNL     1       8.955 -32.238  15.920  1.00  0.00     0.028 C 
BRANCH   6   7
ATOM      7  C   UNL     1       9.518 -33.330  15.041  1.00  0.00    -0.028 C 
ATOM      8  C   UNL     1       8.893 -33.903  13.987  1.00  0.00    -0.070 CG0
ATOM      9  C   UNL     1       9.724 -34.791  13.092  1.00  0.00     0.039 C 
ATOM     10  G   UNL     1       7.435 -33.647  13.636  1.00  0.00     0.000 G0
ENDBRANCH   6   7
ENDBRANCH   5   6
ENDBRANCH   3   5
ENDBRANCH   1   3
BRANCH   1  11
ATOM     11  C   UNL     1       5.978 -35.019  16.388  1.00  0.00     0.087 C 
BRANCH  11  12
ATOM     12  C   UNL     1       6.589 -35.724  15.148  1.00  0.00     0.066 C 
BRANCH  12  13
ATOM     13  C   UNL     1       6.598 -34.905  13.857  1.00  0.00     0.140 C 
ATOM     14  O   UNL     1       5.876 -35.276  12.943  1.00  0.00    -0.299 OA
BRANCH  13  15
ATOM     15  C   UNL     1       7.433 -33.659  13.639  1.00  0.00     0.106 CG0
ATOM     16  G   UNL     1       8.894 -33.911  13.976  1.00  0.00     0.000 G0
ENDBRANCH  13  15
ENDBRANCH  12  13
BRANCH  12  17
ATOM     17  C   UNL     1       5.941 -37.131  14.943  1.00  0.00    -0.006 C 
ATOM     18  C   UNL     1       6.558 -37.917  13.771  1.00  0.00     0.008 C 
ATOM     19  C   UNL     1       5.983 -37.979  16.224  1.00  0.00     0.008 C 
ENDBRANCH  12  17
ENDBRANCH  11  12
ENDBRANCH   1  11
TORSDOF 1
ENDMDL
MODEL 4
REMARK VINA RESULT:    -2.041      1.747      3.769
REMARK INTER + INTRA:          -2.521
REMARK INTER:                  -2.920
REMARK INTRA:                   0.399
REMARK UNBOUND:                 0.593
REMARK SMILES CC1=CCC[C@@H](C)C(=O)C[C@@H](C(C)C)C(=O)C1
REMARK SMILES IDX 8 1 9 2 6 3 7 4 5 5 4 6 3 7 2 8 1 9 10 11 11 12 15 13 16 14
REMARK SMILES IDX 17 15 12 17 13 18 14 19
REMARK H PARENT
REMARK Flexibility Score: 70.00
ROOT
ATOM      1  C   UNL     1       6.990 -34.097  16.882  1.00  0.00     0.136 C 
ATOM      2  O   UNL     1       6.205 -33.162  16.940  1.00  0.00    -0.299 OA
ENDROOT
BRANCH   1   3
ATOM      3  C   UNL     1       6.438 -35.511  16.809  1.00  0.00     0.053 C 
ATOM      4  C   UNL     1       7.282 -36.430  17.702  1.00  0.00     0.016 C 
BRANCH   3   5
ATOM      5  C   UNL     1       6.369 -36.070  15.363  1.00  0.00     0.015 C 
BRANCH   5   6
ATOM      6  C   UNL     1       6.676 -35.066  14.231  1.00  0.00     0.028 C 
BRANCH   6   7
ATOM      7  C   UNL     1       8.000 -35.225  13.522  1.00  0.00    -0.028 C 
ATOM      8  C   UNL     1       8.959 -34.278  13.406  1.00  0.00    -0.070 CG0
ATOM      9  C   UNL     1      10.304 -34.720  12.881  1.00  0.00     0.039 C 
ATOM     10  G   UNL     1       8.763 -32.831  13.829  1.00  0.00     0.000 G0
ENDBRANCH   6   7
ENDBRANCH   5   6
ENDBRANCH   3   5
ENDBRANCH   1   3
BRANCH   1  11
ATOM     11  C   UNL     1       8.473 -33.828  17.032  1.00  0.00     0.087 C 
BRANCH  11  12
ATOM     12  C   UNL     1       8.937 -32.457  16.473  1.00  0.00     0.066 C 
BRANCH  12  13
ATOM     13  C   UNL     1       9.543 -32.484  15.070  1.00  0.00     0.140 C 
ATOM     14  O   UNL     1      10.733 -32.229  14.959  1.00  0.00    -0.299 OA
BRANCH  13  15
ATOM     15  C   UNL     1       8.769 -32.816  13.810  1.00  0.00     0.106 CG0
ATOM     16  G   UNL     1       8.963 -34.271  13.412  1.00  0.00     0.000 G0
ENDBRANCH  13  15
ENDBRANCH  12  13
BRANCH  12  17
ATOM     17  C   UNL     1       9.870 -31.735  17.497  1.00  0.00    -0.006 C 
ATOM     18  C   UNL     1      10.251 -30.306  17.068  1.00  0.00     0.008 C 
ATOM     19  C   UNL     1       9.270 -31.715  18.912  1.00  0.00     0.008 C 
ENDBRANCH  12  17
ENDBRANCH  11  12
ENDBRANCH   1  11
TORSDOF 1
ENDMDL
MODEL 5
REMARK VINA RESULT:    -1.989      1.634      4.732
REMARK INTER + INTRA:          -2.441
REMARK INTER:                  -2.983
REMARK INTRA:                   0.542
REMARK UNBOUND:                 0.593
REMARK SMILES CC1=CCC[C@@H](C)C(=O)C[C@@H](C(C)C)C(=O)C1
REMARK SMILES IDX 8 1 9 2 6 3 7 4 5 5 4 6 3 7 2 8 1 9 10 11 11 12 15 13 16 14
REMARK SMILES IDX 17 15 12 17 13 18 14 19
REMARK H PARENT
REMARK Flexibility Score: 70.00
ROOT
ATOM      1  C   UNL     1       6.607 -33.770  14.107  1.00  0.00     0.136 C 
ATOM      2  O   UNL     1       6.226 -32.724  14.612  1.00  0.00    -0.299 OA
ENDROOT
BRANCH   1   3
ATOM      3  C   UNL     1       7.692 -33.718  13.045  1.00  0.00     0.053 C 
ATOM      4  C   UNL     1       8.301 -35.116  12.875  1.00  0.00     0.016 C 
BRANCH   3   5
ATOM      5  C   UNL     1       8.800 -32.675  13.349  1.00  0.00     0.015 C 
BRANCH   5   6
ATOM      6  C   UNL     1       9.778 -33.036  14.488  1.00  0.00     0.028 C 
BRANCH   6   7
ATOM      7  C   UNL     1       9.478 -32.456  15.850  1.00  0.00    -0.028 C 
ATOM      8  C   UNL     1       8.964 -33.129  16.905  1.00  0.00    -0.070 CG0
ATOM      9  C   UNL     1       8.979 -32.429  18.243  1.00  0.00     0.039 C 
ATOM     10  G   UNL     1       8.439 -34.554  16.816  1.00  0.00     0.000 G0
ENDBRANCH   6   7
ENDBRANCH   5   6
ENDBRANCH   3   5
ENDBRANCH   1   3
BRANCH   1  11
ATOM     11  C   UNL     1       5.888 -35.059  14.449  1.00  0.00     0.087 C 
BRANCH  11  12
ATOM     12  C   UNL     1       6.082 -35.536  15.913  1.00  0.00     0.066 C 
BRANCH  12  13
ATOM     13  C   UNL     1       6.923 -34.620  16.802  1.00  0.00     0.140 C 
ATOM     14  O   UNL     1       6.334 -33.879  17.575  1.00  0.00    -0.299 OA
BRANCH  13  15
ATOM     15  C   UNL     1       8.438 -34.578  16.797  1.00  0.00     0.106 CG0
ATOM     16  G   UNL     1       8.949 -33.148  16.892  1.00  0.00     0.000 G0
ENDBRANCH  13  15
ENDBRANCH  12  13
BRANCH  12  17
ATOM     17  C   UNL     1       6.594 -37.012  15.945  1.00  0.00    -0.006 C 
ATOM     18  C   UNL     1       6.166 -37.775  17.212  1.00  0.00     0.008 C 
ATOM     19  C   UNL     1       6.174 -37.797  14.693  1.00  0.00     0.008 C 
ENDBRANCH  12  17
ENDBRANCH  11  12
ENDBRANCH   1  11
TORSDOF 1
ENDMDL
MODEL 6
REMARK VINA RESULT:    -1.188      1.583      4.022
REMARK INTER + INTRA:          -1.220
REMARK INTER:                  -2.084
REMARK INTRA:                   0.864
REMARK UNBOUND:                 0.593
REMARK SMILES CC1=CCC[C@@H](C)C(=O)C[C@@H](C(C)C)C(=O)C1
REMARK SMILES IDX 8 1 9 2 6 3 7 4 5 5 4 6 3 7 2 8 1 9 10 11 11 12 15 13 16 14
REMARK SMILES IDX 17 15 12 17 13 18 14 19
REMARK H PARENT
REMARK Flexibility Score: 70.00
ROOT
ATOM      1  C   UNL     1       9.536 -32.487  16.082  1.00  0.00     0.136 C 
ATOM      2  O   UNL     1       9.754 -31.286  16.152  1.00  0.00    -0.299 OA
ENDROOT
BRANCH   1   3
ATOM      3  C   UNL     1       9.782 -33.198  14.762  1.00  0.00     0.053 C 
ATOM      4  C   UNL     1      11.155 -32.785  14.214  1.00  0.00     0.016 C 
BRANCH   3   5
ATOM      5  C   UNL     1       8.675 -32.938  13.707  1.00  0.00     0.015 C 
BRANCH   5   6
ATOM      6  C   UNL     1       8.228 -34.160  12.875  1.00  0.00     0.028 C 
BRANCH   6   7
ATOM      7  C   UNL     1       7.603 -35.306  13.635  1.00  0.00    -0.028 C 
ATOM      8  C   UNL     1       6.529 -35.226  14.453  1.00  0.00    -0.070 CG0
ATOM      9  C   UNL     1       5.913 -36.527  14.911  1.00  0.00     0.039 C 
ATOM     10  G   UNL     1       5.890 -33.911  14.872  1.00  0.00     0.000 G0
ENDBRANCH   6   7
ENDBRANCH   5   6
ENDBRANCH   3   5
ENDBRANCH   1   3
BRANCH   1  11
ATOM     11  C   UNL     1       8.895 -33.192  17.259  1.00  0.00     0.087 C 
BRANCH  11  12
ATOM     12  C   UNL     1       7.665 -34.065  16.894  1.00  0.00     0.066 C 
BRANCH  12  13
ATOM     13  C   UNL     1       6.551 -33.354  16.126  1.00  0.00     0.140 C 
ATOM     14  O   UNL     1       6.187 -32.261  16.534  1.00  0.00    -0.299 OA
BRANCH  13  15
ATOM     15  C   UNL     1       5.877 -33.908  14.888  1.00  0.00     0.106 CG0
ATOM     16  G   UNL     1       6.513 -35.220  14.455  1.00  0.00     0.000 G0
ENDBRANCH  13  15
ENDBRANCH  12  13
BRANCH  12  17
ATOM     17  C   UNL     1       7.122 -34.803  18.160  1.00  0.00    -0.006 C 
ATOM     18  C   UNL     1       7.652 -36.242  18.297  1.00  0.00     0.008 C 
ATOM     19  C   UNL     1       7.399 -34.017  19.451  1.00  0.00     0.008 C 
ENDBRANCH  12  17
ENDBRANCH  11  12
ENDBRANCH   1  11
TORSDOF 1
ENDMDL
MODEL 7
REMARK VINA RESULT:    -0.767      2.286      4.209
REMARK INTER + INTRA:          -0.578
REMARK INTER:                  -1.657
REMARK INTRA:                   1.079
REMARK UNBOUND:                 0.593
REMARK SMILES CC1=CCC[C@@H](C)C(=O)C[C@@H](C(C)C)C(=O)C1
REMARK SMILES IDX 8 1 9 2 6 3 7 4 5 5 4 6 3 7 2 8 1 9 10 11 11 12 15 13 16 14
REMARK SMILES IDX 17 15 12 17 13 18 14 19
REMARK H PARENT
REMARK Flexibility Score: 70.00
ROOT
ATOM      1  C   UNL     1       6.605 -36.713  16.717  1.00  0.00     0.136 C 
ATOM      2  O   UNL     1       6.121 -37.828  16.588  1.00  0.00    -0.299 OA
ENDROOT
BRANCH   1   3
ATOM      3  C   UNL     1       7.527 -36.448  17.896  1.00  0.00     0.053 C 
ATOM      4  C   UNL     1       7.431 -37.618  18.884  1.00  0.00     0.016 C 
BRANCH   3   5
ATOM      5  C   UNL     1       7.237 -35.104  18.614  1.00  0.00     0.015 C 
BRANCH   5   6
ATOM      6  C   UNL     1       8.177 -33.930  18.264  1.00  0.00     0.028 C 
BRANCH   6   7
ATOM      7  C   UNL     1       7.630 -32.538  18.471  1.00  0.00    -0.028 C 
ATOM      8  C   UNL     1       6.625 -31.966  17.769  1.00  0.00    -0.070 CG0
ATOM      9  C   UNL     1       6.064 -30.668  18.300  1.00  0.00     0.039 C 
ATOM     10  G   UNL     1       6.008 -32.591  16.528  1.00  0.00     0.000 G0
ENDBRANCH   6   7
ENDBRANCH   5   6
ENDBRANCH   3   5
ENDBRANCH   1   3
BRANCH   1  11
ATOM     11  C   UNL     1       6.159 -35.601  15.790  1.00  0.00     0.087 C 
BRANCH  11  12
ATOM     12  C   UNL     1       7.298 -34.656  15.324  1.00  0.00     0.066 C 
BRANCH  12  13
ATOM     13  C   UNL     1       7.078 -33.168  15.597  1.00  0.00     0.140 C 
ATOM     14  O   UNL     1       7.811 -32.371  15.031  1.00  0.00    -0.299 OA
BRANCH  13  15
ATOM     15  C   UNL     1       6.005 -32.616  16.514  1.00  0.00     0.106 CG0
ATOM     16  G   UNL     1       6.616 -31.971  17.749  1.00  0.00     0.000 G0
ENDBRANCH  13  15
ENDBRANCH  12  13
BRANCH  12  17
ATOM     17  C   UNL     1       7.658 -34.927  13.828  1.00  0.00    -0.006 C 
ATOM     18  C   UNL     1       8.488 -36.208  13.627  1.00  0.00     0.008 C 
ATOM     19  C   UNL     1       6.411 -34.964  12.930  1.00  0.00     0.008 C 
ENDBRANCH  12  17
ENDBRANCH  11  12
ENDBRANCH   1  11
TORSDOF 1
ENDMDL
