MODEL 1
REMARK VINA RESULT:    -4.287      0.000      0.000
REMARK INTER + INTRA:          -6.192
REMARK INTER:                  -5.791
REMARK INTRA:                  -0.401
REMARK UNBOUND:                -0.401
REMARK SMILES CCCCCCCC(=O)[O-]
REMARK SMILES IDX 5 1 6 2 7 3 8 4 9 5 10 6 4 7 3 8 2 9 1 10
REMARK H PARENT
REMARK Flexibility Score: inf
ROOT
ATOM      1  C   UNL     1       5.297   0.784  14.826  1.00  0.00     0.000 C 
ENDROOT
BRANCH   1   2
ATOM      2  C   UNL     1       3.858   1.262  14.571  1.00  0.00     0.006 C 
BRANCH   2   3
ATOM      3  C   UNL     1       2.927   0.127  14.129  1.00  0.00     0.053 C 
BRANCH   3   4
ATOM      4  C   UNL     1       1.685   0.114  14.962  1.00  0.00     0.041 C 
ATOM      5  O   UNL     1       0.691  -0.572  14.607  1.00  0.00    -0.550 OA
ATOM      6  O   UNL     1       1.643   0.820  16.158  1.00  0.00    -0.550 OA
ENDBRANCH   3   4
ENDBRANCH   2   3
ENDBRANCH   1   2
BRANCH   1   7
ATOM      7  C   UNL     1       5.823   1.205  16.206  1.00  0.00     0.000 C 
BRANCH   7   8
ATOM      8  C   UNL     1       5.027   0.524  17.326  1.00  0.00    -0.000 C 
BRANCH   8   9
ATOM      9  C   UNL     1       5.245  -0.994  17.311  1.00  0.00    -0.003 C 
ATOM     10  C   UNL     1       5.998  -1.455  18.555  1.00  0.00     0.004 C 
ENDBRANCH   8   9
ENDBRANCH   7   8
ENDBRANCH   1   7
TORSDOF 6
ENDMDL
MODEL 2
REMARK VINA RESULT:    -4.162      2.106      3.206
REMARK INTER + INTRA:          -6.023
REMARK INTER:                  -5.441
REMARK INTRA:                  -0.582
REMARK UNBOUND:                -0.401
REMARK SMILES CCCCCCCC(=O)[O-]
REMARK SMILES IDX 5 1 6 2 7 3 8 4 9 5 10 6 4 7 3 8 2 9 1 10
REMARK H PARENT
REMARK Flexibility Score: inf
ROOT
ATOM      1  C   UNL     1       3.923   0.252  13.392  1.00  0.00     0.000 C 
ENDROOT
BRANCH   1   2
ATOM      2  C   UNL     1       4.037  -0.501  14.727  1.00  0.00     0.006 C 
BRANCH   2   3
ATOM      3  C   UNL     1       2.726  -1.188  15.132  1.00  0.00     0.053 C 
BRANCH   3   4
ATOM      4  C   UNL     1       1.608  -0.195  15.171  1.00  0.00     0.041 C 
ATOM      5  O   UNL     1       0.623  -0.320  14.397  1.00  0.00    -0.550 OA
ATOM      6  O   UNL     1       1.628   0.839  16.098  1.00  0.00    -0.550 OA
ENDBRANCH   3   4
ENDBRANCH   2   3
ENDBRANCH   1   2
BRANCH   1   7
ATOM      7  C   UNL     1       4.296   1.737  13.519  1.00  0.00     0.000 C 
BRANCH   7   8
ATOM      8  C   UNL     1       4.874   2.040  14.907  1.00  0.00    -0.000 C 
BRANCH   8   9
ATOM      9  C   UNL     1       4.200   3.270  15.526  1.00  0.00    -0.003 C 
ATOM     10  C   UNL     1       3.126   3.835  14.602  1.00  0.00     0.004 C 
ENDBRANCH   8   9
ENDBRANCH   7   8
ENDBRANCH   1   7
TORSDOF 6
ENDMDL
MODEL 3
REMARK VINA RESULT:    -4.156      1.844      2.528
REMARK INTER + INTRA:          -6.015
REMARK INTER:                  -5.540
REMARK INTRA:                  -0.475
REMARK UNBOUND:                -0.401
REMARK SMILES CCCCCCCC(=O)[O-]
REMARK SMILES IDX 5 1 6 2 7 3 8 4 9 5 10 6 4 7 3 8 2 9 1 10
REMARK H PARENT
REMARK Flexibility Score: inf
ROOT
ATOM      1  C   UNL     1       5.834   0.612  15.436  1.00  0.00     0.000 C 
ENDROOT
BRANCH   1   2
ATOM      2  C   UNL     1       4.783   1.616  14.935  1.00  0.00     0.006 C 
BRANCH   2   3
ATOM      3  C   UNL     1       4.301   2.567  16.037  1.00  0.00     0.053 C 
BRANCH   3   4
ATOM      4  C   UNL     1       3.400   1.849  16.991  1.00  0.00     0.041 C 
ATOM      5  O   UNL     1       3.722   1.736  18.203  1.00  0.00    -0.550 OA
ATOM      6  O   UNL     1       2.182   1.347  16.552  1.00  0.00    -0.550 OA
ENDBRANCH   3   4
ENDBRANCH   2   3
ENDBRANCH   1   2
BRANCH   1   7
ATOM      7  C   UNL     1       5.370  -0.846  15.299  1.00  0.00     0.000 C 
BRANCH   7   8
ATOM      8  C   UNL     1       5.900  -1.700  16.458  1.00  0.00    -0.000 C 
BRANCH   8   9
ATOM      9  C   UNL     1       5.176  -1.361  17.767  1.00  0.00    -0.003 C 
ATOM     10  C   UNL     1       6.168  -0.985  18.864  1.00  0.00     0.004 C 
ENDBRANCH   8   9
ENDBRANCH   7   8
ENDBRANCH   1   7
TORSDOF 6
ENDMDL
MODEL 4
REMARK VINA RESULT:    -4.094      2.207      3.596
REMARK INTER + INTRA:          -5.932
REMARK INTER:                  -5.401
REMARK INTRA:                  -0.531
REMARK UNBOUND:                -0.401
REMARK SMILES CCCCCCCC(=O)[O-]
REMARK SMILES IDX 5 1 6 2 7 3 8 4 9 5 10 6 4 7 3 8 2 9 1 10
REMARK H PARENT
REMARK Flexibility Score: inf
ROOT
ATOM      1  C   UNL     1       4.066   0.379  13.023  1.00  0.00     0.000 C 
ENDROOT
BRANCH   1   2
ATOM      2  C   UNL     1       3.705  -0.755  13.996  1.00  0.00     0.006 C 
BRANCH   2   3
ATOM      3  C   UNL     1       3.262  -0.236  15.370  1.00  0.00     0.053 C 
BRANCH   3   4
ATOM      4  C   UNL     1       1.800   0.082  15.362  1.00  0.00     0.041 C 
ATOM      5  O   UNL     1       1.334   0.939  16.157  1.00  0.00    -0.550 OA
ATOM      6  O   UNL     1       0.960  -0.531  14.441  1.00  0.00    -0.550 OA
ENDBRANCH   3   4
ENDBRANCH   2   3
ENDBRANCH   1   2
BRANCH   1   7
ATOM      7  C   UNL     1       5.174   1.293  13.566  1.00  0.00     0.000 C 
BRANCH   7   8
ATOM      8  C   UNL     1       4.773   2.769  13.447  1.00  0.00    -0.000 C 
BRANCH   8   9
ATOM      9  C   UNL     1       4.252   3.307  14.785  1.00  0.00    -0.003 C 
ATOM     10  C   UNL     1       2.870   3.933  14.627  1.00  0.00     0.004 C 
ENDBRANCH   8   9
ENDBRANCH   7   8
ENDBRANCH   1   7
TORSDOF 6
ENDMDL
MODEL 5
REMARK VINA RESULT:    -4.055      2.790      4.810
REMARK INTER + INTRA:          -5.879
REMARK INTER:                  -5.553
REMARK INTRA:                  -0.326
REMARK UNBOUND:                -0.401
REMARK SMILES CCCCCCCC(=O)[O-]
REMARK SMILES IDX 5 1 6 2 7 3 8 4 9 5 10 6 4 7 3 8 2 9 1 10
REMARK H PARENT
REMARK Flexibility Score: inf
ROOT
ATOM      1  C   UNL     1       5.875   1.116  15.785  1.00  0.00     0.000 C 
ENDROOT
BRANCH   1   2
ATOM      2  C   UNL     1       4.817   0.619  16.783  1.00  0.00     0.006 C 
BRANCH   2   3
ATOM      3  C   UNL     1       5.181  -0.735  17.404  1.00  0.00     0.053 C 
BRANCH   3   4
ATOM      4  C   UNL     1       5.476  -0.579  18.863  1.00  0.00     0.041 C 
ATOM      5  O   UNL     1       4.690   0.068  19.603  1.00  0.00    -0.550 OA
ATOM      6  O   UNL     1       6.595  -1.190  19.414  1.00  0.00    -0.550 OA
ENDBRANCH   3   4
ENDBRANCH   2   3
ENDBRANCH   1   2
BRANCH   1   7
ATOM      7  C   UNL     1       5.460   0.889  14.323  1.00  0.00     0.000 C 
BRANCH   7   8
ATOM      8  C   UNL     1       4.112   1.557  14.027  1.00  0.00    -0.000 C 
BRANCH   8   9
ATOM      9  C   UNL     1       4.272   3.073  13.865  1.00  0.00    -0.003 C 
ATOM     10  C   UNL     1       3.220   3.828  14.670  1.00  0.00     0.004 C 
ENDBRANCH   8   9
ENDBRANCH   7   8
ENDBRANCH   1   7
TORSDOF 6
ENDMDL
MODEL 6
REMARK VINA RESULT:    -4.038      2.541      3.535
REMARK INTER + INTRA:          -5.856
REMARK INTER:                  -5.332
REMARK INTRA:                  -0.524
REMARK UNBOUND:                -0.401
REMARK SMILES CCCCCCCC(=O)[O-]
REMARK SMILES IDX 5 1 6 2 7 3 8 4 9 5 10 6 4 7 3 8 2 9 1 10
REMARK H PARENT
REMARK Flexibility Score: inf
ROOT
ATOM      1  C   UNL     1       4.273   3.122  13.545  1.00  0.00     0.000 C 
ENDROOT
BRANCH   1   2
ATOM      2  C   UNL     1       3.525   3.291  14.878  1.00  0.00     0.006 C 
BRANCH   2   3
ATOM      3  C   UNL     1       4.331   2.777  16.077  1.00  0.00     0.053 C 
BRANCH   3   4
ATOM      4  C   UNL     1       3.489   1.877  16.925  1.00  0.00     0.041 C 
ATOM      5  O   UNL     1       3.859   1.578  18.091  1.00  0.00    -0.550 OA
ATOM      6  O   UNL     1       2.272   1.410  16.447  1.00  0.00    -0.550 OA
ENDBRANCH   3   4
ENDBRANCH   2   3
ENDBRANCH   1   2
BRANCH   1   7
ATOM      7  C   UNL     1       4.555   1.650  13.209  1.00  0.00     0.000 C 
BRANCH   7   8
ATOM      8  C   UNL     1       6.063   1.392  13.105  1.00  0.00    -0.000 C 
BRANCH   8   9
ATOM      9  C   UNL     1       6.468   0.161  13.925  1.00  0.00    -0.003 C 
ATOM     10  C   UNL     1       5.258  -0.470  14.608  1.00  0.00     0.004 C 
ENDBRANCH   8   9
ENDBRANCH   7   8
ENDBRANCH   1   7
TORSDOF 6
ENDMDL
MODEL 7
REMARK VINA RESULT:    -4.020      2.639      4.626
REMARK INTER + INTRA:          -5.832
REMARK INTER:                  -5.452
REMARK INTRA:                  -0.380
REMARK UNBOUND:                -0.401
REMARK SMILES CCCCCCCC(=O)[O-]
REMARK SMILES IDX 5 1 6 2 7 3 8 4 9 5 10 6 4 7 3 8 2 9 1 10
REMARK H PARENT
REMARK Flexibility Score: inf
ROOT
ATOM      1  C   UNL     1       3.821   1.425  16.414  1.00  0.00     0.000 C 
ENDROOT
BRANCH   1   2
ATOM      2  C   UNL     1       5.234   1.059  16.897  1.00  0.00     0.006 C 
BRANCH   2   3
ATOM      3  C   UNL     1       5.359  -0.416  17.297  1.00  0.00     0.053 C 
BRANCH   3   4
ATOM      4  C   UNL     1       5.520  -0.544  18.779  1.00  0.00     0.041 C 
ATOM      5  O   UNL     1       4.722   0.043  19.556  1.00  0.00    -0.550 OA
ATOM      6  O   UNL     1       6.521  -1.352  19.302  1.00  0.00    -0.550 OA
ENDBRANCH   3   4
ENDBRANCH   2   3
ENDBRANCH   1   2
BRANCH   1   7
ATOM      7  C   UNL     1       3.746   1.606  14.891  1.00  0.00     0.000 C 
BRANCH   7   8
ATOM      8  C   UNL     1       3.190   0.345  14.217  1.00  0.00    -0.000 C 
BRANCH   8   9
ATOM      9  C   UNL     1       2.247  -0.412  15.160  1.00  0.00    -0.003 C 
ATOM     10  C   UNL     1       0.786  -0.132  14.820  1.00  0.00     0.004 C 
ENDBRANCH   8   9
ENDBRANCH   7   8
ENDBRANCH   1   7
TORSDOF 6
ENDMDL
MODEL 8
REMARK VINA RESULT:    -3.930      1.110      2.048
REMARK INTER + INTRA:          -5.710
REMARK INTER:                  -5.140
REMARK INTRA:                  -0.570
REMARK UNBOUND:                -0.401
REMARK SMILES CCCCCCCC(=O)[O-]
REMARK SMILES IDX 5 1 6 2 7 3 8 4 9 5 10 6 4 7 3 8 2 9 1 10
REMARK H PARENT
REMARK Flexibility Score: inf
ROOT
ATOM      1  C   UNL     1       3.650  -1.615  15.722  1.00  0.00     0.000 C 
ENDROOT
BRANCH   1   2
ATOM      2  C   UNL     1       3.156  -1.051  14.380  1.00  0.00     0.006 C 
BRANCH   2   3
ATOM      3  C   UNL     1       2.877   0.456  14.439  1.00  0.00     0.053 C 
BRANCH   3   4
ATOM      4  C   UNL     1       1.813   0.751  15.449  1.00  0.00     0.041 C 
ATOM      5  O   UNL     1       0.629   0.370  15.251  1.00  0.00    -0.550 OA
ATOM      6  O   UNL     1       2.139   1.402  16.632  1.00  0.00    -0.550 OA
ENDBRANCH   3   4
ENDBRANCH   2   3
ENDBRANCH   1   2
BRANCH   1   7
ATOM      7  C   UNL     1       5.143  -1.345  15.962  1.00  0.00     0.000 C 
BRANCH   7   8
ATOM      8  C   UNL     1       5.411  -1.030  17.439  1.00  0.00    -0.000 C 
BRANCH   8   9
ATOM      9  C   UNL     1       5.499   0.483  17.672  1.00  0.00    -0.003 C 
ATOM     10  C   UNL     1       5.890   1.216  16.393  1.00  0.00     0.004 C 
ENDBRANCH   8   9
ENDBRANCH   7   8
ENDBRANCH   1   7
TORSDOF 6
ENDMDL
MODEL 9
REMARK VINA RESULT:    -3.920      2.151      3.838
REMARK INTER + INTRA:          -5.697
REMARK INTER:                  -5.158
REMARK INTRA:                  -0.539
REMARK UNBOUND:                -0.401
REMARK SMILES CCCCCCCC(=O)[O-]
REMARK SMILES IDX 5 1 6 2 7 3 8 4 9 5 10 6 4 7 3 8 2 9 1 10
REMARK H PARENT
REMARK Flexibility Score: inf
ROOT
ATOM      1  C   UNL     1       4.922   1.409  14.163  1.00  0.00     0.000 C 
ENDROOT
BRANCH   1   2
ATOM      2  C   UNL     1       5.748   0.539  15.125  1.00  0.00     0.006 C 
BRANCH   2   3
ATOM      3  C   UNL     1       5.863   1.152  16.526  1.00  0.00     0.053 C 
BRANCH   3   4
ATOM      4  C   UNL     1       4.736   0.688  17.394  1.00  0.00     0.041 C 
ATOM      5  O   UNL     1       4.577  -0.539  17.623  1.00  0.00    -0.550 OA
ATOM      6  O   UNL     1       3.891   1.615  17.990  1.00  0.00    -0.550 OA
ENDBRANCH   3   4
ENDBRANCH   2   3
ENDBRANCH   1   2
BRANCH   1   7
ATOM      7  C   UNL     1       3.515   0.845  13.917  1.00  0.00     0.000 C 
BRANCH   7   8
ATOM      8  C   UNL     1       3.498  -0.679  14.089  1.00  0.00    -0.000 C 
BRANCH   8   9
ATOM      9  C   UNL     1       2.192  -1.145  14.742  1.00  0.00    -0.003 C 
ATOM     10  C   UNL     1       1.277   0.037  15.050  1.00  0.00     0.004 C 
ENDBRANCH   8   9
ENDBRANCH   7   8
ENDBRANCH   1   7
TORSDOF 6
ENDMDL
