MODEL 1
REMARK VINA RESULT:    -3.245      0.000      0.000
REMARK INTER + INTRA:          -3.911
REMARK INTER:                  -3.909
REMARK INTRA:                  -0.002
REMARK UNBOUND:                -0.002
REMARK SMILES OCC(O)CO
REMARK SMILES IDX 3 1 5 2 6 3 2 5 1 6 4 8
REMARK H PARENT 6 4 1 7 4 9
REMARK Flexibility Score: inf
ROOT
ATOM      1  C   UNL     1     128.715 126.720 123.575  1.00  0.00     0.165 C 
ENDROOT
BRANCH   1   2
ATOM      2  C   UNL     1     128.581 126.397 122.080  1.00  0.00     0.190 C 
BRANCH   2   3
ATOM      3  O   UNL     1     129.159 127.413 121.305  1.00  0.00    -0.394 OA
ATOM      4  H   UNL     1     128.857 127.263 120.371  1.00  0.00     0.210 HD
ENDBRANCH   2   3
ENDBRANCH   1   2
BRANCH   1   5
ATOM      5  C   UNL     1     127.655 125.973 124.400  1.00  0.00     0.190 C 
BRANCH   5   6
ATOM      6  O   UNL     1     127.987 124.616 124.535  1.00  0.00    -0.394 OA
ATOM      7  H   UNL     1     127.139 124.107 124.453  1.00  0.00     0.210 HD
ENDBRANCH   5   6
ENDBRANCH   1   5
BRANCH   1   8
ATOM      8  O   UNL     1     128.564 128.104 123.759  1.00  0.00    -0.388 OA
ATOM      9  H   UNL     1     129.209 128.371 124.465  1.00  0.00     0.211 HD
ENDBRANCH   1   8
TORSDOF 5
ENDMDL
MODEL 2
REMARK VINA RESULT:    -3.234      0.571      2.973
REMARK INTER + INTRA:          -3.898
REMARK INTER:                  -3.895
REMARK INTRA:                  -0.002
REMARK UNBOUND:                -0.002
REMARK SMILES OCC(O)CO
REMARK SMILES IDX 3 1 5 2 6 3 2 5 1 6 4 8
REMARK H PARENT 6 4 1 7 4 9
REMARK Flexibility Score: inf
ROOT
ATOM      1  C   UNL     1     128.036 126.716 123.626  1.00  0.00     0.165 C 
ENDROOT
BRANCH   1   2
ATOM      2  C   UNL     1     128.633 125.753 124.662  1.00  0.00     0.190 C 
BRANCH   2   3
ATOM      3  O   UNL     1     127.932 124.538 124.663  1.00  0.00    -0.394 OA
ATOM      4  H   UNL     1     127.248 124.606 123.947  1.00  0.00     0.210 HD
ENDBRANCH   2   3
ENDBRANCH   1   2
BRANCH   1   5
ATOM      5  C   UNL     1     128.622 126.461 122.229  1.00  0.00     0.190 C 
BRANCH   5   6
ATOM      6  O   UNL     1     129.257 127.610 121.732  1.00  0.00    -0.394 OA
ATOM      7  H   UNL     1     128.991 127.690 120.779  1.00  0.00     0.210 HD
ENDBRANCH   5   6
ENDBRANCH   1   5
BRANCH   1   8
ATOM      8  O   UNL     1     128.312 128.037 124.017  1.00  0.00    -0.388 OA
ATOM      9  H   UNL     1     127.786 128.208 124.842  1.00  0.00     0.211 HD
ENDBRANCH   1   8
TORSDOF 5
ENDMDL
MODEL 3
REMARK VINA RESULT:    -3.153      0.683      2.233
REMARK INTER + INTRA:          -3.801
REMARK INTER:                  -3.578
REMARK INTRA:                  -0.223
REMARK UNBOUND:                -0.002
REMARK SMILES OCC(O)CO
REMARK SMILES IDX 3 1 5 2 6 3 2 5 1 6 4 8
REMARK H PARENT 6 4 1 7 4 9
REMARK Flexibility Score: inf
ROOT
ATOM      1  C   UNL     1     128.126 126.293 123.473  1.00  0.00     0.165 C 
ENDROOT
BRANCH   1   2
ATOM      2  C   UNL     1     128.540 126.264 121.994  1.00  0.00     0.190 C 
BRANCH   2   3
ATOM      3  O   UNL     1     129.210 127.447 121.649  1.00  0.00    -0.394 OA
ATOM      4  H   UNL     1     130.173 127.217 121.579  1.00  0.00     0.210 HD
ENDBRANCH   2   3
ENDBRANCH   1   2
BRANCH   1   5
ATOM      5  C   UNL     1     129.032 127.234 124.283  1.00  0.00     0.190 C 
BRANCH   5   6
ATOM      6  O   UNL     1     128.546 128.551 124.251  1.00  0.00    -0.394 OA
ATOM      7  H   UNL     1     129.324 129.143 124.426  1.00  0.00     0.210 HD
ENDBRANCH   5   6
ENDBRANCH   1   5
BRANCH   1   8
ATOM      8  O   UNL     1     128.210 124.993 123.997  1.00  0.00    -0.388 OA
ATOM      9  H   UNL     1     127.950 125.052 124.953  1.00  0.00     0.211 HD
ENDBRANCH   1   8
TORSDOF 5
ENDMDL
MODEL 4
REMARK VINA RESULT:    -2.856      1.647      1.893
REMARK INTER + INTRA:          -3.442
REMARK INTER:                  -3.433
REMARK INTRA:                  -0.009
REMARK UNBOUND:                -0.002
REMARK SMILES OCC(O)CO
REMARK SMILES IDX 3 1 5 2 6 3 2 5 1 6 4 8
REMARK H PARENT 6 4 1 7 4 9
REMARK Flexibility Score: inf
ROOT
ATOM      1  C   UNL     1     127.939 126.771 124.537  1.00  0.00     0.165 C 
ENDROOT
BRANCH   1   2
ATOM      2  C   UNL     1     128.282 125.994 123.258  1.00  0.00     0.190 C 
BRANCH   2   3
ATOM      3  O   UNL     1     128.331 126.859 122.156  1.00  0.00    -0.394 OA
ATOM      4  H   UNL     1     128.035 127.750 122.481  1.00  0.00     0.210 HD
ENDBRANCH   2   3
ENDBRANCH   1   2
BRANCH   1   5
ATOM      5  C   UNL     1     126.527 126.422 125.036  1.00  0.00     0.190 C 
BRANCH   5   6
ATOM      6  O   UNL     1     125.727 127.571 125.125  1.00  0.00    -0.394 OA
ATOM      7  H   UNL     1     126.338 128.349 125.046  1.00  0.00     0.210 HD
ENDBRANCH   5   6
ENDBRANCH   1   5
BRANCH   1   8
ATOM      8  O   UNL     1     128.015 128.148 124.269  1.00  0.00    -0.388 OA
ATOM      9  H   UNL     1     128.302 128.241 123.323  1.00  0.00     0.211 HD
ENDBRANCH   1   8
TORSDOF 5
ENDMDL
MODEL 5
REMARK VINA RESULT:    -2.828      1.636      2.567
REMARK INTER + INTRA:          -3.409
REMARK INTER:                  -3.372
REMARK INTRA:                  -0.036
REMARK UNBOUND:                -0.002
REMARK SMILES OCC(O)CO
REMARK SMILES IDX 3 1 5 2 6 3 2 5 1 6 4 8
REMARK H PARENT 6 4 1 7 4 9
REMARK Flexibility Score: inf
ROOT
ATOM      1  C   UNL     1     127.915 126.769 123.899  1.00  0.00     0.165 C 
ENDROOT
BRANCH   1   2
ATOM      2  C   UNL     1     127.171 127.710 124.858  1.00  0.00     0.190 C 
BRANCH   2   3
ATOM      3  O   UNL     1     125.885 127.220 125.125  1.00  0.00    -0.394 OA
ATOM      4  H   UNL     1     125.356 127.346 124.294  1.00  0.00     0.210 HD
ENDBRANCH   2   3
ENDBRANCH   1   2
BRANCH   1   5
ATOM      5  C   UNL     1     128.652 125.662 124.670  1.00  0.00     0.190 C 
BRANCH   5   6
ATOM      6  O   UNL     1     127.880 124.492 124.731  1.00  0.00    -0.394 OA
ATOM      7  H   UNL     1     128.407 123.781 124.279  1.00  0.00     0.210 HD
ENDBRANCH   5   6
ENDBRANCH   1   5
BRANCH   1   8
ATOM      8  O   UNL     1     128.840 127.515 123.151  1.00  0.00    -0.388 OA
ATOM      9  H   UNL     1     128.532 128.459 123.174  1.00  0.00     0.211 HD
ENDBRANCH   1   8
TORSDOF 5
ENDMDL
MODEL 6
REMARK VINA RESULT:    -2.393     19.844     20.478
REMARK INTER + INTRA:          -2.885
REMARK INTER:                  -2.663
REMARK INTRA:                  -0.223
REMARK UNBOUND:                -0.002
REMARK SMILES OCC(O)CO
REMARK SMILES IDX 3 1 5 2 6 3 2 5 1 6 4 8
REMARK H PARENT 6 4 1 7 4 9
REMARK Flexibility Score: inf
ROOT
ATOM      1  C   UNL     1     113.494 116.569 113.369  1.00  0.00     0.165 C 
ENDROOT
BRANCH   1   2
ATOM      2  C   UNL     1     114.423 116.981 114.520  1.00  0.00     0.190 C 
BRANCH   2   3
ATOM      3  O   UNL     1     114.311 116.079 115.588  1.00  0.00    -0.394 OA
ATOM      4  H   UNL     1     113.540 115.489 115.380  1.00  0.00     0.210 HD
ENDBRANCH   2   3
ENDBRANCH   1   2
BRANCH   1   5
ATOM      5  C   UNL     1     113.871 115.182 112.822  1.00  0.00     0.190 C 
BRANCH   5   6
ATOM      6  O   UNL     1     113.351 114.164 113.636  1.00  0.00    -0.394 OA
ATOM      7  H   UNL     1     113.928 113.367 113.495  1.00  0.00     0.210 HD
ENDBRANCH   5   6
ENDBRANCH   1   5
BRANCH   1   8
ATOM      8  O   UNL     1     113.590 117.521 112.340  1.00  0.00    -0.388 OA
ATOM      9  H   UNL     1     114.557 117.689 112.194  1.00  0.00     0.211 HD
ENDBRANCH   1   8
TORSDOF 5
ENDMDL
MODEL 7
REMARK VINA RESULT:    -2.367     13.499     14.425
REMARK INTER + INTRA:          -2.853
REMARK INTER:                  -2.633
REMARK INTRA:                  -0.220
REMARK UNBOUND:                -0.002
REMARK SMILES OCC(O)CO
REMARK SMILES IDX 3 1 5 2 6 3 2 5 1 6 4 8
REMARK H PARENT 6 4 1 7 4 9
REMARK Flexibility Score: inf
ROOT
ATOM      1  C   UNL     1     125.680 115.997 113.298  1.00  0.00     0.165 C 
ENDROOT
BRANCH   1   2
ATOM      2  C   UNL     1     124.875 116.592 114.462  1.00  0.00     0.190 C 
BRANCH   2   3
ATOM      3  O   UNL     1     125.727 116.938 115.521  1.00  0.00    -0.394 OA
ATOM      4  H   UNL     1     125.722 116.170 116.151  1.00  0.00     0.210 HD
ENDBRANCH   2   3
ENDBRANCH   1   2
BRANCH   1   5
ATOM      5  C   UNL     1     126.693 117.014 112.747  1.00  0.00     0.190 C 
BRANCH   5   6
ATOM      6  O   UNL     1     127.824 117.094 113.573  1.00  0.00    -0.394 OA
ATOM      7  H   UNL     1     128.139 116.163 113.713  1.00  0.00     0.210 HD
ENDBRANCH   5   6
ENDBRANCH   1   5
BRANCH   1   8
ATOM      8  O   UNL     1     124.795 115.615 112.278  1.00  0.00    -0.388 OA
ATOM      9  H   UNL     1     125.326 115.102 111.614  1.00  0.00     0.211 HD
ENDBRANCH   1   8
TORSDOF 5
ENDMDL
MODEL 8
REMARK VINA RESULT:    -2.365     12.566     13.555
REMARK INTER + INTRA:          -2.851
REMARK INTER:                  -2.632
REMARK INTRA:                  -0.219
REMARK UNBOUND:                -0.002
REMARK SMILES OCC(O)CO
REMARK SMILES IDX 3 1 5 2 6 3 2 5 1 6 4 8
REMARK H PARENT 6 4 1 7 4 9
REMARK Flexibility Score: inf
ROOT
ATOM      1  C   UNL     1     120.011 126.823 113.191  1.00  0.00     0.165 C 
ENDROOT
BRANCH   1   2
ATOM      2  C   UNL     1     119.965 125.878 114.400  1.00  0.00     0.190 C 
BRANCH   2   3
ATOM      3  O   UNL     1     119.246 126.462 115.453  1.00  0.00    -0.394 OA
ATOM      4  H   UNL     1     119.860 126.492 116.233  1.00  0.00     0.210 HD
ENDBRANCH   2   3
ENDBRANCH   1   2
BRANCH   1   5
ATOM      5  C   UNL     1     118.596 127.250 112.768  1.00  0.00     0.190 C 
BRANCH   5   6
ATOM      6  O   UNL     1     118.126 128.299 113.572  1.00  0.00    -0.394 OA
ATOM      7  H   UNL     1     117.644 127.880 114.332  1.00  0.00     0.210 HD
ENDBRANCH   5   6
ENDBRANCH   1   5
BRANCH   1   8
ATOM      8  O   UNL     1     120.644 126.169 112.122  1.00  0.00    -0.388 OA
ATOM      9  H   UNL     1     120.135 126.401 111.302  1.00  0.00     0.211 HD
ENDBRANCH   1   8
TORSDOF 5
ENDMDL
