MODEL 1
REMARK VINA RESULT:    -3.440      0.000      0.000
REMARK INTER + INTRA:          -4.365
REMARK INTER:                  -4.245
REMARK INTRA:                  -0.121
REMARK UNBOUND:                -0.121
REMARK SMILES CCCCCC(=O)[O-]
REMARK SMILES IDX 4 1 5 2 6 3 7 4 8 5 3 6 2 7 1 8
REMARK H PARENT
REMARK Flexibility Score: inf
ROOT
ATOM      1  C   UNL     1      31.389   4.880 -26.277  1.00  0.00     0.006 C 
ENDROOT
BRANCH   1   2
ATOM      2  C   UNL     1      31.046   4.119 -24.993  1.00  0.00     0.053 C 
BRANCH   2   3
ATOM      3  C   UNL     1      29.604   4.310 -24.639  1.00  0.00     0.041 C 
ATOM      4  O   UNL     1      29.274   4.604 -23.461  1.00  0.00    -0.550 OA
ATOM      5  O   UNL     1      28.621   4.115 -25.602  1.00  0.00    -0.550 OA
ENDBRANCH   2   3
ENDBRANCH   1   2
BRANCH   1   6
ATOM      6  C   UNL     1      31.580   3.912 -27.454  1.00  0.00     0.000 C 
BRANCH   6   7
ATOM      7  C   UNL     1      30.581   4.163 -28.593  1.00  0.00    -0.003 C 
ATOM      8  C   UNL     1      31.264   4.539 -29.908  1.00  0.00     0.004 C 
ENDBRANCH   6   7
ENDBRANCH   1   6
TORSDOF 4
ENDMDL
MODEL 2
REMARK VINA RESULT:    -3.356      1.997      3.986
REMARK INTER + INTRA:          -4.262
REMARK INTER:                  -4.039
REMARK INTRA:                  -0.223
REMARK UNBOUND:                -0.121
REMARK SMILES CCCCCC(=O)[O-]
REMARK SMILES IDX 4 1 5 2 6 3 7 4 8 5 3 6 2 7 1 8
REMARK H PARENT
REMARK Flexibility Score: inf
ROOT
ATOM      1  C   UNL     1      31.691   6.145 -26.100  1.00  0.00     0.006 C 
ENDROOT
BRANCH   1   2
ATOM      2  C   UNL     1      31.755   4.670 -26.507  1.00  0.00     0.053 C 
BRANCH   2   3
ATOM      3  C   UNL     1      30.755   4.379 -27.583  1.00  0.00     0.041 C 
ATOM      4  O   UNL     1      29.551   4.166 -27.286  1.00  0.00    -0.550 OA
ATOM      5  O   UNL     1      31.165   4.295 -28.907  1.00  0.00    -0.550 OA
ENDBRANCH   2   3
ENDBRANCH   1   2
BRANCH   1   6
ATOM      6  C   UNL     1      30.930   6.317 -24.777  1.00  0.00     0.000 C 
BRANCH   6   7
ATOM      7  C   UNL     1      30.954   5.048 -23.913  1.00  0.00    -0.003 C 
ATOM      8  C   UNL     1      29.555   4.575 -23.517  1.00  0.00     0.004 C 
ENDBRANCH   6   7
ENDBRANCH   1   6
TORSDOF 4
ENDMDL
MODEL 3
REMARK VINA RESULT:    -3.354      1.966      3.509
REMARK INTER + INTRA:          -4.259
REMARK INTER:                  -4.123
REMARK INTRA:                  -0.137
REMARK UNBOUND:                -0.121
REMARK SMILES CCCCCC(=O)[O-]
REMARK SMILES IDX 4 1 5 2 6 3 7 4 8 5 3 6 2 7 1 8
REMARK H PARENT
REMARK Flexibility Score: inf
ROOT
ATOM      1  C   UNL     1      31.538   4.763 -26.285  1.00  0.00     0.006 C 
ENDROOT
BRANCH   1   2
ATOM      2  C   UNL     1      30.398   4.417 -27.248  1.00  0.00     0.053 C 
BRANCH   2   3
ATOM      3  C   UNL     1      29.120   4.212 -26.497  1.00  0.00     0.041 C 
ATOM      4  O   UNL     1      28.017   4.252 -27.102  1.00  0.00    -0.550 OA
ATOM      5  O   UNL     1      29.146   4.027 -25.121  1.00  0.00    -0.550 OA
ENDBRANCH   2   3
ENDBRANCH   1   2
BRANCH   1   6
ATOM      6  C   UNL     1      31.694   6.285 -26.144  1.00  0.00     0.000 C 
BRANCH   6   7
ATOM      7  C   UNL     1      31.331   6.788 -24.739  1.00  0.00    -0.003 C 
ATOM      8  C   UNL     1      32.120   8.033 -24.334  1.00  0.00     0.004 C 
ENDBRANCH   6   7
ENDBRANCH   1   6
TORSDOF 4
ENDMDL
MODEL 4
REMARK VINA RESULT:    -3.346     24.904     25.606
REMARK INTER + INTRA:          -4.250
REMARK INTER:                  -4.111
REMARK INTRA:                  -0.139
REMARK UNBOUND:                -0.121
REMARK SMILES CCCCCC(=O)[O-]
REMARK SMILES IDX 4 1 5 2 6 3 7 4 8 5 3 6 2 7 1 8
REMARK H PARENT
REMARK Flexibility Score: inf
ROOT
ATOM      1  C   UNL     1      12.270  22.586 -22.962  1.00  0.00     0.006 C 
ENDROOT
BRANCH   1   2
ATOM      2  C   UNL     1      13.447  22.167 -22.077  1.00  0.00     0.053 C 
BRANCH   2   3
ATOM      3  C   UNL     1      13.389  22.871 -20.758  1.00  0.00     0.041 C 
ATOM      4  O   UNL     1      12.293  23.310 -20.322  1.00  0.00    -0.550 OA
ATOM      5  O   UNL     1      14.555  23.086 -20.033  1.00  0.00    -0.550 OA
ENDBRANCH   2   3
ENDBRANCH   1   2
BRANCH   1   6
ATOM      6  C   UNL     1      12.721  23.579 -24.044  1.00  0.00     0.000 C 
BRANCH   6   7
ATOM      7  C   UNL     1      13.810  23.000 -24.959  1.00  0.00    -0.003 C 
ATOM      8  C   UNL     1      13.241  22.119 -26.072  1.00  0.00     0.004 C 
ENDBRANCH   6   7
ENDBRANCH   1   6
TORSDOF 4
ENDMDL
MODEL 5
REMARK VINA RESULT:    -3.308     25.211     26.072
REMARK INTER + INTRA:          -4.203
REMARK INTER:                  -4.131
REMARK INTRA:                  -0.071
REMARK UNBOUND:                -0.121
REMARK SMILES CCCCCC(=O)[O-]
REMARK SMILES IDX 4 1 5 2 6 3 7 4 8 5 3 6 2 7 1 8
REMARK H PARENT
REMARK Flexibility Score: inf
ROOT
ATOM      1  C   UNL     1      13.029  22.991 -21.018  1.00  0.00     0.006 C 
ENDROOT
BRANCH   1   2
ATOM      2  C   UNL     1      11.975  22.883 -19.913  1.00  0.00     0.053 C 
BRANCH   2   3
ATOM      3  C   UNL     1      12.534  22.171 -18.721  1.00  0.00     0.041 C 
ATOM      4  O   UNL     1      13.576  21.474 -18.832  1.00  0.00    -0.550 OA
ATOM      5  O   UNL     1      11.875  22.237 -17.500  1.00  0.00    -0.550 OA
ENDBRANCH   2   3
ENDBRANCH   1   2
BRANCH   1   6
ATOM      6  C   UNL     1      12.507  22.398 -22.335  1.00  0.00     0.000 C 
BRANCH   6   7
ATOM      7  C   UNL     1      12.626  23.379 -23.512  1.00  0.00    -0.003 C 
ATOM      8  C   UNL     1      13.270  22.748 -24.745  1.00  0.00     0.004 C 
ENDBRANCH   6   7
ENDBRANCH   1   6
TORSDOF 4
ENDMDL
MODEL 6
REMARK VINA RESULT:    -3.292      2.412      4.092
REMARK INTER + INTRA:          -4.182
REMARK INTER:                  -3.963
REMARK INTRA:                  -0.219
REMARK UNBOUND:                -0.121
REMARK SMILES CCCCCC(=O)[O-]
REMARK SMILES IDX 4 1 5 2 6 3 7 4 8 5 3 6 2 7 1 8
REMARK H PARENT
REMARK Flexibility Score: inf
ROOT
ATOM      1  C   UNL     1      29.192   4.914 -26.131  1.00  0.00     0.006 C 
ENDROOT
BRANCH   1   2
ATOM      2  C   UNL     1      29.425   3.875 -27.232  1.00  0.00     0.053 C 
BRANCH   2   3
ATOM      3  C   UNL     1      30.671   4.192 -27.998  1.00  0.00     0.041 C 
ATOM      4  O   UNL     1      31.742   4.444 -27.388  1.00  0.00    -0.550 OA
ATOM      5  O   UNL     1      30.636   4.257 -29.385  1.00  0.00    -0.550 OA
ENDBRANCH   2   3
ENDBRANCH   1   2
BRANCH   1   6
ATOM      6  C   UNL     1      29.194   4.254 -24.744  1.00  0.00     0.000 C 
BRANCH   6   7
ATOM      7  C   UNL     1      30.353   4.738 -23.861  1.00  0.00    -0.003 C 
ATOM      8  C   UNL     1      30.977   6.040 -24.364  1.00  0.00     0.004 C 
ENDBRANCH   6   7
ENDBRANCH   1   6
TORSDOF 4
ENDMDL
MODEL 7
REMARK VINA RESULT:    -3.265      2.112      2.503
REMARK INTER + INTRA:          -4.150
REMARK INTER:                  -4.049
REMARK INTRA:                  -0.101
REMARK UNBOUND:                -0.121
REMARK SMILES CCCCCC(=O)[O-]
REMARK SMILES IDX 4 1 5 2 6 3 7 4 8 5 3 6 2 7 1 8
REMARK H PARENT
REMARK Flexibility Score: inf
ROOT
ATOM      1  C   UNL     1      31.558   4.701 -25.528  1.00  0.00     0.006 C 
ENDROOT
BRANCH   1   2
ATOM      2  C   UNL     1      31.710   6.219 -25.658  1.00  0.00     0.053 C 
BRANCH   2   3
ATOM      3  C   UNL     1      31.408   6.890 -24.354  1.00  0.00     0.041 C 
ATOM      4  O   UNL     1      31.806   8.065 -24.140  1.00  0.00    -0.550 OA
ATOM      5  O   UNL     1      30.731   6.199 -23.358  1.00  0.00    -0.550 OA
ENDBRANCH   2   3
ENDBRANCH   1   2
BRANCH   1   6
ATOM      6  C   UNL     1      31.698   4.016 -26.895  1.00  0.00     0.000 C 
BRANCH   6   7
ATOM      7  C   UNL     1      30.986   4.787 -28.017  1.00  0.00    -0.003 C 
ATOM      8  C   UNL     1      31.439   4.356 -29.411  1.00  0.00     0.004 C 
ENDBRANCH   6   7
ENDBRANCH   1   6
TORSDOF 4
ENDMDL
MODEL 8
REMARK VINA RESULT:    -3.265      1.488      2.105
REMARK INTER + INTRA:          -4.149
REMARK INTER:                  -3.942
REMARK INTRA:                  -0.207
REMARK UNBOUND:                -0.121
REMARK SMILES CCCCCC(=O)[O-]
REMARK SMILES IDX 4 1 5 2 6 3 7 4 8 5 3 6 2 7 1 8
REMARK H PARENT
REMARK Flexibility Score: inf
ROOT
ATOM      1  C   UNL     1      30.637   6.349 -25.121  1.00  0.00     0.006 C 
ENDROOT
BRANCH   1   2
ATOM      2  C   UNL     1      30.944   5.887 -23.692  1.00  0.00     0.053 C 
BRANCH   2   3
ATOM      3  C   UNL     1      30.000   4.803 -23.276  1.00  0.00     0.041 C 
ATOM      4  O   UNL     1      30.083   4.298 -22.127  1.00  0.00    -0.550 OA
ATOM      5  O   UNL     1      29.061   4.317 -24.177  1.00  0.00    -0.550 OA
ENDBRANCH   2   3
ENDBRANCH   1   2
BRANCH   1   6
ATOM      6  C   UNL     1      31.785   5.987 -26.074  1.00  0.00     0.000 C 
BRANCH   6   7
ATOM      7  C   UNL     1      31.802   4.495 -26.438  1.00  0.00    -0.003 C 
ATOM      8  C   UNL     1      30.657   4.099 -27.369  1.00  0.00     0.004 C 
ENDBRANCH   6   7
ENDBRANCH   1   6
TORSDOF 4
ENDMDL
MODEL 9
REMARK VINA RESULT:    -3.210      2.609      3.016
REMARK INTER + INTRA:          -4.082
REMARK INTER:                  -3.849
REMARK INTRA:                  -0.232
REMARK UNBOUND:                -0.121
REMARK SMILES CCCCCC(=O)[O-]
REMARK SMILES IDX 4 1 5 2 6 3 7 4 8 5 3 6 2 7 1 8
REMARK H PARENT
REMARK Flexibility Score: inf
ROOT
ATOM      1  C   UNL     1      29.888   4.576 -24.496  1.00  0.00     0.006 C 
ENDROOT
BRANCH   1   2
ATOM      2  C   UNL     1      30.838   4.500 -23.297  1.00  0.00     0.053 C 
BRANCH   2   3
ATOM      3  C   UNL     1      30.904   5.820 -22.595  1.00  0.00     0.041 C 
ATOM      4  O   UNL     1      30.161   6.049 -21.606  1.00  0.00    -0.550 OA
ATOM      5  O   UNL     1      31.753   6.814 -23.065  1.00  0.00    -0.550 OA
ENDBRANCH   2   3
ENDBRANCH   1   2
BRANCH   1   6
ATOM      6  C   UNL     1      30.574   4.070 -25.773  1.00  0.00     0.000 C 
BRANCH   6   7
ATOM      7  C   UNL     1      31.778   4.933 -26.178  1.00  0.00    -0.003 C 
ATOM      8  C   UNL     1      31.381   6.356 -26.569  1.00  0.00     0.004 C 
ENDBRANCH   6   7
ENDBRANCH   1   6
TORSDOF 4
ENDMDL
