MODEL 1
REMARK VINA RESULT:    -4.959      0.000      0.000
REMARK INTER + INTRA:          -5.104
REMARK INTER:                  -5.104
REMARK INTRA:                   0.000
REMARK UNBOUND:                 0.000
REMARK SMILES O=c1ccc2ccc(O)cc2o1
REMARK SMILES IDX 6 1 7 2 8 3 10 4 11 5 5 6 4 7 3 8 2 9 1 10 12 11 9 12
REMARK H PARENT 9 13
REMARK Flexibility Score: inf
ROOT
ATOM      1  C   UNL     1       8.307  -8.077  -6.678  1.00  0.00     0.016 A 
ATOM      2  C   UNL     1       7.738  -7.152  -5.798  1.00  0.00     0.047 A 
ATOM      3  C   UNL     1       8.202  -5.831  -5.762  1.00  0.00     0.119 A 
ATOM      4  C   UNL     1       9.242  -5.432  -6.613  1.00  0.00     0.094 A 
ATOM      5  C   UNL     1       9.817  -6.350  -7.498  1.00  0.00     0.142 A 
ATOM      6  C   UNL     1       9.347  -7.682  -7.531  1.00  0.00     0.018 A 
ATOM      7  C   UNL     1       9.942  -8.577  -8.426  1.00  0.00     0.019 A 
ATOM      8  C   UNL     1      10.974  -8.134  -9.253  1.00  0.00     0.094 A 
ATOM      9  C   UNL     1      11.388  -6.800  -9.166  1.00  0.00     0.336 A 
ATOM     10  O   UNL     1      12.316  -6.381  -9.903  1.00  0.00    -0.246 OA
ATOM     11  O   UNL     1      10.804  -5.969  -8.305  1.00  0.00    -0.423 OA
ENDROOT
BRANCH   3  12
ATOM     12  O   UNL     1       7.622  -4.924  -4.878  1.00  0.00    -0.508 OA
ATOM     13  H   UNL     1       8.081  -4.659  -4.013  1.00  0.00     0.293 HD
ENDBRANCH   3  12
TORSDOF 1
ENDMDL
MODEL 2
REMARK VINA RESULT:    -4.927      2.596      2.961
REMARK INTER + INTRA:          -5.071
REMARK INTER:                  -5.071
REMARK INTRA:                   0.000
REMARK UNBOUND:                 0.000
REMARK SMILES O=c1ccc2ccc(O)cc2o1
REMARK SMILES IDX 6 1 7 2 8 3 10 4 11 5 5 6 4 7 3 8 2 9 1 10 12 11 9 12
REMARK H PARENT 9 13
REMARK Flexibility Score: inf
ROOT
ATOM      1  C   UNL     1      10.233  -6.215  -7.746  1.00  0.00     0.016 A 
ATOM      2  C   UNL     1       9.506  -5.890  -6.597  1.00  0.00     0.047 A 
ATOM      3  C   UNL     1       8.205  -5.381  -6.703  1.00  0.00     0.119 A 
ATOM      4  C   UNL     1       7.628  -5.194  -7.967  1.00  0.00     0.094 A 
ATOM      5  C   UNL     1       8.348  -5.517  -9.122  1.00  0.00     0.142 A 
ATOM      6  C   UNL     1       9.660  -6.030  -9.012  1.00  0.00     0.018 A 
ATOM      7  C   UNL     1      10.354  -6.344 -10.184  1.00  0.00     0.019 A 
ATOM      8  C   UNL     1       9.739  -6.141 -11.419  1.00  0.00     0.094 A 
ATOM      9  C   UNL     1       8.437  -5.629 -11.452  1.00  0.00     0.336 A 
ATOM     10  O   UNL     1       7.865  -5.439 -12.557  1.00  0.00    -0.246 OA
ATOM     11  O   UNL     1       7.798  -5.339 -10.321  1.00  0.00    -0.423 OA
ENDROOT
BRANCH   3  12
ATOM     12  O   UNL     1       7.496  -5.063  -5.546  1.00  0.00    -0.508 OA
ATOM     13  H   UNL     1       7.536  -4.136  -5.138  1.00  0.00     0.293 HD
ENDBRANCH   3  12
TORSDOF 1
ENDMDL
MODEL 3
REMARK VINA RESULT:    -4.895     22.645     23.766
REMARK INTER + INTRA:          -5.038
REMARK INTER:                  -5.038
REMARK INTRA:                   0.000
REMARK UNBOUND:                 0.000
REMARK SMILES O=c1ccc2ccc(O)cc2o1
REMARK SMILES IDX 6 1 7 2 8 3 10 4 11 5 5 6 4 7 3 8 2 9 1 10 12 11 9 12
REMARK H PARENT 9 13
REMARK Flexibility Score: inf
ROOT
ATOM      1  C   UNL     1      25.125   6.810 -19.455  1.00  0.00     0.016 A 
ATOM      2  C   UNL     1      24.479   5.818 -20.198  1.00  0.00     0.047 A 
ATOM      3  C   UNL     1      23.119   5.939 -20.511  1.00  0.00     0.119 A 
ATOM      4  C   UNL     1      22.400   7.062 -20.078  1.00  0.00     0.094 A 
ATOM      5  C   UNL     1      23.037   8.060 -19.334  1.00  0.00     0.142 A 
ATOM      6  C   UNL     1      24.409   7.934 -19.020  1.00  0.00     0.018 A 
ATOM      7  C   UNL     1      25.018   8.949 -18.275  1.00  0.00     0.019 A 
ATOM      8  C   UNL     1      24.262  10.047 -17.866  1.00  0.00     0.094 A 
ATOM      9  C   UNL     1      22.907  10.105 -18.214  1.00  0.00     0.336 A 
ATOM     10  O   UNL     1      22.208  11.087 -17.855  1.00  0.00    -0.246 OA
ATOM     11  O   UNL     1      22.352   9.125 -18.924  1.00  0.00    -0.423 OA
ENDROOT
BRANCH   3  12
ATOM     12  O   UNL     1      22.494   4.939 -21.253  1.00  0.00    -0.508 OA
ATOM     13  H   UNL     1      22.932   4.036 -21.400  1.00  0.00     0.293 HD
ENDBRANCH   3  12
TORSDOF 1
ENDMDL
MODEL 4
REMARK VINA RESULT:    -4.892      1.677      2.090
REMARK INTER + INTRA:          -5.035
REMARK INTER:                  -5.035
REMARK INTRA:                   0.000
REMARK UNBOUND:                 0.000
REMARK SMILES O=c1ccc2ccc(O)cc2o1
REMARK SMILES IDX 6 1 7 2 8 3 10 4 11 5 5 6 4 7 3 8 2 9 1 10 12 11 9 12
REMARK H PARENT 9 13
REMARK Flexibility Score: inf
ROOT
ATOM      1  C   UNL     1       7.547  -5.525  -8.812  1.00  0.00     0.016 A 
ATOM      2  C   UNL     1       7.196  -5.683  -7.468  1.00  0.00     0.047 A 
ATOM      3  C   UNL     1       8.175  -5.982  -6.511  1.00  0.00     0.119 A 
ATOM      4  C   UNL     1       9.514  -6.125  -6.902  1.00  0.00     0.094 A 
ATOM      5  C   UNL     1       9.874  -5.969  -8.244  1.00  0.00     0.142 A 
ATOM      6  C   UNL     1       8.885  -5.668  -9.207  1.00  0.00     0.018 A 
ATOM      7  C   UNL     1       9.276  -5.518 -10.541  1.00  0.00     0.019 A 
ATOM      8  C   UNL     1      10.619  -5.669 -10.882  1.00  0.00     0.094 A 
ATOM      9  C   UNL     1      11.545  -5.968  -9.876  1.00  0.00     0.336 A 
ATOM     10  O   UNL     1      12.761  -6.108 -10.163  1.00  0.00    -0.246 OA
ATOM     11  O   UNL     1      11.146  -6.105  -8.613  1.00  0.00    -0.423 OA
ENDROOT
BRANCH   3  12
ATOM     12  O   UNL     1       7.806  -6.134  -5.176  1.00  0.00    -0.508 OA
ATOM     13  H   UNL     1       6.851  -6.351  -4.912  1.00  0.00     0.293 HD
ENDBRANCH   3  12
TORSDOF 1
ENDMDL
MODEL 5
REMARK VINA RESULT:    -4.832     22.939     23.539
REMARK INTER + INTRA:          -4.973
REMARK INTER:                  -4.973
REMARK INTRA:                   0.000
REMARK UNBOUND:                 0.000
REMARK SMILES O=c1ccc2ccc(O)cc2o1
REMARK SMILES IDX 6 1 7 2 8 3 10 4 11 5 5 6 4 7 3 8 2 9 1 10 12 11 9 12
REMARK H PARENT 9 13
REMARK Flexibility Score: inf
ROOT
ATOM      1  C   UNL     1      24.825   8.679 -18.411  1.00  0.00     0.016 A 
ATOM      2  C   UNL     1      24.004   9.756 -18.060  1.00  0.00     0.047 A 
ATOM      3  C   UNL     1      22.694   9.837 -18.550  1.00  0.00     0.119 A 
ATOM      4  C   UNL     1      22.202   8.834 -19.397  1.00  0.00     0.094 A 
ATOM      5  C   UNL     1      23.015   7.753 -19.754  1.00  0.00     0.142 A 
ATOM      6  C   UNL     1      24.335   7.675 -19.258  1.00  0.00     0.018 A 
ATOM      7  C   UNL     1      25.124   6.582 -19.632  1.00  0.00     0.019 A 
ATOM      8  C   UNL     1      24.590   5.610 -20.476  1.00  0.00     0.094 A 
ATOM      9  C   UNL     1      23.274   5.753 -20.929  1.00  0.00     0.336 A 
ATOM     10  O   UNL     1      22.774   4.886 -21.691  1.00  0.00    -0.246 OA
ATOM     11  O   UNL     1      22.544   6.803 -20.558  1.00  0.00    -0.423 OA
ENDROOT
BRANCH   3  12
ATOM     12  O   UNL     1      21.893  10.917 -18.189  1.00  0.00    -0.508 OA
ATOM     13  H   UNL     1      21.714  11.143 -17.216  1.00  0.00     0.293 HD
ENDBRANCH   3  12
TORSDOF 1
ENDMDL
MODEL 6
REMARK VINA RESULT:    -4.764      9.830     10.968
REMARK INTER + INTRA:          -4.904
REMARK INTER:                  -4.904
REMARK INTRA:                   0.000
REMARK UNBOUND:                 0.000
REMARK SMILES O=c1ccc2ccc(O)cc2o1
REMARK SMILES IDX 6 1 7 2 8 3 10 4 11 5 5 6 4 7 3 8 2 9 1 10 12 11 9 12
REMARK H PARENT 9 13
REMARK Flexibility Score: inf
ROOT
ATOM      1  C   UNL     1      13.000   4.010  -3.328  1.00  0.00     0.016 A 
ATOM      2  C   UNL     1      11.829   3.396  -2.875  1.00  0.00     0.047 A 
ATOM      3  C   UNL     1      11.099   2.551  -3.721  1.00  0.00     0.119 A 
ATOM      4  C   UNL     1      11.544   2.319  -5.030  1.00  0.00     0.094 A 
ATOM      5  C   UNL     1      12.714   2.928  -5.493  1.00  0.00     0.142 A 
ATOM      6  C   UNL     1      13.448   3.780  -4.637  1.00  0.00     0.018 A 
ATOM      7  C   UNL     1      14.615   4.375  -5.128  1.00  0.00     0.019 A 
ATOM      8  C   UNL     1      15.017   4.114  -6.437  1.00  0.00     0.094 A 
ATOM      9  C   UNL     1      14.241   3.260  -7.228  1.00  0.00     0.336 A 
ATOM     10  O   UNL     1      14.588   3.012  -8.411  1.00  0.00    -0.246 OA
ATOM     11  O   UNL     1      13.135   2.706  -6.736  1.00  0.00    -0.423 OA
ENDROOT
BRANCH   3  12
ATOM     12  O   UNL     1       9.935   1.948  -3.250  1.00  0.00    -0.508 OA
ATOM     13  H   UNL     1       9.940   1.354  -2.429  1.00  0.00     0.293 HD
ENDBRANCH   3  12
TORSDOF 1
ENDMDL
MODEL 7
REMARK VINA RESULT:    -4.748      1.795      4.712
REMARK INTER + INTRA:          -4.887
REMARK INTER:                  -4.887
REMARK INTRA:                   0.000
REMARK UNBOUND:                 0.000
REMARK SMILES O=c1ccc2ccc(O)cc2o1
REMARK SMILES IDX 6 1 7 2 8 3 10 4 11 5 5 6 4 7 3 8 2 9 1 10 12 11 9 12
REMARK H PARENT 9 13
REMARK Flexibility Score: inf
ROOT
ATOM      1  C   UNL     1       9.213  -5.486 -10.607  1.00  0.00     0.016 A 
ATOM      2  C   UNL     1      10.516  -5.751 -11.039  1.00  0.00     0.047 A 
ATOM      3  C   UNL     1      11.489  -6.187 -10.131  1.00  0.00     0.119 A 
ATOM      4  C   UNL     1      11.156  -6.360  -8.780  1.00  0.00     0.094 A 
ATOM      5  C   UNL     1       9.855  -6.098  -8.338  1.00  0.00     0.142 A 
ATOM      6  C   UNL     1       8.877  -5.658  -9.256  1.00  0.00     0.018 A 
ATOM      7  C   UNL     1       7.585  -5.405  -8.785  1.00  0.00     0.019 A 
ATOM      8  C   UNL     1       7.301  -5.591  -7.432  1.00  0.00     0.094 A 
ATOM      9  C   UNL     1       8.321  -6.029  -6.579  1.00  0.00     0.336 A 
ATOM     10  O   UNL     1       8.085  -6.203  -5.356  1.00  0.00    -0.246 OA
ATOM     11  O   UNL     1       9.542  -6.263  -7.055  1.00  0.00    -0.423 OA
ENDROOT
BRANCH   3  12
ATOM     12  O   UNL     1      12.781  -6.446 -10.582  1.00  0.00    -0.508 OA
ATOM     13  H   UNL     1      13.585  -6.348  -9.971  1.00  0.00     0.293 HD
ENDBRANCH   3  12
TORSDOF 1
ENDMDL
MODEL 8
REMARK VINA RESULT:    -4.714     11.075     12.678
REMARK INTER + INTRA:          -4.851
REMARK INTER:                  -4.851
REMARK INTRA:                   0.000
REMARK UNBOUND:                 0.000
REMARK SMILES O=c1ccc2ccc(O)cc2o1
REMARK SMILES IDX 6 1 7 2 8 3 10 4 11 5 5 6 4 7 3 8 2 9 1 10 12 11 9 12
REMARK H PARENT 9 13
REMARK Flexibility Score: inf
ROOT
ATOM      1  C   UNL     1      20.692  -2.369  -8.523  1.00  0.00     0.016 A 
ATOM      2  C   UNL     1      19.352  -2.401  -8.127  1.00  0.00     0.047 A 
ATOM      3  C   UNL     1      19.004  -2.825  -6.839  1.00  0.00     0.119 A 
ATOM      4  C   UNL     1      20.004  -3.221  -5.939  1.00  0.00     0.094 A 
ATOM      5  C   UNL     1      21.348  -3.192  -6.326  1.00  0.00     0.142 A 
ATOM      6  C   UNL     1      21.695  -2.764  -7.626  1.00  0.00     0.018 A 
ATOM      7  C   UNL     1      23.047  -2.745  -7.984  1.00  0.00     0.019 A 
ATOM      8  C   UNL     1      24.007  -3.147  -7.055  1.00  0.00     0.094 A 
ATOM      9  C   UNL     1      23.589  -3.560  -5.784  1.00  0.00     0.336 A 
ATOM     10  O   UNL     1      24.439  -3.926  -4.932  1.00  0.00    -0.246 OA
ATOM     11  O   UNL     1      22.295  -3.567  -5.470  1.00  0.00    -0.423 OA
ENDROOT
BRANCH   3  12
ATOM     12  O   UNL     1      17.663  -2.850  -6.463  1.00  0.00    -0.508 OA
ATOM     13  H   UNL     1      16.976  -2.253  -6.911  1.00  0.00     0.293 HD
ENDBRANCH   3  12
TORSDOF 1
ENDMDL
MODEL 9
REMARK VINA RESULT:    -4.654     22.232     23.156
REMARK INTER + INTRA:          -4.790
REMARK INTER:                  -4.790
REMARK INTRA:                   0.000
REMARK UNBOUND:                 0.000
REMARK SMILES O=c1ccc2ccc(O)cc2o1
REMARK SMILES IDX 6 1 7 2 8 3 10 4 11 5 5 6 4 7 3 8 2 9 1 10 12 11 9 12
REMARK H PARENT 9 13
REMARK Flexibility Score: inf
ROOT
ATOM      1  C   UNL     1      22.206  10.021 -18.613  1.00  0.00     0.016 A 
ATOM      2  C   UNL     1      20.839   9.997 -18.903  1.00  0.00     0.047 A 
ATOM      3  C   UNL     1      20.256   8.858 -19.474  1.00  0.00     0.119 A 
ATOM      4  C   UNL     1      21.047   7.736 -19.757  1.00  0.00     0.094 A 
ATOM      5  C   UNL     1      22.415   7.750 -19.470  1.00  0.00     0.142 A 
ATOM      6  C   UNL     1      23.000   8.900 -18.895  1.00  0.00     0.018 A 
ATOM      7  C   UNL     1      24.371   8.884 -18.619  1.00  0.00     0.019 A 
ATOM      8  C   UNL     1      25.117   7.744 -18.918  1.00  0.00     0.094 A 
ATOM      9  C   UNL     1      24.470   6.641 -19.488  1.00  0.00     0.336 A 
ATOM     10  O   UNL     1      25.125   5.604 -19.765  1.00  0.00    -0.246 OA
ATOM     11  O   UNL     1      23.163   6.683 -19.740  1.00  0.00    -0.423 OA
ENDROOT
BRANCH   3  12
ATOM     12  O   UNL     1      18.891   8.854 -19.755  1.00  0.00    -0.508 OA
ATOM     13  H   UNL     1      18.222   8.421 -19.128  1.00  0.00     0.293 HD
ENDBRANCH   3  12
TORSDOF 1
ENDMDL
