MODEL 1
REMARK VINA RESULT:    -4.417      0.000      0.000
REMARK INTER + INTRA:          -6.639
REMARK INTER:                  -6.483
REMARK INTRA:                  -0.156
REMARK UNBOUND:                -0.156
REMARK SMILES O=C([O-])CCCCCCCC(=O)[O-]
REMARK SMILES IDX 7 1 6 2 5 3 4 4 2 5 1 6 3 7 8 8 9 9 10 10 11 11 12 12 13 13
REMARK H PARENT
REMARK Flexibility Score: inf
ROOT
ATOM      1  C   UNL     1     -19.734  -5.242  23.107  1.00  0.00     0.000 C 
ENDROOT
BRANCH   1   2
ATOM      2  C   UNL     1     -18.762  -5.935  22.139  1.00  0.00     0.000 C 
BRANCH   2   3
ATOM      3  C   UNL     1     -17.434  -5.167  22.052  1.00  0.00     0.006 C 
BRANCH   3   4
ATOM      4  C   UNL     1     -16.241  -6.017  22.507  1.00  0.00     0.053 C 
BRANCH   4   5
ATOM      5  C   UNL     1     -15.189  -6.114  21.445  1.00  0.00     0.041 C 
ATOM      6  O   UNL     1     -14.280  -6.981  21.531  1.00  0.00    -0.550 OA
ATOM      7  O   UNL     1     -15.230  -5.269  20.343  1.00  0.00    -0.550 OA
ENDBRANCH   4   5
ENDBRANCH   3   4
ENDBRANCH   2   3
ENDBRANCH   1   2
BRANCH   1   8
ATOM      8  C   UNL     1     -20.828  -6.188  23.627  1.00  0.00     0.000 C 
BRANCH   8   9
ATOM      9  C   UNL     1     -21.762  -5.512  24.640  1.00  0.00     0.006 C 
BRANCH   9  10
ATOM     10  C   UNL     1     -22.498  -6.555  25.488  1.00  0.00     0.053 C 
BRANCH  10  11
ATOM     11  C   UNL     1     -23.030  -5.933  26.740  1.00  0.00     0.041 C 
ATOM     12  O   UNL     1     -23.918  -5.042  26.676  1.00  0.00    -0.550 OA
ATOM     13  O   UNL     1     -22.511  -6.300  27.974  1.00  0.00    -0.550 OA
ENDBRANCH  10  11
ENDBRANCH   9  10
ENDBRANCH   8   9
ENDBRANCH   1   8
TORSDOF 8
ENDMDL
MODEL 2
REMARK VINA RESULT:    -4.364     16.690     17.828
REMARK INTER + INTRA:          -6.560
REMARK INTER:                  -6.021
REMARK INTRA:                  -0.539
REMARK UNBOUND:                -0.156
REMARK SMILES O=C([O-])CCCCCCCC(=O)[O-]
REMARK SMILES IDX 7 1 6 2 5 3 4 4 2 5 1 6 3 7 8 8 9 9 10 10 11 11 12 12 13 13
REMARK H PARENT
REMARK Flexibility Score: inf
ROOT
ATOM      1  C   UNL     1     -15.208  10.384  30.384  1.00  0.00     0.000 C 
ENDROOT
BRANCH   1   2
ATOM      2  C   UNL     1     -14.929  10.460  31.893  1.00  0.00     0.000 C 
BRANCH   2   3
ATOM      3  C   UNL     1     -14.889   9.056  32.515  1.00  0.00     0.006 C 
BRANCH   3   4
ATOM      4  C   UNL     1     -14.252   8.023  31.576  1.00  0.00     0.053 C 
BRANCH   4   5
ATOM      5  C   UNL     1     -15.196   6.906  31.254  1.00  0.00     0.041 C 
ATOM      6  O   UNL     1     -14.764   5.730  31.122  1.00  0.00    -0.550 OA
ATOM      7  O   UNL     1     -16.557   7.155  31.134  1.00  0.00    -0.550 OA
ENDBRANCH   4   5
ENDBRANCH   3   4
ENDBRANCH   2   3
ENDBRANCH   1   2
BRANCH   1   8
ATOM      8  C   UNL     1     -14.740  11.639  29.631  1.00  0.00     0.000 C 
BRANCH   8   9
ATOM      9  C   UNL     1     -13.776  11.315  28.481  1.00  0.00     0.006 C 
BRANCH   9  10
ATOM     10  C   UNL     1     -13.606   9.800  28.319  1.00  0.00     0.053 C 
BRANCH  10  11
ATOM     11  C   UNL     1     -13.925   9.383  26.919  1.00  0.00     0.041 C 
ATOM     12  O   UNL     1     -13.028   9.393  26.035  1.00  0.00    -0.550 OA
ATOM     13  O   UNL     1     -15.224   9.030  26.578  1.00  0.00    -0.550 OA
ENDBRANCH  10  11
ENDBRANCH   9  10
ENDBRANCH   8   9
ENDBRANCH   1   8
TORSDOF 8
ENDMDL
MODEL 3
REMARK VINA RESULT:    -4.320     16.659     17.150
REMARK INTER + INTRA:          -6.497
REMARK INTER:                  -5.947
REMARK INTRA:                  -0.550
REMARK UNBOUND:                -0.156
REMARK SMILES O=C([O-])CCCCCCCC(=O)[O-]
REMARK SMILES IDX 7 1 6 2 5 3 4 4 2 5 1 6 3 7 8 8 9 9 10 10 11 11 12 12 13 13
REMARK H PARENT
REMARK Flexibility Score: inf
ROOT
ATOM      1  C   UNL     1     -15.322  10.451  30.336  1.00  0.00     0.000 C 
ENDROOT
BRANCH   1   2
ATOM      2  C   UNL     1     -14.706  11.623  29.554  1.00  0.00     0.000 C 
BRANCH   2   3
ATOM      3  C   UNL     1     -13.694  11.117  28.515  1.00  0.00     0.006 C 
BRANCH   3   4
ATOM      4  C   UNL     1     -13.922   9.645  28.150  1.00  0.00     0.053 C 
BRANCH   4   5
ATOM      5  C   UNL     1     -14.165   9.466  26.683  1.00  0.00     0.041 C 
ATOM      6  O   UNL     1     -13.207   9.543  25.869  1.00  0.00    -0.550 OA
ATOM      7  O   UNL     1     -15.442   9.182  26.216  1.00  0.00    -0.550 OA
ENDBRANCH   4   5
ENDBRANCH   3   4
ENDBRANCH   2   3
ENDBRANCH   1   2
BRANCH   1   8
ATOM      8  C   UNL     1     -14.992  10.502  31.836  1.00  0.00     0.000 C 
BRANCH   8   9
ATOM      9  C   UNL     1     -14.840   9.106  32.456  1.00  0.00     0.006 C 
BRANCH   9  10
ATOM     10  C   UNL     1     -14.302   8.105  31.428  1.00  0.00     0.053 C 
BRANCH  10  11
ATOM     11  C   UNL     1     -15.252   6.962  31.261  1.00  0.00     0.041 C 
ATOM     12  O   UNL     1     -14.819   5.780  31.221  1.00  0.00    -0.550 OA
ATOM     13  O   UNL     1     -16.610   7.203  31.099  1.00  0.00    -0.550 OA
ENDBRANCH  10  11
ENDBRANCH   9  10
ENDBRANCH   8   9
ENDBRANCH   1   8
TORSDOF 8
ENDMDL
MODEL 4
REMARK VINA RESULT:    -4.320      1.507      2.161
REMARK INTER + INTRA:          -6.497
REMARK INTER:                  -6.113
REMARK INTRA:                  -0.384
REMARK UNBOUND:                -0.156
REMARK SMILES O=C([O-])CCCCCCCC(=O)[O-]
REMARK SMILES IDX 7 1 6 2 5 3 4 4 2 5 1 6 3 7 8 8 9 9 10 10 11 11 12 12 13 13
REMARK H PARENT
REMARK Flexibility Score: inf
ROOT
ATOM      1  C   UNL     1     -18.098  -3.822  22.674  1.00  0.00     0.000 C 
ENDROOT
BRANCH   1   2
ATOM      2  C   UNL     1     -16.629  -4.212  22.447  1.00  0.00     0.000 C 
BRANCH   2   3
ATOM      3  C   UNL     1     -16.438  -5.731  22.576  1.00  0.00     0.006 C 
BRANCH   3   4
ATOM      4  C   UNL     1     -15.383  -6.268  21.600  1.00  0.00     0.053 C 
BRANCH   4   5
ATOM      5  C   UNL     1     -15.957  -6.508  20.237  1.00  0.00     0.041 C 
ATOM      6  O   UNL     1     -17.199  -6.652  20.089  1.00  0.00    -0.550 OA
ATOM      7  O   UNL     1     -15.124  -6.540  19.126  1.00  0.00    -0.550 OA
ENDBRANCH   4   5
ENDBRANCH   3   4
ENDBRANCH   2   3
ENDBRANCH   1   2
BRANCH   1   8
ATOM      8  C   UNL     1     -19.036  -5.039  22.697  1.00  0.00     0.000 C 
BRANCH   8   9
ATOM      9  C   UNL     1     -20.294  -4.800  23.544  1.00  0.00     0.006 C 
BRANCH   9  10
ATOM     10  C   UNL     1     -21.025  -6.118  23.824  1.00  0.00     0.053 C 
BRANCH  10  11
ATOM     11  C   UNL     1     -22.158  -5.898  24.775  1.00  0.00     0.041 C 
ATOM     12  O   UNL     1     -22.913  -4.899  24.640  1.00  0.00    -0.550 OA
ATOM     13  O   UNL     1     -22.351  -6.767  25.841  1.00  0.00    -0.550 OA
ENDBRANCH  10  11
ENDBRANCH   9  10
ENDBRANCH   8   9
ENDBRANCH   1   8
TORSDOF 8
ENDMDL
MODEL 5
REMARK VINA RESULT:    -4.307      1.211      7.442
REMARK INTER + INTRA:          -6.477
REMARK INTER:                  -6.180
REMARK INTRA:                  -0.298
REMARK UNBOUND:                -0.156
REMARK SMILES O=C([O-])CCCCCCCC(=O)[O-]
REMARK SMILES IDX 7 1 6 2 5 3 4 4 2 5 1 6 3 7 8 8 9 9 10 10 11 11 12 12 13 13
REMARK H PARENT
REMARK Flexibility Score: inf
ROOT
ATOM      1  C   UNL     1     -20.161  -4.103  23.958  1.00  0.00     0.000 C 
ENDROOT
BRANCH   1   2
ATOM      2  C   UNL     1     -20.717  -5.401  23.353  1.00  0.00     0.000 C 
BRANCH   2   3
ATOM      3  C   UNL     1     -21.564  -6.166  24.382  1.00  0.00     0.006 C 
BRANCH   3   4
ATOM      4  C   UNL     1     -22.261  -5.227  25.374  1.00  0.00     0.053 C 
BRANCH   4   5
ATOM      5  C   UNL     1     -23.300  -5.942  26.182  1.00  0.00     0.041 C 
ATOM      6  O   UNL     1     -24.466  -6.088  25.728  1.00  0.00    -0.550 OA
ATOM      7  O   UNL     1     -22.974  -6.476  27.422  1.00  0.00    -0.550 OA
ENDBRANCH   4   5
ENDBRANCH   3   4
ENDBRANCH   2   3
ENDBRANCH   1   2
BRANCH   1   8
ATOM      8  C   UNL     1     -18.889  -3.615  23.246  1.00  0.00     0.000 C 
BRANCH   8   9
ATOM      9  C   UNL     1     -18.240  -4.704  22.381  1.00  0.00     0.006 C 
BRANCH   9  10
ATOM     10  C   UNL     1     -16.715  -4.690  22.534  1.00  0.00     0.053 C 
BRANCH  10  11
ATOM     11  C   UNL     1     -16.133  -6.002  22.113  1.00  0.00     0.041 C 
ATOM     12  O   UNL     1     -15.641  -6.781  22.971  1.00  0.00    -0.550 OA
ATOM     13  O   UNL     1     -16.088  -6.343  20.768  1.00  0.00    -0.550 OA
ENDBRANCH  10  11
ENDBRANCH   9  10
ENDBRANCH   8   9
ENDBRANCH   1   8
TORSDOF 8
ENDMDL
MODEL 6
REMARK VINA RESULT:    -4.238      1.105      7.578
REMARK INTER + INTRA:          -6.376
REMARK INTER:                  -6.053
REMARK INTRA:                  -0.323
REMARK UNBOUND:                -0.156
REMARK SMILES O=C([O-])CCCCCCCC(=O)[O-]
REMARK SMILES IDX 7 1 6 2 5 3 4 4 2 5 1 6 3 7 8 8 9 9 10 10 11 11 12 12 13 13
REMARK H PARENT
REMARK Flexibility Score: inf
ROOT
ATOM      1  C   UNL     1     -19.756  -4.515  23.393  1.00  0.00     0.000 C 
ENDROOT
BRANCH   1   2
ATOM      2  C   UNL     1     -20.371  -5.922  23.351  1.00  0.00     0.000 C 
BRANCH   2   3
ATOM      3  C   UNL     1     -21.695  -5.965  24.130  1.00  0.00     0.006 C 
BRANCH   3   4
ATOM      4  C   UNL     1     -21.870  -4.747  25.046  1.00  0.00     0.053 C 
BRANCH   4   5
ATOM      5  C   UNL     1     -22.703  -5.069  26.248  1.00  0.00     0.041 C 
ATOM      6  O   UNL     1     -23.520  -6.027  26.214  1.00  0.00    -0.550 OA
ATOM      7  O   UNL     1     -22.555  -4.334  27.417  1.00  0.00    -0.550 OA
ENDBRANCH   4   5
ENDBRANCH   3   4
ENDBRANCH   2   3
ENDBRANCH   1   2
BRANCH   1   8
ATOM      8  C   UNL     1     -18.485  -4.398  22.537  1.00  0.00     0.000 C 
BRANCH   8   9
ATOM      9  C   UNL     1     -17.851  -5.763  22.229  1.00  0.00     0.006 C 
BRANCH   9  10
ATOM     10  C   UNL     1     -16.334  -5.722  22.439  1.00  0.00     0.053 C 
BRANCH  10  11
ATOM     11  C   UNL     1     -15.627  -6.360  21.286  1.00  0.00     0.041 C 
ATOM     12  O   UNL     1     -14.400  -6.632  21.367  1.00  0.00    -0.550 OA
ATOM     13  O   UNL     1     -16.310  -6.608  20.102  1.00  0.00    -0.550 OA
ENDBRANCH  10  11
ENDBRANCH   9  10
ENDBRANCH   8   9
ENDBRANCH   1   8
TORSDOF 8
ENDMDL
MODEL 7
REMARK VINA RESULT:    -4.216      1.631      7.458
REMARK INTER + INTRA:          -6.344
REMARK INTER:                  -5.903
REMARK INTRA:                  -0.441
REMARK UNBOUND:                -0.156
REMARK SMILES O=C([O-])CCCCCCCC(=O)[O-]
REMARK SMILES IDX 7 1 6 2 5 3 4 4 2 5 1 6 3 7 8 8 9 9 10 10 11 11 12 12 13 13
REMARK H PARENT
REMARK Flexibility Score: inf
ROOT
ATOM      1  C   UNL     1     -18.115  -3.930  22.452  1.00  0.00     0.000 C 
ENDROOT
BRANCH   1   2
ATOM      2  C   UNL     1     -19.038  -5.137  22.686  1.00  0.00     0.000 C 
BRANCH   2   3
ATOM      3  C   UNL     1     -20.232  -4.749  23.571  1.00  0.00     0.006 C 
BRANCH   3   4
ATOM      4  C   UNL     1     -21.141  -5.947  23.878  1.00  0.00     0.053 C 
BRANCH   4   5
ATOM      5  C   UNL     1     -22.246  -5.581  24.820  1.00  0.00     0.041 C 
ATOM      6  O   UNL     1     -22.123  -4.590  25.586  1.00  0.00    -0.550 OA
ATOM      7  O   UNL     1     -23.426  -6.315  24.830  1.00  0.00    -0.550 OA
ENDBRANCH   4   5
ENDBRANCH   3   4
ENDBRANCH   2   3
ENDBRANCH   1   2
BRANCH   1   8
ATOM      8  C   UNL     1     -16.626  -4.303  22.515  1.00  0.00     0.000 C 
BRANCH   8   9
ATOM      9  C   UNL     1     -16.394  -5.821  22.495  1.00  0.00     0.006 C 
BRANCH   9  10
ATOM     10  C   UNL     1     -15.387  -6.208  21.407  1.00  0.00     0.053 C 
BRANCH  10  11
ATOM     11  C   UNL     1     -15.962  -5.961  20.048  1.00  0.00     0.041 C 
ATOM     12  O   UNL     1     -17.066  -6.472  19.725  1.00  0.00    -0.550 OA
ATOM     13  O   UNL     1     -15.255  -5.206  19.122  1.00  0.00    -0.550 OA
ENDBRANCH  10  11
ENDBRANCH   9  10
ENDBRANCH   8   9
ENDBRANCH   1   8
TORSDOF 8
ENDMDL
MODEL 8
REMARK VINA RESULT:    -4.152      4.592      8.317
REMARK INTER + INTRA:          -6.250
REMARK INTER:                  -5.583
REMARK INTRA:                  -0.666
REMARK UNBOUND:                -0.156
REMARK SMILES O=C([O-])CCCCCCCC(=O)[O-]
REMARK SMILES IDX 7 1 6 2 5 3 4 4 2 5 1 6 3 7 8 8 9 9 10 10 11 11 12 12 13 13
REMARK H PARENT
REMARK Flexibility Score: inf
ROOT
ATOM      1  C   UNL     1     -15.088  -7.002  21.338  1.00  0.00     0.000 C 
ENDROOT
BRANCH   1   2
ATOM      2  C   UNL     1     -15.845  -6.490  22.572  1.00  0.00     0.000 C 
BRANCH   2   3
ATOM      3  C   UNL     1     -16.641  -5.219  22.239  1.00  0.00     0.006 C 
BRANCH   3   4
ATOM      4  C   UNL     1     -18.157  -5.455  22.280  1.00  0.00     0.053 C 
BRANCH   4   5
ATOM      5  C   UNL     1     -18.735  -5.600  20.906  1.00  0.00     0.041 C 
ATOM      6  O   UNL     1     -19.324  -4.630  20.361  1.00  0.00    -0.550 OA
ATOM      7  O   UNL     1     -18.595  -6.796  20.212  1.00  0.00    -0.550 OA
ENDBRANCH   4   5
ENDBRANCH   3   4
ENDBRANCH   2   3
ENDBRANCH   1   2
BRANCH   1   8
ATOM      8  C   UNL     1     -15.035  -5.966  20.204  1.00  0.00     0.000 C 
BRANCH   8   9
ATOM      9  C   UNL     1     -15.375  -6.571  18.834  1.00  0.00     0.006 C 
BRANCH   9  10
ATOM     10  C   UNL     1     -15.824  -5.483  17.851  1.00  0.00     0.053 C 
BRANCH  10  11
ATOM     11  C   UNL     1     -14.714  -5.134  16.912  1.00  0.00     0.041 C 
ATOM     12  O   UNL     1     -13.646  -5.801  16.918  1.00  0.00    -0.550 OA
ATOM     13  O   UNL     1     -14.838  -4.042  16.064  1.00  0.00    -0.550 OA
ENDBRANCH  10  11
ENDBRANCH   9  10
ENDBRANCH   8   9
ENDBRANCH   1   8
TORSDOF 8
ENDMDL
