MODEL 1
REMARK VINA RESULT:    -3.707      0.000      0.000
REMARK INTER + INTRA:          -5.192
REMARK INTER:                  -5.008
REMARK INTRA:                  -0.184
REMARK UNBOUND:                -0.184
REMARK SMILES CCCCCCCC(=O)[O-]
REMARK SMILES IDX 5 1 6 2 7 3 8 4 9 5 10 6 4 7 3 8 2 9 1 10
REMARK H PARENT
REMARK Flexibility Score: inf
ROOT
ATOM      1  C   UNL     1       6.218  -0.320  -2.084  1.00  0.00     0.000 C 
ENDROOT
BRANCH   1   2
ATOM      2  C   UNL     1       5.422  -0.335  -0.770  1.00  0.00     0.006 C 
BRANCH   2   3
ATOM      3  C   UNL     1       6.336  -0.356   0.463  1.00  0.00     0.053 C 
BRANCH   3   4
ATOM      4  C   UNL     1       5.672   0.261   1.656  1.00  0.00     0.041 C 
ATOM      5  O   UNL     1       5.387  -0.445   2.658  1.00  0.00    -0.550 OA
ATOM      6  O   UNL     1       5.338   1.609   1.646  1.00  0.00    -0.550 OA
ENDBRANCH   3   4
ENDBRANCH   2   3
ENDBRANCH   1   2
BRANCH   1   7
ATOM      7  C   UNL     1       5.864  -1.535  -2.954  1.00  0.00     0.000 C 
BRANCH   7   8
ATOM      8  C   UNL     1       4.881  -1.188  -4.083  1.00  0.00    -0.000 C 
BRANCH   8   9
ATOM      9  C   UNL     1       3.440  -1.611  -3.763  1.00  0.00    -0.003 C 
ATOM     10  C   UNL     1       2.503  -1.299  -4.927  1.00  0.00     0.004 C 
ENDBRANCH   8   9
ENDBRANCH   7   8
ENDBRANCH   1   7
TORSDOF 6
ENDMDL
MODEL 2
REMARK VINA RESULT:    -3.635      0.808      1.417
REMARK INTER + INTRA:          -5.094
REMARK INTER:                  -4.902
REMARK INTRA:                  -0.192
REMARK UNBOUND:                -0.184
REMARK SMILES CCCCCCCC(=O)[O-]
REMARK SMILES IDX 5 1 6 2 7 3 8 4 9 5 10 6 4 7 3 8 2 9 1 10
REMARK H PARENT
REMARK Flexibility Score: inf
ROOT
ATOM      1  C   UNL     1       6.761  -1.506  -1.471  1.00  0.00     0.000 C 
ENDROOT
BRANCH   1   2
ATOM      2  C   UNL     1       6.515  -1.127  -0.003  1.00  0.00     0.006 C 
BRANCH   2   3
ATOM      3  C   UNL     1       5.636   0.123   0.136  1.00  0.00     0.053 C 
BRANCH   3   4
ATOM      4  C   UNL     1       5.514   0.560   1.564  1.00  0.00     0.041 C 
ATOM      5  O   UNL     1       5.588   1.781   1.862  1.00  0.00    -0.550 OA
ATOM      6  O   UNL     1       5.353  -0.384   2.569  1.00  0.00    -0.550 OA
ENDBRANCH   3   4
ENDBRANCH   2   3
ENDBRANCH   1   2
BRANCH   1   7
ATOM      7  C   UNL     1       5.675  -0.910  -2.379  1.00  0.00     0.000 C 
BRANCH   7   8
ATOM      8  C   UNL     1       5.347  -1.813  -3.580  1.00  0.00    -0.000 C 
BRANCH   8   9
ATOM      9  C   UNL     1       4.161  -1.290  -4.404  1.00  0.00    -0.003 C 
ATOM     10  C   UNL     1       2.836  -1.802  -3.847  1.00  0.00     0.004 C 
ENDBRANCH   8   9
ENDBRANCH   7   8
ENDBRANCH   1   7
TORSDOF 6
ENDMDL
MODEL 3
REMARK VINA RESULT:    -3.494      2.182      3.314
REMARK INTER + INTRA:          -4.904
REMARK INTER:                  -4.607
REMARK INTRA:                  -0.297
REMARK UNBOUND:                -0.184
REMARK SMILES CCCCCCCC(=O)[O-]
REMARK SMILES IDX 5 1 6 2 7 3 8 4 9 5 10 6 4 7 3 8 2 9 1 10
REMARK H PARENT
REMARK Flexibility Score: inf
ROOT
ATOM      1  C   UNL     1       6.027  -0.427  -1.961  1.00  0.00     0.000 C 
ENDROOT
BRANCH   1   2
ATOM      2  C   UNL     1       5.269  -0.402  -0.625  1.00  0.00     0.006 C 
BRANCH   2   3
ATOM      3  C   UNL     1       5.672   0.793   0.250  1.00  0.00     0.053 C 
BRANCH   3   4
ATOM      4  C   UNL     1       6.138   0.356   1.605  1.00  0.00     0.041 C 
ATOM      5  O   UNL     1       7.356   0.433   1.912  1.00  0.00    -0.550 OA
ATOM      6  O   UNL     1       5.230  -0.167   2.517  1.00  0.00    -0.550 OA
ENDBRANCH   3   4
ENDBRANCH   2   3
ENDBRANCH   1   2
BRANCH   1   7
ATOM      7  C   UNL     1       6.837  -1.723  -2.108  1.00  0.00     0.000 C 
BRANCH   7   8
ATOM      8  C   UNL     1       7.298  -2.289  -0.755  1.00  0.00    -0.000 C 
BRANCH   8   9
ATOM      9  C   UNL     1       7.923  -3.686  -0.881  1.00  0.00    -0.003 C 
ATOM     10  C   UNL     1       8.134  -4.064  -2.345  1.00  0.00     0.004 C 
ENDBRANCH   8   9
ENDBRANCH   7   8
ENDBRANCH   1   7
TORSDOF 6
ENDMDL
MODEL 4
REMARK VINA RESULT:    -3.389      2.412      3.358
REMARK INTER + INTRA:          -4.762
REMARK INTER:                  -4.429
REMARK INTRA:                  -0.333
REMARK UNBOUND:                -0.184
REMARK SMILES CCCCCCCC(=O)[O-]
REMARK SMILES IDX 5 1 6 2 7 3 8 4 9 5 10 6 4 7 3 8 2 9 1 10
REMARK H PARENT
REMARK Flexibility Score: inf
ROOT
ATOM      1  C   UNL     1       6.376   0.884  -0.631  1.00  0.00     0.000 C 
ENDROOT
BRANCH   1   2
ATOM      2  C   UNL     1       5.677   1.549   0.564  1.00  0.00     0.006 C 
BRANCH   2   3
ATOM      3  C   UNL     1       6.576   1.603   1.807  1.00  0.00     0.053 C 
BRANCH   3   4
ATOM      4  C   UNL     1       6.194   0.561   2.814  1.00  0.00     0.041 C 
ATOM      5  O   UNL     1       6.688   0.586   3.971  1.00  0.00    -0.550 OA
ATOM      6  O   UNL     1       5.317  -0.458   2.462  1.00  0.00    -0.550 OA
ENDBRANCH   3   4
ENDBRANCH   2   3
ENDBRANCH   1   2
BRANCH   1   7
ATOM      7  C   UNL     1       5.532  -0.272  -1.186  1.00  0.00     0.000 C 
BRANCH   7   8
ATOM      8  C   UNL     1       6.388  -1.463  -1.646  1.00  0.00    -0.000 C 
BRANCH   8   9
ATOM      9  C   UNL     1       7.179  -2.101  -0.495  1.00  0.00    -0.003 C 
ATOM     10  C   UNL     1       7.868  -3.386  -0.947  1.00  0.00     0.004 C 
ENDBRANCH   8   9
ENDBRANCH   7   8
ENDBRANCH   1   7
TORSDOF 6
ENDMDL
MODEL 5
REMARK VINA RESULT:    -3.368      4.046      5.819
REMARK INTER + INTRA:          -4.734
REMARK INTER:                  -4.464
REMARK INTRA:                  -0.270
REMARK UNBOUND:                -0.184
REMARK SMILES CCCCCCCC(=O)[O-]
REMARK SMILES IDX 5 1 6 2 7 3 8 4 9 5 10 6 4 7 3 8 2 9 1 10
REMARK H PARENT
REMARK Flexibility Score: inf
ROOT
ATOM      1  C   UNL     1       5.095  -2.029  -3.795  1.00  0.00     0.000 C 
ENDROOT
BRANCH   1   2
ATOM      2  C   UNL     1       4.077  -1.322  -4.703  1.00  0.00     0.006 C 
BRANCH   2   3
ATOM      3  C   UNL     1       2.635  -1.497  -4.206  1.00  0.00     0.053 C 
BRANCH   3   4
ATOM      4  C   UNL     1       2.138  -2.893  -4.428  1.00  0.00     0.041 C 
ATOM      5  O   UNL     1       1.484  -3.484  -3.528  1.00  0.00    -0.550 OA
ATOM      6  O   UNL     1       2.426  -3.554  -5.615  1.00  0.00    -0.550 OA
ENDBRANCH   3   4
ENDBRANCH   2   3
ENDBRANCH   1   2
BRANCH   1   7
ATOM      7  C   UNL     1       5.933  -1.007  -3.012  1.00  0.00     0.000 C 
BRANCH   7   8
ATOM      8  C   UNL     1       5.370  -0.731  -1.609  1.00  0.00    -0.000 C 
BRANCH   8   9
ATOM      9  C   UNL     1       6.380  -1.041  -0.495  1.00  0.00    -0.003 C 
ATOM     10  C   UNL     1       7.234  -2.255  -0.850  1.00  0.00     0.004 C 
ENDBRANCH   8   9
ENDBRANCH   7   8
ENDBRANCH   1   7
TORSDOF 6
ENDMDL
MODEL 6
REMARK VINA RESULT:    -3.362      4.332      6.221
REMARK INTER + INTRA:          -4.726
REMARK INTER:                  -4.489
REMARK INTRA:                  -0.236
REMARK UNBOUND:                -0.184
REMARK SMILES CCCCCCCC(=O)[O-]
REMARK SMILES IDX 5 1 6 2 7 3 8 4 9 5 10 6 4 7 3 8 2 9 1 10
REMARK H PARENT
REMARK Flexibility Score: inf
ROOT
ATOM      1  C   UNL     1       2.249  -3.864  -5.017  1.00  0.00     0.000 C 
ENDROOT
BRANCH   1   2
ATOM      2  C   UNL     1       2.373  -2.558  -5.817  1.00  0.00     0.006 C 
BRANCH   2   3
ATOM      3  C   UNL     1       2.717  -1.359  -4.922  1.00  0.00     0.053 C 
BRANCH   3   4
ATOM      4  C   UNL     1       4.189  -1.265  -4.662  1.00  0.00     0.041 C 
ATOM      5  O   UNL     1       4.997  -1.159  -5.623  1.00  0.00    -0.550 OA
ATOM      6  O   UNL     1       4.672  -1.328  -3.361  1.00  0.00    -0.550 OA
ENDBRANCH   3   4
ENDBRANCH   2   3
ENDBRANCH   1   2
BRANCH   1   7
ATOM      7  C   UNL     1       1.503  -3.629  -3.696  1.00  0.00     0.000 C 
BRANCH   7   8
ATOM      8  C   UNL     1       0.748  -4.877  -3.212  1.00  0.00    -0.000 C 
BRANCH   8   9
ATOM      9  C   UNL     1       0.647  -4.950  -1.682  1.00  0.00    -0.003 C 
ATOM     10  C   UNL     1       1.187  -6.278  -1.158  1.00  0.00     0.004 C 
ENDBRANCH   8   9
ENDBRANCH   7   8
ENDBRANCH   1   7
TORSDOF 6
ENDMDL
MODEL 7
REMARK VINA RESULT:    -3.341      2.412      3.389
REMARK INTER + INTRA:          -4.697
REMARK INTER:                  -4.203
REMARK INTRA:                  -0.494
REMARK UNBOUND:                -0.184
REMARK SMILES CCCCCCCC(=O)[O-]
REMARK SMILES IDX 5 1 6 2 7 3 8 4 9 5 10 6 4 7 3 8 2 9 1 10
REMARK H PARENT
REMARK Flexibility Score: inf
ROOT
ATOM      1  C   UNL     1       8.753  -0.183   0.151  1.00  0.00     0.000 C 
ENDROOT
BRANCH   1   2
ATOM      2  C   UNL     1       8.536  -0.002   1.662  1.00  0.00     0.006 C 
BRANCH   2   3
ATOM      3  C   UNL     1       7.381   0.961   1.972  1.00  0.00     0.053 C 
BRANCH   3   4
ATOM      4  C   UNL     1       6.398   0.358   2.928  1.00  0.00     0.041 C 
ATOM      5  O   UNL     1       6.569   0.473   4.170  1.00  0.00    -0.550 OA
ATOM      6  O   UNL     1       5.311  -0.360   2.447  1.00  0.00    -0.550 OA
ENDBRANCH   3   4
ENDBRANCH   2   3
ENDBRANCH   1   2
BRANCH   1   7
ATOM      7  C   UNL     1       8.613  -1.659  -0.248  1.00  0.00     0.000 C 
BRANCH   7   8
ATOM      8  C   UNL     1       7.150  -2.074  -0.478  1.00  0.00    -0.000 C 
BRANCH   8   9
ATOM      9  C   UNL     1       6.483  -1.284  -1.612  1.00  0.00    -0.003 C 
ATOM     10  C   UNL     1       5.338  -0.424  -1.083  1.00  0.00     0.004 C 
ENDBRANCH   8   9
ENDBRANCH   7   8
ENDBRANCH   1   7
TORSDOF 6
ENDMDL
MODEL 8
REMARK VINA RESULT:    -3.302      5.133      6.873
REMARK INTER + INTRA:          -4.644
REMARK INTER:                  -4.337
REMARK INTRA:                  -0.308
REMARK UNBOUND:                -0.184
REMARK SMILES CCCCCCCC(=O)[O-]
REMARK SMILES IDX 5 1 6 2 7 3 8 4 9 5 10 6 4 7 3 8 2 9 1 10
REMARK H PARENT
REMARK Flexibility Score: inf
ROOT
ATOM      1  C   UNL     1       1.047  -4.848  -4.029  1.00  0.00     0.000 C 
ENDROOT
BRANCH   1   2
ATOM      2  C   UNL     1       2.097  -3.894  -4.619  1.00  0.00     0.006 C 
BRANCH   2   3
ATOM      3  C   UNL     1       2.192  -2.578  -3.835  1.00  0.00     0.053 C 
BRANCH   3   4
ATOM      4  C   UNL     1       2.779  -1.478  -4.666  1.00  0.00     0.041 C 
ATOM      5  O   UNL     1       2.027  -0.658  -5.255  1.00  0.00    -0.550 OA
ATOM      6  O   UNL     1       4.156  -1.380  -4.817  1.00  0.00    -0.550 OA
ENDBRANCH   3   4
ENDBRANCH   2   3
ENDBRANCH   1   2
BRANCH   1   7
ATOM      7  C   UNL     1       0.514  -4.316  -2.691  1.00  0.00     0.000 C 
BRANCH   7   8
ATOM      8  C   UNL     1       0.875  -5.227  -1.506  1.00  0.00    -0.000 C 
BRANCH   8   9
ATOM      9  C   UNL     1       0.697  -6.717  -1.831  1.00  0.00    -0.003 C 
ATOM     10  C   UNL     1       1.889  -7.533  -1.341  1.00  0.00     0.004 C 
ENDBRANCH   8   9
ENDBRANCH   7   8
ENDBRANCH   1   7
TORSDOF 6
ENDMDL
MODEL 9
REMARK VINA RESULT:    -3.285      5.719      6.843
REMARK INTER + INTRA:          -4.621
REMARK INTER:                  -4.327
REMARK INTRA:                  -0.294
REMARK UNBOUND:                -0.184
REMARK SMILES CCCCCCCC(=O)[O-]
REMARK SMILES IDX 5 1 6 2 7 3 8 4 9 5 10 6 4 7 3 8 2 9 1 10
REMARK H PARENT
REMARK Flexibility Score: inf
ROOT
ATOM      1  C   UNL     1       1.341  -5.055  -3.908  1.00  0.00     0.000 C 
ENDROOT
BRANCH   1   2
ATOM      2  C   UNL     1       0.422  -4.555  -2.782  1.00  0.00     0.006 C 
BRANCH   2   3
ATOM      3  C   UNL     1       0.821  -5.123  -1.413  1.00  0.00     0.053 C 
BRANCH   3   4
ATOM      4  C   UNL     1       0.777  -6.620  -1.399  1.00  0.00     0.041 C 
ATOM      5  O   UNL     1      -0.300  -7.225  -1.647  1.00  0.00    -0.550 OA
ATOM      6  O   UNL     1       1.917  -7.347  -1.080  1.00  0.00    -0.550 OA
ENDBRANCH   3   4
ENDBRANCH   2   3
ENDBRANCH   1   2
BRANCH   1   7
ATOM      7  C   UNL     1       1.887  -3.879  -4.731  1.00  0.00     0.000 C 
BRANCH   7   8
ATOM      8  C   UNL     1       2.104  -2.614  -3.885  1.00  0.00    -0.000 C 
BRANCH   8   9
ATOM      9  C   UNL     1       2.616  -1.428  -4.716  1.00  0.00    -0.003 C 
ATOM     10  C   UNL     1       3.844  -1.819  -5.533  1.00  0.00     0.004 C 
ENDBRANCH   8   9
ENDBRANCH   7   8
ENDBRANCH   1   7
TORSDOF 6
ENDMDL
