MODEL 1
REMARK VINA RESULT:    22.402      0.000      0.000
REMARK INTER + INTRA:          28.271
REMARK INTER:                  27.641
REMARK INTRA:                   0.630
REMARK UNBOUND:                 0.630
REMARK SMILES C=C1[C@H]2CC[C@@H]3[C@H]2C(C)(C)CCC[C@]13C
REMARK SMILES IDX 14 1 6 2 7 3 3 4 2 5 1 6 4 7 5 8 15 9 8 10 9 11 10 12 11 13
REMARK SMILES IDX 13 15 12 16
REMARK H PARENT
REMARK Flexibility Score: 80.00
ROOT
ATOM      1  C   UNL     1     145.357 146.499 162.296  1.00  0.00    -0.008 C 
ATOM      2  C   UNL     1     144.275 145.393 161.977  1.00  0.00     0.003 C 
ATOM      3  C   UNL     1     144.848 144.627 160.766  1.00  0.00     0.006 C 
ATOM      4  C   UNL     1     146.197 144.372 161.440  1.00  0.00     0.019 C 
ATOM      5  C   UNL     1     146.599 145.754 161.872  1.00  0.00    -0.068 C 
ATOM      6  C   UNL     1     147.858 146.200 161.952  1.00  0.00     0.009 C 
ATOM      7  C   UNL     1     145.750 143.622 162.717  1.00  0.00     0.008 C 
ATOM      8  C   UNL     1     144.371 144.255 163.030  1.00  0.00     0.005 C 
ATOM      9  C   UNL     1     145.432 146.877 163.801  1.00  0.00     0.016 C 
ENDROOT
BRANCH   3  10
ATOM     10  C   UNL     1     144.797 145.280 159.319  1.00  0.00    -0.032 C 
ATOM     11  C   UNL     1     143.678 144.565 158.512  1.00  0.00     0.011 C 
ATOM     12  C   UNL     1     146.115 145.035 158.537  1.00  0.00     0.011 C 
BRANCH  10  13
ATOM     13  C   UNL     1     144.421 146.789 159.292  1.00  0.00     0.007 CG0
ATOM     14  G   UNL     1     145.391 147.730 160.004  1.00  0.00     0.000 G0
ENDBRANCH  10  13
ENDBRANCH   3  10
BRANCH   1  15
ATOM     15  C   UNL     1     145.129 147.812 161.500  1.00  0.00     0.011 C 
BRANCH  15  16
ATOM     16  C   UNL     1     145.384 147.735 159.998  1.00  0.00     0.001 CG0
ATOM     17  G   UNL     1     144.423 146.783 159.291  1.00  0.00     0.000 G0
ENDBRANCH  15  16
ENDBRANCH   1  15
TORSDOF 0
ENDMDL
MODEL 2
REMARK VINA RESULT:    22.506      1.698      3.385
REMARK INTER + INTRA:          28.399
REMARK INTER:                  27.753
REMARK INTRA:                   0.646
REMARK UNBOUND:                 0.630
REMARK SMILES C=C1[C@H]2CC[C@@H]3[C@H]2C(C)(C)CCC[C@]13C
REMARK SMILES IDX 14 1 6 2 7 3 3 4 2 5 1 6 4 7 5 8 15 9 8 10 9 11 10 12 11 13
REMARK SMILES IDX 13 15 12 16
REMARK H PARENT
REMARK Flexibility Score: 80.00
ROOT
ATOM      1  C   UNL     1     145.454 144.253 162.281  1.00  0.00    -0.008 C 
ATOM      2  C   UNL     1     146.521 145.381 161.995  1.00  0.00     0.003 C 
ATOM      3  C   UNL     1     145.955 146.156 160.787  1.00  0.00     0.006 C 
ATOM      4  C   UNL     1     144.591 146.378 161.443  1.00  0.00     0.019 C 
ATOM      5  C   UNL     1     144.206 144.984 161.849  1.00  0.00    -0.068 C 
ATOM      6  C   UNL     1     142.954 144.516 161.902  1.00  0.00     0.009 C 
ATOM      7  C   UNL     1     145.005 147.117 162.738  1.00  0.00     0.008 C 
ATOM      8  C   UNL     1     146.389 146.502 163.063  1.00  0.00     0.005 C 
ATOM      9  C   UNL     1     145.362 143.852 163.779  1.00  0.00     0.016 C 
ENDROOT
BRANCH   3  10
ATOM     10  C   UNL     1     146.039 145.524 159.331  1.00  0.00    -0.032 C 
ATOM     11  C   UNL     1     147.151 146.276 158.549  1.00  0.00     0.011 C 
ATOM     12  C   UNL     1     144.726 145.751 158.536  1.00  0.00     0.011 C 
BRANCH  10  13
ATOM     13  C   UNL     1     146.449 144.025 159.288  1.00  0.00     0.007 CG0
ATOM     14  G   UNL     1     145.483 143.051 159.957  1.00  0.00     0.000 G0
ENDBRANCH  10  13
ENDBRANCH   3  10
BRANCH   1  15
ATOM     15  C   UNL     1     145.716 142.956 161.470  1.00  0.00     0.011 C 
BRANCH  15  16
ATOM     16  C   UNL     1     145.486 143.052 159.965  1.00  0.00     0.001 CG0
ATOM     17  G   UNL     1     146.447 144.026 159.288  1.00  0.00     0.000 G0
ENDBRANCH  15  16
ENDBRANCH   1  15
TORSDOF 0
ENDMDL
MODEL 3
REMARK VINA RESULT:    22.512      1.314      3.268
REMARK INTER + INTRA:          28.406
REMARK INTER:                  27.749
REMARK INTRA:                   0.657
REMARK UNBOUND:                 0.630
REMARK SMILES C=C1[C@H]2CC[C@@H]3[C@H]2C(C)(C)CCC[C@]13C
REMARK SMILES IDX 14 1 6 2 7 3 3 4 2 5 1 6 4 7 5 8 15 9 8 10 9 11 10 12 11 13
REMARK SMILES IDX 13 15 12 16
REMARK H PARENT
REMARK Flexibility Score: 80.00
ROOT
ATOM      1  C   UNL     1     145.885 144.643 160.531  1.00  0.00    -0.008 C 
ATOM      2  C   UNL     1     145.987 145.722 161.680  1.00  0.00     0.003 C 
ATOM      3  C   UNL     1     145.012 146.839 161.252  1.00  0.00     0.006 C 
ATOM      4  C   UNL     1     143.841 145.875 161.050  1.00  0.00     0.019 C 
ATOM      5  C   UNL     1     144.440 144.839 160.141  1.00  0.00    -0.068 C 
ATOM      6  C   UNL     1     143.769 144.150 159.212  1.00  0.00     0.009 C 
ATOM      7  C   UNL     1     143.746 145.230 162.453  1.00  0.00     0.008 C 
ATOM      8  C   UNL     1     145.219 145.219 162.933  1.00  0.00     0.005 C 
ATOM      9  C   UNL     1     146.126 143.189 161.024  1.00  0.00     0.016 C 
ENDROOT
BRANCH   3  10
ATOM     10  C   UNL     1     145.419 147.844 160.091  1.00  0.00    -0.032 C 
ATOM     11  C   UNL     1     145.750 149.215 160.743  1.00  0.00     0.011 C 
ATOM     12  C   UNL     1     144.235 148.104 159.123  1.00  0.00     0.011 C 
BRANCH  10  13
ATOM     13  C   UNL     1     146.695 147.448 159.297  1.00  0.00     0.007 CG0
ATOM     14  G   UNL     1     146.611 146.143 158.508  1.00  0.00     0.000 G0
ENDBRANCH  10  13
ENDBRANCH   3  10
BRANCH   1  15
ATOM     15  C   UNL     1     146.876 144.906 159.367  1.00  0.00     0.011 C 
BRANCH  15  16
ATOM     16  C   UNL     1     146.590 146.139 158.514  1.00  0.00     0.001 CG0
ATOM     17  G   UNL     1     146.689 147.437 159.311  1.00  0.00     0.000 G0
ENDBRANCH  15  16
ENDBRANCH   1  15
TORSDOF 0
ENDMDL
MODEL 4
REMARK VINA RESULT:    22.668      1.754      2.831
REMARK INTER + INTRA:          28.598
REMARK INTER:                  27.954
REMARK INTRA:                   0.644
REMARK UNBOUND:                 0.630
REMARK SMILES C=C1[C@H]2CC[C@@H]3[C@H]2C(C)(C)CCC[C@]13C
REMARK SMILES IDX 14 1 6 2 7 3 3 4 2 5 1 6 4 7 5 8 15 9 8 10 9 11 10 12 11 13
REMARK SMILES IDX 13 15 12 16
REMARK H PARENT
REMARK Flexibility Score: 80.00
ROOT
ATOM      1  C   UNL     1     144.872 146.147 160.292  1.00  0.00    -0.008 C 
ATOM      2  C   UNL     1     144.759 145.163 161.522  1.00  0.00     0.003 C 
ATOM      3  C   UNL     1     145.729 144.010 161.187  1.00  0.00     0.006 C 
ATOM      4  C   UNL     1     146.906 144.947 160.914  1.00  0.00     0.019 C 
ATOM      5  C   UNL     1     146.316 145.911 159.924  1.00  0.00    -0.068 C 
ATOM      6  C   UNL     1     146.996 146.520 158.945  1.00  0.00     0.009 C 
ATOM      7  C   UNL     1     147.001 145.701 162.262  1.00  0.00     0.008 C 
ATOM      8  C   UNL     1     145.527 145.759 162.734  1.00  0.00     0.005 C 
ATOM      9  C   UNL     1     144.639 147.637 160.666  1.00  0.00     0.016 C 
ENDROOT
BRANCH   3  10
ATOM     10  C   UNL     1     145.319 142.918 160.108  1.00  0.00    -0.032 C 
ATOM     11  C   UNL     1     144.963 141.609 160.867  1.00  0.00     0.011 C 
ATOM     12  C   UNL     1     146.508 142.566 159.176  1.00  0.00     0.011 C 
BRANCH  10  13
ATOM     13  C   UNL     1     144.055 143.263 159.272  1.00  0.00     0.007 CG0
ATOM     14  G   UNL     1     144.159 144.503 158.387  1.00  0.00     0.000 G0
ENDBRANCH  10  13
ENDBRANCH   3  10
BRANCH   1  15
ATOM     15  C   UNL     1     143.883 145.798 159.148  1.00  0.00     0.011 C 
BRANCH  15  16
ATOM     16  C   UNL     1     144.171 144.506 158.388  1.00  0.00     0.001 CG0
ATOM     17  G   UNL     1     144.051 143.269 159.273  1.00  0.00     0.000 G0
ENDBRANCH  15  16
ENDBRANCH   1  15
TORSDOF 0
ENDMDL
MODEL 5
REMARK VINA RESULT:    23.729      1.754      4.056
REMARK INTER + INTRA:          29.908
REMARK INTER:                  29.273
REMARK INTRA:                   0.635
REMARK UNBOUND:                 0.630
REMARK SMILES C=C1[C@H]2CC[C@@H]3[C@H]2C(C)(C)CCC[C@]13C
REMARK SMILES IDX 14 1 6 2 7 3 3 4 2 5 1 6 4 7 5 8 15 9 8 10 9 11 10 12 11 13
REMARK SMILES IDX 13 15 12 16
REMARK H PARENT
REMARK Flexibility Score: 80.00
ROOT
ATOM      1  C   UNL     1     144.487 145.248 159.619  1.00  0.00    -0.008 C 
ATOM      2  C   UNL     1     145.037 146.572 160.281  1.00  0.00     0.003 C 
ATOM      3  C   UNL     1     145.873 146.086 161.484  1.00  0.00     0.006 C 
ATOM      4  C   UNL     1     146.699 145.112 160.643  1.00  0.00     0.019 C 
ATOM      5  C   UNL     1     145.633 144.321 159.940  1.00  0.00    -0.068 C 
ATOM      6  C   UNL     1     145.737 143.035 159.584  1.00  0.00     0.009 C 
ATOM      7  C   UNL     1     147.303 146.072 159.591  1.00  0.00     0.008 C 
ATOM      8  C   UNL     1     146.196 147.141 159.417  1.00  0.00     0.005 C 
ATOM      9  C   UNL     1     144.289 145.361 158.082  1.00  0.00     0.016 C 
ENDROOT
BRANCH   3  10
ATOM     10  C   UNL     1     145.144 145.574 162.800  1.00  0.00    -0.032 C 
ATOM     11  C   UNL     1     145.291 146.677 163.886  1.00  0.00     0.011 C 
ATOM     12  C   UNL     1     145.832 144.309 163.376  1.00  0.00     0.011 C 
BRANCH  10  13
ATOM     13  C   UNL     1     143.613 145.343 162.655  1.00  0.00     0.007 CG0
ATOM     14  G   UNL     1     143.194 144.265 161.659  1.00  0.00     0.000 G0
ENDBRANCH  10  13
ENDBRANCH   3  10
BRANCH   1  15
ATOM     15  C   UNL     1     143.136 144.787 160.226  1.00  0.00     0.011 C 
BRANCH  15  16
ATOM     16  C   UNL     1     143.190 144.275 161.663  1.00  0.00     0.001 CG0
ATOM     17  G   UNL     1     143.614 145.357 162.652  1.00  0.00     0.000 G0
ENDBRANCH  15  16
ENDBRANCH   1  15
TORSDOF 0
ENDMDL
MODEL 6
REMARK VINA RESULT:    23.762      1.606      3.867
REMARK INTER + INTRA:          29.949
REMARK INTER:                  29.310
REMARK INTRA:                   0.638
REMARK UNBOUND:                 0.630
REMARK SMILES C=C1[C@H]2CC[C@@H]3[C@H]2C(C)(C)CCC[C@]13C
REMARK SMILES IDX 14 1 6 2 7 3 3 4 2 5 1 6 4 7 5 8 15 9 8 10 9 11 10 12 11 13
REMARK SMILES IDX 13 15 12 16
REMARK H PARENT
REMARK Flexibility Score: 80.00
ROOT
ATOM      1  C   UNL     1     146.322 145.522 159.596  1.00  0.00    -0.008 C 
ATOM      2  C   UNL     1     145.774 144.198 160.260  1.00  0.00     0.003 C 
ATOM      3  C   UNL     1     144.946 144.683 161.468  1.00  0.00     0.006 C 
ATOM      4  C   UNL     1     144.116 145.659 160.633  1.00  0.00     0.019 C 
ATOM      5  C   UNL     1     145.180 146.450 159.925  1.00  0.00    -0.068 C 
ATOM      6  C   UNL     1     145.075 147.736 159.572  1.00  0.00     0.009 C 
ATOM      7  C   UNL     1     143.505 144.702 159.582  1.00  0.00     0.008 C 
ATOM      8  C   UNL     1     144.610 143.631 159.400  1.00  0.00     0.005 C 
ATOM      9  C   UNL     1     146.512 145.412 158.058  1.00  0.00     0.016 C 
ENDROOT
BRANCH   3  10
ATOM     10  C   UNL     1     145.682 145.191 162.781  1.00  0.00    -0.032 C 
ATOM     11  C   UNL     1     145.538 144.088 163.866  1.00  0.00     0.011 C 
ATOM     12  C   UNL     1     145.000 146.458 163.361  1.00  0.00     0.011 C 
BRANCH  10  13
ATOM     13  C   UNL     1     147.213 145.419 162.628  1.00  0.00     0.007 CG0
ATOM     14  G   UNL     1     147.630 146.493 161.627  1.00  0.00     0.000 G0
ENDBRANCH  10  13
ENDBRANCH   3  10
BRANCH   1  15
ATOM     15  C   UNL     1     147.678 145.980 160.197  1.00  0.00     0.011 C 
BRANCH  15  16
ATOM     16  C   UNL     1     147.631 146.493 161.633  1.00  0.00     0.001 CG0
ATOM     17  G   UNL     1     147.215 145.411 162.627  1.00  0.00     0.000 G0
ENDBRANCH  15  16
ENDBRANCH   1  15
TORSDOF 0
ENDMDL
MODEL 7
REMARK VINA RESULT:    23.915      1.290      3.606
REMARK INTER + INTRA:          30.137
REMARK INTER:                  29.503
REMARK INTRA:                   0.634
REMARK UNBOUND:                 0.630
REMARK SMILES C=C1[C@H]2CC[C@@H]3[C@H]2C(C)(C)CCC[C@]13C
REMARK SMILES IDX 14 1 6 2 7 3 3 4 2 5 1 6 4 7 5 8 15 9 8 10 9 11 10 12 11 13
REMARK SMILES IDX 13 15 12 16
REMARK H PARENT
REMARK Flexibility Score: 80.00
ROOT
ATOM      1  C   UNL     1     145.983 145.439 159.435  1.00  0.00    -0.008 C 
ATOM      2  C   UNL     1     146.469 144.419 160.538  1.00  0.00     0.003 C 
ATOM      3  C   UNL     1     145.213 144.140 161.390  1.00  0.00     0.006 C 
ATOM      4  C   UNL     1     144.350 143.784 160.178  1.00  0.00     0.019 C 
ATOM      5  C   UNL     1     144.556 144.974 159.284  1.00  0.00    -0.068 C 
ATOM      6  C   UNL     1     143.646 145.465 158.436  1.00  0.00     0.009 C 
ATOM      7  C   UNL     1     145.169 142.623 159.565  1.00  0.00     0.008 C 
ATOM      8  C   UNL     1     146.631 143.009 159.904  1.00  0.00     0.005 C 
ATOM      9  C   UNL     1     146.747 145.307 158.088  1.00  0.00     0.016 C 
ENDROOT
BRANCH   3  10
ATOM     10  C   UNL     1     144.705 145.226 162.431  1.00  0.00    -0.032 C 
ATOM     11  C   UNL     1     145.078 144.731 163.857  1.00  0.00     0.011 C 
ATOM     12  C   UNL     1     143.159 145.355 162.411  1.00  0.00     0.011 C 
BRANCH  10  13
ATOM     13  C   UNL     1     145.369 146.626 162.297  1.00  0.00     0.007 CG0
ATOM     14  G   UNL     1     145.120 147.358 160.981  1.00  0.00     0.000 G0
ENDBRANCH  10  13
ENDBRANCH   3  10
BRANCH   1  15
ATOM     15  C   UNL     1     146.101 146.919 159.889  1.00  0.00     0.011 C 
BRANCH  15  16
ATOM     16  C   UNL     1     145.136 147.359 160.986  1.00  0.00     0.001 CG0
ATOM     17  G   UNL     1     145.374 146.624 162.302  1.00  0.00     0.000 G0
ENDBRANCH  15  16
ENDBRANCH   1  15
TORSDOF 0
ENDMDL
MODEL 8
REMARK VINA RESULT:    23.959      1.733      4.143
REMARK INTER + INTRA:          30.191
REMARK INTER:                  29.548
REMARK INTRA:                   0.643
REMARK UNBOUND:                 0.630
REMARK SMILES C=C1[C@H]2CC[C@@H]3[C@H]2C(C)(C)CCC[C@]13C
REMARK SMILES IDX 14 1 6 2 7 3 3 4 2 5 1 6 4 7 5 8 15 9 8 10 9 11 10 12 11 13
REMARK SMILES IDX 13 15 12 16
REMARK H PARENT
REMARK Flexibility Score: 80.00
ROOT
ATOM      1  C   UNL     1     144.848 145.278 159.513  1.00  0.00    -0.008 C 
ATOM      2  C   UNL     1     144.323 146.317 160.580  1.00  0.00     0.003 C 
ATOM      3  C   UNL     1     145.551 146.623 161.462  1.00  0.00     0.006 C 
ATOM      4  C   UNL     1     146.447 146.961 160.270  1.00  0.00     0.019 C 
ATOM      5  C   UNL     1     146.275 145.751 159.395  1.00  0.00    -0.068 C 
ATOM      6  C   UNL     1     147.213 145.249 158.584  1.00  0.00     0.009 C 
ATOM      7  C   UNL     1     145.638 148.102 159.609  1.00  0.00     0.008 C 
ATOM      8  C   UNL     1     144.170 147.713 159.913  1.00  0.00     0.005 C 
ATOM      9  C   UNL     1     144.123 145.377 158.143  1.00  0.00     0.016 C 
ENDROOT
BRANCH   3  10
ATOM     10  C   UNL     1     146.036 145.562 162.541  1.00  0.00    -0.032 C 
ATOM     11  C   UNL     1     145.626 146.088 163.945  1.00  0.00     0.011 C 
ATOM     12  C   UNL     1     147.583 145.440 162.563  1.00  0.00     0.011 C 
BRANCH  10  13
ATOM     13  C   UNL     1     145.380 144.158 162.421  1.00  0.00     0.007 CG0
ATOM     14  G   UNL     1     145.663 143.398 161.128  1.00  0.00     0.000 G0
ENDBRANCH  10  13
ENDBRANCH   3  10
BRANCH   1  15
ATOM     15  C   UNL     1     144.727 143.808 159.995  1.00  0.00     0.011 C 
BRANCH  15  16
ATOM     16  C   UNL     1     145.663 143.398 161.128  1.00  0.00     0.001 CG0
ATOM     17  G   UNL     1     145.386 144.161 162.420  1.00  0.00     0.000 G0
ENDBRANCH  15  16
ENDBRANCH   1  15
TORSDOF 0
ENDMDL
MODEL 9
REMARK VINA RESULT:    23.982      1.330      2.834
REMARK INTER + INTRA:          30.219
REMARK INTER:                  29.590
REMARK INTRA:                   0.629
REMARK UNBOUND:                 0.630
REMARK SMILES C=C1[C@H]2CC[C@@H]3[C@H]2C(C)(C)CCC[C@]13C
REMARK SMILES IDX 14 1 6 2 7 3 3 4 2 5 1 6 4 7 5 8 15 9 8 10 9 11 10 12 11 13
REMARK SMILES IDX 13 15 12 16
REMARK H PARENT
REMARK Flexibility Score: 80.00
ROOT
ATOM      1  C   UNL     1     145.326 145.512 161.801  1.00  0.00    -0.008 C 
ATOM      2  C   UNL     1     144.355 145.697 160.569  1.00  0.00     0.003 C 
ATOM      3  C   UNL     1     145.026 146.786 159.706  1.00  0.00     0.006 C 
ATOM      4  C   UNL     1     146.373 146.064 159.666  1.00  0.00     0.019 C 
ATOM      5  C   UNL     1     146.640 145.814 161.123  1.00  0.00    -0.068 C 
ATOM      6  C   UNL     1     147.852 145.776 161.689  1.00  0.00     0.009 C 
ATOM      7  C   UNL     1     145.961 144.705 159.052  1.00  0.00     0.008 C 
ATOM      8  C   UNL     1     144.524 144.500 159.593  1.00  0.00     0.005 C 
ATOM      9  C   UNL     1     145.327 144.069 162.379  1.00  0.00     0.016 C 
ENDROOT
BRANCH   3  10
ATOM     10  C   UNL     1     144.956 148.308 160.156  1.00  0.00    -0.032 C 
ATOM     11  C   UNL     1     143.923 149.028 159.246  1.00  0.00     0.011 C 
ATOM     12  C   UNL     1     146.309 149.031 159.927  1.00  0.00     0.011 C 
BRANCH  10  13
ATOM     13  C   UNL     1     144.454 148.540 161.610  1.00  0.00     0.007 CG0
ATOM     14  G   UNL     1     145.319 147.943 162.717  1.00  0.00     0.000 G0
ENDBRANCH  10  13
ENDBRANCH   3  10
BRANCH   1  15
ATOM     15  C   UNL     1     145.004 146.478 162.972  1.00  0.00     0.011 C 
BRANCH  15  16
ATOM     16  C   UNL     1     145.306 147.953 162.722  1.00  0.00     0.001 CG0
ATOM     17  G   UNL     1     144.451 148.543 161.604  1.00  0.00     0.000 G0
ENDBRANCH  15  16
ENDBRANCH   1  15
TORSDOF 0
ENDMDL
