MODEL 1
REMARK VINA RESULT:    -4.647      0.000      0.000
REMARK INTER + INTRA:          -4.647
REMARK INTER:                  -4.647
REMARK INTRA:                   0.000
REMARK UNBOUND:                 0.000
REMARK SMILES CC(C)=C1CC[C@H](C)CC1=O
REMARK SMILES IDX 8 1 7 2 6 3 5 4 4 5 2 6 1 7 3 8 10 9 11 10 9 11
REMARK H PARENT
REMARK Flexibility Score: inf
ROOT
ATOM      1  C   UNL     1      21.511  49.644   0.462  1.00  0.00     0.008 C 
ATOM      2  C   UNL     1      22.856  50.366   0.327  1.00  0.00    -0.006 C 
ATOM      3  C   UNL     1      22.711  51.619  -0.551  1.00  0.00     0.008 C 
ATOM      4  C   UNL     1      24.067  52.299  -0.782  1.00  0.00     0.039 C 
ATOM      5  C   UNL     1      24.810  52.577   0.518  1.00  0.00    -0.006 C 
ATOM      6  C   UNL     1      25.634  53.658   0.647  1.00  0.00    -0.070 C 
ATOM      7  C   UNL     1      26.332  53.977   1.948  1.00  0.00     0.039 C 
ATOM      8  C   UNL     1      25.860  54.613  -0.504  1.00  0.00     0.039 C 
ATOM      9  C   UNL     1      24.671  51.544   1.587  1.00  0.00     0.159 C 
ATOM     10  O   UNL     1      25.608  51.310   2.396  1.00  0.00    -0.295 OA
ATOM     11  C   UNL     1      23.400  50.754   1.710  1.00  0.00     0.084 C 
ENDROOT
TORSDOF 0
ENDMDL
MODEL 2
REMARK VINA RESULT:    -4.442      1.584      4.585
REMARK INTER + INTRA:          -4.442
REMARK INTER:                  -4.442
REMARK INTRA:                   0.000
REMARK UNBOUND:                 0.000
REMARK SMILES CC(C)=C1CC[C@H](C)CC1=O
REMARK SMILES IDX 8 1 7 2 6 3 5 4 4 5 2 6 1 7 3 8 10 9 11 10 9 11
REMARK H PARENT
REMARK Flexibility Score: inf
ROOT
ATOM      1  C   UNL     1      26.611  55.512  -0.391  1.00  0.00     0.008 C 
ATOM      2  C   UNL     1      26.099  54.090  -0.138  1.00  0.00    -0.006 C 
ATOM      3  C   UNL     1      25.991  53.815   1.370  1.00  0.00     0.008 C 
ATOM      4  C   UNL     1      25.577  52.363   1.644  1.00  0.00     0.039 C 
ATOM      5  C   UNL     1      24.320  51.960   0.883  1.00  0.00    -0.006 C 
ATOM      6  C   UNL     1      23.440  51.053   1.398  1.00  0.00    -0.070 C 
ATOM      7  C   UNL     1      22.162  50.688   0.680  1.00  0.00     0.039 C 
ATOM      8  C   UNL     1      23.686  50.394   2.738  1.00  0.00     0.039 C 
ATOM      9  C   UNL     1      24.177  52.525  -0.491  1.00  0.00     0.159 C 
ATOM     10  O   UNL     1      23.597  51.881  -1.406  1.00  0.00    -0.295 OA
ATOM     11  C   UNL     1      24.733  53.883  -0.809  1.00  0.00     0.084 C 
ENDROOT
TORSDOF 0
ENDMDL
MODEL 3
REMARK VINA RESULT:    -4.308      2.865      4.637
REMARK INTER + INTRA:          -4.308
REMARK INTER:                  -4.308
REMARK INTRA:                   0.000
REMARK UNBOUND:                 0.000
REMARK SMILES CC(C)=C1CC[C@H](C)CC1=O
REMARK SMILES IDX 8 1 7 2 6 3 5 4 4 5 2 6 1 7 3 8 10 9 11 10 9 11
REMARK H PARENT
REMARK Flexibility Score: inf
ROOT
ATOM      1  C   UNL     1      21.945  50.493   2.879  1.00  0.00     0.008 C 
ATOM      2  C   UNL     1      22.331  50.113   1.446  1.00  0.00    -0.006 C 
ATOM      3  C   UNL     1      21.173  49.379   0.751  1.00  0.00     0.008 C 
ATOM      4  C   UNL     1      21.577  48.901  -0.651  1.00  0.00     0.039 C 
ATOM      5  C   UNL     1      22.157  50.021  -1.505  1.00  0.00    -0.006 C 
ATOM      6  C   UNL     1      21.991  50.038  -2.860  1.00  0.00    -0.070 C 
ATOM      7  C   UNL     1      22.512  51.172  -3.711  1.00  0.00     0.039 C 
ATOM      8  C   UNL     1      21.239  48.936  -3.572  1.00  0.00     0.039 C 
ATOM      9  C   UNL     1      23.007  51.018  -0.789  1.00  0.00     0.159 C 
ATOM     10  O   UNL     1      23.977  51.582  -1.362  1.00  0.00    -0.295 OA
ATOM     11  C   UNL     1      22.716  51.365   0.643  1.00  0.00     0.084 C 
ENDROOT
TORSDOF 0
ENDMDL
MODEL 4
REMARK VINA RESULT:    -4.299      2.562      4.570
REMARK INTER + INTRA:          -4.299
REMARK INTER:                  -4.299
REMARK INTRA:                   0.000
REMARK UNBOUND:                 0.000
REMARK SMILES CC(C)=C1CC[C@H](C)CC1=O
REMARK SMILES IDX 8 1 7 2 6 3 5 4 4 5 2 6 1 7 3 8 10 9 11 10 9 11
REMARK H PARENT
REMARK Flexibility Score: inf
ROOT
ATOM      1  C   UNL     1      24.870  51.142   2.118  1.00  0.00     0.008 C 
ATOM      2  C   UNL     1      23.827  51.175   0.997  1.00  0.00    -0.006 C 
ATOM      3  C   UNL     1      24.435  51.752  -0.292  1.00  0.00     0.008 C 
ATOM      4  C   UNL     1      23.378  51.888  -1.396  1.00  0.00     0.039 C 
ATOM      5  C   UNL     1      22.616  50.591  -1.638  1.00  0.00    -0.006 C 
ATOM      6  C   UNL     1      22.144  50.267  -2.877  1.00  0.00    -0.070 C 
ATOM      7  C   UNL     1      21.437  48.958  -3.142  1.00  0.00     0.039 C 
ATOM      8  C   UNL     1      22.342  51.191  -4.059  1.00  0.00     0.039 C 
ATOM      9  C   UNL     1      22.321  49.769  -0.427  1.00  0.00     0.159 C 
ATOM     10  O   UNL     1      21.275  49.071  -0.350  1.00  0.00    -0.295 OA
ATOM     11  C   UNL     1      23.276  49.766   0.732  1.00  0.00     0.084 C 
ENDROOT
TORSDOF 0
ENDMDL
MODEL 5
REMARK VINA RESULT:    -4.245      3.229      4.830
REMARK INTER + INTRA:          -4.245
REMARK INTER:                  -4.245
REMARK INTRA:                   0.000
REMARK UNBOUND:                 0.000
REMARK SMILES CC(C)=C1CC[C@H](C)CC1=O
REMARK SMILES IDX 8 1 7 2 6 3 5 4 4 5 2 6 1 7 3 8 10 9 11 10 9 11
REMARK H PARENT
REMARK Flexibility Score: inf
ROOT
ATOM      1  C   UNL     1      22.807  50.784  -4.525  1.00  0.00     0.008 C 
ATOM      2  C   UNL     1      22.885  50.397  -3.045  1.00  0.00    -0.006 C 
ATOM      3  C   UNL     1      22.915  51.652  -2.158  1.00  0.00     0.008 C 
ATOM      4  C   UNL     1      23.096  51.286  -0.679  1.00  0.00     0.039 C 
ATOM      5  C   UNL     1      22.079  50.257  -0.203  1.00  0.00    -0.006 C 
ATOM      6  C   UNL     1      21.624  50.253   1.084  1.00  0.00    -0.070 C 
ATOM      7  C   UNL     1      20.573  49.274   1.554  1.00  0.00     0.039 C 
ATOM      8  C   UNL     1      22.125  51.258   2.097  1.00  0.00     0.039 C 
ATOM      9  C   UNL     1      21.708  49.199  -1.188  1.00  0.00     0.159 C 
ATOM     10  O   UNL     1      21.406  48.034  -0.813  1.00  0.00    -0.295 OA
ATOM     11  C   UNL     1      21.693  49.509  -2.657  1.00  0.00     0.084 C 
ENDROOT
TORSDOF 0
ENDMDL
MODEL 6
REMARK VINA RESULT:    -4.240      1.963      4.519
REMARK INTER + INTRA:          -4.240
REMARK INTER:                  -4.240
REMARK INTRA:                   0.000
REMARK UNBOUND:                 0.000
REMARK SMILES CC(C)=C1CC[C@H](C)CC1=O
REMARK SMILES IDX 8 1 7 2 6 3 5 4 4 5 2 6 1 7 3 8 10 9 11 10 9 11
REMARK H PARENT
REMARK Flexibility Score: inf
ROOT
ATOM      1  C   UNL     1      25.529  52.881   1.346  1.00  0.00     0.008 C 
ATOM      2  C   UNL     1      24.256  52.353   0.677  1.00  0.00    -0.006 C 
ATOM      3  C   UNL     1      24.471  52.182  -0.835  1.00  0.00     0.008 C 
ATOM      4  C   UNL     1      23.176  51.750  -1.538  1.00  0.00     0.039 C 
ATOM      5  C   UNL     1      22.544  50.524  -0.893  1.00  0.00    -0.006 C 
ATOM      6  C   UNL     1      21.838  49.619  -1.633  1.00  0.00    -0.070 C 
ATOM      7  C   UNL     1      21.254  48.369  -1.017  1.00  0.00     0.039 C 
ATOM      8  C   UNL     1      21.639  49.807  -3.121  1.00  0.00     0.039 C 
ATOM      9  C   UNL     1      22.643  50.439   0.594  1.00  0.00     0.159 C 
ATOM     10  O   UNL     1      21.738  49.894   1.280  1.00  0.00    -0.295 OA
ATOM     11  C   UNL     1      23.836  51.014   1.302  1.00  0.00     0.084 C 
ENDROOT
TORSDOF 0
ENDMDL
MODEL 7
REMARK VINA RESULT:    -4.225      2.297      3.627
REMARK INTER + INTRA:          -4.225
REMARK INTER:                  -4.225
REMARK INTRA:                   0.000
REMARK UNBOUND:                 0.000
REMARK SMILES CC(C)=C1CC[C@H](C)CC1=O
REMARK SMILES IDX 8 1 7 2 6 3 5 4 4 5 2 6 1 7 3 8 10 9 11 10 9 11
REMARK H PARENT
REMARK Flexibility Score: inf
ROOT
ATOM      1  C   UNL     1      21.595  49.429  -3.884  1.00  0.00     0.008 C 
ATOM      2  C   UNL     1      21.846  50.104  -2.532  1.00  0.00    -0.006 C 
ATOM      3  C   UNL     1      22.192  49.057  -1.460  1.00  0.00     0.008 C 
ATOM      4  C   UNL     1      22.346  49.704  -0.077  1.00  0.00     0.039 C 
ATOM      5  C   UNL     1      23.319  50.876  -0.086  1.00  0.00    -0.006 C 
ATOM      6  C   UNL     1      24.079  51.174   1.008  1.00  0.00    -0.070 C 
ATOM      7  C   UNL     1      25.089  52.298   0.993  1.00  0.00     0.039 C 
ATOM      8  C   UNL     1      23.974  50.364   2.281  1.00  0.00     0.039 C 
ATOM      9  C   UNL     1      23.300  51.734  -1.307  1.00  0.00     0.159 C 
ATOM     10  O   UNL     1      23.543  52.969  -1.243  1.00  0.00    -0.295 OA
ATOM     11  C   UNL     1      22.981  51.133  -2.645  1.00  0.00     0.084 C 
ENDROOT
TORSDOF 0
ENDMDL
MODEL 8
REMARK VINA RESULT:    -4.160      3.156      4.274
REMARK INTER + INTRA:          -4.160
REMARK INTER:                  -4.160
REMARK INTRA:                   0.000
REMARK UNBOUND:                 0.000
REMARK SMILES CC(C)=C1CC[C@H](C)CC1=O
REMARK SMILES IDX 8 1 7 2 6 3 5 4 4 5 2 6 1 7 3 8 10 9 11 10 9 11
REMARK H PARENT
REMARK Flexibility Score: inf
ROOT
ATOM      1  C   UNL     1      20.622  48.237  -4.724  1.00  0.00     0.008 C 
ATOM      2  C   UNL     1      21.600  48.831  -3.706  1.00  0.00    -0.006 C 
ATOM      3  C   UNL     1      21.846  50.320  -3.997  1.00  0.00     0.008 C 
ATOM      4  C   UNL     1      22.901  50.907  -3.050  1.00  0.00     0.039 C 
ATOM      5  C   UNL     1      22.583  50.642  -1.584  1.00  0.00    -0.006 C 
ATOM      6  C   UNL     1      22.943  51.527  -0.609  1.00  0.00    -0.070 C 
ATOM      7  C   UNL     1      22.584  51.303   0.841  1.00  0.00     0.039 C 
ATOM      8  C   UNL     1      23.691  52.799  -0.941  1.00  0.00     0.039 C 
ATOM      9  C   UNL     1      21.967  49.317  -1.277  1.00  0.00     0.159 C 
ATOM     10  O   UNL     1      22.192  48.728  -0.186  1.00  0.00    -0.295 OA
ATOM     11  C   UNL     1      21.062  48.657  -2.278  1.00  0.00     0.084 C 
ENDROOT
TORSDOF 0
ENDMDL
MODEL 9
REMARK VINA RESULT:    -4.137      1.713      2.572
REMARK INTER + INTRA:          -4.137
REMARK INTER:                  -4.137
REMARK INTRA:                   0.000
REMARK UNBOUND:                 0.000
REMARK SMILES CC(C)=C1CC[C@H](C)CC1=O
REMARK SMILES IDX 8 1 7 2 6 3 5 4 4 5 2 6 1 7 3 8 10 9 11 10 9 11
REMARK H PARENT
REMARK Flexibility Score: inf
ROOT
ATOM      1  C   UNL     1      20.193  49.415   3.851  1.00  0.00     0.008 C 
ATOM      2  C   UNL     1      21.301  49.668   2.823  1.00  0.00    -0.006 C 
ATOM      3  C   UNL     1      20.823  50.649   1.742  1.00  0.00     0.008 C 
ATOM      4  C   UNL     1      21.882  50.835   0.648  1.00  0.00     0.039 C 
ATOM      5  C   UNL     1      23.247  51.208   1.214  1.00  0.00    -0.006 C 
ATOM      6  C   UNL     1      24.109  52.006   0.519  1.00  0.00    -0.070 C 
ATOM      7  C   UNL     1      25.440  52.430   1.094  1.00  0.00     0.039 C 
ATOM      8  C   UNL     1      23.753  52.539  -0.852  1.00  0.00     0.039 C 
ATOM      9  C   UNL     1      23.620  50.558   2.505  1.00  0.00     0.159 C 
ATOM     10  O   UNL     1      24.819  50.279   2.774  1.00  0.00    -0.295 OA
ATOM     11  C   UNL     1      22.559  50.219   3.512  1.00  0.00     0.084 C 
ENDROOT
TORSDOF 0
ENDMDL
