MODEL 1
REMARK VINA RESULT:    -2.360      0.000      0.000
REMARK INTER + INTRA:          -2.616
REMARK INTER:                  -2.705
REMARK INTRA:                   0.089
REMARK UNBOUND:                 0.089
REMARK SMILES COc1cc(C(=O)[O-])ccc1O
REMARK SMILES IDX 5 1 9 2 4 3 10 4 3 5 11 6 6 7 7 8 8 9 2 10 1 11 12 12
REMARK H PARENT 12 13
REMARK Flexibility Score: inf
ROOT
ATOM      1  C   UNL     1       8.496  16.993  38.983  1.00  0.00     0.001 A 
ATOM      2  C   UNL     1       8.544  15.848  39.795  1.00  0.00     0.014 A 
ATOM      3  C   UNL     1       8.092  18.215  39.547  1.00  0.00     0.060 A 
ATOM      4  C   UNL     1       8.194  15.924  41.144  1.00  0.00     0.051 A 
ATOM      5  C   UNL     1       7.739  18.298  40.910  1.00  0.00     0.161 A 
ATOM      6  C   UNL     1       7.793  17.140  41.705  1.00  0.00     0.157 A 
ENDROOT
BRANCH   1   7
ATOM      7  C   UNL     1       8.866  16.915  37.551  1.00  0.00     0.072 C 
ATOM      8  O   UNL     1       9.220  17.948  36.924  1.00  0.00    -0.545 OA
ATOM      9  O   UNL     1       8.827  15.699  36.878  1.00  0.00    -0.545 OA
ENDBRANCH   1   7
BRANCH   5  10
ATOM     10  O   UNL     1       7.332  19.506  41.500  1.00  0.00    -0.493 OA
ATOM     11  C   UNL     1       6.022  19.766  41.992  1.00  0.00     0.278 C 
ENDBRANCH   5  10
BRANCH   6  12
ATOM     12  O   UNL     1       7.452  17.177  43.057  1.00  0.00    -0.504 OA
ATOM     13  H   UNL     1       6.782  17.841  43.427  1.00  0.00     0.293 HD
ENDBRANCH   6  12
TORSDOF 3
ENDMDL
MODEL 2
REMARK VINA RESULT:    -2.309     23.268     25.512
REMARK INTER + INTRA:          -2.557
REMARK INTER:                  -2.474
REMARK INTRA:                  -0.083
REMARK UNBOUND:                 0.089
REMARK SMILES COc1cc(C(=O)[O-])ccc1O
REMARK SMILES IDX 5 1 9 2 4 3 10 4 3 5 11 6 6 7 7 8 8 9 2 10 1 11 12 12
REMARK H PARENT 12 13
REMARK Flexibility Score: inf
ROOT
ATOM      1  C   UNL     1      25.191   5.369  27.172  1.00  0.00     0.001 A 
ATOM      2  C   UNL     1      25.928   4.222  26.834  1.00  0.00     0.014 A 
ATOM      3  C   UNL     1      24.651   6.162  26.145  1.00  0.00     0.060 A 
ATOM      4  C   UNL     1      26.122   3.876  25.496  1.00  0.00     0.051 A 
ATOM      5  C   UNL     1      24.843   5.816  24.792  1.00  0.00     0.161 A 
ATOM      6  C   UNL     1      25.584   4.664  24.475  1.00  0.00     0.157 A 
ENDROOT
BRANCH   1   7
ATOM      7  C   UNL     1      24.984   5.739  28.591  1.00  0.00     0.072 C 
ATOM      8  O   UNL     1      25.481   5.041  29.514  1.00  0.00    -0.545 OA
ATOM      9  O   UNL     1      24.239   6.864  28.925  1.00  0.00    -0.545 OA
ENDBRANCH   1   7
BRANCH   5  10
ATOM     10  O   UNL     1      24.314   6.590  23.745  1.00  0.00    -0.493 OA
ATOM     11  C   UNL     1      25.006   7.648  23.091  1.00  0.00     0.278 C 
ENDBRANCH   5  10
BRANCH   6  12
ATOM     12  O   UNL     1      25.798   4.287  23.150  1.00  0.00    -0.504 OA
ATOM     13  H   UNL     1      26.725   4.108  22.782  1.00  0.00     0.293 HD
ENDBRANCH   6  12
TORSDOF 3
ENDMDL
MODEL 3
REMARK VINA RESULT:    -2.089      1.706      4.446
REMARK INTER + INTRA:          -2.305
REMARK INTER:                  -2.229
REMARK INTRA:                  -0.076
REMARK UNBOUND:                 0.089
REMARK SMILES COc1cc(C(=O)[O-])ccc1O
REMARK SMILES IDX 5 1 9 2 4 3 10 4 3 5 11 6 6 7 7 8 8 9 2 10 1 11 12 12
REMARK H PARENT 12 13
REMARK Flexibility Score: inf
ROOT
ATOM      1  C   UNL     1       7.349  18.671  42.008  1.00  0.00     0.001 A 
ATOM      2  C   UNL     1       7.355  17.629  42.951  1.00  0.00     0.014 A 
ATOM      3  C   UNL     1       7.753  18.402  40.689  1.00  0.00     0.060 A 
ATOM      4  C   UNL     1       7.757  16.345  42.581  1.00  0.00     0.051 A 
ATOM      5  C   UNL     1       8.160  17.106  40.310  1.00  0.00     0.161 A 
ATOM      6  C   UNL     1       8.159  16.077  41.269  1.00  0.00     0.157 A 
ENDROOT
BRANCH   1   7
ATOM      7  C   UNL     1       6.923  20.034  42.397  1.00  0.00     0.072 C 
ATOM      8  O   UNL     1       5.875  20.210  43.073  1.00  0.00    -0.545 OA
ATOM      9  O   UNL     1       7.676  21.142  42.022  1.00  0.00    -0.545 OA
ENDBRANCH   1   7
BRANCH   5  10
ATOM     10  O   UNL     1       8.568  16.809  38.999  1.00  0.00    -0.493 OA
ATOM     11  C   UNL     1       8.535  17.728  37.913  1.00  0.00     0.278 C 
ENDBRANCH   5  10
BRANCH   6  12
ATOM     12  O   UNL     1       8.554  14.782  40.937  1.00  0.00    -0.504 OA
ATOM     13  H   UNL     1       9.059  14.189  41.584  1.00  0.00     0.293 HD
ENDBRANCH   6  12
TORSDOF 3
ENDMDL
MODEL 4
REMARK VINA RESULT:    -2.037      1.733      2.271
REMARK INTER + INTRA:          -2.246
REMARK INTER:                  -3.086
REMARK INTRA:                   0.840
REMARK UNBOUND:                 0.089
REMARK SMILES COc1cc(C(=O)[O-])ccc1O
REMARK SMILES IDX 5 1 9 2 4 3 10 4 3 5 11 6 6 7 7 8 8 9 2 10 1 11 12 12
REMARK H PARENT 12 13
REMARK Flexibility Score: inf
ROOT
ATOM      1  C   UNL     1       8.597  16.682  36.775  1.00  0.00     0.001 A 
ATOM      2  C   UNL     1       8.891  15.501  37.477  1.00  0.00     0.014 A 
ATOM      3  C   UNL     1       8.217  17.829  37.494  1.00  0.00     0.060 A 
ATOM      4  C   UNL     1       8.807  15.468  38.870  1.00  0.00     0.051 A 
ATOM      5  C   UNL     1       8.132  17.801  38.901  1.00  0.00     0.161 A 
ATOM      6  C   UNL     1       8.430  16.609  39.585  1.00  0.00     0.157 A 
ENDROOT
BRANCH   1   7
ATOM      7  C   UNL     1       8.684  16.719  35.298  1.00  0.00     0.072 C 
ATOM      8  O   UNL     1       9.740  17.101  34.728  1.00  0.00    -0.545 OA
ATOM      9  O   UNL     1       7.600  16.333  34.517  1.00  0.00    -0.545 OA
ENDBRANCH   1   7
BRANCH   5  10
ATOM     10  O   UNL     1       7.757  18.932  39.645  1.00  0.00    -0.493 OA
ATOM     11  C   UNL     1       7.419  18.916  41.028  1.00  0.00     0.278 C 
ENDBRANCH   5  10
BRANCH   6  12
ATOM     12  O   UNL     1       8.358  16.538  40.975  1.00  0.00    -0.504 OA
ATOM     13  H   UNL     1       9.166  16.692  41.567  1.00  0.00     0.293 HD
ENDBRANCH   6  12
TORSDOF 3
ENDMDL
MODEL 5
REMARK VINA RESULT:    -1.772      1.821      4.553
REMARK INTER + INTRA:          -1.941
REMARK INTER:                  -1.851
REMARK INTRA:                  -0.090
REMARK UNBOUND:                 0.089
REMARK SMILES COc1cc(C(=O)[O-])ccc1O
REMARK SMILES IDX 5 1 9 2 4 3 10 4 3 5 11 6 6 7 7 8 8 9 2 10 1 11 12 12
REMARK H PARENT 12 13
REMARK Flexibility Score: inf
ROOT
ATOM      1  C   UNL     1       7.454  18.767  41.596  1.00  0.00     0.001 A 
ATOM      2  C   UNL     1       7.866  18.817  40.254  1.00  0.00     0.014 A 
ATOM      3  C   UNL     1       7.477  17.535  42.273  1.00  0.00     0.060 A 
ATOM      4  C   UNL     1       8.294  17.659  39.603  1.00  0.00     0.051 A 
ATOM      5  C   UNL     1       7.908  16.362  41.619  1.00  0.00     0.161 A 
ATOM      6  C   UNL     1       8.317  16.434  40.276  1.00  0.00     0.157 A 
ENDROOT
BRANCH   1   7
ATOM      7  C   UNL     1       6.999  19.993  42.290  1.00  0.00     0.072 C 
ATOM      8  O   UNL     1       7.621  21.079  42.145  1.00  0.00    -0.545 OA
ATOM      9  O   UNL     1       5.878  19.965  43.112  1.00  0.00    -0.545 OA
ENDBRANCH   1   7
BRANCH   5  10
ATOM     10  O   UNL     1       7.942  15.118  42.271  1.00  0.00    -0.493 OA
ATOM     11  C   UNL     1       6.817  14.490  42.876  1.00  0.00     0.278 C 
ENDBRANCH   5  10
BRANCH   6  12
ATOM     12  O   UNL     1       8.750  15.299  39.592  1.00  0.00    -0.504 OA
ATOM     13  H   UNL     1       9.638  14.854  39.791  1.00  0.00     0.293 HD
ENDBRANCH   6  12
TORSDOF 3
ENDMDL
MODEL 6
REMARK VINA RESULT:    -1.448      1.962      4.108
REMARK INTER + INTRA:          -1.571
REMARK INTER:                  -1.495
REMARK INTRA:                  -0.076
REMARK UNBOUND:                 0.089
REMARK SMILES COc1cc(C(=O)[O-])ccc1O
REMARK SMILES IDX 5 1 9 2 4 3 10 4 3 5 11 6 6 7 7 8 8 9 2 10 1 11 12 12
REMARK H PARENT 12 13
REMARK Flexibility Score: inf
ROOT
ATOM      1  C   UNL     1       7.493  16.423  42.113  1.00  0.00     0.001 A 
ATOM      2  C   UNL     1       7.104  17.316  43.125  1.00  0.00     0.014 A 
ATOM      3  C   UNL     1       7.818  16.928  40.842  1.00  0.00     0.060 A 
ATOM      4  C   UNL     1       7.041  18.687  42.871  1.00  0.00     0.051 A 
ATOM      5  C   UNL     1       7.756  18.312  40.580  1.00  0.00     0.161 A 
ATOM      6  C   UNL     1       7.363  19.189  41.607  1.00  0.00     0.157 A 
ENDROOT
BRANCH   1   7
ATOM      7  C   UNL     1       7.561  14.968  42.380  1.00  0.00     0.072 C 
ATOM      8  O   UNL     1       6.605  14.375  42.946  1.00  0.00    -0.545 OA
ATOM      9  O   UNL     1       8.682  14.234  42.009  1.00  0.00    -0.545 OA
ENDBRANCH   1   7
BRANCH   5  10
ATOM     10  O   UNL     1       8.075  18.845  39.320  1.00  0.00    -0.493 OA
ATOM     11  C   UNL     1       8.356  18.068  38.161  1.00  0.00     0.278 C 
ENDBRANCH   5  10
BRANCH   6  12
ATOM     12  O   UNL     1       7.289  20.565  41.390  1.00  0.00    -0.504 OA
ATOM     13  H   UNL     1       7.396  21.237  42.141  1.00  0.00     0.293 HD
ENDBRANCH   6  12
TORSDOF 3
ENDMDL
MODEL 7
REMARK VINA RESULT:    -1.382      1.124      4.675
REMARK INTER + INTRA:          -1.495
REMARK INTER:                  -2.370
REMARK INTRA:                   0.875
REMARK UNBOUND:                 0.089
REMARK SMILES COc1cc(C(=O)[O-])ccc1O
REMARK SMILES IDX 5 1 9 2 4 3 10 4 3 5 11 6 6 7 7 8 8 9 2 10 1 11 12 12
REMARK H PARENT 12 13
REMARK Flexibility Score: inf
ROOT
ATOM      1  C   UNL     1       8.160  17.599  39.779  1.00  0.00     0.001 A 
ATOM      2  C   UNL     1       8.413  16.228  39.957  1.00  0.00     0.014 A 
ATOM      3  C   UNL     1       8.298  18.160  38.497  1.00  0.00     0.060 A 
ATOM      4  C   UNL     1       8.796  15.435  38.874  1.00  0.00     0.051 A 
ATOM      5  C   UNL     1       8.684  17.362  37.401  1.00  0.00     0.161 A 
ATOM      6  C   UNL     1       8.933  15.993  37.600  1.00  0.00     0.157 A 
ENDROOT
BRANCH   1   7
ATOM      7  C   UNL     1       7.755  18.443  40.926  1.00  0.00     0.072 C 
ATOM      8  O   UNL     1       7.429  19.647  40.751  1.00  0.00    -0.545 OA
ATOM      9  O   UNL     1       7.728  17.919  42.214  1.00  0.00    -0.545 OA
ENDBRANCH   1   7
BRANCH   5  10
ATOM     10  O   UNL     1       8.829  17.896  36.109  1.00  0.00    -0.493 OA
ATOM     11  C   UNL     1       9.168  17.137  34.954  1.00  0.00     0.278 C 
ENDBRANCH   5  10
BRANCH   6  12
ATOM     12  O   UNL     1       9.316  15.168  36.543  1.00  0.00    -0.504 OA
ATOM     13  H   UNL     1      10.170  14.623  36.565  1.00  0.00     0.293 HD
ENDBRANCH   6  12
TORSDOF 3
ENDMDL
MODEL 8
REMARK VINA RESULT:    -1.327      1.340      4.823
REMARK INTER + INTRA:          -1.432
REMARK INTER:                  -1.668
REMARK INTRA:                   0.236
REMARK UNBOUND:                 0.089
REMARK SMILES COc1cc(C(=O)[O-])ccc1O
REMARK SMILES IDX 5 1 9 2 4 3 10 4 3 5 11 6 6 7 7 8 8 9 2 10 1 11 12 12
REMARK H PARENT 12 13
REMARK Flexibility Score: inf
ROOT
ATOM      1  C   UNL     1       7.976  16.814  40.818  1.00  0.00     0.001 A 
ATOM      2  C   UNL     1       7.730  18.170  40.548  1.00  0.00     0.014 A 
ATOM      3  C   UNL     1       8.508  16.000  39.802  1.00  0.00     0.060 A 
ATOM      4  C   UNL     1       8.009  18.702  39.288  1.00  0.00     0.051 A 
ATOM      5  C   UNL     1       8.792  16.532  38.528  1.00  0.00     0.161 A 
ATOM      6  C   UNL     1       8.537  17.893  38.279  1.00  0.00     0.157 A 
ENDROOT
BRANCH   1   7
ATOM      7  C   UNL     1       7.681  16.247  42.154  1.00  0.00     0.072 C 
ATOM      8  O   UNL     1       7.409  17.002  43.125  1.00  0.00    -0.545 OA
ATOM      9  O   UNL     1       7.699  14.871  42.356  1.00  0.00    -0.545 OA
ENDBRANCH   1   7
BRANCH   5  10
ATOM     10  O   UNL     1       9.324  15.743  37.495  1.00  0.00    -0.493 OA
ATOM     11  C   UNL     1       8.732  15.586  36.210  1.00  0.00     0.278 C 
ENDBRANCH   5  10
BRANCH   6  12
ATOM     12  O   UNL     1       8.803  18.459  37.033  1.00  0.00    -0.504 OA
ATOM     13  H   UNL     1       9.687  18.907  36.820  1.00  0.00     0.293 HD
ENDBRANCH   6  12
TORSDOF 3
ENDMDL
