MODEL 1
REMARK VINA RESULT:    -3.513      0.000      0.000
REMARK INTER + INTRA:         -14.880
REMARK INTER:                  -9.264
REMARK INTRA:                  -5.615
REMARK UNBOUND:                -5.615
REMARK SMILES CCCCCCCCCCCCCCCCCCCCCCCCCCCCCC(=O)[O-]
REMARK SMILES IDX 16 1 17 2 18 3 19 4 20 5 21 6 22 7 23 8 24 9 25 10 26 11
REMARK SMILES IDX 27 12 28 13 29 14 30 15 31 16 32 17 15 18 14 19 13 20 12 21
REMARK SMILES IDX 11 22 10 23 9 24 8 25 7 26 6 27 5 28 4 29 3 30 2 31 1 32
REMARK H PARENT
REMARK Flexibility Score: inf
ROOT
ATOM      1  C   UNL     1      11.219 -17.348 -27.422  1.00  0.00     0.000 C 
ENDROOT
BRANCH   1   2
ATOM      2  C   UNL     1      10.443 -16.644 -26.298  1.00  0.00     0.000 C 
BRANCH   2   3
ATOM      3  C   UNL     1       8.929 -16.592 -26.563  1.00  0.00     0.000 C 
BRANCH   3   4
ATOM      4  C   UNL     1       8.104 -17.248 -25.440  1.00  0.00     0.000 C 
BRANCH   4   5
ATOM      5  C   UNL     1       8.460 -18.717 -25.124  1.00  0.00     0.000 C 
BRANCH   5   6
ATOM      6  C   UNL     1       8.090 -19.190 -23.704  1.00  0.00     0.000 C 
BRANCH   6   7
ATOM      7  C   UNL     1       9.306 -19.677 -22.880  1.00  0.00     0.000 C 
BRANCH   7   8
ATOM      8  C   UNL     1      10.633 -19.653 -23.665  1.00  0.00     0.000 C 
BRANCH   8   9
ATOM      9  C   UNL     1      11.591 -18.512 -23.252  1.00  0.00     0.000 C 
BRANCH   9  10
ATOM     10  C   UNL     1      11.008 -17.544 -22.207  1.00  0.00     0.000 C 
BRANCH  10  11
ATOM     11  C   UNL     1      10.760 -16.134 -22.769  1.00  0.00     0.000 C 
BRANCH  11  12
ATOM     12  C   UNL     1       9.376 -15.580 -22.394  1.00  0.00     0.000 C 
BRANCH  12  13
ATOM     13  C   UNL     1       8.941 -14.417 -23.305  1.00  0.00     0.006 C 
BRANCH  13  14
ATOM     14  C   UNL     1      10.116 -13.500 -23.676  1.00  0.00     0.053 C 
BRANCH  14  15
ATOM     15  C   UNL     1      10.099 -12.223 -22.893  1.00  0.00     0.041 C 
ATOM     16  O   UNL     1      10.054 -12.251 -21.634  1.00  0.00    -0.550 OA
ATOM     17  O   UNL     1      10.096 -11.002 -23.555  1.00  0.00    -0.550 OA
ENDBRANCH  14  15
ENDBRANCH  13  14
ENDBRANCH  12  13
ENDBRANCH  11  12
ENDBRANCH  10  11
ENDBRANCH   9  10
ENDBRANCH   8   9
ENDBRANCH   7   8
ENDBRANCH   6   7
ENDBRANCH   5   6
ENDBRANCH   4   5
ENDBRANCH   3   4
ENDBRANCH   2   3
ENDBRANCH   1   2
BRANCH   1  18
ATOM     18  C   UNL     1      11.790 -18.711 -26.987  1.00  0.00     0.000 C 
BRANCH  18  19
ATOM     19  C   UNL     1      11.482 -19.825 -28.002  1.00  0.00     0.000 C 
BRANCH  19  20
ATOM     20  C   UNL     1      10.100 -20.460 -27.769  1.00  0.00     0.000 C 
BRANCH  20  21
ATOM     21  C   UNL     1       9.193 -20.379 -29.009  1.00  0.00     0.000 C 
BRANCH  21  22
ATOM     22  C   UNL     1       8.290 -19.134 -29.004  1.00  0.00     0.000 C 
BRANCH  22  23
ATOM     23  C   UNL     1       8.478 -18.254 -30.255  1.00  0.00     0.000 C 
BRANCH  23  24
ATOM     24  C   UNL     1       9.795 -18.476 -31.024  1.00  0.00    -0.000 C 
BRANCH  24  25
ATOM     25  C   UNL     1      10.642 -17.197 -31.142  1.00  0.00    -0.000 C 
BRANCH  25  26
ATOM     26  C   UNL     1      11.812 -17.346 -32.130  1.00  0.00    -0.000 C 
BRANCH  26  27
ATOM     27  C   UNL     1      13.160 -16.914 -31.526  1.00  0.00    -0.000 C 
BRANCH  27  28
ATOM     28  C   UNL     1      13.432 -17.564 -30.160  1.00  0.00    -0.000 C 
BRANCH  28  29
ATOM     29  C   UNL     1      14.796 -17.162 -29.574  1.00  0.00    -0.000 C 
BRANCH  29  30
ATOM     30  C   UNL     1      14.661 -16.534 -28.170  1.00  0.00    -0.000 C 
BRANCH  30  31
ATOM     31  C   UNL     1      15.989 -16.475 -27.393  1.00  0.00    -0.003 C 
ATOM     32  C   UNL     1      17.083 -17.342 -28.012  1.00  0.00     0.004 C 
ENDBRANCH  30  31
ENDBRANCH  29  30
ENDBRANCH  28  29
ENDBRANCH  27  28
ENDBRANCH  26  27
ENDBRANCH  25  26
ENDBRANCH  24  25
ENDBRANCH  23  24
ENDBRANCH  22  23
ENDBRANCH  21  22
ENDBRANCH  20  21
ENDBRANCH  19  20
ENDBRANCH  18  19
ENDBRANCH   1  18
TORSDOF 28
ENDMDL
MODEL 2
REMARK VINA RESULT:    -3.471     15.412     19.542
REMARK INTER + INTRA:         -14.769
REMARK INTER:                  -8.941
REMARK INTRA:                  -5.828
REMARK UNBOUND:                -5.615
REMARK SMILES CCCCCCCCCCCCCCCCCCCCCCCCCCCCCC(=O)[O-]
REMARK SMILES IDX 16 1 17 2 18 3 19 4 20 5 21 6 22 7 23 8 24 9 25 10 26 11
REMARK SMILES IDX 27 12 28 13 29 14 30 15 31 16 32 17 15 18 14 19 13 20 12 21
REMARK SMILES IDX 11 22 10 23 9 24 8 25 7 26 6 27 5 28 4 29 3 30 2 31 1 32
REMARK H PARENT
REMARK Flexibility Score: inf
ROOT
ATOM      1  C   UNL     1      27.111  -6.341 -30.359  1.00  0.00     0.000 C 
ENDROOT
BRANCH   1   2
ATOM      2  C   UNL     1      25.943  -6.890 -31.193  1.00  0.00     0.000 C 
BRANCH   2   3
ATOM      3  C   UNL     1      25.280  -8.119 -30.551  1.00  0.00     0.000 C 
BRANCH   3   4
ATOM      4  C   UNL     1      26.009  -8.595 -29.281  1.00  0.00     0.000 C 
BRANCH   4   5
ATOM      5  C   UNL     1      25.097  -9.023 -28.110  1.00  0.00     0.000 C 
BRANCH   5   6
ATOM      6  C   UNL     1      23.772  -8.244 -27.992  1.00  0.00     0.000 C 
BRANCH   6   7
ATOM      7  C   UNL     1      23.600  -7.521 -26.635  1.00  0.00     0.000 C 
BRANCH   7   8
ATOM      8  C   UNL     1      23.324  -6.010 -26.771  1.00  0.00     0.000 C 
BRANCH   8   9
ATOM      9  C   UNL     1      23.283  -5.505 -28.232  1.00  0.00     0.000 C 
BRANCH   9  10
ATOM     10  C   UNL     1      24.355  -4.453 -28.568  1.00  0.00     0.000 C 
BRANCH  10  11
ATOM     11  C   UNL     1      23.905  -3.016 -28.253  1.00  0.00     0.000 C 
BRANCH  11  12
ATOM     12  C   UNL     1      25.077  -2.024 -28.198  1.00  0.00     0.000 C 
BRANCH  12  13
ATOM     13  C   UNL     1      26.309  -2.607 -27.481  1.00  0.00     0.006 C 
BRANCH  13  14
ATOM     14  C   UNL     1      26.582  -1.911 -26.140  1.00  0.00     0.053 C 
BRANCH  14  15
ATOM     15  C   UNL     1      25.953  -2.640 -24.992  1.00  0.00     0.041 C 
ATOM     16  O   UNL     1      26.663  -3.326 -24.209  1.00  0.00    -0.550 OA
ATOM     17  O   UNL     1      24.576  -2.592 -24.809  1.00  0.00    -0.550 OA
ENDBRANCH  14  15
ENDBRANCH  13  14
ENDBRANCH  12  13
ENDBRANCH  11  12
ENDBRANCH  10  11
ENDBRANCH   9  10
ENDBRANCH   8   9
ENDBRANCH   7   8
ENDBRANCH   6   7
ENDBRANCH   5   6
ENDBRANCH   4   5
ENDBRANCH   3   4
ENDBRANCH   2   3
ENDBRANCH   1   2
BRANCH   1  18
ATOM     18  C   UNL     1      27.377  -4.846 -30.620  1.00  0.00     0.000 C 
BRANCH  18  19
ATOM     19  C   UNL     1      27.473  -4.523 -32.120  1.00  0.00     0.000 C 
BRANCH  19  20
ATOM     20  C   UNL     1      27.404  -3.010 -32.397  1.00  0.00     0.000 C 
BRANCH  20  21
ATOM     21  C   UNL     1      26.541  -2.257 -31.370  1.00  0.00     0.000 C 
BRANCH  21  22
ATOM     22  C   UNL     1      26.077  -0.881 -31.878  1.00  0.00     0.000 C 
BRANCH  22  23
ATOM     23  C   UNL     1      24.604  -0.875 -32.329  1.00  0.00     0.000 C 
BRANCH  23  24
ATOM     24  C   UNL     1      24.364  -1.267 -33.800  1.00  0.00    -0.000 C 
BRANCH  24  25
ATOM     25  C   UNL     1      23.386  -2.446 -33.953  1.00  0.00    -0.000 C 
BRANCH  25  26
ATOM     26  C   UNL     1      24.030  -3.802 -33.619  1.00  0.00    -0.000 C 
BRANCH  26  27
ATOM     27  C   UNL     1      23.552  -4.372 -32.271  1.00  0.00    -0.000 C 
BRANCH  27  28
ATOM     28  C   UNL     1      22.182  -3.818 -31.847  1.00  0.00    -0.000 C 
BRANCH  28  29
ATOM     29  C   UNL     1      21.326  -4.860 -31.105  1.00  0.00    -0.000 C 
BRANCH  29  30
ATOM     30  C   UNL     1      21.402  -6.251 -31.771  1.00  0.00    -0.000 C 
BRANCH  30  31
ATOM     31  C   UNL     1      21.590  -7.402 -30.765  1.00  0.00    -0.003 C 
ATOM     32  C   UNL     1      21.724  -8.767 -31.436  1.00  0.00     0.004 C 
ENDBRANCH  30  31
ENDBRANCH  29  30
ENDBRANCH  28  29
ENDBRANCH  27  28
ENDBRANCH  26  27
ENDBRANCH  25  26
ENDBRANCH  24  25
ENDBRANCH  23  24
ENDBRANCH  22  23
ENDBRANCH  21  22
ENDBRANCH  20  21
ENDBRANCH  19  20
ENDBRANCH  18  19
ENDBRANCH   1  18
TORSDOF 28
ENDMDL
MODEL 3
REMARK VINA RESULT:    -3.449     14.538     19.247
REMARK INTER + INTRA:         -14.710
REMARK INTER:                  -8.536
REMARK INTRA:                  -6.175
REMARK UNBOUND:                -5.615
REMARK SMILES CCCCCCCCCCCCCCCCCCCCCCCCCCCCCC(=O)[O-]
REMARK SMILES IDX 16 1 17 2 18 3 19 4 20 5 21 6 22 7 23 8 24 9 25 10 26 11
REMARK SMILES IDX 27 12 28 13 29 14 30 15 31 16 32 17 15 18 14 19 13 20 12 21
REMARK SMILES IDX 11 22 10 23 9 24 8 25 7 26 6 27 5 28 4 29 3 30 2 31 1 32
REMARK H PARENT
REMARK Flexibility Score: inf
ROOT
ATOM      1  C   UNL     1      24.011  -4.059 -27.716  1.00  0.00     0.000 C 
ENDROOT
BRANCH   1   2
ATOM      2  C   UNL     1      23.325  -5.426 -27.867  1.00  0.00     0.000 C 
BRANCH   2   3
ATOM      3  C   UNL     1      23.049  -6.104 -26.515  1.00  0.00     0.000 C 
BRANCH   3   4
ATOM      4  C   UNL     1      23.393  -7.605 -26.519  1.00  0.00     0.000 C 
BRANCH   4   5
ATOM      5  C   UNL     1      23.725  -8.208 -27.902  1.00  0.00     0.000 C 
BRANCH   5   6
ATOM      6  C   UNL     1      25.032  -9.024 -27.965  1.00  0.00     0.000 C 
BRANCH   6   7
ATOM      7  C   UNL     1      25.833  -8.806 -29.271  1.00  0.00     0.000 C 
BRANCH   7   8
ATOM      8  C   UNL     1      25.473  -7.499 -30.005  1.00  0.00     0.000 C 
BRANCH   8   9
ATOM      9  C   UNL     1      25.942  -7.452 -31.478  1.00  0.00     0.000 C 
BRANCH   9  10
ATOM     10  C   UNL     1      24.825  -7.132 -32.488  1.00  0.00     0.000 C 
BRANCH  10  11
ATOM     11  C   UNL     1      23.931  -8.345 -32.796  1.00  0.00     0.000 C 
BRANCH  11  12
ATOM     12  C   UNL     1      22.517  -8.205 -32.210  1.00  0.00     0.000 C 
BRANCH  12  13
ATOM     13  C   UNL     1      22.252  -9.201 -31.066  1.00  0.00     0.006 C 
BRANCH  13  14
ATOM     14  C   UNL     1      23.031 -10.512 -31.246  1.00  0.00     0.053 C 
BRANCH  14  15
ATOM     15  C   UNL     1      22.497 -11.606 -30.373  1.00  0.00     0.041 C 
ATOM     16  O   UNL     1      21.452 -12.229 -30.703  1.00  0.00    -0.550 OA
ATOM     17  O   UNL     1      23.131 -11.912 -29.175  1.00  0.00    -0.550 OA
ENDBRANCH  14  15
ENDBRANCH  13  14
ENDBRANCH  12  13
ENDBRANCH  11  12
ENDBRANCH  10  11
ENDBRANCH   9  10
ENDBRANCH   8   9
ENDBRANCH   7   8
ENDBRANCH   6   7
ENDBRANCH   5   6
ENDBRANCH   4   5
ENDBRANCH   3   4
ENDBRANCH   2   3
ENDBRANCH   1   2
BRANCH   1  18
ATOM     18  C   UNL     1      24.581  -3.832 -26.304  1.00  0.00     0.000 C 
BRANCH  18  19
ATOM     19  C   UNL     1      25.428  -2.551 -26.213  1.00  0.00     0.000 C 
BRANCH  19  20
ATOM     20  C   UNL     1      25.206  -1.619 -27.418  1.00  0.00     0.000 C 
BRANCH  20  21
ATOM     21  C   UNL     1      26.518  -1.241 -28.126  1.00  0.00     0.000 C 
BRANCH  21  22
ATOM     22  C   UNL     1      27.560  -2.372 -28.090  1.00  0.00     0.000 C 
BRANCH  22  23
ATOM     23  C   UNL     1      27.875  -2.940 -29.487  1.00  0.00     0.000 C 
BRANCH  23  24
ATOM     24  C   UNL     1      27.054  -4.179 -29.894  1.00  0.00    -0.000 C 
BRANCH  24  25
ATOM     25  C   UNL     1      25.801  -3.824 -30.715  1.00  0.00    -0.000 C 
BRANCH  25  26
ATOM     26  C   UNL     1      26.112  -2.909 -31.912  1.00  0.00    -0.000 C 
BRANCH  26  27
ATOM     27  C   UNL     1      25.023  -1.848 -32.149  1.00  0.00    -0.000 C 
BRANCH  27  28
ATOM     28  C   UNL     1      24.049  -1.725 -30.966  1.00  0.00    -0.000 C 
BRANCH  28  29
ATOM     29  C   UNL     1      22.588  -1.990 -31.372  1.00  0.00    -0.000 C 
BRANCH  29  30
ATOM     30  C   UNL     1      21.997  -3.213 -30.639  1.00  0.00    -0.000 C 
BRANCH  30  31
ATOM     31  C   UNL     1      22.235  -4.544 -31.377  1.00  0.00    -0.003 C 
ATOM     32  C   UNL     1      22.283  -4.387 -32.895  1.00  0.00     0.004 C 
ENDBRANCH  30  31
ENDBRANCH  29  30
ENDBRANCH  28  29
ENDBRANCH  27  28
ENDBRANCH  26  27
ENDBRANCH  25  26
ENDBRANCH  24  25
ENDBRANCH  23  24
ENDBRANCH  22  23
ENDBRANCH  21  22
ENDBRANCH  20  21
ENDBRANCH  19  20
ENDBRANCH  18  19
ENDBRANCH   1  18
TORSDOF 28
ENDMDL
MODEL 4
REMARK VINA RESULT:    -3.358     14.620     19.083
REMARK INTER + INTRA:         -14.471
REMARK INTER:                  -8.989
REMARK INTRA:                  -5.482
REMARK UNBOUND:                -5.615
REMARK SMILES CCCCCCCCCCCCCCCCCCCCCCCCCCCCCC(=O)[O-]
REMARK SMILES IDX 16 1 17 2 18 3 19 4 20 5 21 6 22 7 23 8 24 9 25 10 26 11
REMARK SMILES IDX 27 12 28 13 29 14 30 15 31 16 32 17 15 18 14 19 13 20 12 21
REMARK SMILES IDX 11 22 10 23 9 24 8 25 7 26 6 27 5 28 4 29 3 30 2 31 1 32
REMARK H PARENT
REMARK Flexibility Score: inf
ROOT
ATOM      1  C   UNL     1      22.921  -6.180 -26.764  1.00  0.00     0.000 C 
ENDROOT
BRANCH   1   2
ATOM      2  C   UNL     1      23.465  -7.612 -26.645  1.00  0.00     0.000 C 
BRANCH   2   3
ATOM      3  C   UNL     1      23.579  -8.319 -28.006  1.00  0.00     0.000 C 
BRANCH   3   4
ATOM      4  C   UNL     1      25.038  -8.481 -28.473  1.00  0.00     0.000 C 
BRANCH   4   5
ATOM      5  C   UNL     1      25.355  -7.912 -29.873  1.00  0.00     0.000 C 
BRANCH   5   6
ATOM      6  C   UNL     1      25.155  -6.390 -30.024  1.00  0.00     0.000 C 
BRANCH   6   7
ATOM      7  C   UNL     1      24.079  -6.010 -31.069  1.00  0.00     0.000 C 
BRANCH   7   8
ATOM      8  C   UNL     1      22.740  -5.568 -30.445  1.00  0.00     0.000 C 
BRANCH   8   9
ATOM      9  C   UNL     1      21.584  -6.573 -30.654  1.00  0.00     0.000 C 
BRANCH   9  10
ATOM     10  C   UNL     1      21.792  -7.542 -31.832  1.00  0.00     0.000 C 
BRANCH  10  11
ATOM     11  C   UNL     1      21.569  -9.013 -31.445  1.00  0.00     0.000 C 
BRANCH  11  12
ATOM     12  C   UNL     1      22.853  -9.853 -31.534  1.00  0.00     0.000 C 
BRANCH  12  13
ATOM     13  C   UNL     1      22.772 -11.143 -30.699  1.00  0.00     0.006 C 
BRANCH  13  14
ATOM     14  C   UNL     1      24.162 -11.699 -30.354  1.00  0.00     0.053 C 
BRANCH  14  15
ATOM     15  C   UNL     1      24.260 -12.110 -28.916  1.00  0.00     0.041 C 
ATOM     16  O   UNL     1      23.234 -12.497 -28.295  1.00  0.00    -0.550 OA
ATOM     17  O   UNL     1      25.477 -12.028 -28.252  1.00  0.00    -0.550 OA
ENDBRANCH  14  15
ENDBRANCH  13  14
ENDBRANCH  12  13
ENDBRANCH  11  12
ENDBRANCH  10  11
ENDBRANCH   9  10
ENDBRANCH   8   9
ENDBRANCH   7   8
ENDBRANCH   6   7
ENDBRANCH   5   6
ENDBRANCH   4   5
ENDBRANCH   3   4
ENDBRANCH   2   3
ENDBRANCH   1   2
BRANCH   1  18
ATOM     18  C   UNL     1      24.004  -5.110 -26.527  1.00  0.00     0.000 C 
BRANCH  18  19
ATOM     19  C   UNL     1      23.992  -4.016 -27.607  1.00  0.00     0.000 C 
BRANCH  19  20
ATOM     20  C   UNL     1      24.399  -2.640 -27.050  1.00  0.00     0.000 C 
BRANCH  20  21
ATOM     21  C   UNL     1      25.524  -2.732 -26.004  1.00  0.00     0.000 C 
BRANCH  21  22
ATOM     22  C   UNL     1      26.899  -2.348 -26.575  1.00  0.00     0.000 C 
BRANCH  22  23
ATOM     23  C   UNL     1      26.815  -1.776 -28.004  1.00  0.00     0.000 C 
BRANCH  23  24
ATOM     24  C   UNL     1      27.336  -2.706 -29.116  1.00  0.00    -0.000 C 
BRANCH  24  25
ATOM     25  C   UNL     1      26.328  -2.889 -30.265  1.00  0.00    -0.000 C 
BRANCH  25  26
ATOM     26  C   UNL     1      26.971  -3.466 -31.537  1.00  0.00    -0.000 C 
BRANCH  26  27
ATOM     27  C   UNL     1      26.046  -3.381 -32.764  1.00  0.00    -0.000 C 
BRANCH  27  28
ATOM     28  C   UNL     1      25.221  -2.084 -32.794  1.00  0.00    -0.000 C 
BRANCH  28  29
ATOM     29  C   UNL     1      24.059  -2.145 -33.802  1.00  0.00    -0.000 C 
BRANCH  29  30
ATOM     30  C   UNL     1      23.148  -3.367 -33.561  1.00  0.00    -0.000 C 
BRANCH  30  31
ATOM     31  C   UNL     1      21.708  -2.990 -33.165  1.00  0.00    -0.003 C 
ATOM     32  C   UNL     1      20.714  -4.131 -33.366  1.00  0.00     0.004 C 
ENDBRANCH  30  31
ENDBRANCH  29  30
ENDBRANCH  28  29
ENDBRANCH  27  28
ENDBRANCH  26  27
ENDBRANCH  25  26
ENDBRANCH  24  25
ENDBRANCH  23  24
ENDBRANCH  22  23
ENDBRANCH  21  22
ENDBRANCH  20  21
ENDBRANCH  19  20
ENDBRANCH  18  19
ENDBRANCH   1  18
TORSDOF 28
ENDMDL
MODEL 5
REMARK VINA RESULT:    -3.345     14.445     18.769
REMARK INTER + INTRA:         -14.437
REMARK INTER:                  -8.797
REMARK INTRA:                  -5.639
REMARK UNBOUND:                -5.615
REMARK SMILES CCCCCCCCCCCCCCCCCCCCCCCCCCCCCC(=O)[O-]
REMARK SMILES IDX 16 1 17 2 18 3 19 4 20 5 21 6 22 7 23 8 24 9 25 10 26 11
REMARK SMILES IDX 27 12 28 13 29 14 30 15 31 16 32 17 15 18 14 19 13 20 12 21
REMARK SMILES IDX 11 22 10 23 9 24 8 25 7 26 6 27 5 28 4 29 3 30 2 31 1 32
REMARK H PARENT
REMARK Flexibility Score: inf
ROOT
ATOM      1  C   UNL     1      23.584  -7.632 -26.525  1.00  0.00     0.000 C 
ENDROOT
BRANCH   1   2
ATOM      2  C   UNL     1      23.449  -6.123 -26.270  1.00  0.00     0.000 C 
BRANCH   2   3
ATOM      3  C   UNL     1      23.273  -5.314 -27.565  1.00  0.00     0.000 C 
BRANCH   3   4
ATOM      4  C   UNL     1      24.115  -4.025 -27.583  1.00  0.00     0.000 C 
BRANCH   4   5
ATOM      5  C   UNL     1      24.725  -3.610 -26.226  1.00  0.00     0.000 C 
BRANCH   5   6
ATOM      6  C   UNL     1      25.842  -2.549 -26.306  1.00  0.00     0.000 C 
BRANCH   6   7
ATOM      7  C   UNL     1      26.166  -2.103 -27.752  1.00  0.00     0.000 C 
BRANCH   7   8
ATOM      8  C   UNL     1      27.473  -2.707 -28.306  1.00  0.00     0.000 C 
BRANCH   8   9
ATOM      9  C   UNL     1      27.276  -3.606 -29.549  1.00  0.00     0.000 C 
BRANCH   9  10
ATOM     10  C   UNL     1      26.469  -2.949 -30.684  1.00  0.00     0.000 C 
BRANCH  10  11
ATOM     11  C   UNL     1      27.070  -3.212 -32.075  1.00  0.00     0.000 C 
BRANCH  11  12
ATOM     12  C   UNL     1      26.100  -2.867 -33.216  1.00  0.00     0.000 C 
BRANCH  12  13
ATOM     13  C   UNL     1      24.753  -2.327 -32.701  1.00  0.00     0.006 C 
BRANCH  13  14
ATOM     14  C   UNL     1      23.588  -2.688 -33.634  1.00  0.00     0.053 C 
BRANCH  14  15
ATOM     15  C   UNL     1      22.266  -2.627 -32.930  1.00  0.00     0.041 C 
ATOM     16  O   UNL     1      22.161  -2.025 -31.828  1.00  0.00    -0.550 OA
ATOM     17  O   UNL     1      21.159  -3.267 -33.474  1.00  0.00    -0.550 OA
ENDBRANCH  14  15
ENDBRANCH  13  14
ENDBRANCH  12  13
ENDBRANCH  11  12
ENDBRANCH  10  11
ENDBRANCH   9  10
ENDBRANCH   8   9
ENDBRANCH   7   8
ENDBRANCH   6   7
ENDBRANCH   5   6
ENDBRANCH   4   5
ENDBRANCH   3   4
ENDBRANCH   2   3
ENDBRANCH   1   2
BRANCH   1  18
ATOM     18  C   UNL     1      23.648  -7.978 -28.025  1.00  0.00     0.000 C 
BRANCH  18  19
ATOM     19  C   UNL     1      24.959  -8.684 -28.407  1.00  0.00     0.000 C 
BRANCH  19  20
ATOM     20  C   UNL     1      25.403  -8.354 -29.844  1.00  0.00     0.000 C 
BRANCH  20  21
ATOM     21  C   UNL     1      25.544  -6.843 -30.090  1.00  0.00     0.000 C 
BRANCH  21  22
ATOM     22  C   UNL     1      25.551  -6.482 -31.584  1.00  0.00     0.000 C 
BRANCH  22  23
ATOM     23  C   UNL     1      24.172  -6.023 -32.096  1.00  0.00     0.000 C 
BRANCH  23  24
ATOM     24  C   UNL     1      23.208  -5.503 -31.011  1.00  0.00    -0.000 C 
BRANCH  24  25
ATOM     25  C   UNL     1      21.890  -6.297 -30.951  1.00  0.00    -0.000 C 
BRANCH  25  26
ATOM     26  C   UNL     1      21.883  -7.513 -31.893  1.00  0.00    -0.000 C 
BRANCH  26  27
ATOM     27  C   UNL     1      22.021  -8.849 -31.141  1.00  0.00    -0.000 C 
BRANCH  27  28
ATOM     28  C   UNL     1      22.422 -10.010 -32.065  1.00  0.00    -0.000 C 
BRANCH  28  29
ATOM     29  C   UNL     1      23.426 -10.972 -31.406  1.00  0.00    -0.000 C 
BRANCH  29  30
ATOM     30  C   UNL     1      22.747 -11.898 -30.374  1.00  0.00    -0.000 C 
BRANCH  30  31
ATOM     31  C   UNL     1      23.324 -11.759 -28.953  1.00  0.00    -0.003 C 
ATOM     32  C   UNL     1      24.526 -12.667 -28.703  1.00  0.00     0.004 C 
ENDBRANCH  30  31
ENDBRANCH  29  30
ENDBRANCH  28  29
ENDBRANCH  27  28
ENDBRANCH  26  27
ENDBRANCH  25  26
ENDBRANCH  24  25
ENDBRANCH  23  24
ENDBRANCH  22  23
ENDBRANCH  21  22
ENDBRANCH  20  21
ENDBRANCH  19  20
ENDBRANCH  18  19
ENDBRANCH   1  18
TORSDOF 28
ENDMDL
MODEL 6
REMARK VINA RESULT:    -3.334     14.603     18.678
REMARK INTER + INTRA:         -14.405
REMARK INTER:                  -8.808
REMARK INTRA:                  -5.598
REMARK UNBOUND:                -5.615
REMARK SMILES CCCCCCCCCCCCCCCCCCCCCCCCCCCCCC(=O)[O-]
REMARK SMILES IDX 16 1 17 2 18 3 19 4 20 5 21 6 22 7 23 8 24 9 25 10 26 11
REMARK SMILES IDX 27 12 28 13 29 14 30 15 31 16 32 17 15 18 14 19 13 20 12 21
REMARK SMILES IDX 11 22 10 23 9 24 8 25 7 26 6 27 5 28 4 29 3 30 2 31 1 32
REMARK H PARENT
REMARK Flexibility Score: inf
ROOT
ATOM      1  C   UNL     1      23.579  -8.255 -27.815  1.00  0.00     0.000 C 
ENDROOT
BRANCH   1   2
ATOM      2  C   UNL     1      23.536  -7.276 -26.631  1.00  0.00     0.000 C 
BRANCH   2   3
ATOM      3  C   UNL     1      23.193  -5.840 -27.060  1.00  0.00     0.000 C 
BRANCH   3   4
ATOM      4  C   UNL     1      23.418  -5.596 -28.563  1.00  0.00     0.000 C 
BRANCH   4   5
ATOM      5  C   UNL     1      23.154  -4.154 -29.051  1.00  0.00     0.000 C 
BRANCH   5   6
ATOM      6  C   UNL     1      22.565  -4.040 -30.472  1.00  0.00     0.000 C 
BRANCH   6   7
ATOM      7  C   UNL     1      21.566  -5.170 -30.818  1.00  0.00     0.000 C 
BRANCH   7   8
ATOM      8  C   UNL     1      21.952  -5.969 -32.079  1.00  0.00     0.000 C 
BRANCH   8   9
ATOM      9  C   UNL     1      22.748  -7.262 -31.788  1.00  0.00     0.000 C 
BRANCH   9  10
ATOM     10  C   UNL     1      21.955  -8.335 -31.020  1.00  0.00     0.000 C 
BRANCH  10  11
ATOM     11  C   UNL     1      22.082  -9.735 -31.643  1.00  0.00     0.000 C 
BRANCH  11  12
ATOM     12  C   UNL     1      23.530 -10.091 -32.014  1.00  0.00     0.000 C 
BRANCH  12  13
ATOM     13  C   UNL     1      24.054 -11.314 -31.238  1.00  0.00     0.006 C 
BRANCH  13  14
ATOM     14  C   UNL     1      23.226 -11.598 -29.977  1.00  0.00     0.053 C 
BRANCH  14  15
ATOM     15  C   UNL     1      23.988 -12.415 -28.978  1.00  0.00     0.041 C 
ATOM     16  O   UNL     1      25.236 -12.554 -29.092  1.00  0.00    -0.550 OA
ATOM     17  O   UNL     1      23.316 -13.053 -27.943  1.00  0.00    -0.550 OA
ENDBRANCH  14  15
ENDBRANCH  13  14
ENDBRANCH  12  13
ENDBRANCH  11  12
ENDBRANCH  10  11
ENDBRANCH   9  10
ENDBRANCH   8   9
ENDBRANCH   7   8
ENDBRANCH   6   7
ENDBRANCH   5   6
ENDBRANCH   4   5
ENDBRANCH   3   4
ENDBRANCH   2   3
ENDBRANCH   1   2
BRANCH   1  18
ATOM     18  C   UNL     1      24.984  -8.842 -28.050  1.00  0.00     0.000 C 
BRANCH  18  19
ATOM     19  C   UNL     1      25.514  -8.543 -29.463  1.00  0.00     0.000 C 
BRANCH  19  20
ATOM     20  C   UNL     1      27.052  -8.501 -29.512  1.00  0.00     0.000 C 
BRANCH  20  21
ATOM     21  C   UNL     1      27.585  -7.623 -30.657  1.00  0.00     0.000 C 
BRANCH  21  22
ATOM     22  C   UNL     1      26.740  -7.738 -31.937  1.00  0.00     0.000 C 
BRANCH  22  23
ATOM     23  C   UNL     1      26.230  -6.373 -32.441  1.00  0.00     0.000 C 
BRANCH  23  24
ATOM     24  C   UNL     1      25.889  -5.351 -31.339  1.00  0.00    -0.000 C 
BRANCH  24  25
ATOM     25  C   UNL     1      26.008  -3.893 -31.817  1.00  0.00    -0.000 C 
BRANCH  25  26
ATOM     26  C   UNL     1      26.711  -2.986 -30.793  1.00  0.00    -0.000 C 
BRANCH  26  27
ATOM     27  C   UNL     1      26.755  -3.602 -29.383  1.00  0.00    -0.000 C 
BRANCH  27  28
ATOM     28  C   UNL     1      27.819  -2.950 -28.486  1.00  0.00    -0.000 C 
BRANCH  28  29
ATOM     29  C   UNL     1      27.207  -2.210 -27.283  1.00  0.00    -0.000 C 
BRANCH  29  30
ATOM     30  C   UNL     1      25.680  -2.418 -27.192  1.00  0.00    -0.000 C 
BRANCH  30  31
ATOM     31  C   UNL     1      25.218  -2.986 -25.837  1.00  0.00    -0.003 C 
ATOM     32  C   UNL     1      26.195  -2.694 -24.701  1.00  0.00     0.004 C 
ENDBRANCH  30  31
ENDBRANCH  29  30
ENDBRANCH  28  29
ENDBRANCH  27  28
ENDBRANCH  26  27
ENDBRANCH  25  26
ENDBRANCH  24  25
ENDBRANCH  23  24
ENDBRANCH  22  23
ENDBRANCH  21  22
ENDBRANCH  20  21
ENDBRANCH  19  20
ENDBRANCH  18  19
ENDBRANCH   1  18
TORSDOF 28
ENDMDL
MODEL 7
REMARK VINA RESULT:    -3.292     15.406     19.186
REMARK INTER + INTRA:         -14.296
REMARK INTER:                  -8.277
REMARK INTRA:                  -6.019
REMARK UNBOUND:                -5.615
REMARK SMILES CCCCCCCCCCCCCCCCCCCCCCCCCCCCCC(=O)[O-]
REMARK SMILES IDX 16 1 17 2 18 3 19 4 20 5 21 6 22 7 23 8 24 9 25 10 26 11
REMARK SMILES IDX 27 12 28 13 29 14 30 15 31 16 32 17 15 18 14 19 13 20 12 21
REMARK SMILES IDX 11 22 10 23 9 24 8 25 7 26 6 27 5 28 4 29 3 30 2 31 1 32
REMARK H PARENT
REMARK Flexibility Score: inf
ROOT
ATOM      1  C   UNL     1      22.966  -6.281 -26.394  1.00  0.00     0.000 C 
ENDROOT
BRANCH   1   2
ATOM      2  C   UNL     1      23.997  -5.142 -26.348  1.00  0.00     0.000 C 
BRANCH   2   3
ATOM      3  C   UNL     1      23.965  -4.261 -27.607  1.00  0.00     0.000 C 
BRANCH   3   4
ATOM      4  C   UNL     1      24.395  -2.808 -27.329  1.00  0.00     0.000 C 
BRANCH   4   5
ATOM      5  C   UNL     1      25.254  -2.598 -26.063  1.00  0.00     0.000 C 
BRANCH   5   6
ATOM      6  C   UNL     1      26.756  -2.365 -26.321  1.00  0.00     0.000 C 
BRANCH   6   7
ATOM      7  C   UNL     1      27.067  -1.880 -27.757  1.00  0.00     0.000 C 
BRANCH   7   8
ATOM      8  C   UNL     1      27.824  -2.919 -28.609  1.00  0.00     0.000 C 
BRANCH   8   9
ATOM      9  C   UNL     1      26.983  -3.532 -29.752  1.00  0.00     0.000 C 
BRANCH   9  10
ATOM     10  C   UNL     1      27.181  -2.851 -31.118  1.00  0.00     0.000 C 
BRANCH  10  11
ATOM     11  C   UNL     1      25.855  -2.433 -31.776  1.00  0.00     0.000 C 
BRANCH  11  12
ATOM     12  C   UNL     1      24.952  -1.624 -30.831  1.00  0.00     0.000 C 
BRANCH  12  13
ATOM     13  C   UNL     1      23.711  -1.057 -31.545  1.00  0.00     0.006 C 
BRANCH  13  14
ATOM     14  C   UNL     1      22.581  -2.091 -31.655  1.00  0.00     0.053 C 
BRANCH  14  15
ATOM     15  C   UNL     1      22.027  -2.170 -33.045  1.00  0.00     0.041 C 
ATOM     16  O   UNL     1      21.839  -3.290 -33.591  1.00  0.00    -0.550 OA
ATOM     17  O   UNL     1      21.753  -1.006 -33.751  1.00  0.00    -0.550 OA
ENDBRANCH  14  15
ENDBRANCH  13  14
ENDBRANCH  12  13
ENDBRANCH  11  12
ENDBRANCH  10  11
ENDBRANCH   9  10
ENDBRANCH   8   9
ENDBRANCH   7   8
ENDBRANCH   6   7
ENDBRANCH   5   6
ENDBRANCH   4   5
ENDBRANCH   3   4
ENDBRANCH   2   3
ENDBRANCH   1   2
BRANCH   1  18
ATOM     18  C   UNL     1      23.601  -7.646 -26.720  1.00  0.00     0.000 C 
BRANCH  18  19
ATOM     19  C   UNL     1      23.562  -7.965 -28.224  1.00  0.00     0.000 C 
BRANCH  19  20
ATOM     20  C   UNL     1      24.721  -8.881 -28.656  1.00  0.00     0.000 C 
BRANCH  20  21
ATOM     21  C   UNL     1      25.578  -8.266 -29.776  1.00  0.00     0.000 C 
BRANCH  21  22
ATOM     22  C   UNL     1      25.324  -6.760 -29.960  1.00  0.00     0.000 C 
BRANCH  22  23
ATOM     23  C   UNL     1      25.239  -6.345 -31.441  1.00  0.00     0.000 C 
BRANCH  23  24
ATOM     24  C   UNL     1      23.986  -5.535 -31.826  1.00  0.00    -0.000 C 
BRANCH  24  25
ATOM     25  C   UNL     1      22.930  -5.497 -30.707  1.00  0.00    -0.000 C 
BRANCH  25  26
ATOM     26  C   UNL     1      21.584  -6.104 -31.138  1.00  0.00    -0.000 C 
BRANCH  26  27
ATOM     27  C   UNL     1      21.750  -7.374 -31.992  1.00  0.00    -0.000 C 
BRANCH  27  28
ATOM     28  C   UNL     1      21.719  -8.661 -31.153  1.00  0.00    -0.000 C 
BRANCH  28  29
ATOM     29  C   UNL     1      22.508  -9.811 -31.802  1.00  0.00    -0.000 C 
BRANCH  29  30
ATOM     30  C   UNL     1      23.244  -9.358 -33.081  1.00  0.00    -0.000 C 
BRANCH  30  31
ATOM     31  C   UNL     1      24.764  -9.602 -33.033  1.00  0.00    -0.003 C 
ATOM     32  C   UNL     1      25.525  -8.853 -34.125  1.00  0.00     0.004 C 
ENDBRANCH  30  31
ENDBRANCH  29  30
ENDBRANCH  28  29
ENDBRANCH  27  28
ENDBRANCH  26  27
ENDBRANCH  25  26
ENDBRANCH  24  25
ENDBRANCH  23  24
ENDBRANCH  22  23
ENDBRANCH  21  22
ENDBRANCH  20  21
ENDBRANCH  19  20
ENDBRANCH  18  19
ENDBRANCH   1  18
TORSDOF 28
ENDMDL
MODEL 8
REMARK VINA RESULT:    -3.268     14.511     18.987
REMARK INTER + INTRA:         -14.233
REMARK INTER:                  -8.729
REMARK INTRA:                  -5.504
REMARK UNBOUND:                -5.615
REMARK SMILES CCCCCCCCCCCCCCCCCCCCCCCCCCCCCC(=O)[O-]
REMARK SMILES IDX 16 1 17 2 18 3 19 4 20 5 21 6 22 7 23 8 24 9 25 10 26 11
REMARK SMILES IDX 27 12 28 13 29 14 30 15 31 16 32 17 15 18 14 19 13 20 12 21
REMARK SMILES IDX 11 22 10 23 9 24 8 25 7 26 6 27 5 28 4 29 3 30 2 31 1 32
REMARK H PARENT
REMARK Flexibility Score: inf
ROOT
ATOM      1  C   UNL     1      23.213  -5.569 -28.079  1.00  0.00     0.000 C 
ENDROOT
BRANCH   1   2
ATOM      2  C   UNL     1      23.671  -4.104 -28.155  1.00  0.00     0.000 C 
BRANCH   2   3
ATOM      3  C   UNL     1      24.460  -3.662 -26.911  1.00  0.00     0.000 C 
BRANCH   3   4
ATOM      4  C   UNL     1      24.966  -2.211 -27.010  1.00  0.00     0.000 C 
BRANCH   4   5
ATOM      5  C   UNL     1      26.499  -2.044 -27.088  1.00  0.00     0.000 C 
BRANCH   5   6
ATOM      6  C   UNL     1      27.076  -1.944 -28.515  1.00  0.00     0.000 C 
BRANCH   6   7
ATOM      7  C   UNL     1      27.801  -3.230 -28.979  1.00  0.00     0.000 C 
BRANCH   7   8
ATOM      8  C   UNL     1      27.160  -3.886 -30.218  1.00  0.00     0.000 C 
BRANCH   8   9
ATOM      9  C   UNL     1      25.904  -3.153 -30.744  1.00  0.00     0.000 C 
BRANCH   9  10
ATOM     10  C   UNL     1      26.094  -2.475 -32.113  1.00  0.00     0.000 C 
BRANCH  10  11
ATOM     11  C   UNL     1      25.816  -3.421 -33.293  1.00  0.00     0.000 C 
BRANCH  11  12
ATOM     12  C   UNL     1      24.318  -3.551 -33.611  1.00  0.00     0.000 C 
BRANCH  12  13
ATOM     13  C   UNL     1      23.649  -2.188 -33.864  1.00  0.00     0.006 C 
BRANCH  13  14
ATOM     14  C   UNL     1      22.257  -2.096 -33.221  1.00  0.00     0.053 C 
BRANCH  14  15
ATOM     15  C   UNL     1      22.306  -2.335 -31.742  1.00  0.00     0.041 C 
ATOM     16  O   UNL     1      22.835  -1.482 -30.979  1.00  0.00    -0.550 OA
ATOM     17  O   UNL     1      21.802  -3.515 -31.212  1.00  0.00    -0.550 OA
ENDBRANCH  14  15
ENDBRANCH  13  14
ENDBRANCH  12  13
ENDBRANCH  11  12
ENDBRANCH  10  11
ENDBRANCH   9  10
ENDBRANCH   8   9
ENDBRANCH   7   8
ENDBRANCH   6   7
ENDBRANCH   5   6
ENDBRANCH   4   5
ENDBRANCH   3   4
ENDBRANCH   2   3
ENDBRANCH   1   2
BRANCH   1  18
ATOM     18  C   UNL     1      23.255  -6.131 -26.645  1.00  0.00     0.000 C 
BRANCH  18  19
ATOM     19  C   UNL     1      23.622  -7.624 -26.613  1.00  0.00     0.000 C 
BRANCH  19  20
ATOM     20  C   UNL     1      23.690  -8.239 -28.023  1.00  0.00     0.000 C 
BRANCH  20  21
ATOM     21  C   UNL     1      24.995  -9.017 -28.269  1.00  0.00     0.000 C 
BRANCH  21  22
ATOM     22  C   UNL     1      25.564  -8.790 -29.679  1.00  0.00     0.000 C 
BRANCH  22  23
ATOM     23  C   UNL     1      25.779  -7.300 -30.005  1.00  0.00     0.000 C 
BRANCH  23  24
ATOM     24  C   UNL     1      25.271  -6.849 -31.388  1.00  0.00    -0.000 C 
BRANCH  24  25
ATOM     25  C   UNL     1      23.775  -6.488 -31.388  1.00  0.00    -0.000 C 
BRANCH  25  26
ATOM     26  C   UNL     1      22.909  -7.533 -32.111  1.00  0.00    -0.000 C 
BRANCH  26  27
ATOM     27  C   UNL     1      21.822  -8.137 -31.203  1.00  0.00    -0.000 C 
BRANCH  27  28
ATOM     28  C   UNL     1      21.555  -9.620 -31.505  1.00  0.00    -0.000 C 
BRANCH  28  29
ATOM     29  C   UNL     1      22.818 -10.489 -31.372  1.00  0.00    -0.000 C 
BRANCH  29  30
ATOM     30  C   UNL     1      22.747 -11.430 -30.151  1.00  0.00    -0.000 C 
BRANCH  30  31
ATOM     31  C   UNL     1      23.966 -12.363 -30.023  1.00  0.00    -0.003 C 
ATOM     32  C   UNL     1      24.330 -12.677 -28.574  1.00  0.00     0.004 C 
ENDBRANCH  30  31
ENDBRANCH  29  30
ENDBRANCH  28  29
ENDBRANCH  27  28
ENDBRANCH  26  27
ENDBRANCH  25  26
ENDBRANCH  24  25
ENDBRANCH  23  24
ENDBRANCH  22  23
ENDBRANCH  21  22
ENDBRANCH  20  21
ENDBRANCH  19  20
ENDBRANCH  18  19
ENDBRANCH   1  18
TORSDOF 28
ENDMDL
MODEL 9
REMARK VINA RESULT:    -3.213     14.317     18.993
REMARK INTER + INTRA:         -14.089
REMARK INTER:                  -8.171
REMARK INTRA:                  -5.918
REMARK UNBOUND:                -5.615
REMARK SMILES CCCCCCCCCCCCCCCCCCCCCCCCCCCCCC(=O)[O-]
REMARK SMILES IDX 16 1 17 2 18 3 19 4 20 5 21 6 22 7 23 8 24 9 25 10 26 11
REMARK SMILES IDX 27 12 28 13 29 14 30 15 31 16 32 17 15 18 14 19 13 20 12 21
REMARK SMILES IDX 11 22 10 23 9 24 8 25 7 26 6 27 5 28 4 29 3 30 2 31 1 32
REMARK H PARENT
REMARK Flexibility Score: inf
ROOT
ATOM      1  C   UNL     1      23.699  -7.652 -28.266  1.00  0.00     0.000 C 
ENDROOT
BRANCH   1   2
ATOM      2  C   UNL     1      24.614  -8.817 -28.674  1.00  0.00     0.000 C 
BRANCH   2   3
ATOM      3  C   UNL     1      25.473  -8.494 -29.908  1.00  0.00     0.000 C 
BRANCH   3   4
ATOM      4  C   UNL     1      25.639  -6.981 -30.140  1.00  0.00     0.000 C 
BRANCH   4   5
ATOM      5  C   UNL     1      25.305  -6.485 -31.564  1.00  0.00     0.000 C 
BRANCH   5   6
ATOM      6  C   UNL     1      24.247  -5.366 -31.638  1.00  0.00     0.000 C 
BRANCH   6   7
ATOM      7  C   UNL     1      23.406  -5.398 -32.937  1.00  0.00     0.000 C 
BRANCH   7   8
ATOM      8  C   UNL     1      22.045  -6.102 -32.775  1.00  0.00     0.000 C 
BRANCH   8   9
ATOM      9  C   UNL     1      21.531  -6.156 -31.317  1.00  0.00     0.000 C 
BRANCH   9  10
ATOM     10  C   UNL     1      21.376  -7.580 -30.753  1.00  0.00     0.000 C 
BRANCH  10  11
ATOM     11  C   UNL     1      22.086  -8.643 -31.607  1.00  0.00     0.000 C 
BRANCH  11  12
ATOM     12  C   UNL     1      21.227  -9.898 -31.829  1.00  0.00     0.000 C 
BRANCH  12  13
ATOM     13  C   UNL     1      21.787 -11.132 -31.098  1.00  0.00     0.006 C 
BRANCH  13  14
ATOM     14  C   UNL     1      23.315 -11.232 -31.214  1.00  0.00     0.053 C 
BRANCH  14  15
ATOM     15  C   UNL     1      23.903 -12.096 -30.140  1.00  0.00     0.041 C 
ATOM     16  O   UNL     1      25.075 -12.544 -30.257  1.00  0.00    -0.550 OA
ATOM     17  O   UNL     1      23.143 -12.436 -29.028  1.00  0.00    -0.550 OA
ENDBRANCH  14  15
ENDBRANCH  13  14
ENDBRANCH  12  13
ENDBRANCH  11  12
ENDBRANCH  10  11
ENDBRANCH   9  10
ENDBRANCH   8   9
ENDBRANCH   7   8
ENDBRANCH   6   7
ENDBRANCH   5   6
ENDBRANCH   4   5
ENDBRANCH   3   4
ENDBRANCH   2   3
ENDBRANCH   1   2
BRANCH   1  18
ATOM     18  C   UNL     1      23.487  -7.568 -26.743  1.00  0.00     0.000 C 
BRANCH  18  19
ATOM     19  C   UNL     1      23.212  -6.131 -26.269  1.00  0.00     0.000 C 
BRANCH  19  20
ATOM     20  C   UNL     1      23.620  -5.082 -27.319  1.00  0.00     0.000 C 
BRANCH  20  21
ATOM     21  C   UNL     1      24.357  -3.880 -26.704  1.00  0.00     0.000 C 
BRANCH  21  22
ATOM     22  C   UNL     1      24.843  -2.875 -27.762  1.00  0.00     0.000 C 
BRANCH  22  23
ATOM     23  C   UNL     1      25.654  -3.541 -28.890  1.00  0.00     0.000 C 
BRANCH  23  24
ATOM     24  C   UNL     1      26.806  -2.691 -29.461  1.00  0.00    -0.000 C 
BRANCH  24  25
ATOM     25  C   UNL     1      27.742  -3.493 -30.382  1.00  0.00    -0.000 C 
BRANCH  25  26
ATOM     26  C   UNL     1      27.342  -3.403 -31.865  1.00  0.00    -0.000 C 
BRANCH  26  27
ATOM     27  C   UNL     1      26.573  -2.111 -32.196  1.00  0.00    -0.000 C 
BRANCH  27  28
ATOM     28  C   UNL     1      25.577  -2.295 -33.352  1.00  0.00    -0.000 C 
BRANCH  28  29
ATOM     29  C   UNL     1      24.172  -1.768 -33.013  1.00  0.00    -0.000 C 
BRANCH  29  30
ATOM     30  C   UNL     1      24.021  -1.448 -31.510  1.00  0.00    -0.000 C 
BRANCH  30  31
ATOM     31  C   UNL     1      22.556  -1.408 -31.035  1.00  0.00    -0.003 C 
ATOM     32  C   UNL     1      22.162  -2.630 -30.208  1.00  0.00     0.004 C 
ENDBRANCH  30  31
ENDBRANCH  29  30
ENDBRANCH  28  29
ENDBRANCH  27  28
ENDBRANCH  26  27
ENDBRANCH  25  26
ENDBRANCH  24  25
ENDBRANCH  23  24
ENDBRANCH  22  23
ENDBRANCH  21  22
ENDBRANCH  20  21
ENDBRANCH  19  20
ENDBRANCH  18  19
ENDBRANCH   1  18
TORSDOF 28
ENDMDL
