MODEL 1
REMARK VINA RESULT:    -3.361      0.000      0.000
REMARK INTER + INTRA:          -4.629
REMARK INTER:                  -4.147
REMARK INTRA:                  -0.482
REMARK UNBOUND:                -0.482
REMARK SMILES CCCCC=CC(C)=O
REMARK SMILES IDX 4 1 3 2 2 3 1 4 5 5 6 6 7 7 9 8 8 9
REMARK H PARENT
REMARK Flexibility Score: inf
ROOT
ATOM      1  C   UNL     1     152.042 160.114 200.114  1.00  0.00     0.027 C 
ENDROOT
BRANCH   1   2
ATOM      2  C   UNL     1     152.116 160.054 201.647  1.00  0.00     0.004 C 
BRANCH   2   3
ATOM      3  C   UNL     1     151.262 161.144 202.309  1.00  0.00    -0.003 C 
ATOM      4  C   UNL     1     150.117 160.536 203.112  1.00  0.00     0.004 C 
ENDBRANCH   2   3
ENDBRANCH   1   2
BRANCH   1   5
ATOM      5  C   UNL     1     151.266 158.961 199.530  1.00  0.00    -0.023 C 
ATOM      6  C   UNL     1     149.983 158.994 199.132  1.00  0.00     0.042 C 
BRANCH   6   7
ATOM      7  C   UNL     1     149.059 160.147 199.234  1.00  0.00     0.152 C 
ATOM      8  O   UNL     1     149.166 161.150 198.479  1.00  0.00    -0.295 OA
ATOM      9  C   UNL     1     148.020 160.157 200.308  1.00  0.00     0.093 C 
ENDBRANCH   6   7
ENDBRANCH   1   5
TORSDOF 4
ENDMDL
MODEL 2
REMARK VINA RESULT:    -3.253      9.394     10.449
REMARK INTER + INTRA:          -4.495
REMARK INTER:                  -4.286
REMARK INTRA:                  -0.210
REMARK UNBOUND:                -0.482
REMARK SMILES CCCCC=CC(C)=O
REMARK SMILES IDX 4 1 3 2 2 3 1 4 5 5 6 6 7 7 9 8 8 9
REMARK H PARENT
REMARK Flexibility Score: inf
ROOT
ATOM      1  C   UNL     1     158.879 167.335 199.180  1.00  0.00     0.027 C 
ENDROOT
BRANCH   1   2
ATOM      2  C   UNL     1     159.235 167.236 200.672  1.00  0.00     0.004 C 
BRANCH   2   3
ATOM      3  C   UNL     1     158.973 168.554 201.415  1.00  0.00    -0.003 C 
ATOM      4  C   UNL     1     160.017 168.789 202.503  1.00  0.00     0.004 C 
ENDBRANCH   2   3
ENDBRANCH   1   2
BRANCH   1   5
ATOM      5  C   UNL     1     159.417 166.173 198.383  1.00  0.00    -0.023 C 
ATOM      6  C   UNL     1     158.792 165.003 198.173  1.00  0.00     0.042 C 
BRANCH   6   7
ATOM      7  C   UNL     1     157.478 164.596 198.723  1.00  0.00     0.152 C 
ATOM      8  O   UNL     1     157.382 163.765 199.665  1.00  0.00    -0.295 OA
ATOM      9  C   UNL     1     156.229 165.127 198.096  1.00  0.00     0.093 C 
ENDBRANCH   6   7
ENDBRANCH   1   5
TORSDOF 4
ENDMDL
MODEL 3
REMARK VINA RESULT:    -3.201      1.949      3.488
REMARK INTER + INTRA:          -4.432
REMARK INTER:                  -3.940
REMARK INTRA:                  -0.491
REMARK UNBOUND:                -0.482
REMARK SMILES CCCCC=CC(C)=O
REMARK SMILES IDX 4 1 3 2 2 3 1 4 5 5 6 6 7 7 9 8 8 9
REMARK H PARENT
REMARK Flexibility Score: inf
ROOT
ATOM      1  C   UNL     1     150.841 160.043 198.584  1.00  0.00     0.027 C 
ENDROOT
BRANCH   1   2
ATOM      2  C   UNL     1     149.532 160.805 198.843  1.00  0.00     0.004 C 
BRANCH   2   3
ATOM      3  C   UNL     1     148.442 159.897 199.430  1.00  0.00    -0.003 C 
ATOM      4  C   UNL     1     147.968 160.411 200.786  1.00  0.00     0.004 C 
ENDBRANCH   2   3
ENDBRANCH   1   2
BRANCH   1   5
ATOM      5  C   UNL     1     150.989 158.835 199.474  1.00  0.00    -0.023 C 
ATOM      6  C   UNL     1     151.567 158.815 200.686  1.00  0.00     0.042 C 
BRANCH   6   7
ATOM      7  C   UNL     1     152.221 159.956 201.369  1.00  0.00     0.152 C 
ATOM      8  O   UNL     1     153.469 160.122 201.334  1.00  0.00    -0.295 OA
ATOM      9  C   UNL     1     151.389 160.894 202.182  1.00  0.00     0.093 C 
ENDBRANCH   6   7
ENDBRANCH   1   5
TORSDOF 4
ENDMDL
MODEL 4
REMARK VINA RESULT:    -3.175      8.179      9.684
REMARK INTER + INTRA:          -4.399
REMARK INTER:                  -4.056
REMARK INTRA:                  -0.343
REMARK UNBOUND:                -0.482
REMARK SMILES CCCCC=CC(C)=O
REMARK SMILES IDX 4 1 3 2 2 3 1 4 5 5 6 6 7 7 9 8 8 9
REMARK H PARENT
REMARK Flexibility Score: inf
ROOT
ATOM      1  C   UNL     1     156.948 165.341 198.593  1.00  0.00     0.027 C 
ENDROOT
BRANCH   1   2
ATOM      2  C   UNL     1     157.590 166.127 197.440  1.00  0.00     0.004 C 
BRANCH   2   3
ATOM      3  C   UNL     1     158.872 166.851 197.877  1.00  0.00    -0.003 C 
ATOM      4  C   UNL     1     158.847 168.317 197.457  1.00  0.00     0.004 C 
ENDBRANCH   2   3
ENDBRANCH   1   2
BRANCH   1   5
ATOM      5  C   UNL     1     157.966 164.856 199.595  1.00  0.00    -0.023 C 
ATOM      6  C   UNL     1     158.319 163.577 199.805  1.00  0.00     0.042 C 
BRANCH   6   7
ATOM      7  C   UNL     1     157.747 162.385 199.138  1.00  0.00     0.152 C 
ATOM      8  O   UNL     1     156.854 161.685 199.685  1.00  0.00    -0.295 OA
ATOM      9  C   UNL     1     158.293 161.956 197.814  1.00  0.00     0.093 C 
ENDBRANCH   6   7
ENDBRANCH   1   5
TORSDOF 4
ENDMDL
MODEL 5
REMARK VINA RESULT:    -3.166      9.161     10.346
REMARK INTER + INTRA:          -4.388
REMARK INTER:                  -4.101
REMARK INTRA:                  -0.288
REMARK UNBOUND:                -0.482
REMARK SMILES CCCCC=CC(C)=O
REMARK SMILES IDX 4 1 3 2 2 3 1 4 5 5 6 6 7 7 9 8 8 9
REMARK H PARENT
REMARK Flexibility Score: inf
ROOT
ATOM      1  C   UNL     1     158.853 166.656 199.027  1.00  0.00     0.027 C 
ENDROOT
BRANCH   1   2
ATOM      2  C   UNL     1     159.227 166.909 200.496  1.00  0.00     0.004 C 
BRANCH   2   3
ATOM      3  C   UNL     1     158.886 168.339 200.940  1.00  0.00    -0.003 C 
ATOM      4  C   UNL     1     159.266 168.567 202.400  1.00  0.00     0.004 C 
ENDBRANCH   2   3
ENDBRANCH   1   2
BRANCH   1   5
ATOM      5  C   UNL     1     157.585 165.853 198.886  1.00  0.00    -0.023 C 
ATOM      6  C   UNL     1     157.503 164.514 198.821  1.00  0.00     0.042 C 
BRANCH   6   7
ATOM      7  C   UNL     1     158.637 163.561 198.821  1.00  0.00     0.152 C 
ATOM      8  O   UNL     1     159.248 163.259 197.761  1.00  0.00    -0.295 OA
ATOM      9  C   UNL     1     159.020 162.882 200.096  1.00  0.00     0.093 C 
ENDBRANCH   6   7
ENDBRANCH   1   5
TORSDOF 4
ENDMDL
MODEL 6
REMARK VINA RESULT:    -3.134      8.772     10.347
REMARK INTER + INTRA:          -4.349
REMARK INTER:                  -3.825
REMARK INTRA:                  -0.524
REMARK UNBOUND:                -0.482
REMARK SMILES CCCCC=CC(C)=O
REMARK SMILES IDX 4 1 3 2 2 3 1 4 5 5 6 6 7 7 9 8 8 9
REMARK H PARENT
REMARK Flexibility Score: inf
ROOT
ATOM      1  C   UNL     1     157.165 164.171 198.662  1.00  0.00     0.027 C 
ENDROOT
BRANCH   1   2
ATOM      2  C   UNL     1     156.099 165.080 198.029  1.00  0.00     0.004 C 
BRANCH   2   3
ATOM      3  C   UNL     1     156.298 165.234 196.515  1.00  0.00    -0.003 C 
ATOM      4  C   UNL     1     157.090 164.064 195.941  1.00  0.00     0.004 C 
ENDBRANCH   2   3
ENDBRANCH   1   2
BRANCH   1   5
ATOM      5  C   UNL     1     157.945 164.870 199.747  1.00  0.00    -0.023 C 
ATOM      6  C   UNL     1     158.890 165.807 199.561  1.00  0.00     0.042 C 
BRANCH   6   7
ATOM      7  C   UNL     1     159.392 166.304 198.259  1.00  0.00     0.152 C 
ATOM      8  O   UNL     1     160.260 165.672 197.599  1.00  0.00    -0.295 OA
ATOM      9  C   UNL     1     158.915 167.625 197.749  1.00  0.00     0.093 C 
ENDBRANCH   6   7
ENDBRANCH   1   5
TORSDOF 4
ENDMDL
MODEL 7
REMARK VINA RESULT:    -3.098      8.313      9.752
REMARK INTER + INTRA:          -4.305
REMARK INTER:                  -3.679
REMARK INTRA:                  -0.626
REMARK UNBOUND:                -0.482
REMARK SMILES CCCCC=CC(C)=O
REMARK SMILES IDX 4 1 3 2 2 3 1 4 5 5 6 6 7 7 9 8 8 9
REMARK H PARENT
REMARK Flexibility Score: inf
ROOT
ATOM      1  C   UNL     1     156.823 165.386 198.487  1.00  0.00     0.027 C 
ENDROOT
BRANCH   1   2
ATOM      2  C   UNL     1     157.650 166.202 197.480  1.00  0.00     0.004 C 
BRANCH   2   3
ATOM      3  C   UNL     1     158.934 166.763 198.108  1.00  0.00    -0.003 C 
ATOM      4  C   UNL     1     158.921 166.603 199.624  1.00  0.00     0.004 C 
ENDBRANCH   2   3
ENDBRANCH   1   2
BRANCH   1   5
ATOM      5  C   UNL     1     156.578 163.974 198.018  1.00  0.00    -0.023 C 
ATOM      6  C   UNL     1     157.388 162.923 198.224  1.00  0.00     0.042 C 
BRANCH   6   7
ATOM      7  C   UNL     1     158.705 162.945 198.902  1.00  0.00     0.152 C 
ATOM      8  O   UNL     1     158.803 162.968 200.157  1.00  0.00    -0.295 OA
ATOM      9  C   UNL     1     159.949 163.018 198.077  1.00  0.00     0.093 C 
ENDBRANCH   6   7
ENDBRANCH   1   5
TORSDOF 4
ENDMDL
MODEL 8
REMARK VINA RESULT:    -3.074      8.219      9.619
REMARK INTER + INTRA:          -4.275
REMARK INTER:                  -4.000
REMARK INTRA:                  -0.275
REMARK UNBOUND:                -0.482
REMARK SMILES CCCCC=CC(C)=O
REMARK SMILES IDX 4 1 3 2 2 3 1 4 5 5 6 6 7 7 9 8 8 9
REMARK H PARENT
REMARK Flexibility Score: inf
ROOT
ATOM      1  C   UNL     1     157.746 164.481 199.733  1.00  0.00     0.027 C 
ENDROOT
BRANCH   1   2
ATOM      2  C   UNL     1     158.171 163.020 199.517  1.00  0.00     0.004 C 
BRANCH   2   3
ATOM      3  C   UNL     1     157.179 162.256 198.628  1.00  0.00    -0.003 C 
ATOM      4  C   UNL     1     156.438 161.185 199.423  1.00  0.00     0.004 C 
ENDBRANCH   2   3
ENDBRANCH   1   2
BRANCH   1   5
ATOM      5  C   UNL     1     156.922 165.015 198.589  1.00  0.00    -0.023 C 
ATOM      6  C   UNL     1     157.356 165.842 197.623  1.00  0.00     0.042 C 
BRANCH   6   7
ATOM      7  C   UNL     1     158.709 166.436 197.515  1.00  0.00     0.152 C 
ATOM      8  O   UNL     1     159.731 165.726 197.324  1.00  0.00    -0.295 OA
ATOM      9  C   UNL     1     158.877 167.909 197.712  1.00  0.00     0.093 C 
ENDBRANCH   6   7
ENDBRANCH   1   5
TORSDOF 4
ENDMDL
MODEL 9
REMARK VINA RESULT:    -3.073      2.575      3.950
REMARK INTER + INTRA:          -4.273
REMARK INTER:                  -3.845
REMARK INTRA:                  -0.428
REMARK UNBOUND:                -0.482
REMARK SMILES CCCCC=CC(C)=O
REMARK SMILES IDX 4 1 3 2 2 3 1 4 5 5 6 6 7 7 9 8 8 9
REMARK H PARENT
REMARK Flexibility Score: inf
ROOT
ATOM      1  C   UNL     1     151.030 160.558 201.087  1.00  0.00     0.027 C 
ENDROOT
BRANCH   1   2
ATOM      2  C   UNL     1     150.551 160.521 199.627  1.00  0.00     0.004 C 
BRANCH   2   3
ATOM      3  C   UNL     1     149.226 159.760 199.473  1.00  0.00    -0.003 C 
ATOM      4  C   UNL     1     148.172 160.287 200.441  1.00  0.00     0.004 C 
ENDBRANCH   2   3
ENDBRANCH   1   2
BRANCH   1   5
ATOM      5  C   UNL     1     152.469 160.131 201.230  1.00  0.00    -0.023 C 
ATOM      6  C   UNL     1     152.899 158.891 201.518  1.00  0.00     0.042 C 
BRANCH   6   7
ATOM      7  C   UNL     1     152.053 157.710 201.805  1.00  0.00     0.152 C 
ATOM      8  O   UNL     1     151.786 157.357 202.985  1.00  0.00    -0.295 OA
ATOM      9  C   UNL     1     151.562 156.871 200.670  1.00  0.00     0.093 C 
ENDBRANCH   6   7
ENDBRANCH   1   5
TORSDOF 4
ENDMDL
