MODEL 1
REMARK VINA RESULT:    -4.195      0.000      0.000
REMARK INTER + INTRA:         -13.266
REMARK INTER:                  -9.591
REMARK INTRA:                  -3.675
REMARK UNBOUND:                -3.675
REMARK SMILES CCCCCCCCCCCCCCCCCCCCCCCC(=O)[O-]
REMARK SMILES IDX 13 1 14 2 15 3 16 4 17 5 18 6 19 7 20 8 21 9 22 10 23 11
REMARK SMILES IDX 24 12 25 13 26 14 12 15 11 16 10 17 9 18 8 19 7 20 6 21 5 22
REMARK SMILES IDX 4 23 3 24 2 25 1 26
REMARK H PARENT
REMARK Flexibility Score: inf
ROOT
ATOM      1  C   UNL     1       5.108  13.801  11.305  1.00  0.00     0.000 C 
ENDROOT
BRANCH   1   2
ATOM      2  C   UNL     1       6.460  13.183  11.692  1.00  0.00     0.000 C 
BRANCH   2   3
ATOM      3  C   UNL     1       6.329  11.718  12.147  1.00  0.00     0.000 C 
BRANCH   3   4
ATOM      4  C   UNL     1       6.838  10.722  11.091  1.00  0.00     0.000 C 
BRANCH   4   5
ATOM      5  C   UNL     1       7.811  11.363  10.087  1.00  0.00     0.000 C 
BRANCH   5   6
ATOM      6  C   UNL     1       9.258  10.864  10.254  1.00  0.00     0.000 C 
BRANCH   6   7
ATOM      7  C   UNL     1       9.404   9.476  10.906  1.00  0.00     0.000 C 
BRANCH   7   8
ATOM      8  C   UNL     1       9.296   8.326   9.891  1.00  0.00     0.000 C 
BRANCH   8   9
ATOM      9  C   UNL     1       8.420   7.161  10.391  1.00  0.00     0.000 C 
BRANCH   9  10
ATOM     10  C   UNL     1       7.172   6.864   9.538  1.00  0.00     0.006 C 
BRANCH  10  11
ATOM     11  C   UNL     1       6.814   8.004   8.574  1.00  0.00     0.053 C 
BRANCH  11  12
ATOM     12  C   UNL     1       6.441   7.460   7.231  1.00  0.00     0.041 C 
ATOM     13  O   UNL     1       7.076   7.821   6.203  1.00  0.00    -0.550 OA
ATOM     14  O   UNL     1       5.415   6.531   7.115  1.00  0.00    -0.550 OA
ENDBRANCH  11  12
ENDBRANCH  10  11
ENDBRANCH   9  10
ENDBRANCH   8   9
ENDBRANCH   7   8
ENDBRANCH   6   7
ENDBRANCH   5   6
ENDBRANCH   4   5
ENDBRANCH   3   4
ENDBRANCH   2   3
ENDBRANCH   1   2
BRANCH   1  15
ATOM     15  C   UNL     1       4.565  14.747  12.390  1.00  0.00     0.000 C 
BRANCH  15  16
ATOM     16  C   UNL     1       3.027  14.747  12.474  1.00  0.00     0.000 C 
BRANCH  16  17
ATOM     17  C   UNL     1       2.339  13.492  11.900  1.00  0.00     0.000 C 
BRANCH  17  18
ATOM     18  C   UNL     1       1.391  13.751  10.715  1.00  0.00    -0.000 C 
BRANCH  18  19
ATOM     19  C   UNL     1       2.009  14.625   9.598  1.00  0.00    -0.000 C 
BRANCH  19  20
ATOM     20  C   UNL     1       1.724  14.140   8.162  1.00  0.00    -0.000 C 
BRANCH  20  21
ATOM     21  C   UNL     1       2.942  13.597   7.385  1.00  0.00    -0.000 C 
BRANCH  21  22
ATOM     22  C   UNL     1       4.044  12.954   8.248  1.00  0.00    -0.000 C 
BRANCH  22  23
ATOM     23  C   UNL     1       3.951  11.418   8.289  1.00  0.00    -0.000 C 
BRANCH  23  24
ATOM     24  C   UNL     1       3.493  10.893   9.668  1.00  0.00    -0.000 C 
BRANCH  24  25
ATOM     25  C   UNL     1       2.067  10.313   9.668  1.00  0.00    -0.003 C 
ATOM     26  C   UNL     1       1.456  10.231   8.271  1.00  0.00     0.004 C 
ENDBRANCH  24  25
ENDBRANCH  23  24
ENDBRANCH  22  23
ENDBRANCH  21  22
ENDBRANCH  20  21
ENDBRANCH  19  20
ENDBRANCH  18  19
ENDBRANCH  17  18
ENDBRANCH  16  17
ENDBRANCH  15  16
ENDBRANCH   1  15
TORSDOF 22
ENDMDL
MODEL 2
REMARK VINA RESULT:    -4.126      3.609      4.607
REMARK INTER + INTRA:         -13.108
REMARK INTER:                  -9.470
REMARK INTRA:                  -3.637
REMARK UNBOUND:                -3.675
REMARK SMILES CCCCCCCCCCCCCCCCCCCCCCCC(=O)[O-]
REMARK SMILES IDX 13 1 14 2 15 3 16 4 17 5 18 6 19 7 20 8 21 9 22 10 23 11
REMARK SMILES IDX 24 12 25 13 26 14 12 15 11 16 10 17 9 18 8 19 7 20 6 21 5 22
REMARK SMILES IDX 4 23 3 24 2 25 1 26
REMARK H PARENT
REMARK Flexibility Score: inf
ROOT
ATOM      1  C   UNL     1       5.568  13.594  11.234  1.00  0.00     0.000 C 
ENDROOT
BRANCH   1   2
ATOM      2  C   UNL     1       6.884  12.811  11.363  1.00  0.00     0.000 C 
BRANCH   2   3
ATOM      3  C   UNL     1       6.669  11.288  11.312  1.00  0.00     0.000 C 
BRANCH   3   4
ATOM      4  C   UNL     1       7.332  10.636  10.087  1.00  0.00     0.000 C 
BRANCH   4   5
ATOM      5  C   UNL     1       8.337   9.535  10.469  1.00  0.00     0.000 C 
BRANCH   5   6
ATOM      6  C   UNL     1       9.678   9.666   9.726  1.00  0.00     0.000 C 
BRANCH   6   7
ATOM      7  C   UNL     1      10.364  11.040   9.842  1.00  0.00     0.000 C 
BRANCH   7   8
ATOM      8  C   UNL     1      11.229  11.170  11.107  1.00  0.00     0.000 C 
BRANCH   8   9
ATOM      9  C   UNL     1      10.633  12.135  12.149  1.00  0.00     0.000 C 
BRANCH   9  10
ATOM     10  C   UNL     1       9.720  11.483  13.204  1.00  0.00     0.006 C 
BRANCH  10  11
ATOM     11  C   UNL     1       9.455  12.387  14.416  1.00  0.00     0.053 C 
BRANCH  11  12
ATOM     12  C   UNL     1      10.717  12.623  15.184  1.00  0.00     0.041 C 
ATOM     13  O   UNL     1      11.134  13.797  15.372  1.00  0.00    -0.550 OA
ATOM     14  O   UNL     1      11.418  11.549  15.720  1.00  0.00    -0.550 OA
ENDBRANCH  11  12
ENDBRANCH  10  11
ENDBRANCH   9  10
ENDBRANCH   8   9
ENDBRANCH   7   8
ENDBRANCH   6   7
ENDBRANCH   5   6
ENDBRANCH   4   5
ENDBRANCH   3   4
ENDBRANCH   2   3
ENDBRANCH   1   2
BRANCH   1  15
ATOM     15  C   UNL     1       4.652  13.403  12.455  1.00  0.00     0.000 C 
BRANCH  15  16
ATOM     16  C   UNL     1       3.193  13.816  12.182  1.00  0.00     0.000 C 
BRANCH  16  17
ATOM     17  C   UNL     1       3.013  15.215  11.560  1.00  0.00     0.000 C 
BRANCH  17  18
ATOM     18  C   UNL     1       1.921  15.314  10.480  1.00  0.00    -0.000 C 
BRANCH  18  19
ATOM     19  C   UNL     1       1.811  14.058   9.583  1.00  0.00    -0.000 C 
BRANCH  19  20
ATOM     20  C   UNL     1       2.043  14.313   8.079  1.00  0.00    -0.000 C 
BRANCH  20  21
ATOM     21  C   UNL     1       2.998  13.326   7.374  1.00  0.00    -0.000 C 
BRANCH  21  22
ATOM     22  C   UNL     1       3.983  12.586   8.297  1.00  0.00    -0.000 C 
BRANCH  22  23
ATOM     23  C   UNL     1       3.623  11.101   8.488  1.00  0.00    -0.000 C 
BRANCH  23  24
ATOM     24  C   UNL     1       3.402  10.736   9.972  1.00  0.00    -0.000 C 
BRANCH  24  25
ATOM     25  C   UNL     1       1.962  10.299  10.295  1.00  0.00    -0.003 C 
ATOM     26  C   UNL     1       1.029  10.379   9.089  1.00  0.00     0.004 C 
ENDBRANCH  24  25
ENDBRANCH  23  24
ENDBRANCH  22  23
ENDBRANCH  21  22
ENDBRANCH  20  21
ENDBRANCH  19  20
ENDBRANCH  18  19
ENDBRANCH  17  18
ENDBRANCH  16  17
ENDBRANCH  15  16
ENDBRANCH   1  15
TORSDOF 22
ENDMDL
MODEL 3
REMARK VINA RESULT:    -4.124      1.399      1.891
REMARK INTER + INTRA:         -13.103
REMARK INTER:                  -9.569
REMARK INTRA:                  -3.534
REMARK UNBOUND:                -3.675
REMARK SMILES CCCCCCCCCCCCCCCCCCCCCCCC(=O)[O-]
REMARK SMILES IDX 13 1 14 2 15 3 16 4 17 5 18 6 19 7 20 8 21 9 22 10 23 11
REMARK SMILES IDX 24 12 25 13 26 14 12 15 11 16 10 17 9 18 8 19 7 20 6 21 5 22
REMARK SMILES IDX 4 23 3 24 2 25 1 26
REMARK H PARENT
REMARK Flexibility Score: inf
ROOT
ATOM      1  C   UNL     1       5.009  12.512  12.796  1.00  0.00     0.000 C 
ENDROOT
BRANCH   1   2
ATOM      2  C   UNL     1       6.287  12.223  13.599  1.00  0.00     0.000 C 
BRANCH   2   3
ATOM      3  C   UNL     1       7.489  11.897  12.695  1.00  0.00     0.000 C 
BRANCH   3   4
ATOM      4  C   UNL     1       7.112  10.993  11.509  1.00  0.00     0.000 C 
BRANCH   4   5
ATOM      5  C   UNL     1       7.915  11.313  10.236  1.00  0.00     0.000 C 
BRANCH   5   6
ATOM      6  C   UNL     1       8.511  10.058   9.574  1.00  0.00     0.000 C 
BRANCH   6   7
ATOM      7  C   UNL     1       8.479  10.048   8.035  1.00  0.00     0.000 C 
BRANCH   7   8
ATOM      8  C   UNL     1       7.302   9.236   7.468  1.00  0.00     0.000 C 
BRANCH   8   9
ATOM      9  C   UNL     1       6.420   8.607   8.564  1.00  0.00     0.000 C 
BRANCH   9  10
ATOM     10  C   UNL     1       6.498   7.073   8.672  1.00  0.00     0.006 C 
BRANCH  10  11
ATOM     11  C   UNL     1       5.129   6.389   8.554  1.00  0.00     0.053 C 
BRANCH  11  12
ATOM     12  C   UNL     1       4.351   6.959   7.409  1.00  0.00     0.041 C 
ATOM     13  O   UNL     1       4.667   6.670   6.224  1.00  0.00    -0.550 OA
ATOM     14  O   UNL     1       3.258   7.782   7.650  1.00  0.00    -0.550 OA
ENDBRANCH  11  12
ENDBRANCH  10  11
ENDBRANCH   9  10
ENDBRANCH   8   9
ENDBRANCH   7   8
ENDBRANCH   6   7
ENDBRANCH   5   6
ENDBRANCH   4   5
ENDBRANCH   3   4
ENDBRANCH   2   3
ENDBRANCH   1   2
BRANCH   1  15
ATOM     15  C   UNL     1       5.108  13.820  11.992  1.00  0.00     0.000 C 
BRANCH  15  16
ATOM     16  C   UNL     1       3.855  14.705  12.128  1.00  0.00     0.000 C 
BRANCH  16  17
ATOM     17  C   UNL     1       2.573  14.128  11.495  1.00  0.00     0.000 C 
BRANCH  17  18
ATOM     18  C   UNL     1       1.926  15.008  10.410  1.00  0.00    -0.000 C 
BRANCH  18  19
ATOM     19  C   UNL     1       1.555  14.239   9.120  1.00  0.00    -0.000 C 
BRANCH  19  20
ATOM     20  C   UNL     1       2.743  13.921   8.190  1.00  0.00    -0.000 C 
BRANCH  20  21
ATOM     21  C   UNL     1       3.020  12.421   7.950  1.00  0.00    -0.000 C 
BRANCH  21  22
ATOM     22  C   UNL     1       4.299  11.871   8.608  1.00  0.00    -0.000 C 
BRANCH  22  23
ATOM     23  C   UNL     1       4.005  10.879   9.748  1.00  0.00    -0.000 C 
BRANCH  23  24
ATOM     24  C   UNL     1       2.518  10.463   9.797  1.00  0.00    -0.000 C 
BRANCH  24  25
ATOM     25  C   UNL     1       1.944  10.383  11.223  1.00  0.00    -0.003 C 
ATOM     26  C   UNL     1       0.551  10.996  11.341  1.00  0.00     0.004 C 
ENDBRANCH  24  25
ENDBRANCH  23  24
ENDBRANCH  22  23
ENDBRANCH  21  22
ENDBRANCH  20  21
ENDBRANCH  19  20
ENDBRANCH  18  19
ENDBRANCH  17  18
ENDBRANCH  16  17
ENDBRANCH  15  16
ENDBRANCH   1  15
TORSDOF 22
ENDMDL
MODEL 4
REMARK VINA RESULT:    -4.112      1.431      2.032
REMARK INTER + INTRA:         -13.076
REMARK INTER:                  -9.745
REMARK INTRA:                  -3.331
REMARK UNBOUND:                -3.675
REMARK SMILES CCCCCCCCCCCCCCCCCCCCCCCC(=O)[O-]
REMARK SMILES IDX 13 1 14 2 15 3 16 4 17 5 18 6 19 7 20 8 21 9 22 10 23 11
REMARK SMILES IDX 24 12 25 13 26 14 12 15 11 16 10 17 9 18 8 19 7 20 6 21 5 22
REMARK SMILES IDX 4 23 3 24 2 25 1 26
REMARK H PARENT
REMARK Flexibility Score: inf
ROOT
ATOM      1  C   UNL     1       4.993  13.774  12.493  1.00  0.00     0.000 C 
ENDROOT
BRANCH   1   2
ATOM      2  C   UNL     1       5.888  13.620  11.254  1.00  0.00     0.000 C 
BRANCH   2   3
ATOM      3  C   UNL     1       6.531  12.224  11.163  1.00  0.00     0.000 C 
BRANCH   3   4
ATOM      4  C   UNL     1       7.061  11.726  12.518  1.00  0.00     0.000 C 
BRANCH   4   5
ATOM      5  C   UNL     1       8.597  11.637  12.561  1.00  0.00     0.000 C 
BRANCH   5   6
ATOM      6  C   UNL     1       9.257  12.055  11.235  1.00  0.00     0.000 C 
BRANCH   6   7
ATOM      7  C   UNL     1       9.858  10.903  10.407  1.00  0.00     0.000 C 
BRANCH   7   8
ATOM      8  C   UNL     1       9.519   9.517  10.980  1.00  0.00     0.000 C 
BRANCH   8   9
ATOM      9  C   UNL     1       8.360   8.825  10.238  1.00  0.00     0.000 C 
BRANCH   9  10
ATOM     10  C   UNL     1       8.780   7.891   9.087  1.00  0.00     0.006 C 
BRANCH  10  11
ATOM     11  C   UNL     1       8.461   8.462   7.698  1.00  0.00     0.053 C 
BRANCH  11  12
ATOM     12  C   UNL     1       7.195   9.260   7.734  1.00  0.00     0.041 C 
ATOM     13  O   UNL     1       6.079   8.675   7.783  1.00  0.00    -0.550 OA
ATOM     14  O   UNL     1       7.246  10.648   7.747  1.00  0.00    -0.550 OA
ENDBRANCH  11  12
ENDBRANCH  10  11
ENDBRANCH   9  10
ENDBRANCH   8   9
ENDBRANCH   7   8
ENDBRANCH   6   7
ENDBRANCH   5   6
ENDBRANCH   4   5
ENDBRANCH   3   4
ENDBRANCH   2   3
ENDBRANCH   1   2
BRANCH   1  15
ATOM     15  C   UNL     1       4.069  15.001  12.398  1.00  0.00     0.000 C 
BRANCH  15  16
ATOM     16  C   UNL     1       2.633  14.639  11.975  1.00  0.00     0.000 C 
BRANCH  16  17
ATOM     17  C   UNL     1       2.166  15.259  10.643  1.00  0.00     0.000 C 
BRANCH  17  18
ATOM     18  C   UNL     1       1.505  14.274   9.661  1.00  0.00    -0.000 C 
BRANCH  18  19
ATOM     19  C   UNL     1       1.885  14.517   8.181  1.00  0.00    -0.000 C 
BRANCH  19  20
ATOM     20  C   UNL     1       3.050  13.650   7.660  1.00  0.00    -0.000 C 
BRANCH  20  21
ATOM     21  C   UNL     1       3.736  12.752   8.712  1.00  0.00    -0.000 C 
BRANCH  21  22
ATOM     22  C   UNL     1       3.782  11.251   8.371  1.00  0.00    -0.000 C 
BRANCH  22  23
ATOM     23  C   UNL     1       3.129  10.372   9.453  1.00  0.00    -0.000 C 
BRANCH  23  24
ATOM     24  C   UNL     1       3.044  11.087  10.820  1.00  0.00    -0.000 C 
BRANCH  24  25
ATOM     25  C   UNL     1       1.621  11.146  11.401  1.00  0.00    -0.003 C 
ATOM     26  C   UNL     1       1.557  10.728  12.869  1.00  0.00     0.004 C 
ENDBRANCH  24  25
ENDBRANCH  23  24
ENDBRANCH  22  23
ENDBRANCH  21  22
ENDBRANCH  20  21
ENDBRANCH  19  20
ENDBRANCH  18  19
ENDBRANCH  17  18
ENDBRANCH  16  17
ENDBRANCH  15  16
ENDBRANCH   1  15
TORSDOF 22
ENDMDL
MODEL 5
REMARK VINA RESULT:    -4.108      1.530      2.660
REMARK INTER + INTRA:         -13.065
REMARK INTER:                  -9.174
REMARK INTRA:                  -3.891
REMARK UNBOUND:                -3.675
REMARK SMILES CCCCCCCCCCCCCCCCCCCCCCCC(=O)[O-]
REMARK SMILES IDX 13 1 14 2 15 3 16 4 17 5 18 6 19 7 20 8 21 9 22 10 23 11
REMARK SMILES IDX 24 12 25 13 26 14 12 15 11 16 10 17 9 18 8 19 7 20 6 21 5 22
REMARK SMILES IDX 4 23 3 24 2 25 1 26
REMARK H PARENT
REMARK Flexibility Score: inf
ROOT
ATOM      1  C   UNL     1       6.323  12.049  12.941  1.00  0.00     0.000 C 
ENDROOT
BRANCH   1   2
ATOM      2  C   UNL     1       7.301  11.319  12.007  1.00  0.00     0.000 C 
BRANCH   2   3
ATOM      3  C   UNL     1       8.295  12.279  11.330  1.00  0.00     0.000 C 
BRANCH   3   4
ATOM      4  C   UNL     1       9.645  11.612  11.018  1.00  0.00     0.000 C 
BRANCH   4   5
ATOM      5  C   UNL     1       9.649  10.104  11.325  1.00  0.00     0.000 C 
BRANCH   5   6
ATOM      6  C   UNL     1       9.600   9.236  10.055  1.00  0.00     0.000 C 
BRANCH   6   7
ATOM      7  C   UNL     1       9.621  10.012   8.725  1.00  0.00     0.000 C 
BRANCH   7   8
ATOM      8  C   UNL     1       8.380   9.744   7.857  1.00  0.00     0.000 C 
BRANCH   8   9
ATOM      9  C   UNL     1       7.104  10.408   8.410  1.00  0.00     0.000 C 
BRANCH   9  10
ATOM     10  C   UNL     1       5.940   9.446   8.713  1.00  0.00     0.006 C 
BRANCH  10  11
ATOM     11  C   UNL     1       5.906   8.227   7.781  1.00  0.00     0.053 C 
BRANCH  11  12
ATOM     12  C   UNL     1       5.903   6.957   8.572  1.00  0.00     0.041 C 
ATOM     13  O   UNL     1       6.991   6.438   8.940  1.00  0.00    -0.550 OA
ATOM     14  O   UNL     1       4.700   6.363   8.933  1.00  0.00    -0.550 OA
ENDBRANCH  11  12
ENDBRANCH  10  11
ENDBRANCH   9  10
ENDBRANCH   8   9
ENDBRANCH   7   8
ENDBRANCH   6   7
ENDBRANCH   5   6
ENDBRANCH   4   5
ENDBRANCH   3   4
ENDBRANCH   2   3
ENDBRANCH   1   2
BRANCH   1  15
ATOM     15  C   UNL     1       5.534  13.152  12.215  1.00  0.00     0.000 C 
BRANCH  15  16
ATOM     16  C   UNL     1       4.589  12.602  11.130  1.00  0.00     0.000 C 
BRANCH  16  17
ATOM     17  C   UNL     1       4.452  13.482   9.872  1.00  0.00     0.000 C 
BRANCH  17  18
ATOM     18  C   UNL     1       3.793  12.794   8.662  1.00  0.00    -0.000 C 
BRANCH  18  19
ATOM     19  C   UNL     1       2.686  13.639   7.988  1.00  0.00    -0.000 C 
BRANCH  19  20
ATOM     20  C   UNL     1       1.744  14.372   8.965  1.00  0.00    -0.000 C 
BRANCH  20  21
ATOM     21  C   UNL     1       0.645  13.503   9.612  1.00  0.00    -0.000 C 
BRANCH  21  22
ATOM     22  C   UNL     1       0.913  13.072  11.066  1.00  0.00    -0.000 C 
BRANCH  22  23
ATOM     23  C   UNL     1       0.602  11.585  11.316  1.00  0.00    -0.000 C 
BRANCH  23  24
ATOM     24  C   UNL     1       0.845  10.715  10.063  1.00  0.00    -0.000 C 
BRANCH  24  25
ATOM     25  C   UNL     1       2.143   9.891  10.123  1.00  0.00    -0.003 C 
ATOM     26  C   UNL     1       2.278   8.904   8.966  1.00  0.00     0.004 C 
ENDBRANCH  24  25
ENDBRANCH  23  24
ENDBRANCH  22  23
ENDBRANCH  21  22
ENDBRANCH  20  21
ENDBRANCH  19  20
ENDBRANCH  18  19
ENDBRANCH  17  18
ENDBRANCH  16  17
ENDBRANCH  15  16
ENDBRANCH   1  15
TORSDOF 22
ENDMDL
MODEL 6
REMARK VINA RESULT:    -4.104      1.334      2.222
REMARK INTER + INTRA:         -13.058
REMARK INTER:                  -9.429
REMARK INTRA:                  -3.628
REMARK UNBOUND:                -3.675
REMARK SMILES CCCCCCCCCCCCCCCCCCCCCCCC(=O)[O-]
REMARK SMILES IDX 13 1 14 2 15 3 16 4 17 5 18 6 19 7 20 8 21 9 22 10 23 11
REMARK SMILES IDX 24 12 25 13 26 14 12 15 11 16 10 17 9 18 8 19 7 20 6 21 5 22
REMARK SMILES IDX 4 23 3 24 2 25 1 26
REMARK H PARENT
REMARK Flexibility Score: inf
ROOT
ATOM      1  C   UNL     1       6.221  12.386  13.576  1.00  0.00     0.000 C 
ENDROOT
BRANCH   1   2
ATOM      2  C   UNL     1       7.651  11.823  13.568  1.00  0.00     0.000 C 
BRANCH   2   3
ATOM      3  C   UNL     1       8.390  12.113  12.250  1.00  0.00     0.000 C 
BRANCH   3   4
ATOM      4  C   UNL     1       8.964  10.843  11.600  1.00  0.00     0.000 C 
BRANCH   4   5
ATOM      5  C   UNL     1       7.910  10.053  10.804  1.00  0.00     0.000 C 
BRANCH   5   6
ATOM      6  C   UNL     1       7.450  10.785   9.531  1.00  0.00     0.000 C 
BRANCH   6   7
ATOM      7  C   UNL     1       8.205  10.404   8.243  1.00  0.00     0.000 C 
BRANCH   7   8
ATOM      8  C   UNL     1       8.963   9.072   8.369  1.00  0.00     0.000 C 
BRANCH   8   9
ATOM      9  C   UNL     1       8.661   8.096   7.215  1.00  0.00     0.000 C 
BRANCH   9  10
ATOM     10  C   UNL     1       7.985   6.776   7.631  1.00  0.00     0.006 C 
BRANCH  10  11
ATOM     11  C   UNL     1       7.162   6.899   8.921  1.00  0.00     0.053 C 
BRANCH  11  12
ATOM     12  C   UNL     1       5.715   7.113   8.604  1.00  0.00     0.041 C 
ATOM     13  O   UNL     1       4.911   6.142   8.625  1.00  0.00    -0.550 OA
ATOM     14  O   UNL     1       5.246   8.389   8.317  1.00  0.00    -0.550 OA
ENDBRANCH  11  12
ENDBRANCH  10  11
ENDBRANCH   9  10
ENDBRANCH   8   9
ENDBRANCH   7   8
ENDBRANCH   6   7
ENDBRANCH   5   6
ENDBRANCH   4   5
ENDBRANCH   3   4
ENDBRANCH   2   3
ENDBRANCH   1   2
BRANCH   1  15
ATOM     15  C   UNL     1       5.592  12.405  12.173  1.00  0.00     0.000 C 
BRANCH  15  16
ATOM     16  C   UNL     1       5.309  13.829  11.660  1.00  0.00     0.000 C 
BRANCH  16  17
ATOM     17  C   UNL     1       3.928  14.400  12.040  1.00  0.00     0.000 C 
BRANCH  17  18
ATOM     18  C   UNL     1       2.766  13.392  11.984  1.00  0.00    -0.000 C 
BRANCH  18  19
ATOM     19  C   UNL     1       1.574  13.858  11.116  1.00  0.00    -0.000 C 
BRANCH  19  20
ATOM     20  C   UNL     1       1.949  14.788   9.944  1.00  0.00    -0.000 C 
BRANCH  20  21
ATOM     21  C   UNL     1       1.382  14.386   8.565  1.00  0.00    -0.000 C 
BRANCH  21  22
ATOM     22  C   UNL     1       2.355  13.622   7.648  1.00  0.00    -0.000 C 
BRANCH  22  23
ATOM     23  C   UNL     1       3.732  13.393   8.296  1.00  0.00    -0.000 C 
BRANCH  23  24
ATOM     24  C   UNL     1       4.059  11.893   8.468  1.00  0.00    -0.000 C 
BRANCH  24  25
ATOM     25  C   UNL     1       2.816  10.987   8.492  1.00  0.00    -0.003 C 
ATOM     26  C   UNL     1       2.543  10.383   9.867  1.00  0.00     0.004 C 
ENDBRANCH  24  25
ENDBRANCH  23  24
ENDBRANCH  22  23
ENDBRANCH  21  22
ENDBRANCH  20  21
ENDBRANCH  19  20
ENDBRANCH  18  19
ENDBRANCH  17  18
ENDBRANCH  16  17
ENDBRANCH  15  16
ENDBRANCH   1  15
TORSDOF 22
ENDMDL
MODEL 7
REMARK VINA RESULT:    -4.064      3.139      6.361
REMARK INTER + INTRA:         -12.966
REMARK INTER:                  -9.141
REMARK INTRA:                  -3.825
REMARK UNBOUND:                -3.675
REMARK SMILES CCCCCCCCCCCCCCCCCCCCCCCC(=O)[O-]
REMARK SMILES IDX 13 1 14 2 15 3 16 4 17 5 18 6 19 7 20 8 21 9 22 10 23 11
REMARK SMILES IDX 24 12 25 13 26 14 12 15 11 16 10 17 9 18 8 19 7 20 6 21 5 22
REMARK SMILES IDX 4 23 3 24 2 25 1 26
REMARK H PARENT
REMARK Flexibility Score: inf
ROOT
ATOM      1  C   UNL     1       6.599   8.975   7.828  1.00  0.00     0.000 C 
ENDROOT
BRANCH   1   2
ATOM      2  C   UNL     1       7.928   9.055   8.594  1.00  0.00     0.000 C 
BRANCH   2   3
ATOM      3  C   UNL     1       7.738   8.940  10.117  1.00  0.00     0.000 C 
BRANCH   3   4
ATOM      4  C   UNL     1       8.133  10.226  10.862  1.00  0.00     0.000 C 
BRANCH   4   5
ATOM      5  C   UNL     1       7.426  11.476  10.309  1.00  0.00     0.000 C 
BRANCH   5   6
ATOM      6  C   UNL     1       7.331  12.615  11.340  1.00  0.00     0.000 C 
BRANCH   6   7
ATOM      7  C   UNL     1       6.092  13.521  11.207  1.00  0.00     0.000 C 
BRANCH   7   8
ATOM      8  C   UNL     1       5.236  13.552  12.484  1.00  0.00     0.000 C 
BRANCH   8   9
ATOM      9  C   UNL     1       4.354  14.811  12.588  1.00  0.00     0.000 C 
BRANCH   9  10
ATOM     10  C   UNL     1       2.930  14.665  12.022  1.00  0.00     0.006 C 
BRANCH  10  11
ATOM     11  C   UNL     1       2.356  13.251  12.188  1.00  0.00     0.053 C 
BRANCH  11  12
ATOM     12  C   UNL     1       1.375  13.209  13.319  1.00  0.00     0.041 C 
ATOM     13  O   UNL     1       1.420  14.081  14.228  1.00  0.00    -0.550 OA
ATOM     14  O   UNL     1       0.392  12.229  13.353  1.00  0.00    -0.550 OA
ENDBRANCH  11  12
ENDBRANCH  10  11
ENDBRANCH   9  10
ENDBRANCH   8   9
ENDBRANCH   7   8
ENDBRANCH   6   7
ENDBRANCH   5   6
ENDBRANCH   4   5
ENDBRANCH   3   4
ENDBRANCH   2   3
ENDBRANCH   1   2
BRANCH   1  15
ATOM     15  C   UNL     1       5.585   8.041   8.511  1.00  0.00     0.000 C 
BRANCH  15  16
ATOM     16  C   UNL     1       4.399   7.672   7.600  1.00  0.00     0.000 C 
BRANCH  16  17
ATOM     17  C   UNL     1       3.007   7.819   8.245  1.00  0.00     0.000 C 
BRANCH  17  18
ATOM     18  C   UNL     1       2.033   8.745   7.493  1.00  0.00    -0.000 C 
BRANCH  18  19
ATOM     19  C   UNL     1       1.816  10.115   8.178  1.00  0.00    -0.000 C 
BRANCH  19  20
ATOM     20  C   UNL     1       2.444  10.245   9.581  1.00  0.00    -0.000 C 
BRANCH  20  21
ATOM     21  C   UNL     1       3.740  11.081   9.657  1.00  0.00    -0.000 C 
BRANCH  21  22
ATOM     22  C   UNL     1       4.126  11.821   8.363  1.00  0.00    -0.000 C 
BRANCH  22  23
ATOM     23  C   UNL     1       3.856  13.335   8.437  1.00  0.00    -0.000 C 
BRANCH  23  24
ATOM     24  C   UNL     1       2.547  13.735   7.719  1.00  0.00    -0.000 C 
BRANCH  24  25
ATOM     25  C   UNL     1       1.351  13.919   8.670  1.00  0.00    -0.003 C 
ATOM     26  C   UNL     1       1.100  15.379   9.039  1.00  0.00     0.004 C 
ENDBRANCH  24  25
ENDBRANCH  23  24
ENDBRANCH  22  23
ENDBRANCH  21  22
ENDBRANCH  20  21
ENDBRANCH  19  20
ENDBRANCH  18  19
ENDBRANCH  17  18
ENDBRANCH  16  17
ENDBRANCH  15  16
ENDBRANCH   1  15
TORSDOF 22
ENDMDL
MODEL 8
REMARK VINA RESULT:    -4.035      3.150      6.582
REMARK INTER + INTRA:         -12.900
REMARK INTER:                  -9.258
REMARK INTRA:                  -3.642
REMARK UNBOUND:                -3.675
REMARK SMILES CCCCCCCCCCCCCCCCCCCCCCCC(=O)[O-]
REMARK SMILES IDX 13 1 14 2 15 3 16 4 17 5 18 6 19 7 20 8 21 9 22 10 23 11
REMARK SMILES IDX 24 12 25 13 26 14 12 15 11 16 10 17 9 18 8 19 7 20 6 21 5 22
REMARK SMILES IDX 4 23 3 24 2 25 1 26
REMARK H PARENT
REMARK Flexibility Score: inf
ROOT
ATOM      1  C   UNL     1       2.363  14.918  11.620  1.00  0.00     0.000 C 
ENDROOT
BRANCH   1   2
ATOM      2  C   UNL     1       1.858  15.268  10.212  1.00  0.00     0.000 C 
BRANCH   2   3
ATOM      3  C   UNL     1       1.740  14.031   9.304  1.00  0.00     0.000 C 
BRANCH   3   4
ATOM      4  C   UNL     1       2.389  14.242   7.926  1.00  0.00     0.000 C 
BRANCH   4   5
ATOM      5  C   UNL     1       3.265  13.054   7.491  1.00  0.00     0.000 C 
BRANCH   5   6
ATOM      6  C   UNL     1       3.611  12.109   8.656  1.00  0.00     0.000 C 
BRANCH   6   7
ATOM      7  C   UNL     1       2.981  10.706   8.574  1.00  0.00     0.000 C 
BRANCH   7   8
ATOM      8  C   UNL     1       2.760  10.069   9.956  1.00  0.00     0.000 C 
BRANCH   8   9
ATOM      9  C   UNL     1       1.465  10.548  10.640  1.00  0.00     0.000 C 
BRANCH   9  10
ATOM     10  C   UNL     1       1.550  10.708  12.170  1.00  0.00     0.006 C 
BRANCH  10  11
ATOM     11  C   UNL     1       0.614  11.796  12.716  1.00  0.00     0.053 C 
BRANCH  11  12
ATOM     12  C   UNL     1      -0.790  11.285  12.808  1.00  0.00     0.041 C 
ATOM     13  O   UNL     1      -1.738  11.945  12.302  1.00  0.00    -0.550 OA
ATOM     14  O   UNL     1      -1.050  10.067  13.423  1.00  0.00    -0.550 OA
ENDBRANCH  11  12
ENDBRANCH  10  11
ENDBRANCH   9  10
ENDBRANCH   8   9
ENDBRANCH   7   8
ENDBRANCH   6   7
ENDBRANCH   5   6
ENDBRANCH   4   5
ENDBRANCH   3   4
ENDBRANCH   2   3
ENDBRANCH   1   2
BRANCH   1  15
ATOM     15  C   UNL     1       3.776  14.310  11.600  1.00  0.00     0.000 C 
BRANCH  15  16
ATOM     16  C   UNL     1       4.423  14.246  12.996  1.00  0.00     0.000 C 
BRANCH  16  17
ATOM     17  C   UNL     1       5.024  12.879  13.378  1.00  0.00     0.000 C 
BRANCH  17  18
ATOM     18  C   UNL     1       5.051  11.837  12.244  1.00  0.00    -0.000 C 
BRANCH  18  19
ATOM     19  C   UNL     1       6.470  11.330  11.894  1.00  0.00    -0.000 C 
BRANCH  19  20
ATOM     20  C   UNL     1       7.482  12.434  11.525  1.00  0.00    -0.000 C 
BRANCH  20  21
ATOM     21  C   UNL     1       8.832  11.942  10.962  1.00  0.00    -0.000 C 
BRANCH  21  22
ATOM     22  C   UNL     1       9.428  10.705  11.660  1.00  0.00    -0.000 C 
BRANCH  22  23
ATOM     23  C   UNL     1       9.703   9.544  10.687  1.00  0.00    -0.000 C 
BRANCH  23  24
ATOM     24  C   UNL     1       8.417   8.776  10.310  1.00  0.00    -0.000 C 
BRANCH  24  25
ATOM     25  C   UNL     1       7.903   9.087   8.893  1.00  0.00    -0.003 C 
ATOM     26  C   UNL     1       6.392   9.295   8.837  1.00  0.00     0.004 C 
ENDBRANCH  24  25
ENDBRANCH  23  24
ENDBRANCH  22  23
ENDBRANCH  21  22
ENDBRANCH  20  21
ENDBRANCH  19  20
ENDBRANCH  18  19
ENDBRANCH  17  18
ENDBRANCH  16  17
ENDBRANCH  15  16
ENDBRANCH   1  15
TORSDOF 22
ENDMDL
MODEL 9
REMARK VINA RESULT:    -4.035      3.189      5.800
REMARK INTER + INTRA:         -12.898
REMARK INTER:                  -8.856
REMARK INTRA:                  -4.042
REMARK UNBOUND:                -3.675
REMARK SMILES CCCCCCCCCCCCCCCCCCCCCCCC(=O)[O-]
REMARK SMILES IDX 13 1 14 2 15 3 16 4 17 5 18 6 19 7 20 8 21 9 22 10 23 11
REMARK SMILES IDX 24 12 25 13 26 14 12 15 11 16 10 17 9 18 8 19 7 20 6 21 5 22
REMARK SMILES IDX 4 23 3 24 2 25 1 26
REMARK H PARENT
REMARK Flexibility Score: inf
ROOT
ATOM      1  C   UNL     1       6.430  10.504   8.099  1.00  0.00     0.000 C 
ENDROOT
BRANCH   1   2
ATOM      2  C   UNL     1       7.851  10.073   8.495  1.00  0.00     0.000 C 
BRANCH   2   3
ATOM      3  C   UNL     1       7.967   9.733   9.991  1.00  0.00     0.000 C 
BRANCH   3   4
ATOM      4  C   UNL     1       9.077  10.531  10.696  1.00  0.00     0.000 C 
BRANCH   4   5
ATOM      5  C   UNL     1       8.736  12.024  10.842  1.00  0.00     0.000 C 
BRANCH   5   6
ATOM      6  C   UNL     1       7.597  12.283  11.844  1.00  0.00     0.000 C 
BRANCH   6   7
ATOM      7  C   UNL     1       6.447  13.163  11.320  1.00  0.00     0.000 C 
BRANCH   7   8
ATOM      8  C   UNL     1       5.255  13.227  12.289  1.00  0.00     0.000 C 
BRANCH   8   9
ATOM      9  C   UNL     1       4.481  14.557  12.205  1.00  0.00     0.000 C 
BRANCH   9  10
ATOM     10  C   UNL     1       2.951  14.437  12.342  1.00  0.00     0.006 C 
BRANCH  10  11
ATOM     11  C   UNL     1       2.463  14.567  13.791  1.00  0.00     0.053 C 
BRANCH  11  12
ATOM     12  C   UNL     1       1.987  13.245  14.308  1.00  0.00     0.041 C 
ATOM     13  O   UNL     1       1.695  13.109  15.526  1.00  0.00    -0.550 OA
ATOM     14  O   UNL     1       1.836  12.171  13.439  1.00  0.00    -0.550 OA
ENDBRANCH  11  12
ENDBRANCH  10  11
ENDBRANCH   9  10
ENDBRANCH   8   9
ENDBRANCH   7   8
ENDBRANCH   6   7
ENDBRANCH   5   6
ENDBRANCH   4   5
ENDBRANCH   3   4
ENDBRANCH   2   3
ENDBRANCH   1   2
BRANCH   1  15
ATOM     15  C   UNL     1       5.372  10.027   9.108  1.00  0.00     0.000 C 
BRANCH  15  16
ATOM     16  C   UNL     1       4.268  11.071   9.360  1.00  0.00     0.000 C 
BRANCH  16  17
ATOM     17  C   UNL     1       4.026  12.062   8.204  1.00  0.00     0.000 C 
BRANCH  17  18
ATOM     18  C   UNL     1       3.721  13.508   8.636  1.00  0.00    -0.000 C 
BRANCH  18  19
ATOM     19  C   UNL     1       2.487  14.123   7.936  1.00  0.00    -0.000 C 
BRANCH  19  20
ATOM     20  C   UNL     1       1.446  14.750   8.887  1.00  0.00    -0.000 C 
BRANCH  20  21
ATOM     21  C   UNL     1       0.256  13.842   9.266  1.00  0.00    -0.000 C 
BRANCH  21  22
ATOM     22  C   UNL     1       0.606  12.624  10.139  1.00  0.00    -0.000 C 
BRANCH  22  23
ATOM     23  C   UNL     1       0.344  11.283   9.428  1.00  0.00    -0.000 C 
BRANCH  23  24
ATOM     24  C   UNL     1      -0.085  11.472   7.956  1.00  0.00    -0.000 C 
BRANCH  24  25
ATOM     25  C   UNL     1       0.767  10.672   6.955  1.00  0.00    -0.003 C 
ATOM     26  C   UNL     1       1.448   9.460   7.585  1.00  0.00     0.004 C 
ENDBRANCH  24  25
ENDBRANCH  23  24
ENDBRANCH  22  23
ENDBRANCH  21  22
ENDBRANCH  20  21
ENDBRANCH  19  20
ENDBRANCH  18  19
ENDBRANCH  17  18
ENDBRANCH  16  17
ENDBRANCH  15  16
ENDBRANCH   1  15
TORSDOF 22
ENDMDL
