MODEL 1
REMARK VINA RESULT:    -5.363      0.000      0.000
REMARK INTER + INTRA:          -7.208
REMARK INTER:                  -6.774
REMARK INTRA:                  -0.434
REMARK UNBOUND:                -0.434
REMARK SMILES CC(C)=CCCC(C)=CCO
REMARK SMILES IDX 7 1 9 2 8 3 6 4 5 5 4 6 1 7 2 8 3 9 10 10 11 11
REMARK H PARENT 11 12
REMARK Flexibility Score: inf
ROOT
ATOM      1  C   UNL     1      21.724  -3.368 -26.455  1.00  0.00    -0.075 C 
ATOM      2  C   UNL     1      22.887  -2.697 -26.613  1.00  0.00    -0.000 C 
ATOM      3  C   UNL     1      21.221  -3.759 -25.086  1.00  0.00     0.039 C 
ENDROOT
BRANCH   1   4
ATOM      4  C   UNL     1      20.880  -3.695 -27.668  1.00  0.00     0.034 C 
BRANCH   4   5
ATOM      5  C   UNL     1      19.406  -3.326 -27.451  1.00  0.00     0.032 C 
BRANCH   5   6
ATOM      6  C   UNL     1      18.487  -4.497 -27.704  1.00  0.00    -0.028 C 
ATOM      7  C   UNL     1      16.887  -6.281 -27.160  1.00  0.00     0.039 C 
ATOM      8  C   UNL     1      17.717  -5.086 -26.763  1.00  0.00    -0.080 C 
ATOM      9  C   UNL     1      17.653  -4.573 -25.344  1.00  0.00     0.039 C 
ENDBRANCH   5   6
ENDBRANCH   4   5
ENDBRANCH   1   4
BRANCH   2  10
ATOM     10  C   UNL     1      23.778  -2.306 -25.462  1.00  0.00     0.183 C 
BRANCH  10  11
ATOM     11  O   UNL     1      25.112  -2.227 -25.885  1.00  0.00    -0.392 OA
ATOM     12  H   UNL     1      25.092  -1.924 -26.831  1.00  0.00     0.210 HD
ENDBRANCH  10  11
ENDBRANCH   2  10
TORSDOF 5
ENDMDL
MODEL 2
REMARK VINA RESULT:    -5.318      8.934     12.969
REMARK INTER + INTRA:          -7.151
REMARK INTER:                  -6.758
REMARK INTRA:                  -0.393
REMARK UNBOUND:                -0.434
REMARK SMILES CC(C)=CCCC(C)=CCO
REMARK SMILES IDX 7 1 9 2 8 3 6 4 5 5 4 6 1 7 2 8 3 9 10 10 11 11
REMARK H PARENT 11 12
REMARK Flexibility Score: inf
ROOT
ATOM      1  C   UNL     1      27.725   3.941 -26.916  1.00  0.00    -0.075 C 
ATOM      2  C   UNL     1      26.743   3.151 -27.403  1.00  0.00    -0.000 C 
ATOM      3  C   UNL     1      27.642   4.535 -25.531  1.00  0.00     0.039 C 
ENDROOT
BRANCH   1   4
ATOM      4  C   UNL     1      28.958   4.201 -27.754  1.00  0.00     0.034 C 
BRANCH   4   5
ATOM      5  C   UNL     1      30.247   3.914 -26.971  1.00  0.00     0.032 C 
BRANCH   5   6
ATOM      6  C   UNL     1      31.103   5.148 -26.817  1.00  0.00    -0.028 C 
ATOM      7  C   UNL     1      32.184   7.026 -25.659  1.00  0.00     0.039 C 
ATOM      8  C   UNL     1      31.348   5.771 -25.644  1.00  0.00    -0.080 C 
ATOM      9  C   UNL     1      30.828   5.238 -24.330  1.00  0.00     0.039 C 
ENDBRANCH   5   6
ENDBRANCH   4   5
ENDBRANCH   1   4
BRANCH   2  10
ATOM     10  C   UNL     1      25.493   2.815 -26.632  1.00  0.00     0.183 C 
BRANCH  10  11
ATOM     11  O   UNL     1      24.362   2.979 -27.443  1.00  0.00    -0.392 OA
ATOM     12  H   UNL     1      24.534   3.774 -28.013  1.00  0.00     0.210 HD
ENDBRANCH  10  11
ENDBRANCH   2  10
TORSDOF 5
ENDMDL
MODEL 3
REMARK VINA RESULT:    -5.293      8.057     11.994
REMARK INTER + INTRA:          -7.120
REMARK INTER:                  -6.677
REMARK INTRA:                  -0.443
REMARK UNBOUND:                -0.434
REMARK SMILES CC(C)=CCCC(C)=CCO
REMARK SMILES IDX 7 1 9 2 8 3 6 4 5 5 4 6 1 7 2 8 3 9 10 10 11 11
REMARK H PARENT 11 12
REMARK Flexibility Score: inf
ROOT
ATOM      1  C   UNL     1      26.481   3.495 -26.733  1.00  0.00    -0.075 C 
ATOM      2  C   UNL     1      25.450   2.657 -26.978  1.00  0.00    -0.000 C 
ATOM      3  C   UNL     1      26.751   4.027 -25.346  1.00  0.00     0.039 C 
ENDROOT
BRANCH   1   4
ATOM      4  C   UNL     1      27.417   3.875 -27.860  1.00  0.00     0.034 C 
BRANCH   4   5
ATOM      5  C   UNL     1      28.870   3.494 -27.544  1.00  0.00     0.032 C 
BRANCH   5   6
ATOM      6  C   UNL     1      29.822   4.641 -27.787  1.00  0.00    -0.028 C 
ATOM      7  C   UNL     1      31.342   6.483 -27.213  1.00  0.00     0.039 C 
ATOM      8  C   UNL     1      30.460   5.327 -26.814  1.00  0.00    -0.080 C 
ATOM      9  C   UNL     1      30.328   4.960 -25.355  1.00  0.00     0.039 C 
ENDBRANCH   5   6
ENDBRANCH   4   5
ENDBRANCH   1   4
BRANCH   2  10
ATOM     10  C   UNL     1      24.483   2.204 -25.914  1.00  0.00     0.183 C 
BRANCH  10  11
ATOM     11  O   UNL     1      23.196   2.072 -26.451  1.00  0.00    -0.392 OA
ATOM     12  H   UNL     1      23.248   2.381 -27.394  1.00  0.00     0.210 HD
ENDBRANCH  10  11
ENDBRANCH   2  10
TORSDOF 5
ENDMDL
MODEL 4
REMARK VINA RESULT:    -5.252     10.486     11.681
REMARK INTER + INTRA:          -7.068
REMARK INTER:                  -6.594
REMARK INTRA:                  -0.474
REMARK UNBOUND:                -0.434
REMARK SMILES CC(C)=CCCC(C)=CCO
REMARK SMILES IDX 7 1 9 2 8 3 6 4 5 5 4 6 1 7 2 8 3 9 10 10 11 11
REMARK H PARENT 11 12
REMARK Flexibility Score: inf
ROOT
ATOM      1  C   UNL     1      20.601   1.794 -16.380  1.00  0.00    -0.075 C 
ATOM      2  C   UNL     1      21.910   1.665 -16.073  1.00  0.00    -0.000 C 
ATOM      3  C   UNL     1      20.134   1.884 -17.813  1.00  0.00     0.039 C 
ENDROOT
BRANCH   1   4
ATOM      4  C   UNL     1      19.571   1.802 -15.270  1.00  0.00     0.034 C 
BRANCH   4   5
ATOM      5  C   UNL     1      18.844   0.454 -15.161  1.00  0.00     0.032 C 
BRANCH   5   6
ATOM      6  C   UNL     1      17.356   0.628 -14.971  1.00  0.00    -0.028 C 
ATOM      7  C   UNL     1      14.995   0.814 -15.624  1.00  0.00     0.039 C 
ATOM      8  C   UNL     1      16.444   0.571 -15.965  1.00  0.00    -0.080 C 
ATOM      9  C   UNL     1      16.830   0.256 -17.391  1.00  0.00     0.039 C 
ENDBRANCH   5   6
ENDBRANCH   4   5
ENDBRANCH   1   4
BRANCH   2  10
ATOM     10  C   UNL     1      23.002   1.621 -17.110  1.00  0.00     0.183 C 
BRANCH  10  11
ATOM     11  O   UNL     1      23.600   2.882 -17.240  1.00  0.00    -0.392 OA
ATOM     12  H   UNL     1      22.878   3.514 -17.497  1.00  0.00     0.210 HD
ENDBRANCH  10  11
ENDBRANCH   2  10
TORSDOF 5
ENDMDL
MODEL 5
REMARK VINA RESULT:    -5.181      9.865     12.900
REMARK INTER + INTRA:          -6.978
REMARK INTER:                  -6.731
REMARK INTRA:                  -0.247
REMARK UNBOUND:                -0.434
REMARK SMILES CC(C)=CCCC(C)=CCO
REMARK SMILES IDX 7 1 9 2 8 3 6 4 5 5 4 6 1 7 2 8 3 9 10 10 11 11
REMARK H PARENT 11 12
REMARK Flexibility Score: inf
ROOT
ATOM      1  C   UNL     1      30.965   5.646 -25.690  1.00  0.00    -0.075 C 
ATOM      2  C   UNL     1      31.547   5.988 -24.519  1.00  0.00    -0.000 C 
ATOM      3  C   UNL     1      31.475   6.177 -27.007  1.00  0.00     0.039 C 
ENDROOT
BRANCH   1   4
ATOM      4  C   UNL     1      29.805   4.672 -25.691  1.00  0.00     0.034 C 
BRANCH   4   5
ATOM      5  C   UNL     1      28.510   5.332 -26.185  1.00  0.00     0.032 C 
BRANCH   5   6
ATOM      6  C   UNL     1      27.344   4.373 -26.166  1.00  0.00    -0.028 C 
ATOM      7  C   UNL     1      25.783   2.688 -27.036  1.00  0.00     0.039 C 
ATOM      8  C   UNL     1      27.007   3.554 -27.186  1.00  0.00    -0.080 C 
ATOM      9  C   UNL     1      27.826   3.473 -28.453  1.00  0.00     0.039 C 
ENDBRANCH   5   6
ENDBRANCH   4   5
ENDBRANCH   1   4
BRANCH   2  10
ATOM     10  C   UNL     1      32.720   6.927 -24.424  1.00  0.00     0.183 C 
BRANCH  10  11
ATOM     11  O   UNL     1      32.278   8.257 -24.410  1.00  0.00    -0.392 OA
ATOM     12  H   UNL     1      32.295   8.553 -23.462  1.00  0.00     0.210 HD
ENDBRANCH  10  11
ENDBRANCH   2  10
TORSDOF 5
ENDMDL
MODEL 6
REMARK VINA RESULT:    -5.084     10.727     14.621
REMARK INTER + INTRA:          -6.856
REMARK INTER:                  -6.607
REMARK INTRA:                  -0.249
REMARK UNBOUND:                -0.434
REMARK SMILES CC(C)=CCCC(C)=CCO
REMARK SMILES IDX 7 1 9 2 8 3 6 4 5 5 4 6 1 7 2 8 3 9 10 10 11 11
REMARK H PARENT 11 12
REMARK Flexibility Score: inf
ROOT
ATOM      1  C   UNL     1      29.501   4.651 -26.969  1.00  0.00    -0.075 C 
ATOM      2  C   UNL     1      29.055   3.733 -27.855  1.00  0.00    -0.000 C 
ATOM      3  C   UNL     1      28.553   5.587 -26.261  1.00  0.00     0.039 C 
ENDROOT
BRANCH   1   4
ATOM      4  C   UNL     1      30.978   4.713 -26.639  1.00  0.00     0.034 C 
BRANCH   4   5
ATOM      5  C   UNL     1      31.359   6.054 -25.994  1.00  0.00     0.032 C 
BRANCH   5   6
ATOM      6  C   UNL     1      31.815   5.884 -24.565  1.00  0.00    -0.028 C 
ATOM      7  C   UNL     1      33.069   6.385 -22.513  1.00  0.00     0.039 C 
ATOM      8  C   UNL     1      32.668   6.716 -23.928  1.00  0.00    -0.080 C 
ATOM      9  C   UNL     1      33.210   7.964 -24.584  1.00  0.00     0.039 C 
ENDBRANCH   5   6
ENDBRANCH   4   5
ENDBRANCH   1   4
BRANCH   2  10
ATOM     10  C   UNL     1      27.602   3.580 -28.225  1.00  0.00     0.183 C 
BRANCH  10  11
ATOM     11  O   UNL     1      26.967   2.694 -27.344  1.00  0.00    -0.392 OA
ATOM     12  H   UNL     1      27.686   2.244 -26.827  1.00  0.00     0.210 HD
ENDBRANCH  10  11
ENDBRANCH   2  10
TORSDOF 5
ENDMDL
MODEL 7
REMARK VINA RESULT:    -4.987      8.295     10.984
REMARK INTER + INTRA:          -6.733
REMARK INTER:                  -6.501
REMARK INTRA:                  -0.232
REMARK UNBOUND:                -0.434
REMARK SMILES CC(C)=CCCC(C)=CCO
REMARK SMILES IDX 7 1 9 2 8 3 6 4 5 5 4 6 1 7 2 8 3 9 10 10 11 11
REMARK H PARENT 11 12
REMARK Flexibility Score: inf
ROOT
ATOM      1  C   UNL     1      29.733   4.334 -27.417  1.00  0.00    -0.075 C 
ATOM      2  C   UNL     1      30.234   5.565 -27.660  1.00  0.00    -0.000 C 
ATOM      3  C   UNL     1      30.412   3.383 -26.461  1.00  0.00     0.039 C 
ENDROOT
BRANCH   1   4
ATOM      4  C   UNL     1      28.439   3.910 -28.078  1.00  0.00     0.034 C 
BRANCH   4   5
ATOM      5  C   UNL     1      27.253   3.987 -27.106  1.00  0.00     0.032 C 
BRANCH   5   6
ATOM      6  C   UNL     1      26.202   2.947 -27.413  1.00  0.00    -0.028 C 
ATOM      7  C   UNL     1      24.234   1.530 -27.019  1.00  0.00     0.039 C 
ATOM      8  C   UNL     1      25.177   2.627 -26.594  1.00  0.00    -0.080 C 
ATOM      9  C   UNL     1      24.942   3.346 -25.286  1.00  0.00     0.039 C 
ENDBRANCH   5   6
ENDBRANCH   4   5
ENDBRANCH   1   4
BRANCH   2  10
ATOM     10  C   UNL     1      31.500   6.082 -27.027  1.00  0.00     0.183 C 
BRANCH  10  11
ATOM     11  O   UNL     1      31.205   6.773 -25.844  1.00  0.00    -0.392 OA
ATOM     12  H   UNL     1      30.415   7.342 -26.037  1.00  0.00     0.210 HD
ENDBRANCH  10  11
ENDBRANCH   2  10
TORSDOF 5
ENDMDL
MODEL 8
REMARK VINA RESULT:    -4.967     11.286     13.685
REMARK INTER + INTRA:          -6.708
REMARK INTER:                  -6.389
REMARK INTRA:                  -0.318
REMARK UNBOUND:                -0.434
REMARK SMILES CC(C)=CCCC(C)=CCO
REMARK SMILES IDX 7 1 9 2 8 3 6 4 5 5 4 6 1 7 2 8 3 9 10 10 11 11
REMARK H PARENT 11 12
REMARK Flexibility Score: inf
ROOT
ATOM      1  C   UNL     1      30.188  -0.274 -16.114  1.00  0.00    -0.075 C 
ATOM      2  C   UNL     1      31.312   0.059 -15.442  1.00  0.00    -0.000 C 
ATOM      3  C   UNL     1      30.184  -0.424 -17.616  1.00  0.00     0.039 C 
ENDROOT
BRANCH   1   4
ATOM      4  C   UNL     1      28.913  -0.550 -15.346  1.00  0.00     0.034 C 
BRANCH   4   5
ATOM      5  C   UNL     1      27.823  -1.145 -16.249  1.00  0.00     0.032 C 
BRANCH   5   6
ATOM      6  C   UNL     1      26.439  -0.724 -15.818  1.00  0.00    -0.028 C 
ATOM      7  C   UNL     1      24.159   0.155 -16.067  1.00  0.00     0.039 C 
ATOM      8  C   UNL     1      25.478  -0.277 -16.655  1.00  0.00    -0.080 C 
ATOM      9  C   UNL     1      25.682  -0.217 -18.150  1.00  0.00     0.039 C 
ENDBRANCH   5   6
ENDBRANCH   4   5
ENDBRANCH   1   4
BRANCH   2  10
ATOM     10  C   UNL     1      32.631   0.326 -16.120  1.00  0.00     0.183 C 
BRANCH  10  11
ATOM     11  O   UNL     1      33.390  -0.851 -16.187  1.00  0.00    -0.392 OA
ATOM     12  H   UNL     1      32.753  -1.588 -16.379  1.00  0.00     0.210 HD
ENDBRANCH  10  11
ENDBRANCH   2  10
TORSDOF 5
ENDMDL
