MODEL 1
REMARK VINA RESULT:    -4.589      0.000      0.000
REMARK INTER + INTRA:          -5.425
REMARK INTER:                  -5.259
REMARK INTRA:                  -0.165
REMARK UNBOUND:                -0.165
REMARK SMILES CC=Cc1ccc(O)c(OC)c1
REMARK SMILES IDX 4 1 12 2 9 3 7 4 6 5 5 6 3 7 1 8 2 9 10 10 11 11 8 12
REMARK H PARENT 8 13
REMARK Flexibility Score: inf
ROOT
ATOM      1  C   UNL     1      -0.009 -25.573  -9.325  1.00  0.00    -0.022 A 
ATOM      2  C   UNL     1       0.737 -26.765  -9.418  1.00  0.00     0.058 A 
ATOM      3  C   UNL     1       0.409 -27.883  -8.623  1.00  0.00     0.161 A 
ATOM      4  C   UNL     1      -0.668 -27.794  -7.725  1.00  0.00     0.157 A 
ATOM      5  C   UNL     1      -1.397 -26.607  -7.620  1.00  0.00     0.051 A 
ATOM      6  C   UNL     1      -1.067 -25.504  -8.409  1.00  0.00     0.012 A 
ENDROOT
BRANCH   1   7
ATOM      7  C   UNL     1       0.307 -24.369 -10.134  1.00  0.00     0.003 C 
ATOM      8  C   UNL     1       1.509 -22.287 -10.675  1.00  0.00     0.035 C 
ATOM      9  C   UNL     1       1.237 -23.467  -9.799  1.00  0.00    -0.030 C 
ENDBRANCH   1   7
BRANCH   3  10
ATOM     10  O   UNL     1       1.129 -29.087  -8.698  1.00  0.00    -0.493 OA
ATOM     11  C   UNL     1       0.856 -30.137  -9.620  1.00  0.00     0.278 C 
ENDBRANCH   3  10
BRANCH   4  12
ATOM     12  O   UNL     1      -1.029 -28.877  -6.922  1.00  0.00    -0.504 OA
ATOM     13  H   UNL     1      -0.343 -29.433  -6.424  1.00  0.00     0.293 HD
ENDBRANCH   4  12
TORSDOF 3
ENDMDL
MODEL 2
REMARK VINA RESULT:    -4.532     15.164     16.567
REMARK INTER + INTRA:          -5.360
REMARK INTER:                  -5.175
REMARK INTRA:                  -0.185
REMARK UNBOUND:                -0.165
REMARK SMILES CC=Cc1ccc(O)c(OC)c1
REMARK SMILES IDX 4 1 12 2 9 3 7 4 6 5 5 6 3 7 1 8 2 9 10 10 11 11 8 12
REMARK H PARENT 8 13
REMARK Flexibility Score: inf
ROOT
ATOM      1  C   UNL     1      14.429 -18.585  -8.679  1.00  0.00    -0.022 A 
ATOM      2  C   UNL     1      15.747 -18.953  -8.343  1.00  0.00     0.058 A 
ATOM      3  C   UNL     1      15.995 -20.086  -7.540  1.00  0.00     0.161 A 
ATOM      4  C   UNL     1      14.909 -20.845  -7.069  1.00  0.00     0.157 A 
ATOM      5  C   UNL     1      13.602 -20.471  -7.388  1.00  0.00     0.051 A 
ATOM      6  C   UNL     1      13.363 -19.347  -8.182  1.00  0.00     0.012 A 
ENDROOT
BRANCH   1   7
ATOM      7  C   UNL     1      14.120 -17.396  -9.512  1.00  0.00     0.003 C 
ATOM      8  C   UNL     1      12.864 -16.105 -11.193  1.00  0.00     0.035 C 
ATOM      9  C   UNL     1      13.122 -17.347 -10.403  1.00  0.00    -0.030 C 
ENDBRANCH   1   7
BRANCH   3  10
ATOM     10  O   UNL     1      17.297 -20.482  -7.193  1.00  0.00    -0.493 OA
ATOM     11  C   UNL     1      18.030 -19.970  -6.084  1.00  0.00     0.278 C 
ENDBRANCH   3  10
BRANCH   4  12
ATOM     12  O   UNL     1      15.110 -21.975  -6.275  1.00  0.00    -0.504 OA
ATOM     13  H   UNL     1      15.383 -22.869  -6.667  1.00  0.00     0.293 HD
ENDBRANCH   4  12
TORSDOF 3
ENDMDL
MODEL 3
REMARK VINA RESULT:    -4.483      4.517      7.095
REMARK INTER + INTRA:          -5.304
REMARK INTER:                  -5.120
REMARK INTRA:                  -0.184
REMARK UNBOUND:                -0.165
REMARK SMILES CC=Cc1ccc(O)c(OC)c1
REMARK SMILES IDX 4 1 12 2 9 3 7 4 6 5 5 6 3 7 1 8 2 9 10 10 11 11 8 12
REMARK H PARENT 8 13
REMARK Flexibility Score: inf
ROOT
ATOM      1  C   UNL     1       0.527 -22.859  -9.836  1.00  0.00    -0.022 A 
ATOM      2  C   UNL     1       0.122 -21.827  -8.965  1.00  0.00     0.058 A 
ATOM      3  C   UNL     1       0.489 -20.489  -9.215  1.00  0.00     0.161 A 
ATOM      4  C   UNL     1       1.274 -20.191 -10.342  1.00  0.00     0.157 A 
ATOM      5  C   UNL     1       1.690 -21.214 -11.196  1.00  0.00     0.051 A 
ATOM      6  C   UNL     1       1.325 -22.538 -10.943  1.00  0.00     0.012 A 
ENDROOT
BRANCH   1   7
ATOM      7  C   UNL     1       0.173 -24.282  -9.607  1.00  0.00     0.003 C 
ATOM      8  C   UNL     1       0.621 -26.698  -9.423  1.00  0.00     0.035 C 
ATOM      9  C   UNL     1       1.050 -25.290  -9.684  1.00  0.00    -0.030 C 
ENDBRANCH   1   7
BRANCH   3  10
ATOM     10  O   UNL     1       0.095 -19.439  -8.369  1.00  0.00    -0.493 OA
ATOM     11  C   UNL     1      -1.161 -18.771  -8.438  1.00  0.00     0.278 C 
ENDBRANCH   3  10
BRANCH   4  12
ATOM     12  O   UNL     1       1.657 -18.880 -10.629  1.00  0.00    -0.504 OA
ATOM     13  H   UNL     1       2.534 -18.490 -10.305  1.00  0.00     0.293 HD
ENDBRANCH   4  12
TORSDOF 3
ENDMDL
MODEL 4
REMARK VINA RESULT:    -4.469      1.384      2.520
REMARK INTER + INTRA:          -5.288
REMARK INTER:                  -5.104
REMARK INTRA:                  -0.184
REMARK UNBOUND:                -0.165
REMARK SMILES CC=Cc1ccc(O)c(OC)c1
REMARK SMILES IDX 4 1 12 2 9 3 7 4 6 5 5 6 3 7 1 8 2 9 10 10 11 11 8 12
REMARK H PARENT 8 13
REMARK Flexibility Score: inf
ROOT
ATOM      1  C   UNL     1      -0.242 -26.529  -8.898  1.00  0.00    -0.022 A 
ATOM      2  C   UNL     1      -0.809 -27.426  -7.971  1.00  0.00     0.058 A 
ATOM      3  C   UNL     1      -0.334 -28.750  -7.867  1.00  0.00     0.161 A 
ATOM      4  C   UNL     1       0.711 -29.172  -8.707  1.00  0.00     0.157 A 
ATOM      5  C   UNL     1       1.263 -28.288  -9.637  1.00  0.00     0.051 A 
ATOM      6  C   UNL     1       0.787 -26.979  -9.736  1.00  0.00     0.012 A 
ENDROOT
BRANCH   1   7
ATOM      7  C   UNL     1      -0.717 -25.131  -9.048  1.00  0.00     0.003 C 
ATOM      8  C   UNL     1      -0.502 -22.742  -9.614  1.00  0.00     0.035 C 
ATOM      9  C   UNL     1       0.055 -24.122  -9.472  1.00  0.00    -0.030 C 
ENDBRANCH   1   7
BRANCH   3  10
ATOM     10  O   UNL     1      -0.875 -29.666  -6.950  1.00  0.00    -0.493 OA
ATOM     11  C   UNL     1      -2.002 -30.497  -7.206  1.00  0.00     0.278 C 
ENDBRANCH   3  10
BRANCH   4  12
ATOM     12  O   UNL     1       1.214 -30.472  -8.636  1.00  0.00    -0.504 OA
ATOM     13  H   UNL     1       1.159 -31.116  -9.416  1.00  0.00     0.293 HD
ENDBRANCH   4  12
TORSDOF 3
ENDMDL
MODEL 5
REMARK VINA RESULT:    -4.378      2.854      4.344
REMARK INTER + INTRA:          -5.183
REMARK INTER:                  -4.990
REMARK INTRA:                  -0.193
REMARK UNBOUND:                -0.165
REMARK SMILES CC=Cc1ccc(O)c(OC)c1
REMARK SMILES IDX 4 1 12 2 9 3 7 4 6 5 5 6 3 7 1 8 2 9 10 10 11 11 8 12
REMARK H PARENT 8 13
REMARK Flexibility Score: inf
ROOT
ATOM      1  C   UNL     1      -0.356 -22.075  -9.083  1.00  0.00    -0.022 A 
ATOM      2  C   UNL     1      -1.007 -23.322  -8.998  1.00  0.00     0.058 A 
ATOM      3  C   UNL     1      -0.307 -24.518  -9.261  1.00  0.00     0.161 A 
ATOM      4  C   UNL     1       1.050 -24.455  -9.619  1.00  0.00     0.157 A 
ATOM      5  C   UNL     1       1.691 -23.219  -9.719  1.00  0.00     0.051 A 
ATOM      6  C   UNL     1       0.993 -22.038  -9.459  1.00  0.00     0.012 A 
ENDROOT
BRANCH   1   7
ATOM      7  C   UNL     1      -1.055 -20.791  -8.826  1.00  0.00     0.003 C 
ATOM      8  C   UNL     1      -1.202 -18.389  -8.298  1.00  0.00     0.035 C 
ATOM      9  C   UNL     1      -0.428 -19.647  -8.528  1.00  0.00    -0.030 C 
ENDBRANCH   1   7
BRANCH   3  10
ATOM     10  O   UNL     1      -0.927 -25.777  -9.178  1.00  0.00    -0.493 OA
ATOM     11  C   UNL     1      -1.133 -26.499  -7.968  1.00  0.00     0.278 C 
ENDBRANCH   3  10
BRANCH   4  12
ATOM     12  O   UNL     1       1.781 -25.614  -9.884  1.00  0.00    -0.504 OA
ATOM     13  H   UNL     1       1.728 -26.094 -10.775  1.00  0.00     0.293 HD
ENDBRANCH   4  12
TORSDOF 3
ENDMDL
MODEL 6
REMARK VINA RESULT:    -4.375      1.021      2.521
REMARK INTER + INTRA:          -5.180
REMARK INTER:                  -4.995
REMARK INTRA:                  -0.185
REMARK UNBOUND:                -0.165
REMARK SMILES CC=Cc1ccc(O)c(OC)c1
REMARK SMILES IDX 4 1 12 2 9 3 7 4 6 5 5 6 3 7 1 8 2 9 10 10 11 11 8 12
REMARK H PARENT 8 13
REMARK Flexibility Score: inf
ROOT
ATOM      1  C   UNL     1      -0.058 -25.531  -9.359  1.00  0.00    -0.022 A 
ATOM      2  C   UNL     1      -1.052 -25.903  -8.431  1.00  0.00     0.058 A 
ATOM      3  C   UNL     1      -1.074 -27.201  -7.882  1.00  0.00     0.161 A 
ATOM      4  C   UNL     1      -0.096 -28.130  -8.275  1.00  0.00     0.157 A 
ATOM      5  C   UNL     1       0.880 -27.767  -9.207  1.00  0.00     0.051 A 
ATOM      6  C   UNL     1       0.896 -26.481  -9.748  1.00  0.00     0.012 A 
ENDROOT
BRANCH   1   7
ATOM      7  C   UNL     1      -0.003 -24.179  -9.970  1.00  0.00     0.003 C 
ATOM      8  C   UNL     1       1.101 -22.121 -10.754  1.00  0.00     0.035 C 
ATOM      9  C   UNL     1       1.123 -23.470 -10.112  1.00  0.00    -0.030 C 
ENDBRANCH   1   7
BRANCH   3  10
ATOM     10  O   UNL     1      -2.048 -27.600  -6.951  1.00  0.00    -0.493 OA
ATOM     11  C   UNL     1      -2.125 -27.130  -5.609  1.00  0.00     0.278 C 
ENDBRANCH   3  10
BRANCH   4  12
ATOM     12  O   UNL     1      -0.078 -29.425  -7.754  1.00  0.00    -0.504 OA
ATOM     13  H   UNL     1      -0.142 -30.246  -8.345  1.00  0.00     0.293 HD
ENDBRANCH   4  12
TORSDOF 3
ENDMDL
MODEL 7
REMARK VINA RESULT:    -4.316      4.655      7.042
REMARK INTER + INTRA:          -5.113
REMARK INTER:                  -4.919
REMARK INTRA:                  -0.194
REMARK UNBOUND:                -0.165
REMARK SMILES CC=Cc1ccc(O)c(OC)c1
REMARK SMILES IDX 4 1 12 2 9 3 7 4 6 5 5 6 3 7 1 8 2 9 10 10 11 11 8 12
REMARK H PARENT 8 13
REMARK Flexibility Score: inf
ROOT
ATOM      1  C   UNL     1      -0.075 -23.032 -10.743  1.00  0.00    -0.022 A 
ATOM      2  C   UNL     1      -0.345 -21.777 -11.326  1.00  0.00     0.058 A 
ATOM      3  C   UNL     1       0.563 -20.708 -11.184  1.00  0.00     0.161 A 
ATOM      4  C   UNL     1       1.742 -20.901 -10.444  1.00  0.00     0.157 A 
ATOM      5  C   UNL     1       2.002 -22.139  -9.852  1.00  0.00     0.051 A 
ATOM      6  C   UNL     1       1.099 -23.194  -9.994  1.00  0.00     0.012 A 
ENDROOT
BRANCH   1   7
ATOM      7  C   UNL     1      -1.006 -24.182 -10.858  1.00  0.00     0.003 C 
ATOM      8  C   UNL     1      -1.724 -26.520 -10.554  1.00  0.00     0.035 C 
ATOM      9  C   UNL     1      -0.727 -25.415 -10.417  1.00  0.00    -0.030 C 
ENDBRANCH   1   7
BRANCH   3  10
ATOM     10  O   UNL     1       0.325 -19.448 -11.759  1.00  0.00    -0.493 OA
ATOM     11  C   UNL     1      -0.469 -18.425 -11.165  1.00  0.00     0.278 C 
ENDBRANCH   3  10
BRANCH   4  12
ATOM     12  O   UNL     1       2.669 -19.871 -10.281  1.00  0.00    -0.504 OA
ATOM     13  H   UNL     1       3.662 -20.048 -10.187  1.00  0.00     0.293 HD
ENDBRANCH   4  12
TORSDOF 3
ENDMDL
MODEL 8
REMARK VINA RESULT:    -4.286      3.437      5.677
REMARK INTER + INTRA:          -5.078
REMARK INTER:                  -4.917
REMARK INTRA:                  -0.161
REMARK UNBOUND:                -0.165
REMARK SMILES CC=Cc1ccc(O)c(OC)c1
REMARK SMILES IDX 4 1 12 2 9 3 7 4 6 5 5 6 3 7 1 8 2 9 10 10 11 11 8 12
REMARK H PARENT 8 13
REMARK Flexibility Score: inf
ROOT
ATOM      1  C   UNL     1      -0.058 -25.165  -9.855  1.00  0.00    -0.022 A 
ATOM      2  C   UNL     1       0.965 -24.201  -9.755  1.00  0.00     0.058 A 
ATOM      3  C   UNL     1       0.881 -22.985 -10.463  1.00  0.00     0.161 A 
ATOM      4  C   UNL     1      -0.236 -22.743 -11.282  1.00  0.00     0.157 A 
ATOM      5  C   UNL     1      -1.243 -23.704 -11.395  1.00  0.00     0.051 A 
ATOM      6  C   UNL     1      -1.153 -24.908 -10.692  1.00  0.00     0.012 A 
ENDROOT
BRANCH   1   7
ATOM      7  C   UNL     1      -0.006 -26.462  -9.137  1.00  0.00     0.003 C 
ATOM      8  C   UNL     1       0.904 -28.688  -8.597  1.00  0.00     0.035 C 
ATOM      9  C   UNL     1       0.907 -27.412  -9.376  1.00  0.00    -0.030 C 
ENDBRANCH   1   7
BRANCH   3  10
ATOM     10  O   UNL     1       1.882 -22.003 -10.379  1.00  0.00    -0.493 OA
ATOM     11  C   UNL     1       1.941 -20.992  -9.377  1.00  0.00     0.278 C 
ENDBRANCH   3  10
BRANCH   4  12
ATOM     12  O   UNL     1      -0.362 -21.552 -11.998  1.00  0.00    -0.504 OA
ATOM     13  H   UNL     1       0.102 -21.404 -12.887  1.00  0.00     0.293 HD
ENDBRANCH   4  12
TORSDOF 3
ENDMDL
MODEL 9
REMARK VINA RESULT:    -4.212      2.989      5.531
REMARK INTER + INTRA:          -4.993
REMARK INTER:                  -4.811
REMARK INTRA:                  -0.182
REMARK UNBOUND:                -0.165
REMARK SMILES CC=Cc1ccc(O)c(OC)c1
REMARK SMILES IDX 4 1 12 2 9 3 7 4 6 5 5 6 3 7 1 8 2 9 10 10 11 11 8 12
REMARK H PARENT 8 13
REMARK Flexibility Score: inf
ROOT
ATOM      1  C   UNL     1      -0.845 -26.191  -8.711  1.00  0.00    -0.022 A 
ATOM      2  C   UNL     1      -1.246 -24.840  -8.691  1.00  0.00     0.058 A 
ATOM      3  C   UNL     1      -0.414 -23.835  -9.225  1.00  0.00     0.161 A 
ATOM      4  C   UNL     1       0.830 -24.192  -9.772  1.00  0.00     0.157 A 
ATOM      5  C   UNL     1       1.235 -25.529  -9.778  1.00  0.00     0.051 A 
ATOM      6  C   UNL     1       0.408 -26.520  -9.246  1.00  0.00     0.012 A 
ENDROOT
BRANCH   1   7
ATOM      7  C   UNL     1      -1.684 -27.281  -8.151  1.00  0.00     0.003 C 
ATOM      8  C   UNL     1      -2.099 -29.413  -6.988  1.00  0.00     0.035 C 
ATOM      9  C   UNL     1      -1.189 -28.365  -7.541  1.00  0.00    -0.030 C 
ENDBRANCH   1   7
BRANCH   3  10
ATOM     10  O   UNL     1      -0.788 -22.481  -9.225  1.00  0.00    -0.493 OA
ATOM     11  C   UNL     1      -1.200 -21.755  -8.070  1.00  0.00     0.278 C 
ENDBRANCH   3  10
BRANCH   4  12
ATOM     12  O   UNL     1       1.683 -23.230 -10.314  1.00  0.00    -0.504 OA
ATOM     13  H   UNL     1       2.141 -23.357 -11.210  1.00  0.00     0.293 HD
ENDBRANCH   4  12
TORSDOF 3
ENDMDL
