MODEL 1
REMARK VINA RESULT:    -5.583      0.000      0.000
REMARK INTER + INTRA:          -6.166
REMARK INTER:                  -5.909
REMARK INTRA:                  -0.257
REMARK UNBOUND:                -0.257
REMARK SMILES CC(C)[C@H]1CC[C@@H](C)[C@H]2C=C[C@H](C)C[C@@H]21
REMARK SMILES IDX 8 1 7 2 6 3 5 4 4 5 15 6 9 7 10 8 11 9 12 10 14 11 13 12
REMARK SMILES IDX 2 13 1 14 3 15
REMARK H PARENT
REMARK Flexibility Score: inf
ROOT
ATOM      1  C   UNL     1     139.892 140.447 131.937  1.00  0.00     0.008 C 
ATOM      2  C   UNL     1     138.627 139.724 132.441  1.00  0.00    -0.007 C 
ATOM      3  C   UNL     1     137.463 140.704 132.669  1.00  0.00     0.004 C 
ATOM      4  C   UNL     1     137.668 141.574 133.917  1.00  0.00     0.004 C 
ATOM      5  C   UNL     1     137.891 140.729 135.202  1.00  0.00    -0.005 C 
ATOM      6  C   UNL     1     139.103 139.762 134.972  1.00  0.00    -0.000 C 
ATOM      7  C   UNL     1     138.857 138.879 133.717  1.00  0.00     0.018 C 
ATOM      8  C   UNL     1     139.941 137.842 133.517  1.00  0.00    -0.027 C 
ATOM      9  C   UNL     1     140.679 137.369 134.532  1.00  0.00    -0.028 C 
ATOM     10  C   UNL     1     140.647 137.976 135.917  1.00  0.00     0.008 C 
ATOM     11  C   UNL     1     139.381 138.822 136.167  1.00  0.00     0.012 C 
ATOM     12  C   UNL     1     140.777 136.879 136.978  1.00  0.00     0.012 C 
ENDROOT
BRANCH   5  13
ATOM     13  C   UNL     1     138.059 141.607 136.507  1.00  0.00    -0.014 C 
ATOM     14  C   UNL     1     136.760 141.610 137.335  1.00  0.00     0.007 C 
ATOM     15  C   UNL     1     138.481 143.071 136.279  1.00  0.00     0.007 C 
ENDBRANCH   5  13
TORSDOF 1
ENDMDL
MODEL 2
REMARK VINA RESULT:    -5.578      3.082      4.679
REMARK INTER + INTRA:          -6.161
REMARK INTER:                  -5.903
REMARK INTRA:                  -0.258
REMARK UNBOUND:                -0.257
REMARK SMILES CC(C)[C@H]1CC[C@@H](C)[C@H]2C=C[C@H](C)C[C@@H]21
REMARK SMILES IDX 8 1 7 2 6 3 5 4 4 5 15 6 9 7 10 8 11 9 12 10 14 11 13 12
REMARK SMILES IDX 2 13 1 14 3 15
REMARK H PARENT
REMARK Flexibility Score: inf
ROOT
ATOM      1  C   UNL     1     140.483 142.323 132.027  1.00  0.00     0.008 C 
ATOM      2  C   UNL     1     139.765 143.591 132.534  1.00  0.00    -0.007 C 
ATOM      3  C   UNL     1     140.753 144.746 132.773  1.00  0.00     0.004 C 
ATOM      4  C   UNL     1     141.615 144.529 134.024  1.00  0.00     0.004 C 
ATOM      5  C   UNL     1     140.762 144.306 135.303  1.00  0.00    -0.005 C 
ATOM      6  C   UNL     1     139.787 143.102 135.063  1.00  0.00    -0.000 C 
ATOM      7  C   UNL     1     138.913 143.360 133.804  1.00  0.00     0.018 C 
ATOM      8  C   UNL     1     137.869 142.285 133.593  1.00  0.00    -0.027 C 
ATOM      9  C   UNL     1     137.385 141.545 134.601  1.00  0.00    -0.028 C 
ATOM     10  C   UNL     1     137.985 141.566 135.990  1.00  0.00     0.008 C 
ATOM     11  C   UNL     1     138.838 142.825 136.251  1.00  0.00     0.012 C 
ATOM     12  C   UNL     1     136.881 141.439 137.044  1.00  0.00     0.012 C 
ENDROOT
BRANCH   5  13
ATOM     13  C   UNL     1     141.631 144.125 136.612  1.00  0.00    -0.014 C 
ATOM     14  C   UNL     1     141.673 145.432 137.426  1.00  0.00     0.007 C 
ATOM     15  C   UNL     1     143.082 143.654 136.392  1.00  0.00     0.007 C 
ENDBRANCH   5  13
TORSDOF 1
ENDMDL
MODEL 3
REMARK VINA RESULT:    -5.578      4.437      6.598
REMARK INTER + INTRA:          -6.160
REMARK INTER:                  -5.903
REMARK INTRA:                  -0.258
REMARK UNBOUND:                -0.257
REMARK SMILES CC(C)[C@H]1CC[C@@H](C)[C@H]2C=C[C@H](C)C[C@@H]21
REMARK SMILES IDX 8 1 7 2 6 3 5 4 4 5 15 6 9 7 10 8 11 9 12 10 14 11 13 12
REMARK SMILES IDX 2 13 1 14 3 15
REMARK H PARENT
REMARK Flexibility Score: inf
ROOT
ATOM      1  C   UNL     1     142.339 141.691 132.009  1.00  0.00     0.008 C 
ATOM      2  C   UNL     1     143.613 142.404 132.506  1.00  0.00    -0.007 C 
ATOM      3  C   UNL     1     144.764 141.411 132.746  1.00  0.00     0.004 C 
ATOM      4  C   UNL     1     144.547 140.558 134.004  1.00  0.00     0.004 C 
ATOM      5  C   UNL     1     144.334 141.420 135.278  1.00  0.00    -0.005 C 
ATOM      6  C   UNL     1     143.135 142.400 135.037  1.00  0.00    -0.000 C 
ATOM      7  C   UNL     1     143.393 143.265 133.772  1.00  0.00     0.018 C 
ATOM      8  C   UNL     1     142.322 144.314 133.560  1.00  0.00    -0.027 C 
ATOM      9  C   UNL     1     141.590 144.808 134.568  1.00  0.00    -0.028 C 
ATOM     10  C   UNL     1     141.613 144.216 135.960  1.00  0.00     0.008 C 
ATOM     11  C   UNL     1     142.868 143.357 136.221  1.00  0.00     0.012 C 
ATOM     12  C   UNL     1     141.497 145.327 137.008  1.00  0.00     0.012 C 
ENDROOT
BRANCH   5  13
ATOM     13  C   UNL     1     144.154 140.560 136.593  1.00  0.00    -0.014 C 
ATOM     14  C   UNL     1     145.462 140.524 137.407  1.00  0.00     0.007 C 
ATOM     15  C   UNL     1     143.685 139.107 136.383  1.00  0.00     0.007 C 
ENDBRANCH   5  13
TORSDOF 1
ENDMDL
MODEL 4
REMARK VINA RESULT:    -5.572      3.022      4.597
REMARK INTER + INTRA:          -6.155
REMARK INTER:                  -5.897
REMARK INTRA:                  -0.258
REMARK UNBOUND:                -0.257
REMARK SMILES CC(C)[C@H]1CC[C@@H](C)[C@H]2C=C[C@H](C)C[C@@H]21
REMARK SMILES IDX 8 1 7 2 6 3 5 4 4 5 15 6 9 7 10 8 11 9 12 10 14 11 13 12
REMARK SMILES IDX 2 13 1 14 3 15
REMARK H PARENT
REMARK Flexibility Score: inf
ROOT
ATOM      1  C   UNL     1     141.726 139.828 131.958  1.00  0.00     0.008 C 
ATOM      2  C   UNL     1     142.426 138.564 132.497  1.00  0.00    -0.007 C 
ATOM      3  C   UNL     1     141.427 137.422 132.745  1.00  0.00     0.004 C 
ATOM      4  C   UNL     1     140.551 137.669 133.982  1.00  0.00     0.004 C 
ATOM      5  C   UNL     1     141.390 137.910 135.267  1.00  0.00    -0.005 C 
ATOM      6  C   UNL     1     142.378 139.101 135.016  1.00  0.00    -0.000 C 
ATOM      7  C   UNL     1     143.265 138.812 133.773  1.00  0.00     0.018 C 
ATOM      8  C   UNL     1     144.321 139.875 133.555  1.00  0.00    -0.027 C 
ATOM      9  C   UNL     1     144.798 140.629 134.555  1.00  0.00    -0.028 C 
ATOM     10  C   UNL     1     144.181 140.640 135.936  1.00  0.00     0.008 C 
ATOM     11  C   UNL     1     143.314 139.393 136.210  1.00  0.00     0.012 C 
ATOM     12  C   UNL     1     145.273 140.777 137.001  1.00  0.00     0.012 C 
ENDROOT
BRANCH   5  13
ATOM     13  C   UNL     1     140.507 138.123 136.561  1.00  0.00    -0.014 C 
ATOM     14  C   UNL     1     140.442 136.831 137.398  1.00  0.00     0.007 C 
ATOM     15  C   UNL     1     139.063 138.602 136.314  1.00  0.00     0.007 C 
ENDBRANCH   5  13
TORSDOF 1
ENDMDL
MODEL 5
REMARK VINA RESULT:    -5.448      3.051      5.803
REMARK INTER + INTRA:          -6.023
REMARK INTER:                  -5.741
REMARK INTRA:                  -0.282
REMARK UNBOUND:                -0.257
REMARK SMILES CC(C)[C@H]1CC[C@@H](C)[C@H]2C=C[C@H](C)C[C@@H]21
REMARK SMILES IDX 8 1 7 2 6 3 5 4 4 5 15 6 9 7 10 8 11 9 12 10 14 11 13 12
REMARK SMILES IDX 2 13 1 14 3 15
REMARK H PARENT
REMARK Flexibility Score: inf
ROOT
ATOM      1  C   UNL     1     142.903 143.249 135.747  1.00  0.00     0.008 C 
ATOM      2  C   UNL     1     141.936 144.405 136.077  1.00  0.00    -0.007 C 
ATOM      3  C   UNL     1     141.226 144.186 137.424  1.00  0.00     0.004 C 
ATOM      4  C   UNL     1     140.156 143.088 137.349  1.00  0.00     0.004 C 
ATOM      5  C   UNL     1     139.098 143.363 136.245  1.00  0.00    -0.005 C 
ATOM      6  C   UNL     1     139.829 143.545 134.871  1.00  0.00    -0.000 C 
ATOM      7  C   UNL     1     140.889 144.677 134.971  1.00  0.00     0.018 C 
ATOM      8  C   UNL     1     141.542 144.979 133.639  1.00  0.00    -0.027 C 
ATOM      9  C   UNL     1     140.934 144.735 132.470  1.00  0.00    -0.028 C 
ATOM     10  C   UNL     1     139.647 143.946 132.366  1.00  0.00     0.008 C 
ATOM     11  C   UNL     1     138.878 143.887 133.702  1.00  0.00     0.012 C 
ATOM     12  C   UNL     1     138.759 144.527 131.262  1.00  0.00     0.012 C 
ENDROOT
BRANCH   5  13
ATOM     13  C   UNL     1     137.960 142.266 136.182  1.00  0.00    -0.014 C 
ATOM     14  C   UNL     1     137.154 142.237 137.494  1.00  0.00     0.007 C 
ATOM     15  C   UNL     1     138.431 140.829 135.881  1.00  0.00     0.007 C 
ENDBRANCH   5  13
TORSDOF 1
ENDMDL
MODEL 6
REMARK VINA RESULT:    -5.434      2.839      5.148
REMARK INTER + INTRA:          -6.009
REMARK INTER:                  -5.727
REMARK INTRA:                  -0.281
REMARK UNBOUND:                -0.257
REMARK SMILES CC(C)[C@H]1CC[C@@H](C)[C@H]2C=C[C@H](C)C[C@@H]21
REMARK SMILES IDX 8 1 7 2 6 3 5 4 4 5 15 6 9 7 10 8 11 9 12 10 14 11 13 12
REMARK SMILES IDX 2 13 1 14 3 15
REMARK H PARENT
REMARK Flexibility Score: inf
ROOT
ATOM      1  C   UNL     1     139.316 139.043 135.947  1.00  0.00     0.008 C 
ATOM      2  C   UNL     1     140.288 137.896 136.293  1.00  0.00    -0.007 C 
ATOM      3  C   UNL     1     141.054 138.174 137.597  1.00  0.00     0.004 C 
ATOM      4  C   UNL     1     142.128 139.258 137.425  1.00  0.00     0.004 C 
ATOM      5  C   UNL     1     143.138 138.921 136.294  1.00  0.00    -0.005 C 
ATOM      6  C   UNL     1     142.349 138.678 134.961  1.00  0.00    -0.000 C 
ATOM      7  C   UNL     1     141.287 137.561 135.160  1.00  0.00     0.018 C 
ATOM      8  C   UNL     1     140.577 137.201 133.872  1.00  0.00    -0.027 C 
ATOM      9  C   UNL     1     141.137 137.382 132.668  1.00  0.00    -0.028 C 
ATOM     10  C   UNL     1     142.424 138.153 132.474  1.00  0.00     0.008 C 
ATOM     11  C   UNL     1     143.249 138.270 133.773  1.00  0.00     0.012 C 
ATOM     12  C   UNL     1     143.262 137.511 131.364  1.00  0.00     0.012 C 
ENDROOT
BRANCH   5  13
ATOM     13  C   UNL     1     144.279 140.003 136.130  1.00  0.00    -0.014 C 
ATOM     14  C   UNL     1     145.115 140.116 137.419  1.00  0.00     0.007 C 
ATOM     15  C   UNL     1     143.808 141.419 135.743  1.00  0.00     0.007 C 
ENDBRANCH   5  13
TORSDOF 1
ENDMDL
MODEL 7
REMARK VINA RESULT:    -5.429      0.975      4.400
REMARK INTER + INTRA:          -6.003
REMARK INTER:                  -5.722
REMARK INTRA:                  -0.282
REMARK UNBOUND:                -0.257
REMARK SMILES CC(C)[C@H]1CC[C@@H](C)[C@H]2C=C[C@H](C)C[C@@H]21
REMARK SMILES IDX 8 1 7 2 6 3 5 4 4 5 15 6 9 7 10 8 11 9 12 10 14 11 13 12
REMARK SMILES IDX 2 13 1 14 3 15
REMARK H PARENT
REMARK Flexibility Score: inf
ROOT
ATOM      1  C   UNL     1     138.880 142.805 135.819  1.00  0.00     0.008 C 
ATOM      2  C   UNL     1     137.759 141.782 136.093  1.00  0.00    -0.007 C 
ATOM      3  C   UNL     1     137.972 141.047 137.428  1.00  0.00     0.004 C 
ATOM      4  C   UNL     1     139.117 140.027 137.358  1.00  0.00     0.004 C 
ATOM      5  C   UNL     1     138.918 138.987 136.221  1.00  0.00    -0.005 C 
ATOM      6  C   UNL     1     138.741 139.745 134.860  1.00  0.00    -0.000 C 
ATOM      7  C   UNL     1     137.562 140.752 134.955  1.00  0.00     0.018 C 
ATOM      8  C   UNL     1     137.267 141.426 133.632  1.00  0.00    -0.027 C 
ATOM      9  C   UNL     1     137.568 140.859 132.455  1.00  0.00    -0.028 C 
ATOM     10  C   UNL     1     138.414 139.610 132.342  1.00  0.00     0.008 C 
ATOM     11  C   UNL     1     138.471 138.809 133.660  1.00  0.00     0.012 C 
ATOM     12  C   UNL     1     137.901 138.726 131.201  1.00  0.00     0.012 C 
ENDROOT
BRANCH   5  13
ATOM     13  C   UNL     1     140.064 137.899 136.160  1.00  0.00    -0.014 C 
ATOM     14  C   UNL     1     140.112 137.080 137.464  1.00  0.00     0.007 C 
ATOM     15  C   UNL     1     141.483 138.436 135.884  1.00  0.00     0.007 C 
ENDBRANCH   5  13
TORSDOF 1
ENDMDL
MODEL 8
REMARK VINA RESULT:    -5.399      4.622      6.334
REMARK INTER + INTRA:          -5.971
REMARK INTER:                  -5.690
REMARK INTRA:                  -0.281
REMARK UNBOUND:                -0.257
REMARK SMILES CC(C)[C@H]1CC[C@@H](C)[C@H]2C=C[C@H](C)C[C@@H]21
REMARK SMILES IDX 8 1 7 2 6 3 5 4 4 5 15 6 9 7 10 8 11 9 12 10 14 11 13 12
REMARK SMILES IDX 2 13 1 14 3 15
REMARK H PARENT
REMARK Flexibility Score: inf
ROOT
ATOM      1  C   UNL     1     143.264 139.286 135.904  1.00  0.00     0.008 C 
ATOM      2  C   UNL     1     144.387 140.296 136.220  1.00  0.00    -0.007 C 
ATOM      3  C   UNL     1     144.127 141.041 137.540  1.00  0.00     0.004 C 
ATOM      4  C   UNL     1     142.999 142.075 137.415  1.00  0.00     0.004 C 
ATOM      5  C   UNL     1     143.259 143.106 136.282  1.00  0.00    -0.005 C 
ATOM      6  C   UNL     1     143.484 142.338 134.934  1.00  0.00    -0.000 C 
ATOM      7  C   UNL     1     144.645 141.316 135.085  1.00  0.00     0.018 C 
ATOM      8  C   UNL     1     144.986 140.630 133.779  1.00  0.00    -0.027 C 
ATOM      9  C   UNL     1     144.742 141.193 132.587  1.00  0.00    -0.028 C 
ATOM     10  C   UNL     1     143.919 142.452 132.432  1.00  0.00     0.008 C 
ATOM     11  C   UNL     1     143.817 143.262 133.742  1.00  0.00     0.012 C 
ATOM     12  C   UNL     1     144.490 143.322 131.308  1.00  0.00     0.012 C 
ENDROOT
BRANCH   5  13
ATOM     13  C   UNL     1     142.131 144.208 136.167  1.00  0.00    -0.014 C 
ATOM     14  C   UNL     1     142.118 145.111 137.415  1.00  0.00     0.007 C 
ATOM     15  C   UNL     1     140.699 143.680 135.947  1.00  0.00     0.007 C 
ENDBRANCH   5  13
TORSDOF 1
ENDMDL
MODEL 9
REMARK VINA RESULT:    -5.322      3.853      5.934
REMARK INTER + INTRA:          -5.890
REMARK INTER:                  -5.634
REMARK INTRA:                  -0.257
REMARK UNBOUND:                -0.257
REMARK SMILES CC(C)[C@H]1CC[C@@H](C)[C@H]2C=C[C@H](C)C[C@@H]21
REMARK SMILES IDX 8 1 7 2 6 3 5 4 4 5 15 6 9 7 10 8 11 9 12 10 14 11 13 12
REMARK SMILES IDX 2 13 1 14 3 15
REMARK H PARENT
REMARK Flexibility Score: inf
ROOT
ATOM      1  C   UNL     1     141.221 141.696 136.195  1.00  0.00     0.008 C 
ATOM      2  C   UNL     1     141.243 143.228 136.009  1.00  0.00    -0.007 C 
ATOM      3  C   UNL     1     139.822 143.813 135.944  1.00  0.00     0.004 C 
ATOM      4  C   UNL     1     139.118 143.493 134.618  1.00  0.00     0.004 C 
ATOM      5  C   UNL     1     139.931 143.968 133.382  1.00  0.00    -0.005 C 
ATOM      6  C   UNL     1     141.364 143.335 133.438  1.00  0.00    -0.000 C 
ATOM      7  C   UNL     1     142.059 143.695 134.780  1.00  0.00     0.018 C 
ATOM      8  C   UNL     1     143.492 143.210 134.839  1.00  0.00    -0.027 C 
ATOM      9  C   UNL     1     144.229 143.013 133.737  1.00  0.00    -0.028 C 
ATOM     10  C   UNL     1     143.640 143.048 132.343  1.00  0.00     0.008 C 
ATOM     11  C   UNL     1     142.288 143.789 132.287  1.00  0.00     0.012 C 
ATOM     12  C   UNL     1     144.637 143.676 131.364  1.00  0.00     0.012 C 
ENDROOT
BRANCH   5  13
ATOM     13  C   UNL     1     139.201 143.688 132.007  1.00  0.00    -0.014 C 
ATOM     14  C   UNL     1     138.562 144.975 131.454  1.00  0.00     0.007 C 
ATOM     15  C   UNL     1     138.117 142.593 132.036  1.00  0.00     0.007 C 
ENDBRANCH   5  13
TORSDOF 1
ENDMDL
