MODEL 1
REMARK VINA RESULT:    -5.455      0.000      0.000
REMARK INTER + INTRA:         -13.780
REMARK INTER:                 -11.833
REMARK INTRA:                  -1.947
REMARK UNBOUND:                -1.947
REMARK SMILES CCCCCCCCCCCCCCCCCCCCCC(=O)[O-]
REMARK SMILES IDX 12 1 11 2 10 3 9 4 8 5 7 6 6 7 5 8 4 9 3 10 2 11 1 12 13 13
REMARK SMILES IDX 14 14 15 15 16 16 17 17 18 18 19 19 20 20 21 21 22 22 23 23
REMARK SMILES IDX 24 24
REMARK H PARENT
REMARK Flexibility Score: inf
ROOT
ATOM      1  C   UNL     1     -19.356  37.769  88.377  1.00  0.00     0.000 C 
ENDROOT
BRANCH   1   2
ATOM      2  C   UNL     1     -20.678  38.115  87.664  1.00  0.00     0.000 C 
BRANCH   2   3
ATOM      3  C   UNL     1     -20.445  38.622  86.231  1.00  0.00     0.000 C 
BRANCH   3   4
ATOM      4  C   UNL     1     -19.155  38.060  85.616  1.00  0.00    -0.000 C 
BRANCH   4   5
ATOM      5  C   UNL     1     -19.431  37.411  84.251  1.00  0.00    -0.000 C 
BRANCH   5   6
ATOM      6  C   UNL     1     -18.201  37.433  83.319  1.00  0.00    -0.000 C 
BRANCH   6   7
ATOM      7  C   UNL     1     -17.202  36.284  83.565  1.00  0.00    -0.000 C 
BRANCH   7   8
ATOM      8  C   UNL     1     -16.661  35.592  82.298  1.00  0.00    -0.000 C 
BRANCH   8   9
ATOM      9  C   UNL     1     -17.650  34.626  81.621  1.00  0.00    -0.000 C 
BRANCH   9  10
ATOM     10  C   UNL     1     -17.970  35.026  80.171  1.00  0.00    -0.000 C 
BRANCH  10  11
ATOM     11  C   UNL     1     -17.744  36.527  79.924  1.00  0.00    -0.003 C 
ATOM     12  C   UNL     1     -18.801  37.128  78.995  1.00  0.00     0.004 C 
ENDBRANCH  10  11
ENDBRANCH   9  10
ENDBRANCH   8   9
ENDBRANCH   7   8
ENDBRANCH   6   7
ENDBRANCH   5   6
ENDBRANCH   4   5
ENDBRANCH   3   4
ENDBRANCH   2   3
ENDBRANCH   1   2
BRANCH   1  13
ATOM     13  C   UNL     1     -19.453  37.878  89.908  1.00  0.00     0.000 C 
BRANCH  13  14
ATOM     14  C   UNL     1     -18.353  38.768  90.511  1.00  0.00     0.000 C 
BRANCH  14  15
ATOM     15  C   UNL     1     -18.732  40.256  90.538  1.00  0.00     0.000 C 
BRANCH  15  16
ATOM     16  C   UNL     1     -20.169  40.523  91.038  1.00  0.00     0.000 C 
BRANCH  16  17
ATOM     17  C   UNL     1     -20.981  41.364  90.040  1.00  0.00     0.000 C 
BRANCH  17  18
ATOM     18  C   UNL     1     -20.251  41.577  88.703  1.00  0.00     0.000 C 
BRANCH  18  19
ATOM     19  C   UNL     1     -21.212  41.901  87.546  1.00  0.00     0.000 C 
BRANCH  19  20
ATOM     20  C   UNL     1     -21.138  43.374  87.112  1.00  0.00     0.006 C 
BRANCH  20  21
ATOM     21  C   UNL     1     -20.094  43.612  86.013  1.00  0.00     0.053 C 
BRANCH  21  22
ATOM     22  C   UNL     1     -20.499  44.765  85.151  1.00  0.00     0.041 C 
ATOM     23  O   UNL     1     -19.781  45.110  84.177  1.00  0.00    -0.550 OA
ATOM     24  O   UNL     1     -21.649  45.483  85.448  1.00  0.00    -0.550 OA
ENDBRANCH  21  22
ENDBRANCH  20  21
ENDBRANCH  19  20
ENDBRANCH  18  19
ENDBRANCH  17  18
ENDBRANCH  16  17
ENDBRANCH  15  16
ENDBRANCH  14  15
ENDBRANCH  13  14
ENDBRANCH   1  13
TORSDOF 20
ENDMDL
MODEL 2
REMARK VINA RESULT:    -5.455      5.580      8.471
REMARK INTER + INTRA:         -13.780
REMARK INTER:                 -11.025
REMARK INTRA:                  -2.754
REMARK UNBOUND:                -1.947
REMARK SMILES CCCCCCCCCCCCCCCCCCCCCC(=O)[O-]
REMARK SMILES IDX 12 1 11 2 10 3 9 4 8 5 7 6 6 7 5 8 4 9 3 10 2 11 1 12 13 13
REMARK SMILES IDX 14 14 15 15 16 16 17 17 18 18 19 19 20 20 21 21 22 22 23 23
REMARK SMILES IDX 24 24
REMARK H PARENT
REMARK Flexibility Score: inf
ROOT
ATOM      1  C   UNL     1     -22.219  41.995  88.561  1.00  0.00     0.000 C 
ENDROOT
BRANCH   1   2
ATOM      2  C   UNL     1     -20.983  41.474  89.318  1.00  0.00     0.000 C 
BRANCH   2   3
ATOM      3  C   UNL     1     -19.755  41.347  88.401  1.00  0.00     0.000 C 
BRANCH   3   4
ATOM      4  C   UNL     1     -20.137  41.320  86.914  1.00  0.00    -0.000 C 
BRANCH   4   5
ATOM      5  C   UNL     1     -19.456  42.465  86.148  1.00  0.00    -0.000 C 
BRANCH   5   6
ATOM      6  C   UNL     1     -20.459  43.526  85.646  1.00  0.00    -0.000 C 
BRANCH   6   7
ATOM      7  C   UNL     1     -20.385  44.871  86.397  1.00  0.00    -0.000 C 
BRANCH   7   8
ATOM      8  C   UNL     1     -21.020  46.073  85.671  1.00  0.00    -0.000 C 
BRANCH   8   9
ATOM      9  C   UNL     1     -20.277  46.519  84.398  1.00  0.00    -0.000 C 
BRANCH   9  10
ATOM     10  C   UNL     1     -18.810  46.892  84.668  1.00  0.00    -0.000 C 
BRANCH  10  11
ATOM     11  C   UNL     1     -17.838  45.826  84.137  1.00  0.00    -0.003 C 
ATOM     12  C   UNL     1     -16.944  45.255  85.239  1.00  0.00     0.004 C 
ENDBRANCH  10  11
ENDBRANCH   9  10
ENDBRANCH   8   9
ENDBRANCH   7   8
ENDBRANCH   6   7
ENDBRANCH   5   6
ENDBRANCH   4   5
ENDBRANCH   3   4
ENDBRANCH   2   3
ENDBRANCH   1   2
BRANCH   1  13
ATOM     13  C   UNL     1     -22.634  43.412  88.990  1.00  0.00     0.000 C 
BRANCH  13  14
ATOM     14  C   UNL     1     -23.559  44.095  87.969  1.00  0.00     0.000 C 
BRANCH  14  15
ATOM     15  C   UNL     1     -23.696  45.608  88.200  1.00  0.00     0.000 C 
BRANCH  15  16
ATOM     16  C   UNL     1     -24.919  46.235  87.497  1.00  0.00     0.000 C 
BRANCH  16  17
ATOM     17  C   UNL     1     -26.247  45.748  88.102  1.00  0.00     0.000 C 
BRANCH  17  18
ATOM     18  C   UNL     1     -26.693  46.583  89.315  1.00  0.00     0.000 C 
BRANCH  18  19
ATOM     19  C   UNL     1     -27.044  45.716  90.536  1.00  0.00     0.000 C 
BRANCH  19  20
ATOM     20  C   UNL     1     -26.157  44.465  90.648  1.00  0.00     0.006 C 
BRANCH  20  21
ATOM     21  C   UNL     1     -26.863  43.306  91.363  1.00  0.00     0.053 C 
BRANCH  21  22
ATOM     22  C   UNL     1     -28.094  42.905  90.614  1.00  0.00     0.041 C 
ATOM     23  O   UNL     1     -29.209  42.875  91.197  1.00  0.00    -0.550 OA
ATOM     24  O   UNL     1     -28.002  42.524  89.282  1.00  0.00    -0.550 OA
ENDBRANCH  21  22
ENDBRANCH  20  21
ENDBRANCH  19  20
ENDBRANCH  18  19
ENDBRANCH  17  18
ENDBRANCH  16  17
ENDBRANCH  15  16
ENDBRANCH  14  15
ENDBRANCH  13  14
ENDBRANCH   1  13
TORSDOF 20
ENDMDL
MODEL 3
REMARK VINA RESULT:    -5.421      4.560      7.739
REMARK INTER + INTRA:         -13.706
REMARK INTER:                 -10.535
REMARK INTRA:                  -3.172
REMARK UNBOUND:                -1.947
REMARK SMILES CCCCCCCCCCCCCCCCCCCCCC(=O)[O-]
REMARK SMILES IDX 12 1 11 2 10 3 9 4 8 5 7 6 6 7 5 8 4 9 3 10 2 11 1 12 13 13
REMARK SMILES IDX 14 14 15 15 16 16 17 17 18 18 19 19 20 20 21 21 22 22 23 23
REMARK SMILES IDX 24 24
REMARK H PARENT
REMARK Flexibility Score: inf
ROOT
ATOM      1  C   UNL     1     -19.842  44.702  85.919  1.00  0.00     0.000 C 
ENDROOT
BRANCH   1   2
ATOM      2  C   UNL     1     -19.644  43.209  85.593  1.00  0.00     0.000 C 
BRANCH   2   3
ATOM      3  C   UNL     1     -19.847  42.317  86.829  1.00  0.00     0.000 C 
BRANCH   3   4
ATOM      4  C   UNL     1     -21.315  41.907  87.019  1.00  0.00    -0.000 C 
BRANCH   4   5
ATOM      5  C   UNL     1     -21.596  41.519  88.479  1.00  0.00    -0.000 C 
BRANCH   5   6
ATOM      6  C   UNL     1     -20.422  41.856  89.422  1.00  0.00    -0.000 C 
BRANCH   6   7
ATOM      7  C   UNL     1     -20.039  40.717  90.388  1.00  0.00    -0.000 C 
BRANCH   7   8
ATOM      8  C   UNL     1     -18.649  40.090  90.159  1.00  0.00    -0.000 C 
BRANCH   8   9
ATOM      9  C   UNL     1     -18.659  38.792  89.331  1.00  0.00    -0.000 C 
BRANCH   9  10
ATOM     10  C   UNL     1     -20.029  38.092  89.344  1.00  0.00    -0.000 C 
BRANCH  10  11
ATOM     11  C   UNL     1     -20.644  38.006  87.937  1.00  0.00    -0.003 C 
ATOM     12  C   UNL     1     -19.725  38.592  86.864  1.00  0.00     0.004 C 
ENDBRANCH  10  11
ENDBRANCH   9  10
ENDBRANCH   8   9
ENDBRANCH   7   8
ENDBRANCH   6   7
ENDBRANCH   5   6
ENDBRANCH   4   5
ENDBRANCH   3   4
ENDBRANCH   2   3
ENDBRANCH   1   2
BRANCH   1  13
ATOM     13  C   UNL     1     -21.107  45.295  85.278  1.00  0.00     0.000 C 
BRANCH  13  14
ATOM     14  C   UNL     1     -22.151  45.734  86.318  1.00  0.00     0.000 C 
BRANCH  14  15
ATOM     15  C   UNL     1     -21.594  45.773  87.749  1.00  0.00     0.000 C 
BRANCH  15  16
ATOM     16  C   UNL     1     -22.458  45.005  88.773  1.00  0.00     0.000 C 
BRANCH  16  17
ATOM     17  C   UNL     1     -23.769  44.492  88.154  1.00  0.00     0.000 C 
BRANCH  17  18
ATOM     18  C   UNL     1     -24.817  44.104  89.211  1.00  0.00     0.000 C 
BRANCH  18  19
ATOM     19  C   UNL     1     -25.887  45.190  89.414  1.00  0.00     0.000 C 
BRANCH  19  20
ATOM     20  C   UNL     1     -26.765  44.931  90.650  1.00  0.00     0.006 C 
BRANCH  20  21
ATOM     21  C   UNL     1     -26.817  43.447  91.033  1.00  0.00     0.053 C 
BRANCH  21  22
ATOM     22  C   UNL     1     -28.095  42.831  90.558  1.00  0.00     0.041 C 
ATOM     23  O   UNL     1     -29.018  42.577  91.375  1.00  0.00    -0.550 OA
ATOM     24  O   UNL     1     -28.249  42.500  89.219  1.00  0.00    -0.550 OA
ENDBRANCH  21  22
ENDBRANCH  20  21
ENDBRANCH  19  20
ENDBRANCH  18  19
ENDBRANCH  17  18
ENDBRANCH  16  17
ENDBRANCH  15  16
ENDBRANCH  14  15
ENDBRANCH  13  14
ENDBRANCH   1  13
TORSDOF 20
ENDMDL
MODEL 4
REMARK VINA RESULT:    -5.395      3.286      8.083
REMARK INTER + INTRA:         -13.650
REMARK INTER:                 -11.817
REMARK INTRA:                  -1.833
REMARK UNBOUND:                -1.947
REMARK SMILES CCCCCCCCCCCCCCCCCCCCCC(=O)[O-]
REMARK SMILES IDX 12 1 11 2 10 3 9 4 8 5 7 6 6 7 5 8 4 9 3 10 2 11 1 12 13 13
REMARK SMILES IDX 14 14 15 15 16 16 17 17 18 18 19 19 20 20 21 21 22 22 23 23
REMARK SMILES IDX 24 24
REMARK H PARENT
REMARK Flexibility Score: inf
ROOT
ATOM      1  C   UNL     1     -19.707  37.431  89.823  1.00  0.00     0.000 C 
ENDROOT
BRANCH   1   2
ATOM      2  C   UNL     1     -20.057  38.545  90.828  1.00  0.00     0.000 C 
BRANCH   2   3
ATOM      3  C   UNL     1     -18.890  39.526  91.032  1.00  0.00     0.000 C 
BRANCH   3   4
ATOM      4  C   UNL     1     -19.256  40.960  90.625  1.00  0.00    -0.000 C 
BRANCH   4   5
ATOM      5  C   UNL     1     -20.727  41.053  90.190  1.00  0.00    -0.000 C 
BRANCH   5   6
ATOM      6  C   UNL     1     -20.985  42.209  89.200  1.00  0.00    -0.000 C 
BRANCH   6   7
ATOM      7  C   UNL     1     -20.948  41.791  87.716  1.00  0.00    -0.000 C 
BRANCH   7   8
ATOM      8  C   UNL     1     -19.826  42.429  86.874  1.00  0.00    -0.000 C 
BRANCH   8   9
ATOM      9  C   UNL     1     -20.316  43.355  85.746  1.00  0.00    -0.000 C 
BRANCH   9  10
ATOM     10  C   UNL     1     -19.674  44.751  85.804  1.00  0.00    -0.000 C 
BRANCH  10  11
ATOM     11  C   UNL     1     -18.565  44.919  84.753  1.00  0.00    -0.003 C 
ATOM     12  C   UNL     1     -17.177  45.036  85.386  1.00  0.00     0.004 C 
ENDBRANCH  10  11
ENDBRANCH   9  10
ENDBRANCH   8   9
ENDBRANCH   7   8
ENDBRANCH   6   7
ENDBRANCH   5   6
ENDBRANCH   4   5
ENDBRANCH   3   4
ENDBRANCH   2   3
ENDBRANCH   1   2
BRANCH   1  13
ATOM     13  C   UNL     1     -19.496  37.955  88.394  1.00  0.00     0.000 C 
BRANCH  13  14
ATOM     14  C   UNL     1     -20.818  38.166  87.637  1.00  0.00     0.000 C 
BRANCH  14  15
ATOM     15  C   UNL     1     -20.613  38.579  86.172  1.00  0.00     0.000 C 
BRANCH  15  16
ATOM     16  C   UNL     1     -19.250  38.147  85.589  1.00  0.00     0.000 C 
BRANCH  16  17
ATOM     17  C   UNL     1     -19.398  37.451  84.226  1.00  0.00     0.000 C 
BRANCH  17  18
ATOM     18  C   UNL     1     -18.068  37.339  83.463  1.00  0.00     0.000 C 
BRANCH  18  19
ATOM     19  C   UNL     1     -17.386  35.973  83.654  1.00  0.00     0.000 C 
BRANCH  19  20
ATOM     20  C   UNL     1     -16.659  35.493  82.387  1.00  0.00     0.006 C 
BRANCH  20  21
ATOM     21  C   UNL     1     -17.006  36.337  81.154  1.00  0.00     0.053 C 
BRANCH  21  22
ATOM     22  C   UNL     1     -18.016  35.630  80.307  1.00  0.00     0.041 C 
ATOM     23  O   UNL     1     -18.289  34.420  80.523  1.00  0.00    -0.550 OA
ATOM     24  O   UNL     1     -18.624  36.296  79.252  1.00  0.00    -0.550 OA
ENDBRANCH  21  22
ENDBRANCH  20  21
ENDBRANCH  19  20
ENDBRANCH  18  19
ENDBRANCH  17  18
ENDBRANCH  16  17
ENDBRANCH  15  16
ENDBRANCH  14  15
ENDBRANCH  13  14
ENDBRANCH   1  13
TORSDOF 20
ENDMDL
MODEL 5
REMARK VINA RESULT:    -5.347      5.126      8.186
REMARK INTER + INTRA:         -13.545
REMARK INTER:                 -11.009
REMARK INTRA:                  -2.536
REMARK UNBOUND:                -1.947
REMARK SMILES CCCCCCCCCCCCCCCCCCCCCC(=O)[O-]
REMARK SMILES IDX 12 1 11 2 10 3 9 4 8 5 7 6 6 7 5 8 4 9 3 10 2 11 1 12 13 13
REMARK SMILES IDX 14 14 15 15 16 16 17 17 18 18 19 19 20 20 21 21 22 22 23 23
REMARK SMILES IDX 24 24
REMARK H PARENT
REMARK Flexibility Score: inf
ROOT
ATOM      1  C   UNL     1     -23.165  43.542  88.094  1.00  0.00     0.000 C 
ENDROOT
BRANCH   1   2
ATOM      2  C   UNL     1     -22.436  43.181  89.403  1.00  0.00     0.000 C 
BRANCH   2   3
ATOM      3  C   UNL     1     -21.450  42.017  89.212  1.00  0.00     0.000 C 
BRANCH   3   4
ATOM      4  C   UNL     1     -20.396  42.314  88.135  1.00  0.00    -0.000 C 
BRANCH   4   5
ATOM      5  C   UNL     1     -20.099  41.062  87.294  1.00  0.00    -0.000 C 
BRANCH   5   6
ATOM      6  C   UNL     1     -21.262  40.049  87.300  1.00  0.00    -0.000 C 
BRANCH   6   7
ATOM      7  C   UNL     1     -20.945  38.726  88.027  1.00  0.00    -0.000 C 
BRANCH   7   8
ATOM      8  C   UNL     1     -19.452  38.459  88.300  1.00  0.00    -0.000 C 
BRANCH   8   9
ATOM      9  C   UNL     1     -19.175  37.493  89.466  1.00  0.00    -0.000 C 
BRANCH   9  10
ATOM     10  C   UNL     1     -18.511  38.188  90.666  1.00  0.00    -0.000 C 
BRANCH  10  11
ATOM     11  C   UNL     1     -17.808  39.493  90.259  1.00  0.00    -0.003 C 
ATOM     12  C   UNL     1     -18.412  40.718  90.949  1.00  0.00     0.004 C 
ENDBRANCH  10  11
ENDBRANCH   9  10
ENDBRANCH   8   9
ENDBRANCH   7   8
ENDBRANCH   6   7
ENDBRANCH   5   6
ENDBRANCH   4   5
ENDBRANCH   3   4
ENDBRANCH   2   3
ENDBRANCH   1   2
BRANCH   1  13
ATOM     13  C   UNL     1     -22.738  44.904  87.524  1.00  0.00     0.000 C 
BRANCH  13  14
ATOM     14  C   UNL     1     -23.290  46.088  88.337  1.00  0.00     0.000 C 
BRANCH  14  15
ATOM     15  C   UNL     1     -24.251  46.975  87.531  1.00  0.00     0.000 C 
BRANCH  15  16
ATOM     16  C   UNL     1     -25.490  46.224  86.998  1.00  0.00     0.000 C 
BRANCH  16  17
ATOM     17  C   UNL     1     -26.269  45.522  88.123  1.00  0.00     0.000 C 
BRANCH  17  18
ATOM     18  C   UNL     1     -26.740  46.492  89.220  1.00  0.00     0.000 C 
BRANCH  18  19
ATOM     19  C   UNL     1     -26.812  45.830  90.607  1.00  0.00     0.000 C 
BRANCH  19  20
ATOM     20  C   UNL     1     -25.973  44.545  90.694  1.00  0.00     0.006 C 
BRANCH  20  21
ATOM     21  C   UNL     1     -26.721  43.400  91.387  1.00  0.00     0.053 C 
BRANCH  21  22
ATOM     22  C   UNL     1     -27.888  42.964  90.559  1.00  0.00     0.041 C 
ATOM     23  O   UNL     1     -27.704  42.452  89.424  1.00  0.00    -0.550 OA
ATOM     24  O   UNL     1     -29.181  43.163  91.024  1.00  0.00    -0.550 OA
ENDBRANCH  21  22
ENDBRANCH  20  21
ENDBRANCH  19  20
ENDBRANCH  18  19
ENDBRANCH  17  18
ENDBRANCH  16  17
ENDBRANCH  15  16
ENDBRANCH  14  15
ENDBRANCH  13  14
ENDBRANCH   1  13
TORSDOF 20
ENDMDL
MODEL 6
REMARK VINA RESULT:    -5.326      4.713      7.571
REMARK INTER + INTRA:         -13.500
REMARK INTER:                 -11.112
REMARK INTRA:                  -2.388
REMARK UNBOUND:                -1.947
REMARK SMILES CCCCCCCCCCCCCCCCCCCCCC(=O)[O-]
REMARK SMILES IDX 12 1 11 2 10 3 9 4 8 5 7 6 6 7 5 8 4 9 3 10 2 11 1 12 13 13
REMARK SMILES IDX 14 14 15 15 16 16 17 17 18 18 19 19 20 20 21 21 22 22 23 23
REMARK SMILES IDX 24 24
REMARK H PARENT
REMARK Flexibility Score: inf
ROOT
ATOM      1  C   UNL     1     -21.384  41.970  90.010  1.00  0.00     0.000 C 
ENDROOT
BRANCH   1   2
ATOM      2  C   UNL     1     -21.178  41.178  91.316  1.00  0.00     0.000 C 
BRANCH   2   3
ATOM      3  C   UNL     1     -19.716  40.735  91.497  1.00  0.00     0.000 C 
BRANCH   3   4
ATOM      4  C   UNL     1     -19.588  39.221  91.714  1.00  0.00    -0.000 C 
BRANCH   4   5
ATOM      5  C   UNL     1     -20.240  38.441  90.561  1.00  0.00    -0.000 C 
BRANCH   5   6
ATOM      6  C   UNL     1     -19.430  38.526  89.251  1.00  0.00    -0.000 C 
BRANCH   6   7
ATOM      7  C   UNL     1     -20.277  38.367  87.972  1.00  0.00    -0.000 C 
BRANCH   7   8
ATOM      8  C   UNL     1     -19.911  39.311  86.810  1.00  0.00    -0.000 C 
BRANCH   8   9
ATOM      9  C   UNL     1     -19.597  40.758  87.234  1.00  0.00    -0.000 C 
BRANCH   9  10
ATOM     10  C   UNL     1     -20.507  41.788  86.543  1.00  0.00    -0.000 C 
BRANCH  10  11
ATOM     11  C   UNL     1     -19.814  43.151  86.382  1.00  0.00    -0.003 C 
ATOM     12  C   UNL     1     -20.555  44.068  85.406  1.00  0.00     0.004 C 
ENDBRANCH  10  11
ENDBRANCH   9  10
ENDBRANCH   8   9
ENDBRANCH   7   8
ENDBRANCH   6   7
ENDBRANCH   5   6
ENDBRANCH   4   5
ENDBRANCH   3   4
ENDBRANCH   2   3
ENDBRANCH   1   2
BRANCH   1  13
ATOM     13  C   UNL     1     -22.485  43.037  90.122  1.00  0.00     0.000 C 
BRANCH  13  14
ATOM     14  C   UNL     1     -23.035  43.470  88.752  1.00  0.00     0.000 C 
BRANCH  14  15
ATOM     15  C   UNL     1     -23.151  44.994  88.605  1.00  0.00     0.000 C 
BRANCH  15  16
ATOM     16  C   UNL     1     -24.276  45.442  87.647  1.00  0.00     0.000 C 
BRANCH  16  17
ATOM     17  C   UNL     1     -25.670  45.264  88.271  1.00  0.00     0.000 C 
BRANCH  17  18
ATOM     18  C   UNL     1     -25.979  46.309  89.355  1.00  0.00     0.000 C 
BRANCH  18  19
ATOM     19  C   UNL     1     -26.511  45.679  90.654  1.00  0.00     0.000 C 
BRANCH  19  20
ATOM     20  C   UNL     1     -25.997  44.246  90.870  1.00  0.00     0.006 C 
BRANCH  20  21
ATOM     21  C   UNL     1     -26.958  43.397  91.711  1.00  0.00     0.053 C 
BRANCH  21  22
ATOM     22  C   UNL     1     -28.086  42.897  90.866  1.00  0.00     0.041 C 
ATOM     23  O   UNL     1     -29.224  42.712  91.372  1.00  0.00    -0.550 OA
ATOM     24  O   UNL     1     -27.870  42.596  89.528  1.00  0.00    -0.550 OA
ENDBRANCH  21  22
ENDBRANCH  20  21
ENDBRANCH  19  20
ENDBRANCH  18  19
ENDBRANCH  17  18
ENDBRANCH  16  17
ENDBRANCH  15  16
ENDBRANCH  14  15
ENDBRANCH  13  14
ENDBRANCH   1  13
TORSDOF 20
ENDMDL
MODEL 7
REMARK VINA RESULT:    -5.302      3.430      8.502
REMARK INTER + INTRA:         -13.448
REMARK INTER:                 -11.525
REMARK INTRA:                  -1.924
REMARK UNBOUND:                -1.947
REMARK SMILES CCCCCCCCCCCCCCCCCCCCCC(=O)[O-]
REMARK SMILES IDX 12 1 11 2 10 3 9 4 8 5 7 6 6 7 5 8 4 9 3 10 2 11 1 12 13 13
REMARK SMILES IDX 14 14 15 15 16 16 17 17 18 18 19 19 20 20 21 21 22 22 23 23
REMARK SMILES IDX 24 24
REMARK H PARENT
REMARK Flexibility Score: inf
ROOT
ATOM      1  C   UNL     1     -21.445  41.844  87.670  1.00  0.00     0.000 C 
ENDROOT
BRANCH   1   2
ATOM      2  C   UNL     1     -22.056  43.244  87.874  1.00  0.00     0.000 C 
BRANCH   2   3
ATOM      3  C   UNL     1     -20.981  44.342  87.920  1.00  0.00     0.000 C 
BRANCH   3   4
ATOM      4  C   UNL     1     -21.413  45.614  87.175  1.00  0.00    -0.000 C 
BRANCH   4   5
ATOM      5  C   UNL     1     -21.410  45.391  85.654  1.00  0.00    -0.000 C 
BRANCH   5   6
ATOM      6  C   UNL     1     -21.788  46.662  84.864  1.00  0.00    -0.000 C 
BRANCH   6   7
ATOM      7  C   UNL     1     -21.408  46.614  83.370  1.00  0.00    -0.000 C 
BRANCH   7   8
ATOM      8  C   UNL     1     -20.108  45.855  83.040  1.00  0.00    -0.000 C 
BRANCH   8   9
ATOM      9  C   UNL     1     -18.843  46.732  83.002  1.00  0.00    -0.000 C 
BRANCH   9  10
ATOM     10  C   UNL     1     -18.138  46.813  84.366  1.00  0.00    -0.000 C 
BRANCH  10  11
ATOM     11  C   UNL     1     -17.266  45.576  84.638  1.00  0.00    -0.003 C 
ATOM     12  C   UNL     1     -17.906  44.626  85.652  1.00  0.00     0.004 C 
ENDBRANCH  10  11
ENDBRANCH   9  10
ENDBRANCH   8   9
ENDBRANCH   7   8
ENDBRANCH   6   7
ENDBRANCH   5   6
ENDBRANCH   4   5
ENDBRANCH   3   4
ENDBRANCH   2   3
ENDBRANCH   1   2
BRANCH   1  13
ATOM     13  C   UNL     1     -20.262  41.841  86.688  1.00  0.00     0.000 C 
BRANCH  13  14
ATOM     14  C   UNL     1     -19.304  40.660  86.914  1.00  0.00     0.000 C 
BRANCH  14  15
ATOM     15  C   UNL     1     -19.941  39.514  87.715  1.00  0.00     0.000 C 
BRANCH  15  16
ATOM     16  C   UNL     1     -20.403  38.328  86.841  1.00  0.00     0.000 C 
BRANCH  16  17
ATOM     17  C   UNL     1     -19.880  38.434  85.399  1.00  0.00     0.000 C 
BRANCH  17  18
ATOM     18  C   UNL     1     -18.811  37.378  85.071  1.00  0.00     0.000 C 
BRANCH  18  19
ATOM     19  C   UNL     1     -18.624  37.172  83.558  1.00  0.00     0.000 C 
BRANCH  19  20
ATOM     20  C   UNL     1     -17.198  37.504  83.087  1.00  0.00     0.006 C 
BRANCH  20  21
ATOM     21  C   UNL     1     -16.584  36.385  82.237  1.00  0.00     0.053 C 
BRANCH  21  22
ATOM     22  C   UNL     1     -17.313  36.261  80.936  1.00  0.00     0.041 C 
ATOM     23  O   UNL     1     -17.379  37.242  80.150  1.00  0.00    -0.550 OA
ATOM     24  O   UNL     1     -17.956  35.074  80.612  1.00  0.00    -0.550 OA
ENDBRANCH  21  22
ENDBRANCH  20  21
ENDBRANCH  19  20
ENDBRANCH  18  19
ENDBRANCH  17  18
ENDBRANCH  16  17
ENDBRANCH  15  16
ENDBRANCH  14  15
ENDBRANCH  13  14
ENDBRANCH   1  13
TORSDOF 20
ENDMDL
MODEL 8
REMARK VINA RESULT:    -5.278      5.132      7.288
REMARK INTER + INTRA:         -13.396
REMARK INTER:                 -10.883
REMARK INTRA:                  -2.513
REMARK UNBOUND:                -1.947
REMARK SMILES CCCCCCCCCCCCCCCCCCCCCC(=O)[O-]
REMARK SMILES IDX 12 1 11 2 10 3 9 4 8 5 7 6 6 7 5 8 4 9 3 10 2 11 1 12 13 13
REMARK SMILES IDX 14 14 15 15 16 16 17 17 18 18 19 19 20 20 21 21 22 22 23 23
REMARK SMILES IDX 24 24
REMARK H PARENT
REMARK Flexibility Score: inf
ROOT
ATOM      1  C   UNL     1     -20.518  40.450  91.103  1.00  0.00     0.000 C 
ENDROOT
BRANCH   1   2
ATOM      2  C   UNL     1     -20.579  38.924  91.302  1.00  0.00     0.000 C 
BRANCH   2   3
ATOM      3  C   UNL     1     -19.883  38.165  90.160  1.00  0.00     0.000 C 
BRANCH   3   4
ATOM      4  C   UNL     1     -19.621  39.059  88.939  1.00  0.00    -0.000 C 
BRANCH   4   5
ATOM      5  C   UNL     1     -20.663  38.809  87.838  1.00  0.00    -0.000 C 
BRANCH   5   6
ATOM      6  C   UNL     1     -21.112  40.108  87.136  1.00  0.00    -0.000 C 
BRANCH   6   7
ATOM      7  C   UNL     1     -19.968  41.102  86.852  1.00  0.00    -0.000 C 
BRANCH   7   8
ATOM      8  C   UNL     1     -20.405  42.501  86.377  1.00  0.00    -0.000 C 
BRANCH   8   9
ATOM      9  C   UNL     1     -19.309  43.306  85.655  1.00  0.00    -0.000 C 
BRANCH   9  10
ATOM     10  C   UNL     1     -19.809  44.673  85.156  1.00  0.00    -0.000 C 
BRANCH  10  11
ATOM     11  C   UNL     1     -20.549  45.451  86.257  1.00  0.00    -0.003 C 
ATOM     12  C   UNL     1     -21.989  45.785  85.864  1.00  0.00     0.004 C 
ENDBRANCH  10  11
ENDBRANCH   9  10
ENDBRANCH   8   9
ENDBRANCH   7   8
ENDBRANCH   6   7
ENDBRANCH   5   6
ENDBRANCH   4   5
ENDBRANCH   3   4
ENDBRANCH   2   3
ENDBRANCH   1   2
BRANCH   1  13
ATOM     13  C   UNL     1     -21.568  41.208  91.931  1.00  0.00     0.000 C 
BRANCH  13  14
ATOM     14  C   UNL     1     -22.365  42.223  91.094  1.00  0.00     0.000 C 
BRANCH  14  15
ATOM     15  C   UNL     1     -21.634  42.651  89.813  1.00  0.00     0.000 C 
BRANCH  15  16
ATOM     16  C   UNL     1     -22.217  43.923  89.160  1.00  0.00     0.000 C 
BRANCH  16  17
ATOM     17  C   UNL     1     -23.706  43.763  88.810  1.00  0.00     0.000 C 
BRANCH  17  18
ATOM     18  C   UNL     1     -24.469  45.098  88.815  1.00  0.00     0.000 C 
BRANCH  18  19
ATOM     19  C   UNL     1     -25.659  45.099  89.790  1.00  0.00     0.000 C 
BRANCH  19  20
ATOM     20  C   UNL     1     -25.748  43.805  90.615  1.00  0.00     0.006 C 
BRANCH  20  21
ATOM     21  C   UNL     1     -27.029  43.731  91.456  1.00  0.00     0.053 C 
BRANCH  21  22
ATOM     22  C   UNL     1     -28.059  42.897  90.763  1.00  0.00     0.041 C 
ATOM     23  O   UNL     1     -29.158  42.649  91.326  1.00  0.00    -0.550 OA
ATOM     24  O   UNL     1     -27.789  42.359  89.512  1.00  0.00    -0.550 OA
ENDBRANCH  21  22
ENDBRANCH  20  21
ENDBRANCH  19  20
ENDBRANCH  18  19
ENDBRANCH  17  18
ENDBRANCH  16  17
ENDBRANCH  15  16
ENDBRANCH  14  15
ENDBRANCH  13  14
ENDBRANCH   1  13
TORSDOF 20
ENDMDL
MODEL 9
REMARK VINA RESULT:    -5.228      5.256     10.015
REMARK INTER + INTRA:         -13.288
REMARK INTER:                 -10.946
REMARK INTRA:                  -2.342
REMARK UNBOUND:                -1.947
REMARK SMILES CCCCCCCCCCCCCCCCCCCCCC(=O)[O-]
REMARK SMILES IDX 12 1 11 2 10 3 9 4 8 5 7 6 6 7 5 8 4 9 3 10 2 11 1 12 13 13
REMARK SMILES IDX 14 14 15 15 16 16 17 17 18 18 19 19 20 20 21 21 22 22 23 23
REMARK SMILES IDX 24 24
REMARK H PARENT
REMARK Flexibility Score: inf
ROOT
ATOM      1  C   UNL     1     -20.239  44.591  86.557  1.00  0.00     0.000 C 
ENDROOT
BRANCH   1   2
ATOM      2  C   UNL     1     -21.421  45.267  85.836  1.00  0.00     0.000 C 
BRANCH   2   3
ATOM      3  C   UNL     1     -22.373  45.968  86.820  1.00  0.00     0.000 C 
BRANCH   3   4
ATOM      4  C   UNL     1     -22.279  45.386  88.238  1.00  0.00    -0.000 C 
BRANCH   4   5
ATOM      5  C   UNL     1     -23.548  44.597  88.596  1.00  0.00    -0.000 C 
BRANCH   5   6
ATOM      6  C   UNL     1     -24.745  44.948  87.687  1.00  0.00    -0.000 C 
BRANCH   6   7
ATOM      7  C   UNL     1     -25.808  45.842  88.358  1.00  0.00    -0.000 C 
BRANCH   7   8
ATOM      8  C   UNL     1     -25.654  46.029  89.880  1.00  0.00    -0.000 C 
BRANCH   8   9
ATOM      9  C   UNL     1     -26.793  45.422  90.720  1.00  0.00    -0.000 C 
BRANCH   9  10
ATOM     10  C   UNL     1     -26.466  44.008  91.228  1.00  0.00    -0.000 C 
BRANCH  10  11
ATOM     11  C   UNL     1     -27.675  43.064  91.122  1.00  0.00    -0.003 C 
ATOM     12  C   UNL     1     -27.981  42.673  89.675  1.00  0.00     0.004 C 
ENDBRANCH  10  11
ENDBRANCH   9  10
ENDBRANCH   8   9
ENDBRANCH   7   8
ENDBRANCH   6   7
ENDBRANCH   5   6
ENDBRANCH   4   5
ENDBRANCH   3   4
ENDBRANCH   2   3
ENDBRANCH   1   2
BRANCH   1  13
ATOM     13  C   UNL     1     -19.655  43.405  85.773  1.00  0.00     0.000 C 
BRANCH  13  14
ATOM     14  C   UNL     1     -19.848  42.061  86.496  1.00  0.00     0.000 C 
BRANCH  14  15
ATOM     15  C   UNL     1     -21.259  41.888  87.076  1.00  0.00     0.000 C 
BRANCH  15  16
ATOM     16  C   UNL     1     -21.303  41.025  88.356  1.00  0.00     0.000 C 
BRANCH  16  17
ATOM     17  C   UNL     1     -21.001  41.849  89.619  1.00  0.00     0.000 C 
BRANCH  17  18
ATOM     18  C   UNL     1     -20.594  40.978  90.819  1.00  0.00     0.000 C 
BRANCH  18  19
ATOM     19  C   UNL     1     -19.127  40.517  90.749  1.00  0.00     0.000 C 
BRANCH  19  20
ATOM     20  C   UNL     1     -18.945  39.054  91.186  1.00  0.00     0.006 C 
BRANCH  20  21
ATOM     21  C   UNL     1     -18.043  38.263  90.231  1.00  0.00     0.053 C 
BRANCH  21  22
ATOM     22  C   UNL     1     -18.860  37.326  89.400  1.00  0.00     0.041 C 
ATOM     23  O   UNL     1     -18.705  36.081  89.511  1.00  0.00    -0.550 OA
ATOM     24  O   UNL     1     -19.762  37.828  88.472  1.00  0.00    -0.550 OA
ENDBRANCH  21  22
ENDBRANCH  20  21
ENDBRANCH  19  20
ENDBRANCH  18  19
ENDBRANCH  17  18
ENDBRANCH  16  17
ENDBRANCH  15  16
ENDBRANCH  14  15
ENDBRANCH  13  14
ENDBRANCH   1  13
TORSDOF 20
ENDMDL
