MODEL 1
REMARK VINA RESULT:    -5.669      0.000      0.000
REMARK INTER + INTRA:          -6.616
REMARK INTER:                  -6.663
REMARK INTRA:                   0.047
REMARK UNBOUND:                 0.047
REMARK SMILES Oc1ccc(-c2[o+]c3cc(O)cc(O)c3cc2O)cc1.[Cl-]
REMARK SMILES IDX 6 1 7 2 8 3 9 4 10 5 12 6 13 7 15 8 16 9 17 10 5 11 4 12
REMARK SMILES IDX 3 13 2 14 19 15 20 16 1 17 18 19 11 21 14 23
REMARK H PARENT 1 18 18 20 11 22 14 24
REMARK Flexibility Score: inf
ROOT
ATOM      1  C   UNL     1      15.087  17.312  30.848  1.00  0.00     0.401 A 
ATOM      2  O   UNL     1      15.301  17.653  32.116  1.00  0.00    -0.202 OA
ATOM      3  C   UNL     1      16.352  18.361  32.515  1.00  0.00     0.368 A 
ATOM      4  C   UNL     1      16.487  18.673  33.871  1.00  0.00     0.162 A 
ATOM      5  C   UNL     1      17.582  19.420  34.317  1.00  0.00     0.128 A 
ATOM      6  C   UNL     1      18.544  19.857  33.403  1.00  0.00     0.093 A 
ATOM      7  C   UNL     1      18.431  19.558  32.040  1.00  0.00     0.136 A 
ATOM      8  C   UNL     1      17.323  18.798  31.583  1.00  0.00     0.125 A 
ATOM      9  C   UNL     1      17.136  18.440  30.238  1.00  0.00     0.078 A 
ATOM     10  C   UNL     1      16.020  17.685  29.862  1.00  0.00     0.223 A 
ENDROOT
BRANCH   1  11
ATOM     11  C   UNL     1      13.873  16.528  30.527  1.00  0.00     0.084 A 
ATOM     12  C   UNL     1      13.989  15.358  29.759  1.00  0.00     0.022 A 
ATOM     13  C   UNL     1      12.858  14.590  29.463  1.00  0.00     0.047 A 
ATOM     14  C   UNL     1      11.603  14.973  29.943  1.00  0.00     0.115 A 
ATOM     15  C   UNL     1      12.609  16.897  31.024  1.00  0.00     0.022 A 
ATOM     16  C   UNL     1      11.480  16.127  30.727  1.00  0.00     0.047 A 
BRANCH  14  17
ATOM     17  O   UNL     1      10.484  14.199  29.639  1.00  0.00    -0.508 OA
ATOM     18  H   UNL     1       9.634  14.616  29.279  1.00  0.00     0.293 HD
ENDBRANCH  14  17
ENDBRANCH   1  11
BRANCH  10  19
ATOM     19  O   UNL     1      15.860  17.287  28.534  1.00  0.00    -0.500 OA
ATOM     20  H   UNL     1      16.604  16.830  28.021  1.00  0.00     0.294 HD
ENDBRANCH  10  19
BRANCH   5  21
ATOM     21  O   UNL     1      17.723  19.734  35.667  1.00  0.00    -0.507 OA
ATOM     22  H   UNL     1      18.453  20.356  35.993  1.00  0.00     0.293 HD
ENDBRANCH   5  21
BRANCH   7  23
ATOM     23  O   UNL     1      19.434  20.036  31.191  1.00  0.00    -0.507 OA
ATOM     24  H   UNL     1      19.581  19.716  30.246  1.00  0.00     0.293 HD
ENDBRANCH   7  23
TORSDOF 5
ENDMDL
MODEL 2
REMARK VINA RESULT:    -5.561      3.744      8.779
REMARK INTER + INTRA:          -6.489
REMARK INTER:                  -6.323
REMARK INTRA:                  -0.166
REMARK UNBOUND:                 0.047
REMARK SMILES Oc1ccc(-c2[o+]c3cc(O)cc(O)c3cc2O)cc1.[Cl-]
REMARK SMILES IDX 6 1 7 2 8 3 9 4 10 5 12 6 13 7 15 8 16 9 17 10 5 11 4 12
REMARK SMILES IDX 3 13 2 14 19 15 20 16 1 17 18 19 11 21 14 23
REMARK H PARENT 1 18 18 20 11 22 14 24
REMARK Flexibility Score: inf
ROOT
ATOM      1  C   UNL     1      10.616  15.469  31.700  1.00  0.00     0.401 A 
ATOM      2  O   UNL     1       9.577  15.180  30.921  1.00  0.00    -0.202 OA
ATOM      3  C   UNL     1       8.344  15.005  31.383  1.00  0.00     0.368 A 
ATOM      4  C   UNL     1       7.316  14.708  30.484  1.00  0.00     0.162 A 
ATOM      5  C   UNL     1       6.008  14.522  30.944  1.00  0.00     0.128 A 
ATOM      6  C   UNL     1       5.728  14.636  32.307  1.00  0.00     0.093 A 
ATOM      7  C   UNL     1       6.740  14.933  33.228  1.00  0.00     0.136 A 
ATOM      8  C   UNL     1       8.069  15.120  32.767  1.00  0.00     0.125 A 
ATOM      9  C   UNL     1       9.148  15.408  33.618  1.00  0.00     0.078 A 
ATOM     10  C   UNL     1      10.433  15.574  33.092  1.00  0.00     0.223 A 
ENDROOT
BRANCH   1  11
ATOM     11  C   UNL     1      11.941  15.650  31.064  1.00  0.00     0.084 A 
ATOM     12  C   UNL     1      12.490  14.604  30.303  1.00  0.00     0.022 A 
ATOM     13  C   UNL     1      13.730  14.761  29.675  1.00  0.00     0.047 A 
ATOM     14  C   UNL     1      14.427  15.967  29.785  1.00  0.00     0.115 A 
ATOM     15  C   UNL     1      12.638  16.869  31.154  1.00  0.00     0.022 A 
ATOM     16  C   UNL     1      13.877  17.023  30.524  1.00  0.00     0.047 A 
BRANCH  14  17
ATOM     17  O   UNL     1      15.661  16.109  29.155  1.00  0.00    -0.508 OA
ATOM     18  H   UNL     1      16.519  15.792  29.592  1.00  0.00     0.293 HD
ENDBRANCH  14  17
ENDBRANCH   1  11
BRANCH  10  19
ATOM     19  O   UNL     1      11.513  15.811  33.942  1.00  0.00    -0.500 OA
ATOM     20  H   UNL     1      11.406  16.323  34.809  1.00  0.00     0.294 HD
ENDBRANCH  10  19
BRANCH   5  21
ATOM     21  O   UNL     1       4.979  14.225  30.053  1.00  0.00    -0.507 OA
ATOM     22  H   UNL     1       4.019  14.482  30.247  1.00  0.00     0.293 HD
ENDBRANCH   5  21
BRANCH   7  23
ATOM     23  O   UNL     1       6.376  15.034  34.574  1.00  0.00    -0.507 OA
ATOM     24  H   UNL     1       7.030  15.034  35.343  1.00  0.00     0.293 HD
ENDBRANCH   7  23
TORSDOF 5
ENDMDL
MODEL 3
REMARK VINA RESULT:    -5.545      1.808      2.497
REMARK INTER + INTRA:          -6.470
REMARK INTER:                  -6.219
REMARK INTRA:                  -0.251
REMARK UNBOUND:                 0.047
REMARK SMILES Oc1ccc(-c2[o+]c3cc(O)cc(O)c3cc2O)cc1.[Cl-]
REMARK SMILES IDX 6 1 7 2 8 3 9 4 10 5 12 6 13 7 15 8 16 9 17 10 5 11 4 12
REMARK SMILES IDX 3 13 2 14 19 15 20 16 1 17 18 19 11 21 14 23
REMARK H PARENT 1 18 18 20 11 22 14 24
REMARK Flexibility Score: inf
ROOT
ATOM      1  C   UNL     1      14.071  16.231  30.894  1.00  0.00     0.401 A 
ATOM      2  O   UNL     1      14.699  17.095  31.688  1.00  0.00    -0.202 OA
ATOM      3  C   UNL     1      15.825  17.714  31.349  1.00  0.00     0.368 A 
ATOM      4  C   UNL     1      16.408  18.607  32.252  1.00  0.00     0.162 A 
ATOM      5  C   UNL     1      17.591  19.275  31.919  1.00  0.00     0.128 A 
ATOM      6  C   UNL     1      18.192  19.048  30.679  1.00  0.00     0.093 A 
ATOM      7  C   UNL     1      17.627  18.157  29.757  1.00  0.00     0.136 A 
ATOM      8  C   UNL     1      16.428  17.476  30.091  1.00  0.00     0.125 A 
ATOM      9  C   UNL     1      15.799  16.557  29.236  1.00  0.00     0.078 A 
ATOM     10  C   UNL     1      14.620  15.919  29.636  1.00  0.00     0.223 A 
ENDROOT
BRANCH   1  11
ATOM     11  C   UNL     1      12.817  15.613  31.382  1.00  0.00     0.084 A 
ATOM     12  C   UNL     1      12.865  14.711  32.457  1.00  0.00     0.022 A 
ATOM     13  C   UNL     1      11.690  14.132  32.949  1.00  0.00     0.047 A 
ATOM     14  C   UNL     1      10.455  14.460  32.383  1.00  0.00     0.115 A 
ATOM     15  C   UNL     1      11.568  15.954  30.830  1.00  0.00     0.022 A 
ATOM     16  C   UNL     1      10.395  15.375  31.324  1.00  0.00     0.047 A 
BRANCH  14  17
ATOM     17  O   UNL     1       9.293  13.875  32.882  1.00  0.00    -0.508 OA
ATOM     18  H   UNL     1       9.327  13.098  33.532  1.00  0.00     0.293 HD
ENDBRANCH  14  17
ENDBRANCH   1  11
BRANCH  10  19
ATOM     19  O   UNL     1      14.023  14.970  28.807  1.00  0.00    -0.500 OA
ATOM     20  H   UNL     1      13.839  14.025  29.124  1.00  0.00     0.294 HD
ENDBRANCH  10  19
BRANCH   5  21
ATOM     21  O   UNL     1      18.177  20.167  32.814  1.00  0.00    -0.507 OA
ATOM     22  H   UNL     1      17.629  20.864  33.303  1.00  0.00     0.293 HD
ENDBRANCH   5  21
BRANCH   7  23
ATOM     23  O   UNL     1      18.289  17.989  28.537  1.00  0.00    -0.507 OA
ATOM     24  H   UNL     1      17.890  17.533  27.731  1.00  0.00     0.293 HD
ENDBRANCH   7  23
TORSDOF 5
ENDMDL
MODEL 4
REMARK VINA RESULT:    -5.275      2.748      4.092
REMARK INTER + INTRA:          -6.153
REMARK INTER:                  -5.835
REMARK INTRA:                  -0.318
REMARK UNBOUND:                 0.047
REMARK SMILES Oc1ccc(-c2[o+]c3cc(O)cc(O)c3cc2O)cc1.[Cl-]
REMARK SMILES IDX 6 1 7 2 8 3 9 4 10 5 12 6 13 7 15 8 16 9 17 10 5 11 4 12
REMARK SMILES IDX 3 13 2 14 19 15 20 16 1 17 18 19 11 21 14 23
REMARK H PARENT 1 18 18 20 11 22 14 24
REMARK Flexibility Score: inf
ROOT
ATOM      1  C   UNL     1      13.059  16.177  32.368  1.00  0.00     0.401 A 
ATOM      2  O   UNL     1      14.035  16.979  32.785  1.00  0.00    -0.202 OA
ATOM      3  C   UNL     1      14.982  17.456  31.983  1.00  0.00     0.368 A 
ATOM      4  C   UNL     1      15.964  18.295  32.516  1.00  0.00     0.162 A 
ATOM      5  C   UNL     1      16.970  18.814  31.693  1.00  0.00     0.128 A 
ATOM      6  C   UNL     1      16.991  18.493  30.334  1.00  0.00     0.093 A 
ATOM      7  C   UNL     1      16.018  17.654  29.777  1.00  0.00     0.136 A 
ATOM      8  C   UNL     1      14.997  17.124  30.607  1.00  0.00     0.125 A 
ATOM      9  C   UNL     1      13.989  16.266  30.139  1.00  0.00     0.078 A 
ATOM     10  C   UNL     1      13.017  15.777  31.019  1.00  0.00     0.223 A 
ENDROOT
BRANCH   1  11
ATOM     11  C   UNL     1      12.057  15.719  33.357  1.00  0.00     0.084 A 
ATOM     12  C   UNL     1      10.880  16.463  33.542  1.00  0.00     0.022 A 
ATOM     13  C   UNL     1       9.909  16.037  34.454  1.00  0.00     0.047 A 
ATOM     14  C   UNL     1      10.095  14.857  35.180  1.00  0.00     0.115 A 
ATOM     15  C   UNL     1      12.229  14.522  34.075  1.00  0.00     0.022 A 
ATOM     16  C   UNL     1      11.257  14.098  34.986  1.00  0.00     0.047 A 
BRANCH  14  17
ATOM     17  O   UNL     1       9.121  14.445  36.086  1.00  0.00    -0.508 OA
ATOM     18  H   UNL     1       8.286  14.995  36.253  1.00  0.00     0.293 HD
ENDBRANCH  14  17
ENDBRANCH   1  11
BRANCH  10  19
ATOM     19  O   UNL     1      12.046  14.886  30.563  1.00  0.00    -0.500 OA
ATOM     20  H   UNL     1      11.129  15.200  30.272  1.00  0.00     0.294 HD
ENDBRANCH  10  19
BRANCH   5  21
ATOM     21  O   UNL     1      17.952  19.651  32.217  1.00  0.00    -0.507 OA
ATOM     22  H   UNL     1      17.850  20.083  33.128  1.00  0.00     0.293 HD
ENDBRANCH   5  21
BRANCH   7  23
ATOM     23  O   UNL     1      16.107  17.385  28.408  1.00  0.00    -0.507 OA
ATOM     24  H   UNL     1      15.625  16.632  27.942  1.00  0.00     0.293 HD
ENDBRANCH   7  23
TORSDOF 5
ENDMDL
MODEL 5
REMARK VINA RESULT:    -5.198      3.141      4.760
REMARK INTER + INTRA:          -6.062
REMARK INTER:                  -5.798
REMARK INTRA:                  -0.264
REMARK UNBOUND:                 0.047
REMARK SMILES Oc1ccc(-c2[o+]c3cc(O)cc(O)c3cc2O)cc1.[Cl-]
REMARK SMILES IDX 6 1 7 2 8 3 9 4 10 5 12 6 13 7 15 8 16 9 17 10 5 11 4 12
REMARK SMILES IDX 3 13 2 14 19 15 20 16 1 17 18 19 11 21 14 23
REMARK H PARENT 1 18 18 20 11 22 14 24
REMARK Flexibility Score: inf
ROOT
ATOM      1  C   UNL     1      13.507  16.994  33.760  1.00  0.00     0.401 A 
ATOM      2  O   UNL     1      13.728  16.810  32.461  1.00  0.00    -0.202 OA
ATOM      3  C   UNL     1      14.763  17.337  31.815  1.00  0.00     0.368 A 
ATOM      4  C   UNL     1      14.911  17.084  30.448  1.00  0.00     0.162 A 
ATOM      5  C   UNL     1      15.994  17.624  29.745  1.00  0.00     0.128 A 
ATOM      6  C   UNL     1      16.930  18.418  30.412  1.00  0.00     0.093 A 
ATOM      7  C   UNL     1      16.803  18.686  31.780  1.00  0.00     0.136 A 
ATOM      8  C   UNL     1      15.706  18.143  32.498  1.00  0.00     0.125 A 
ATOM      9  C   UNL     1      15.491  18.369  33.867  1.00  0.00     0.078 A 
ATOM     10  C   UNL     1      14.383  17.804  34.507  1.00  0.00     0.223 A 
ENDROOT
BRANCH   1  11
ATOM     11  C   UNL     1      12.323  16.345  34.368  1.00  0.00     0.084 A 
ATOM     12  C   UNL     1      11.037  16.803  34.035  1.00  0.00     0.022 A 
ATOM     13  C   UNL     1       9.904  16.191  34.579  1.00  0.00     0.047 A 
ATOM     14  C   UNL     1      10.040  15.106  35.450  1.00  0.00     0.115 A 
ATOM     15  C   UNL     1      12.452  15.240  35.229  1.00  0.00     0.022 A 
ATOM     16  C   UNL     1      11.317  14.629  35.771  1.00  0.00     0.047 A 
BRANCH  14  17
ATOM     17  O   UNL     1       8.903  14.507  35.986  1.00  0.00    -0.508 OA
ATOM     18  H   UNL     1       8.047  15.030  36.133  1.00  0.00     0.293 HD
ENDBRANCH  14  17
ENDBRANCH   1  11
BRANCH  10  19
ATOM     19  O   UNL     1      14.143  18.069  35.855  1.00  0.00    -0.500 OA
ATOM     20  H   UNL     1      14.694  17.641  36.589  1.00  0.00     0.294 HD
ENDBRANCH  10  19
BRANCH   5  21
ATOM     21  O   UNL     1      16.148  17.376  28.383  1.00  0.00    -0.507 OA
ATOM     22  H   UNL     1      15.805  16.523  27.957  1.00  0.00     0.293 HD
ENDBRANCH   5  21
BRANCH   7  23
ATOM     23  O   UNL     1      17.784  19.486  32.373  1.00  0.00    -0.507 OA
ATOM     24  H   UNL     1      17.621  20.414  32.734  1.00  0.00     0.293 HD
ENDBRANCH   7  23
TORSDOF 5
ENDMDL
MODEL 6
REMARK VINA RESULT:    -5.184      2.276      4.010
REMARK INTER + INTRA:          -6.046
REMARK INTER:                  -5.724
REMARK INTRA:                  -0.322
REMARK UNBOUND:                 0.047
REMARK SMILES Oc1ccc(-c2[o+]c3cc(O)cc(O)c3cc2O)cc1.[Cl-]
REMARK SMILES IDX 6 1 7 2 8 3 9 4 10 5 12 6 13 7 15 8 16 9 17 10 5 11 4 12
REMARK SMILES IDX 3 13 2 14 19 15 20 16 1 17 18 19 11 21 14 23
REMARK H PARENT 1 18 18 20 11 22 14 24
REMARK Flexibility Score: inf
ROOT
ATOM      1  C   UNL     1      16.760  18.005  30.996  1.00  0.00     0.401 A 
ATOM      2  O   UNL     1      17.497  17.914  29.892  1.00  0.00    -0.202 OA
ATOM      3  C   UNL     1      18.547  18.691  29.649  1.00  0.00     0.368 A 
ATOM      4  C   UNL     1      19.261  18.516  28.460  1.00  0.00     0.162 A 
ATOM      5  C   UNL     1      20.372  19.319  28.181  1.00  0.00     0.128 A 
ATOM      6  C   UNL     1      20.770  20.298  29.094  1.00  0.00     0.093 A 
ATOM      7  C   UNL     1      20.071  20.492  30.291  1.00  0.00     0.136 A 
ATOM      8  C   UNL     1      18.942  19.683  30.579  1.00  0.00     0.125 A 
ATOM      9  C   UNL     1      18.174  19.815  31.747  1.00  0.00     0.078 A 
ATOM     10  C   UNL     1      17.070  18.984  31.960  1.00  0.00     0.223 A 
ENDROOT
BRANCH   1  11
ATOM     11  C   UNL     1      15.619  17.075  31.157  1.00  0.00     0.084 A 
ATOM     12  C   UNL     1      14.395  17.369  30.533  1.00  0.00     0.022 A 
ATOM     13  C   UNL     1      13.311  16.493  30.652  1.00  0.00     0.047 A 
ATOM     14  C   UNL     1      13.441  15.308  31.383  1.00  0.00     0.115 A 
ATOM     15  C   UNL     1      15.750  15.871  31.874  1.00  0.00     0.022 A 
ATOM     16  C   UNL     1      14.664  14.997  31.991  1.00  0.00     0.047 A 
BRANCH  14  17
ATOM     17  O   UNL     1      12.353  14.446  31.495  1.00  0.00    -0.508 OA
ATOM     18  H   UNL     1      11.570  14.657  32.102  1.00  0.00     0.293 HD
ENDBRANCH  14  17
ENDBRANCH   1  11
BRANCH  10  19
ATOM     19  O   UNL     1      16.279  19.149  33.096  1.00  0.00    -0.500 OA
ATOM     20  H   UNL     1      16.545  19.777  33.845  1.00  0.00     0.294 HD
ENDBRANCH  10  19
BRANCH   5  21
ATOM     21  O   UNL     1      21.088  19.150  26.998  1.00  0.00    -0.507 OA
ATOM     22  H   UNL     1      22.030  19.507  26.892  1.00  0.00     0.293 HD
ENDBRANCH   5  21
BRANCH   7  23
ATOM     23  O   UNL     1      20.536  21.490  31.153  1.00  0.00    -0.507 OA
ATOM     24  H   UNL     1      21.165  22.230  30.882  1.00  0.00     0.293 HD
ENDBRANCH   7  23
TORSDOF 5
ENDMDL
MODEL 7
REMARK VINA RESULT:    -5.157      2.095      2.839
REMARK INTER + INTRA:          -6.014
REMARK INTER:                  -5.973
REMARK INTRA:                  -0.041
REMARK UNBOUND:                 0.047
REMARK SMILES Oc1ccc(-c2[o+]c3cc(O)cc(O)c3cc2O)cc1.[Cl-]
REMARK SMILES IDX 6 1 7 2 8 3 9 4 10 5 12 6 13 7 15 8 16 9 17 10 5 11 4 12
REMARK SMILES IDX 3 13 2 14 19 15 20 16 1 17 18 19 11 21 14 23
REMARK H PARENT 1 18 18 20 11 22 14 24
REMARK Flexibility Score: inf
ROOT
ATOM      1  C   UNL     1      15.028  17.267  31.154  1.00  0.00     0.401 A 
ATOM      2  O   UNL     1      15.846  18.144  31.729  1.00  0.00    -0.202 OA
ATOM      3  C   UNL     1      16.964  18.582  31.161  1.00  0.00     0.368 A 
ATOM      4  C   UNL     1      17.757  19.508  31.845  1.00  0.00     0.162 A 
ATOM      5  C   UNL     1      18.937  19.988  31.268  1.00  0.00     0.128 A 
ATOM      6  C   UNL     1      19.325  19.541  30.003  1.00  0.00     0.093 A 
ATOM      7  C   UNL     1      18.548  18.613  29.298  1.00  0.00     0.136 A 
ATOM      8  C   UNL     1      17.351  18.122  29.880  1.00  0.00     0.125 A 
ATOM      9  C   UNL     1      16.517  17.182  29.252  1.00  0.00     0.078 A 
ATOM     10  C   UNL     1      15.354  16.739  29.890  1.00  0.00     0.223 A 
ENDROOT
BRANCH   1  11
ATOM     11  C   UNL     1      13.806  16.863  31.885  1.00  0.00     0.084 A 
ATOM     12  C   UNL     1      13.899  16.499  33.239  1.00  0.00     0.022 A 
ATOM     13  C   UNL     1      12.754  16.136  33.955  1.00  0.00     0.047 A 
ATOM     14  C   UNL     1      11.502  16.147  33.333  1.00  0.00     0.115 A 
ATOM     15  C   UNL     1      12.540  16.891  31.270  1.00  0.00     0.022 A 
ATOM     16  C   UNL     1      11.397  16.529  31.989  1.00  0.00     0.047 A 
BRANCH  14  17
ATOM     17  O   UNL     1      10.370  15.781  34.058  1.00  0.00    -0.508 OA
ATOM     18  H   UNL     1       9.730  16.475  34.426  1.00  0.00     0.293 HD
ENDBRANCH  14  17
ENDBRANCH   1  11
BRANCH  10  19
ATOM     19  O   UNL     1      14.553  15.769  29.288  1.00  0.00    -0.500 OA
ATOM     20  H   UNL     1      14.170  14.992  29.814  1.00  0.00     0.294 HD
ENDBRANCH  10  19
BRANCH   5  21
ATOM     21  O   UNL     1      19.732  20.911  31.945  1.00  0.00    -0.507 OA
ATOM     22  H   UNL     1      20.067  21.754  31.493  1.00  0.00     0.293 HD
ENDBRANCH   5  21
BRANCH   7  23
ATOM     23  O   UNL     1      19.004  18.219  28.037  1.00  0.00    -0.507 OA
ATOM     24  H   UNL     1      18.409  18.076  27.235  1.00  0.00     0.293 HD
ENDBRANCH   7  23
TORSDOF 5
ENDMDL
MODEL 8
REMARK VINA RESULT:    -5.107      2.986      7.956
REMARK INTER + INTRA:          -5.955
REMARK INTER:                  -5.644
REMARK INTRA:                  -0.312
REMARK UNBOUND:                 0.047
REMARK SMILES Oc1ccc(-c2[o+]c3cc(O)cc(O)c3cc2O)cc1.[Cl-]
REMARK SMILES IDX 6 1 7 2 8 3 9 4 10 5 12 6 13 7 15 8 16 9 17 10 5 11 4 12
REMARK SMILES IDX 3 13 2 14 19 15 20 16 1 17 18 19 11 21 14 23
REMARK H PARENT 1 18 18 20 11 22 14 24
REMARK Flexibility Score: inf
ROOT
ATOM      1  C   UNL     1      12.630  15.568  30.848  1.00  0.00     0.401 A 
ATOM      2  O   UNL     1      11.863  15.223  29.817  1.00  0.00    -0.202 OA
ATOM      3  C   UNL     1      10.579  14.904  29.937  1.00  0.00     0.368 A 
ATOM      4  C   UNL     1       9.855  14.558  28.792  1.00  0.00     0.162 A 
ATOM      5  C   UNL     1       8.500  14.221  28.890  1.00  0.00     0.128 A 
ATOM      6  C   UNL     1       7.869  14.233  30.136  1.00  0.00     0.093 A 
ATOM      7  C   UNL     1       8.573  14.576  31.296  1.00  0.00     0.136 A 
ATOM      8  C   UNL     1       9.947  14.916  31.204  1.00  0.00     0.125 A 
ATOM      9  C   UNL     1      10.734  15.260  32.315  1.00  0.00     0.078 A 
ATOM     10  C   UNL     1      12.086  15.579  32.146  1.00  0.00     0.223 A 
ENDROOT
BRANCH   1  11
ATOM     11  C   UNL     1      14.046  15.911  30.585  1.00  0.00     0.084 A 
ATOM     12  C   UNL     1      14.980  14.881  30.381  1.00  0.00     0.022 A 
ATOM     13  C   UNL     1      16.318  15.183  30.108  1.00  0.00     0.047 A 
ATOM     14  C   UNL     1      16.736  16.514  30.021  1.00  0.00     0.115 A 
ATOM     15  C   UNL     1      14.469  17.249  30.476  1.00  0.00     0.022 A 
ATOM     16  C   UNL     1      15.808  17.547  30.202  1.00  0.00     0.047 A 
BRANCH  14  17
ATOM     17  O   UNL     1      18.072  16.799  29.751  1.00  0.00    -0.508 OA
ATOM     18  H   UNL     1      18.803  16.603  30.425  1.00  0.00     0.293 HD
ENDBRANCH  14  17
ENDBRANCH   1  11
BRANCH  10  19
ATOM     19  O   UNL     1      12.878  15.873  33.255  1.00  0.00    -0.500 OA
ATOM     20  H   UNL     1      12.501  15.873  34.195  1.00  0.00     0.294 HD
ENDBRANCH  10  19
BRANCH   5  21
ATOM     21  O   UNL     1       7.773  13.875  27.754  1.00  0.00    -0.507 OA
ATOM     22  H   UNL     1       8.024  14.224  26.836  1.00  0.00     0.293 HD
ENDBRANCH   5  21
BRANCH   7  23
ATOM     23  O   UNL     1       7.867  14.567  32.503  1.00  0.00    -0.507 OA
ATOM     24  H   UNL     1       6.952  14.970  32.632  1.00  0.00     0.293 HD
ENDBRANCH   7  23
TORSDOF 5
ENDMDL
MODEL 9
REMARK VINA RESULT:    -5.080      2.225      6.057
REMARK INTER + INTRA:          -5.923
REMARK INTER:                  -5.615
REMARK INTRA:                  -0.308
REMARK UNBOUND:                 0.047
REMARK SMILES Oc1ccc(-c2[o+]c3cc(O)cc(O)c3cc2O)cc1.[Cl-]
REMARK SMILES IDX 6 1 7 2 8 3 9 4 10 5 12 6 13 7 15 8 16 9 17 10 5 11 4 12
REMARK SMILES IDX 3 13 2 14 19 15 20 16 1 17 18 19 11 21 14 23
REMARK H PARENT 1 18 18 20 11 22 14 24
REMARK Flexibility Score: inf
ROOT
ATOM      1  C   UNL     1      15.803  17.336  30.997  1.00  0.00     0.401 A 
ATOM      2  O   UNL     1      15.434  17.456  32.269  1.00  0.00    -0.202 OA
ATOM      3  C   UNL     1      14.219  17.143  32.710  1.00  0.00     0.368 A 
ATOM      4  C   UNL     1      13.927  17.301  34.067  1.00  0.00     0.162 A 
ATOM      5  C   UNL     1      12.658  16.976  34.557  1.00  0.00     0.128 A 
ATOM      6  C   UNL     1      11.679  16.491  33.687  1.00  0.00     0.093 A 
ATOM      7  C   UNL     1      11.948  16.325  32.323  1.00  0.00     0.136 A 
ATOM      8  C   UNL     1      13.233  16.655  31.820  1.00  0.00     0.125 A 
ATOM      9  C   UNL     1      13.587  16.533  30.466  1.00  0.00     0.078 A 
ATOM     10  C   UNL     1      14.873  16.883  30.042  1.00  0.00     0.223 A 
ENDROOT
BRANCH   1  11
ATOM     11  C   UNL     1      17.189  17.708  30.631  1.00  0.00     0.084 A 
ATOM     12  C   UNL     1      17.531  19.066  30.512  1.00  0.00     0.022 A 
ATOM     13  C   UNL     1      18.839  19.441  30.190  1.00  0.00     0.047 A 
ATOM     14  C   UNL     1      19.823  18.467  29.998  1.00  0.00     0.115 A 
ATOM     15  C   UNL     1      18.189  16.734  30.457  1.00  0.00     0.022 A 
ATOM     16  C   UNL     1      19.496  17.112  30.136  1.00  0.00     0.047 A 
BRANCH  14  17
ATOM     17  O   UNL     1      21.122  18.855  29.676  1.00  0.00    -0.508 OA
ATOM     18  H   UNL     1      21.326  19.784  29.327  1.00  0.00     0.293 HD
ENDBRANCH  14  17
ENDBRANCH   1  11
BRANCH  10  19
ATOM     19  O   UNL     1      15.209  16.809  28.691  1.00  0.00    -0.500 OA
ATOM     20  H   UNL     1      16.120  16.491  28.385  1.00  0.00     0.294 HD
ENDBRANCH  10  19
BRANCH   5  21
ATOM     21  O   UNL     1      12.360  17.130  35.909  1.00  0.00    -0.507 OA
ATOM     22  H   UNL     1      11.465  17.491  36.217  1.00  0.00     0.293 HD
ENDBRANCH   5  21
BRANCH   7  23
ATOM     23  O   UNL     1      10.916  15.831  31.519  1.00  0.00    -0.507 OA
ATOM     24  H   UNL     1      10.703  16.168  30.592  1.00  0.00     0.293 HD
ENDBRANCH   7  23
TORSDOF 5
ENDMDL
