MODEL 1
REMARK VINA RESULT:    -6.073      0.000      0.000
REMARK INTER + INTRA:         -12.993
REMARK INTER:                 -11.044
REMARK INTRA:                  -1.949
REMARK UNBOUND:                -1.949
REMARK SMILES CCCCCCCCCCCCCC[C@H](C)C(=O)[O-]
REMARK SMILES IDX 9 1 10 2 11 3 12 4 13 5 14 6 15 7 16 8 17 9 18 10 19 11 8 12
REMARK SMILES IDX 7 13 6 14 5 15 4 16 3 17 2 18 1 19
REMARK H PARENT
REMARK Flexibility Score: inf
ROOT
ATOM      1  C   UNL     1      25.783   1.087  62.780  1.00  0.00     0.000 C 
ENDROOT
BRANCH   1   2
ATOM      2  C   UNL     1      25.069  -0.058  62.040  1.00  0.00     0.000 C 
BRANCH   2   3
ATOM      3  C   UNL     1      25.990  -1.200  61.562  1.00  0.00     0.000 C 
BRANCH   3   4
ATOM      4  C   UNL     1      25.625  -2.599  62.090  1.00  0.00     0.000 C 
BRANCH   4   5
ATOM      5  C   UNL     1      24.148  -2.718  62.497  1.00  0.00     0.001 C 
BRANCH   5   6
ATOM      6  C   UNL     1      23.358  -3.536  61.463  1.00  0.00     0.009 C 
BRANCH   6   7
ATOM      7  C   UNL     1      22.840  -2.676  60.291  1.00  0.00     0.032 C 
ATOM      8  C   UNL     1      21.336  -2.868  60.049  1.00  0.00     0.014 C 
BRANCH   7   9
ATOM      9  C   UNL     1      23.597  -3.018  59.037  1.00  0.00     0.044 C 
ATOM     10  O   UNL     1      24.695  -3.629  59.109  1.00  0.00    -0.550 OA
ATOM     11  O   UNL     1      23.090  -2.663  57.793  1.00  0.00    -0.550 OA
ENDBRANCH   7   9
ENDBRANCH   6   7
ENDBRANCH   5   6
ENDBRANCH   4   5
ENDBRANCH   3   4
ENDBRANCH   2   3
ENDBRANCH   1   2
BRANCH   1  12
ATOM     12  C   UNL     1      25.478   2.468  62.174  1.00  0.00     0.000 C 
BRANCH  12  13
ATOM     13  C   UNL     1      25.252   3.547  63.245  1.00  0.00    -0.000 C 
BRANCH  13  14
ATOM     14  C   UNL     1      24.935   2.948  64.626  1.00  0.00    -0.000 C 
BRANCH  14  15
ATOM     15  C   UNL     1      23.557   3.381  65.154  1.00  0.00    -0.000 C 
BRANCH  15  16
ATOM     16  C   UNL     1      22.487   3.428  64.052  1.00  0.00    -0.000 C 
BRANCH  16  17
ATOM     17  C   UNL     1      21.788   2.066  63.912  1.00  0.00    -0.000 C 
BRANCH  17  18
ATOM     18  C   UNL     1      21.786   1.550  62.464  1.00  0.00    -0.003 C 
ATOM     19  C   UNL     1      21.345   0.090  62.358  1.00  0.00     0.004 C 
ENDBRANCH  17  18
ENDBRANCH  16  17
ENDBRANCH  15  16
ENDBRANCH  14  15
ENDBRANCH  13  14
ENDBRANCH  12  13
ENDBRANCH   1  12
TORSDOF 14
ENDMDL
MODEL 2
REMARK VINA RESULT:    -6.054      3.046      7.069
REMARK INTER + INTRA:         -12.959
REMARK INTER:                 -11.350
REMARK INTRA:                  -1.609
REMARK UNBOUND:                -1.949
REMARK SMILES CCCCCCCCCCCCCC[C@H](C)C(=O)[O-]
REMARK SMILES IDX 9 1 10 2 11 3 12 4 13 5 14 6 15 7 16 8 17 9 18 10 19 11 8 12
REMARK SMILES IDX 7 13 6 14 5 15 4 16 3 17 2 18 1 19
REMARK H PARENT
REMARK Flexibility Score: inf
ROOT
ATOM      1  C   UNL     1      21.233  -0.451  62.361  1.00  0.00     0.000 C 
ENDROOT
BRANCH   1   2
ATOM      2  C   UNL     1      21.730   1.004  62.317  1.00  0.00     0.000 C 
BRANCH   2   3
ATOM      3  C   UNL     1      21.464   1.823  63.597  1.00  0.00     0.000 C 
BRANCH   3   4
ATOM      4  C   UNL     1      22.192   3.177  63.671  1.00  0.00     0.000 C 
BRANCH   4   5
ATOM      5  C   UNL     1      23.191   3.382  62.521  1.00  0.00     0.001 C 
BRANCH   5   6
ATOM      6  C   UNL     1      24.493   4.018  63.032  1.00  0.00     0.009 C 
BRANCH   6   7
ATOM      7  C   UNL     1      25.661   3.011  63.103  1.00  0.00     0.032 C 
ATOM      8  C   UNL     1      25.362   1.717  62.333  1.00  0.00     0.014 C 
BRANCH   7   9
ATOM      9  C   UNL     1      25.959   2.682  64.540  1.00  0.00     0.044 C 
ATOM     10  O   UNL     1      26.977   2.001  64.834  1.00  0.00    -0.550 OA
ATOM     11  O   UNL     1      25.116   3.125  65.552  1.00  0.00    -0.550 OA
ENDBRANCH   7   9
ENDBRANCH   6   7
ENDBRANCH   5   6
ENDBRANCH   4   5
ENDBRANCH   3   4
ENDBRANCH   2   3
ENDBRANCH   1   2
BRANCH   1  12
ATOM     12  C   UNL     1      22.228  -1.439  61.726  1.00  0.00     0.000 C 
BRANCH  12  13
ATOM     13  C   UNL     1      21.627  -2.200  60.533  1.00  0.00    -0.000 C 
BRANCH  13  14
ATOM     14  C   UNL     1      22.488  -3.401  60.108  1.00  0.00    -0.000 C 
BRANCH  14  15
ATOM     15  C   UNL     1      23.555  -3.024  59.066  1.00  0.00    -0.000 C 
BRANCH  15  16
ATOM     16  C   UNL     1      24.970  -3.453  59.483  1.00  0.00    -0.000 C 
BRANCH  16  17
ATOM     17  C   UNL     1      25.851  -2.226  59.766  1.00  0.00    -0.000 C 
BRANCH  17  18
ATOM     18  C   UNL     1      25.838  -1.819  61.248  1.00  0.00    -0.003 C 
ATOM     19  C   UNL     1      25.509  -2.986  62.179  1.00  0.00     0.004 C 
ENDBRANCH  17  18
ENDBRANCH  16  17
ENDBRANCH  15  16
ENDBRANCH  14  15
ENDBRANCH  13  14
ENDBRANCH  12  13
ENDBRANCH   1  12
TORSDOF 14
ENDMDL
MODEL 3
REMARK VINA RESULT:    -6.012      1.109      3.373
REMARK INTER + INTRA:         -12.881
REMARK INTER:                 -11.304
REMARK INTRA:                  -1.577
REMARK UNBOUND:                -1.949
REMARK SMILES CCCCCCCCCCCCCC[C@H](C)C(=O)[O-]
REMARK SMILES IDX 9 1 10 2 11 3 12 4 13 5 14 6 15 7 16 8 17 9 18 10 19 11 8 12
REMARK SMILES IDX 7 13 6 14 5 15 4 16 3 17 2 18 1 19
REMARK H PARENT
REMARK Flexibility Score: inf
ROOT
ATOM      1  C   UNL     1      21.096   0.153  62.367  1.00  0.00     0.000 C 
ENDROOT
BRANCH   1   2
ATOM      2  C   UNL     1      21.940  -1.077  61.994  1.00  0.00     0.000 C 
BRANCH   2   3
ATOM      3  C   UNL     1      21.494  -1.810  60.711  1.00  0.00     0.000 C 
BRANCH   3   4
ATOM      4  C   UNL     1      22.098  -3.212  60.515  1.00  0.00     0.000 C 
BRANCH   4   5
ATOM      5  C   UNL     1      23.157  -3.561  61.572  1.00  0.00     0.001 C 
BRANCH   5   6
ATOM      6  C   UNL     1      24.400  -4.185  60.920  1.00  0.00     0.009 C 
BRANCH   6   7
ATOM      7  C   UNL     1      25.628  -3.252  60.961  1.00  0.00     0.032 C 
ATOM      8  C   UNL     1      25.433  -2.074  61.926  1.00  0.00     0.014 C 
BRANCH   7   9
ATOM      9  C   UNL     1      25.911  -2.726  59.580  1.00  0.00     0.044 C 
ATOM     10  O   UNL     1      26.907  -1.982  59.379  1.00  0.00    -0.550 OA
ATOM     11  O   UNL     1      25.077  -3.056  58.518  1.00  0.00    -0.550 OA
ENDBRANCH   7   9
ENDBRANCH   6   7
ENDBRANCH   5   6
ENDBRANCH   4   5
ENDBRANCH   3   4
ENDBRANCH   2   3
ENDBRANCH   1   2
BRANCH   1  12
ATOM     12  C   UNL     1      21.952   1.408  62.615  1.00  0.00     0.000 C 
BRANCH  12  13
ATOM     13  C   UNL     1      21.523   2.177  63.875  1.00  0.00    -0.000 C 
BRANCH  13  14
ATOM     14  C   UNL     1      22.439   3.376  64.174  1.00  0.00    -0.000 C 
BRANCH  14  15
ATOM     15  C   UNL     1      23.505   3.054  65.234  1.00  0.00    -0.000 C 
BRANCH  15  16
ATOM     16  C   UNL     1      24.938   3.179  64.693  1.00  0.00    -0.000 C 
BRANCH  16  17
ATOM     17  C   UNL     1      24.939   3.816  63.294  1.00  0.00    -0.000 C 
BRANCH  17  18
ATOM     18  C   UNL     1      25.477   2.865  62.213  1.00  0.00    -0.003 C 
ATOM     19  C   UNL     1      25.799   1.473  62.757  1.00  0.00     0.004 C 
ENDBRANCH  17  18
ENDBRANCH  16  17
ENDBRANCH  15  16
ENDBRANCH  14  15
ENDBRANCH  13  14
ENDBRANCH  12  13
ENDBRANCH   1  12
TORSDOF 14
ENDMDL
MODEL 4
REMARK VINA RESULT:    -5.995      1.643      2.339
REMARK INTER + INTRA:         -12.852
REMARK INTER:                 -11.156
REMARK INTRA:                  -1.696
REMARK UNBOUND:                -1.949
REMARK SMILES CCCCCCCCCCCCCC[C@H](C)C(=O)[O-]
REMARK SMILES IDX 9 1 10 2 11 3 12 4 13 5 14 6 15 7 16 8 17 9 18 10 19 11 8 12
REMARK SMILES IDX 7 13 6 14 5 15 4 16 3 17 2 18 1 19
REMARK H PARENT
REMARK Flexibility Score: inf
ROOT
ATOM      1  C   UNL     1      25.094   0.219  62.083  1.00  0.00     0.000 C 
ENDROOT
BRANCH   1   2
ATOM      2  C   UNL     1      25.857  -1.109  61.934  1.00  0.00     0.000 C 
BRANCH   2   3
ATOM      3  C   UNL     1      26.198  -1.505  60.482  1.00  0.00     0.000 C 
BRANCH   3   4
ATOM      4  C   UNL     1      25.860  -2.958  60.104  1.00  0.00     0.000 C 
BRANCH   4   5
ATOM      5  C   UNL     1      24.542  -3.083  59.325  1.00  0.00     0.001 C 
BRANCH   5   6
ATOM      6  C   UNL     1      23.589  -4.073  60.013  1.00  0.00     0.009 C 
BRANCH   6   7
ATOM      7  C   UNL     1      22.298  -3.401  60.527  1.00  0.00     0.032 C 
ATOM      8  C   UNL     1      21.716  -2.407  59.511  1.00  0.00     0.014 C 
BRANCH   7   9
ATOM      9  C   UNL     1      22.577  -2.688  61.822  1.00  0.00     0.044 C 
ATOM     10  O   UNL     1      22.097  -1.542  62.029  1.00  0.00    -0.550 OA
ATOM     11  O   UNL     1      23.365  -3.288  62.797  1.00  0.00    -0.550 OA
ENDBRANCH   7   9
ENDBRANCH   6   7
ENDBRANCH   5   6
ENDBRANCH   4   5
ENDBRANCH   3   4
ENDBRANCH   2   3
ENDBRANCH   1   2
BRANCH   1  12
ATOM     12  C   UNL     1      25.941   1.319  62.749  1.00  0.00     0.000 C 
BRANCH  12  13
ATOM     13  C   UNL     1      25.578   2.727  62.251  1.00  0.00    -0.000 C 
BRANCH  13  14
ATOM     14  C   UNL     1      25.458   3.744  63.399  1.00  0.00    -0.000 C 
BRANCH  14  15
ATOM     15  C   UNL     1      25.428   3.072  64.782  1.00  0.00    -0.000 C 
BRANCH  15  16
ATOM     16  C   UNL     1      24.025   3.071  65.410  1.00  0.00    -0.000 C 
BRANCH  16  17
ATOM     17  C   UNL     1      22.990   3.654  64.436  1.00  0.00    -0.000 C 
BRANCH  17  18
ATOM     18  C   UNL     1      21.801   2.709  64.203  1.00  0.00    -0.003 C 
ATOM     19  C   UNL     1      21.926   1.910  62.906  1.00  0.00     0.004 C 
ENDBRANCH  17  18
ENDBRANCH  16  17
ENDBRANCH  15  16
ENDBRANCH  14  15
ENDBRANCH  13  14
ENDBRANCH  12  13
ENDBRANCH   1  12
TORSDOF 14
ENDMDL
MODEL 5
REMARK VINA RESULT:    -5.990      2.382      6.218
REMARK INTER + INTRA:         -12.843
REMARK INTER:                 -11.047
REMARK INTRA:                  -1.796
REMARK UNBOUND:                -1.949
REMARK SMILES CCCCCCCCCCCCCC[C@H](C)C(=O)[O-]
REMARK SMILES IDX 9 1 10 2 11 3 12 4 13 5 14 6 15 7 16 8 17 9 18 10 19 11 8 12
REMARK SMILES IDX 7 13 6 14 5 15 4 16 3 17 2 18 1 19
REMARK H PARENT
REMARK Flexibility Score: inf
ROOT
ATOM      1  C   UNL     1      25.042  -0.111  62.325  1.00  0.00     0.000 C 
ENDROOT
BRANCH   1   2
ATOM      2  C   UNL     1      25.903   1.155  62.474  1.00  0.00     0.000 C 
BRANCH   2   3
ATOM      3  C   UNL     1      26.279   1.520  63.925  1.00  0.00     0.000 C 
BRANCH   3   4
ATOM      4  C   UNL     1      25.967   2.970  64.337  1.00  0.00     0.000 C 
BRANCH   4   5
ATOM      5  C   UNL     1      24.601   3.115  65.026  1.00  0.00     0.001 C 
BRANCH   5   6
ATOM      6  C   UNL     1      23.701   4.097  64.261  1.00  0.00     0.009 C 
BRANCH   6   7
ATOM      7  C   UNL     1      22.385   3.450  63.779  1.00  0.00     0.032 C 
ATOM      8  C   UNL     1      21.826   2.444  64.794  1.00  0.00     0.014 C 
BRANCH   7   9
ATOM      9  C   UNL     1      22.611   2.760  62.462  1.00  0.00     0.044 C 
ATOM     10  O   UNL     1      22.061   1.652  62.226  1.00  0.00    -0.550 OA
ATOM     11  O   UNL     1      23.427   3.340  61.497  1.00  0.00    -0.550 OA
ENDBRANCH   7   9
ENDBRANCH   6   7
ENDBRANCH   5   6
ENDBRANCH   4   5
ENDBRANCH   3   4
ENDBRANCH   2   3
ENDBRANCH   1   2
BRANCH   1  12
ATOM     12  C   UNL     1      25.765  -1.235  61.560  1.00  0.00     0.000 C 
BRANCH  12  13
ATOM     13  C   UNL     1      25.552  -2.617  62.198  1.00  0.00    -0.000 C 
BRANCH  13  14
ATOM     14  C   UNL     1      25.313  -3.718  61.151  1.00  0.00    -0.000 C 
BRANCH  14  15
ATOM     15  C   UNL     1      25.382  -3.187  59.710  1.00  0.00    -0.000 C 
BRANCH  15  16
ATOM     16  C   UNL     1      24.017  -3.205  59.005  1.00  0.00    -0.000 C 
BRANCH  16  17
ATOM     17  C   UNL     1      22.899  -3.586  59.989  1.00  0.00    -0.000 C 
BRANCH  17  18
ATOM     18  C   UNL     1      21.856  -2.471  60.158  1.00  0.00    -0.003 C 
ATOM     19  C   UNL     1      21.887  -1.838  61.549  1.00  0.00     0.004 C 
ENDBRANCH  17  18
ENDBRANCH  16  17
ENDBRANCH  15  16
ENDBRANCH  14  15
ENDBRANCH  13  14
ENDBRANCH  12  13
ENDBRANCH   1  12
TORSDOF 14
ENDMDL
MODEL 6
REMARK VINA RESULT:    -5.940      1.054      2.180
REMARK INTER + INTRA:         -12.751
REMARK INTER:                 -10.842
REMARK INTRA:                  -1.909
REMARK UNBOUND:                -1.949
REMARK SMILES CCCCCCCCCCCCCC[C@H](C)C(=O)[O-]
REMARK SMILES IDX 9 1 10 2 11 3 12 4 13 5 14 6 15 7 16 8 17 9 18 10 19 11 8 12
REMARK SMILES IDX 7 13 6 14 5 15 4 16 3 17 2 18 1 19
REMARK H PARENT
REMARK Flexibility Score: inf
ROOT
ATOM      1  C   UNL     1      25.549   3.540  63.296  1.00  0.00     0.000 C 
ENDROOT
BRANCH   1   2
ATOM      2  C   UNL     1      25.533   2.430  62.231  1.00  0.00     0.000 C 
BRANCH   2   3
ATOM      3  C   UNL     1      25.989   1.042  62.728  1.00  0.00     0.000 C 
BRANCH   3   4
ATOM      4  C   UNL     1      25.172  -0.147  62.191  1.00  0.00     0.000 C 
BRANCH   4   5
ATOM      5  C   UNL     1      26.034  -1.176  61.444  1.00  0.00     0.001 C 
BRANCH   5   6
ATOM      6  C   UNL     1      25.493  -2.599  61.649  1.00  0.00     0.009 C 
BRANCH   6   7
ATOM      7  C   UNL     1      23.960  -2.636  61.827  1.00  0.00     0.032 C 
ATOM      8  C   UNL     1      23.535  -3.476  63.040  1.00  0.00     0.014 C 
BRANCH   7   9
ATOM      9  C   UNL     1      23.319  -3.189  60.585  1.00  0.00     0.044 C 
ATOM     10  O   UNL     1      23.951  -3.995  59.852  1.00  0.00    -0.550 OA
ATOM     11  O   UNL     1      22.026  -2.816  60.237  1.00  0.00    -0.550 OA
ENDBRANCH   7   9
ENDBRANCH   6   7
ENDBRANCH   5   6
ENDBRANCH   4   5
ENDBRANCH   3   4
ENDBRANCH   2   3
ENDBRANCH   1   2
BRANCH   1  12
ATOM     12  C   UNL     1      25.903   3.012  64.698  1.00  0.00     0.000 C 
BRANCH  12  13
ATOM     13  C   UNL     1      24.702   3.027  65.657  1.00  0.00    -0.000 C 
BRANCH  13  14
ATOM     14  C   UNL     1      23.392   3.421  64.953  1.00  0.00    -0.000 C 
BRANCH  14  15
ATOM     15  C   UNL     1      22.235   2.462  65.279  1.00  0.00    -0.000 C 
BRANCH  15  16
ATOM     16  C   UNL     1      21.282   2.257  64.092  1.00  0.00    -0.000 C 
BRANCH  16  17
ATOM     17  C   UNL     1      22.059   2.230  62.766  1.00  0.00    -0.000 C 
BRANCH  17  18
ATOM     18  C   UNL     1      21.835   0.930  61.977  1.00  0.00    -0.003 C 
ATOM     19  C   UNL     1      20.975  -0.081  62.736  1.00  0.00     0.004 C 
ENDBRANCH  17  18
ENDBRANCH  16  17
ENDBRANCH  15  16
ENDBRANCH  14  15
ENDBRANCH  13  14
ENDBRANCH  12  13
ENDBRANCH   1  12
TORSDOF 14
ENDMDL
MODEL 7
REMARK VINA RESULT:    -5.925      2.670      6.409
REMARK INTER + INTRA:         -12.724
REMARK INTER:                 -11.039
REMARK INTRA:                  -1.685
REMARK UNBOUND:                -1.949
REMARK SMILES CCCCCCCCCCCCCC[C@H](C)C(=O)[O-]
REMARK SMILES IDX 9 1 10 2 11 3 12 4 13 5 14 6 15 7 16 8 17 9 18 10 19 11 8 12
REMARK SMILES IDX 7 13 6 14 5 15 4 16 3 17 2 18 1 19
REMARK H PARENT
REMARK Flexibility Score: inf
ROOT
ATOM      1  C   UNL     1      25.893  -1.065  61.577  1.00  0.00     0.000 C 
ENDROOT
BRANCH   1   2
ATOM      2  C   UNL     1      25.065  -0.030  62.359  1.00  0.00     0.000 C 
BRANCH   2   3
ATOM      3  C   UNL     1      25.724   1.358  62.503  1.00  0.00     0.000 C 
BRANCH   3   4
ATOM      4  C   UNL     1      26.472   1.592  63.828  1.00  0.00     0.000 C 
BRANCH   4   5
ATOM      5  C   UNL     1      25.911   2.776  64.630  1.00  0.00     0.001 C 
BRANCH   5   6
ATOM      6  C   UNL     1      24.957   3.620  63.770  1.00  0.00     0.009 C 
BRANCH   6   7
ATOM      7  C   UNL     1      23.530   3.688  64.352  1.00  0.00     0.032 C 
ATOM      8  C   UNL     1      23.409   2.937  65.686  1.00  0.00     0.014 C 
BRANCH   7   9
ATOM      9  C   UNL     1      22.551   3.114  63.364  1.00  0.00     0.044 C 
ATOM     10  O   UNL     1      22.810   3.138  62.132  1.00  0.00    -0.550 OA
ATOM     11  O   UNL     1      21.357   2.554  63.803  1.00  0.00    -0.550 OA
ENDBRANCH   7   9
ENDBRANCH   6   7
ENDBRANCH   5   6
ENDBRANCH   4   5
ENDBRANCH   3   4
ENDBRANCH   2   3
ENDBRANCH   1   2
BRANCH   1  12
ATOM     12  C   UNL     1      25.522  -2.515  61.935  1.00  0.00     0.000 C 
BRANCH  12  13
ATOM     13  C   UNL     1      25.595  -3.460  60.724  1.00  0.00    -0.000 C 
BRANCH  13  14
ATOM     14  C   UNL     1      25.309  -2.738  59.396  1.00  0.00    -0.000 C 
BRANCH  14  15
ATOM     15  C   UNL     1      23.885  -2.999  58.878  1.00  0.00    -0.000 C 
BRANCH  15  16
ATOM     16  C   UNL     1      22.986  -3.673  59.926  1.00  0.00    -0.000 C 
BRANCH  16  17
ATOM     17  C   UNL     1      21.816  -2.755  60.313  1.00  0.00    -0.000 C 
BRANCH  17  18
ATOM     18  C   UNL     1      22.030  -2.065  61.669  1.00  0.00    -0.003 C 
ATOM     19  C   UNL     1      21.494  -0.633  61.696  1.00  0.00     0.004 C 
ENDBRANCH  17  18
ENDBRANCH  16  17
ENDBRANCH  15  16
ENDBRANCH  14  15
ENDBRANCH  13  14
ENDBRANCH  12  13
ENDBRANCH   1  12
TORSDOF 14
ENDMDL
MODEL 8
REMARK VINA RESULT:    -5.826      3.307      6.500
REMARK INTER + INTRA:         -12.544
REMARK INTER:                 -10.771
REMARK INTRA:                  -1.773
REMARK UNBOUND:                -1.949
REMARK SMILES CCCCCCCCCCCCCC[C@H](C)C(=O)[O-]
REMARK SMILES IDX 9 1 10 2 11 3 12 4 13 5 14 6 15 7 16 8 17 9 18 10 19 11 8 12
REMARK SMILES IDX 7 13 6 14 5 15 4 16 3 17 2 18 1 19
REMARK H PARENT
REMARK Flexibility Score: inf
ROOT
ATOM      1  C   UNL     1      25.571  -2.544  62.001  1.00  0.00     0.000 C 
ENDROOT
BRANCH   1   2
ATOM      2  C   UNL     1      25.872  -1.107  61.541  1.00  0.00     0.000 C 
BRANCH   2   3
ATOM      3  C   UNL     1      24.925  -0.029  62.109  1.00  0.00     0.000 C 
BRANCH   3   4
ATOM      4  C   UNL     1      25.622   1.214  62.688  1.00  0.00     0.000 C 
BRANCH   4   5
ATOM      5  C   UNL     1      25.212   2.514  61.980  1.00  0.00     0.001 C 
BRANCH   5   6
ATOM      6  C   UNL     1      24.584   3.506  62.972  1.00  0.00     0.009 C 
BRANCH   6   7
ATOM      7  C   UNL     1      23.620   2.826  63.967  1.00  0.00     0.032 C 
ATOM      8  C   UNL     1      22.188   3.369  63.854  1.00  0.00     0.014 C 
BRANCH   7   9
ATOM      9  C   UNL     1      24.120   3.022  65.372  1.00  0.00     0.044 C 
ATOM     10  O   UNL     1      25.321   3.341  65.577  1.00  0.00    -0.550 OA
ATOM     11  O   UNL     1      23.262   2.853  66.453  1.00  0.00    -0.550 OA
ENDBRANCH   7   9
ENDBRANCH   6   7
ENDBRANCH   5   6
ENDBRANCH   4   5
ENDBRANCH   3   4
ENDBRANCH   2   3
ENDBRANCH   1   2
BRANCH   1  12
ATOM     12  C   UNL     1      25.358  -3.513  60.823  1.00  0.00     0.000 C 
BRANCH  12  13
ATOM     13  C   UNL     1      25.264  -2.788  59.471  1.00  0.00    -0.000 C 
BRANCH  13  14
ATOM     14  C   UNL     1      23.915  -3.025  58.769  1.00  0.00    -0.000 C 
BRANCH  14  15
ATOM     15  C   UNL     1      22.798  -3.414  59.753  1.00  0.00    -0.000 C 
BRANCH  15  16
ATOM     16  C   UNL     1      21.771  -2.290  59.957  1.00  0.00    -0.000 C 
BRANCH  16  17
ATOM     17  C   UNL     1      21.738  -1.841  61.427  1.00  0.00    -0.000 C 
BRANCH  17  18
ATOM     18  C   UNL     1      21.383  -0.354  61.582  1.00  0.00    -0.003 C 
ATOM     19  C   UNL     1      20.987   0.013  63.012  1.00  0.00     0.004 C 
ENDBRANCH  17  18
ENDBRANCH  16  17
ENDBRANCH  15  16
ENDBRANCH  14  15
ENDBRANCH  13  14
ENDBRANCH  12  13
ENDBRANCH   1  12
TORSDOF 14
ENDMDL
MODEL 9
REMARK VINA RESULT:    -5.816      3.096      6.845
REMARK INTER + INTRA:         -12.526
REMARK INTER:                 -10.852
REMARK INTRA:                  -1.674
REMARK UNBOUND:                -1.949
REMARK SMILES CCCCCCCCCCCCCC[C@H](C)C(=O)[O-]
REMARK SMILES IDX 9 1 10 2 11 3 12 4 13 5 14 6 15 7 16 8 17 9 18 10 19 11 8 12
REMARK SMILES IDX 7 13 6 14 5 15 4 16 3 17 2 18 1 19
REMARK H PARENT
REMARK Flexibility Score: inf
ROOT
ATOM      1  C   UNL     1      21.409  -1.113  62.019  1.00  0.00     0.000 C 
ENDROOT
BRANCH   1   2
ATOM      2  C   UNL     1      22.113   0.252  62.097  1.00  0.00     0.000 C 
BRANCH   2   3
ATOM      3  C   UNL     1      21.373   1.321  62.928  1.00  0.00     0.000 C 
BRANCH   3   4
ATOM      4  C   UNL     1      22.139   2.640  63.129  1.00  0.00     0.000 C 
BRANCH   4   5
ATOM      5  C   UNL     1      23.220   2.873  62.062  1.00  0.00     0.001 C 
BRANCH   5   6
ATOM      6  C   UNL     1      24.380   3.706  62.628  1.00  0.00     0.009 C 
BRANCH   6   7
ATOM      7  C   UNL     1      25.631   2.856  62.936  1.00  0.00     0.032 C 
ATOM      8  C   UNL     1      25.511   1.426  62.391  1.00  0.00     0.014 C 
BRANCH   7   9
ATOM      9  C   UNL     1      25.859   2.810  64.422  1.00  0.00     0.044 C 
ATOM     10  O   UNL     1      25.104   3.453  65.198  1.00  0.00    -0.550 OA
ATOM     11  O   UNL     1      26.903   2.057  64.948  1.00  0.00    -0.550 OA
ENDBRANCH   7   9
ENDBRANCH   6   7
ENDBRANCH   5   6
ENDBRANCH   4   5
ENDBRANCH   3   4
ENDBRANCH   2   3
ENDBRANCH   1   2
BRANCH   1  12
ATOM     12  C   UNL     1      22.141  -2.107  61.098  1.00  0.00     0.000 C 
BRANCH  12  13
ATOM     13  C   UNL     1      22.925  -3.171  61.881  1.00  0.00    -0.000 C 
BRANCH  13  14
ATOM     14  C   UNL     1      24.219  -2.613  62.500  1.00  0.00    -0.000 C 
BRANCH  14  15
ATOM     15  C   UNL     1      25.477  -3.055  61.734  1.00  0.00    -0.000 C 
BRANCH  15  16
ATOM     16  C   UNL     1      26.135  -1.903  60.959  1.00  0.00    -0.000 C 
BRANCH  16  17
ATOM     17  C   UNL     1      26.174  -2.210  59.454  1.00  0.00    -0.000 C 
BRANCH  17  18
ATOM     18  C   UNL     1      25.254  -3.379  59.066  1.00  0.00    -0.003 C 
ATOM     19  C   UNL     1      24.094  -2.946  58.170  1.00  0.00     0.004 C 
ENDBRANCH  17  18
ENDBRANCH  16  17
ENDBRANCH  15  16
ENDBRANCH  14  15
ENDBRANCH  13  14
ENDBRANCH  12  13
ENDBRANCH   1  12
TORSDOF 14
ENDMDL
