MODEL 1
REMARK VINA RESULT:    -5.047      0.000      0.000
REMARK INTER + INTRA:          -7.151
REMARK INTER:                  -6.227
REMARK INTRA:                  -0.924
REMARK UNBOUND:                -0.924
REMARK SMILES CC(C)=CCC[C@@H](C)[C@@H]1C=CC(C)=CC1
REMARK SMILES IDX 6 1 7 2 8 3 9 4 13 5 12 6 14 7 11 8 15 9 10 10 5 11 4 12
REMARK SMILES IDX 2 13 1 14 3 15
REMARK H PARENT
REMARK Flexibility Score: inf
ROOT
ATOM      1  C   UNL     1     134.330 139.631 134.456  1.00  0.00     0.008 C 
ENDROOT
BRANCH   1   2
ATOM      2  C   UNL     1     135.399 140.383 135.299  1.00  0.00    -0.007 C 
ATOM      3  C   UNL     1     134.828 140.786 136.676  1.00  0.00     0.008 C 
BRANCH   2   4
ATOM      4  C   UNL     1     136.708 139.543 135.411  1.00  0.00     0.018 C 
ATOM      5  C   UNL     1     140.607 138.000 136.497  1.00  0.00     0.044 C 
ATOM      6  C   UNL     1     139.333 138.748 136.236  1.00  0.00    -0.055 C 
ATOM      7  C   UNL     1     139.201 139.493 135.127  1.00  0.00    -0.023 C 
ATOM      8  C   UNL     1     138.184 138.591 137.159  1.00  0.00    -0.001 C 
ATOM      9  C   UNL     1     137.953 140.303 134.896  1.00  0.00     0.035 C 
ATOM     10  C   UNL     1     136.961 139.007 136.806  1.00  0.00    -0.023 C 
ENDBRANCH   2   4
ENDBRANCH   1   2
BRANCH   1  11
ATOM     11  C   UNL     1     133.052 139.290 135.243  1.00  0.00     0.027 C 
BRANCH  11  12
ATOM     12  C   UNL     1     132.570 137.883 134.973  1.00  0.00    -0.028 C 
ATOM     13  C   UNL     1     132.876 136.836 135.767  1.00  0.00    -0.080 C 
ATOM     14  C   UNL     1     133.732 137.000 136.998  1.00  0.00     0.039 C 
ATOM     15  C   UNL     1     132.366 135.458 135.432  1.00  0.00     0.039 C 
ENDBRANCH  11  12
ENDBRANCH   1  11
TORSDOF 4
ENDMDL
MODEL 2
REMARK VINA RESULT:    -5.037      3.992      7.782
REMARK INTER + INTRA:          -7.139
REMARK INTER:                  -6.214
REMARK INTRA:                  -0.925
REMARK UNBOUND:                -0.924
REMARK SMILES CC(C)=CCC[C@@H](C)[C@@H]1C=CC(C)=CC1
REMARK SMILES IDX 6 1 7 2 8 3 9 4 13 5 12 6 14 7 11 8 15 9 10 10 5 11 4 12
REMARK SMILES IDX 2 13 1 14 3 15
REMARK H PARENT
REMARK Flexibility Score: inf
ROOT
ATOM      1  C   UNL     1     138.367 133.011 134.476  1.00  0.00     0.008 C 
ENDROOT
BRANCH   1   2
ATOM      2  C   UNL     1     137.294 132.238 135.294  1.00  0.00    -0.007 C 
ATOM      3  C   UNL     1     137.852 131.817 136.671  1.00  0.00     0.008 C 
BRANCH   2   4
ATOM      4  C   UNL     1     135.977 133.066 135.405  1.00  0.00     0.018 C 
ATOM      5  C   UNL     1     132.052 134.558 136.466  1.00  0.00     0.044 C 
ATOM      6  C   UNL     1     133.335 133.825 136.208  1.00  0.00    -0.055 C 
ATOM      7  C   UNL     1     133.488 133.102 135.087  1.00  0.00    -0.023 C 
ATOM      8  C   UNL     1     134.470 133.972 137.150  1.00  0.00    -0.001 C 
ATOM      9  C   UNL     1     134.745 132.306 134.857  1.00  0.00     0.035 C 
ATOM     10  C   UNL     1     135.700 133.573 136.806  1.00  0.00    -0.023 C 
ENDBRANCH   2   4
ENDBRANCH   1   2
BRANCH   1  11
ATOM     11  C   UNL     1     139.629 133.355 135.285  1.00  0.00     0.027 C 
BRANCH  11  12
ATOM     12  C   UNL     1     140.102 134.770 135.036  1.00  0.00    -0.028 C 
ATOM     13  C   UNL     1     139.760 135.809 135.826  1.00  0.00    -0.080 C 
ATOM     14  C   UNL     1     138.870 135.628 137.031  1.00  0.00     0.039 C 
ATOM     15  C   UNL     1     140.263 137.195 135.513  1.00  0.00     0.039 C 
ENDBRANCH  11  12
ENDBRANCH   1  11
TORSDOF 4
ENDMDL
MODEL 3
REMARK VINA RESULT:    -5.031      3.105      5.509
REMARK INTER + INTRA:          -7.131
REMARK INTER:                  -6.230
REMARK INTRA:                  -0.901
REMARK UNBOUND:                -0.924
REMARK SMILES CC(C)=CCC[C@@H](C)[C@@H]1C=CC(C)=CC1
REMARK SMILES IDX 6 1 7 2 8 3 9 4 13 5 12 6 14 7 11 8 15 9 10 10 5 11 4 12
REMARK SMILES IDX 2 13 1 14 3 15
REMARK H PARENT
REMARK Flexibility Score: inf
ROOT
ATOM      1  C   UNL     1     133.001 134.340 134.405  1.00  0.00     0.008 C 
ENDROOT
BRANCH   1   2
ATOM      2  C   UNL     1     132.235 135.404 135.242  1.00  0.00    -0.007 C 
ATOM      3  C   UNL     1     131.813 134.825 136.610  1.00  0.00     0.008 C 
BRANCH   2   4
ATOM      4  C   UNL     1     133.072 136.713 135.374  1.00  0.00     0.018 C 
ATOM      5  C   UNL     1     134.591 140.611 136.499  1.00  0.00     0.044 C 
ATOM      6  C   UNL     1     133.849 139.337 136.220  1.00  0.00    -0.055 C 
ATOM      7  C   UNL     1     133.125 139.207 135.097  1.00  0.00    -0.023 C 
ATOM      8  C   UNL     1     133.989 138.185 137.143  1.00  0.00    -0.001 C 
ATOM      9  C   UNL     1     132.321 137.959 134.847  1.00  0.00     0.035 C 
ATOM     10  C   UNL     1     133.581 136.964 136.779  1.00  0.00    -0.023 C 
ENDBRANCH   2   4
ENDBRANCH   1   2
BRANCH   1  11
ATOM     11  C   UNL     1     133.287 133.039 135.175  1.00  0.00     0.027 C 
BRANCH  11  12
ATOM     12  C   UNL     1     134.682 132.516 134.918  1.00  0.00    -0.028 C 
ATOM     13  C   UNL     1     135.735 132.813 135.708  1.00  0.00    -0.080 C 
ATOM     14  C   UNL     1     135.590 133.701 136.920  1.00  0.00     0.039 C 
ATOM     15  C   UNL     1     137.101 132.261 135.388  1.00  0.00     0.039 C 
ENDBRANCH  11  12
ENDBRANCH   1  11
TORSDOF 4
ENDMDL
MODEL 4
REMARK VINA RESULT:    -4.989      3.116      5.508
REMARK INTER + INTRA:          -7.079
REMARK INTER:                  -6.166
REMARK INTRA:                  -0.913
REMARK UNBOUND:                -0.924
REMARK SMILES CC(C)=CCC[C@@H](C)[C@@H]1C=CC(C)=CC1
REMARK SMILES IDX 6 1 7 2 8 3 9 4 13 5 12 6 14 7 11 8 15 9 10 10 5 11 4 12
REMARK SMILES IDX 2 13 1 14 3 15
REMARK H PARENT
REMARK Flexibility Score: inf
ROOT
ATOM      1  C   UNL     1     139.736 138.290 134.653  1.00  0.00     0.008 C 
ENDROOT
BRANCH   1   2
ATOM      2  C   UNL     1     140.340 137.228 135.616  1.00  0.00    -0.007 C 
ATOM      3  C   UNL     1     140.518 137.811 137.034  1.00  0.00     0.008 C 
BRANCH   2   4
ATOM      4  C   UNL     1     139.489 135.921 135.603  1.00  0.00     0.018 C 
ATOM      5  C   UNL     1     137.930 131.940 136.293  1.00  0.00     0.044 C 
ATOM      6  C   UNL     1     138.685 133.228 136.156  1.00  0.00    -0.055 C 
ATOM      7  C   UNL     1     139.411 133.474 135.053  1.00  0.00    -0.023 C 
ATOM      8  C   UNL     1     138.557 134.273 137.200  1.00  0.00    -0.001 C 
ATOM      9  C   UNL     1     140.228 134.733 134.942  1.00  0.00     0.035 C 
ATOM     10  C   UNL     1     138.977 135.523 136.973  1.00  0.00    -0.023 C 
ENDBRANCH   2   4
ENDBRANCH   1   2
BRANCH   1  11
ATOM     11  C   UNL     1     139.346 139.604 135.352  1.00  0.00     0.027 C 
BRANCH  11  12
ATOM     12  C   UNL     1     137.946 140.050 134.994  1.00  0.00    -0.028 C 
ATOM     13  C   UNL     1     136.867 139.763 135.752  1.00  0.00    -0.080 C 
ATOM     14  C   UNL     1     136.985 138.966 137.027  1.00  0.00     0.039 C 
ATOM     15  C   UNL     1     135.499 140.234 135.329  1.00  0.00     0.039 C 
ENDBRANCH  11  12
ENDBRANCH   1  11
TORSDOF 4
ENDMDL
MODEL 5
REMARK VINA RESULT:    -4.890      3.942      6.554
REMARK INTER + INTRA:          -6.957
REMARK INTER:                  -5.502
REMARK INTRA:                  -1.455
REMARK UNBOUND:                -0.924
REMARK SMILES CC(C)=CCC[C@@H](C)[C@@H]1C=CC(C)=CC1
REMARK SMILES IDX 6 1 7 2 8 3 9 4 13 5 12 6 14 7 11 8 15 9 10 10 5 11 4 12
REMARK SMILES IDX 2 13 1 14 3 15
REMARK H PARENT
REMARK Flexibility Score: inf
ROOT
ATOM      1  C   UNL     1     139.017 136.654 132.975  1.00  0.00     0.008 C 
ENDROOT
BRANCH   1   2
ATOM      2  C   UNL     1     139.682 135.255 133.112  1.00  0.00    -0.007 C 
ATOM      3  C   UNL     1     141.215 135.385 133.240  1.00  0.00     0.008 C 
BRANCH   2   4
ATOM      4  C   UNL     1     139.045 134.451 134.288  1.00  0.00     0.018 C 
ATOM      5  C   UNL     1     137.621 133.121 138.156  1.00  0.00     0.044 C 
ATOM      6  C   UNL     1     138.253 133.748 136.949  1.00  0.00    -0.055 C 
ATOM      7  C   UNL     1     139.421 133.282 136.477  1.00  0.00    -0.023 C 
ATOM      8  C   UNL     1     137.543 134.827 136.222  1.00  0.00    -0.001 C 
ATOM      9  C   UNL     1     140.095 133.954 135.311  1.00  0.00     0.035 C 
ATOM     10  C   UNL     1     137.936 135.201 134.998  1.00  0.00    -0.023 C 
ENDBRANCH   2   4
ENDBRANCH   1   2
BRANCH   1  11
ATOM     11  C   UNL     1     139.941 137.817 133.377  1.00  0.00     0.027 C 
BRANCH  11  12
ATOM     12  C   UNL     1     139.350 138.662 134.484  1.00  0.00    -0.028 C 
ATOM     13  C   UNL     1     139.759 138.582 135.768  1.00  0.00    -0.080 C 
ATOM     14  C   UNL     1     140.850 137.632 136.193  1.00  0.00     0.039 C 
ATOM     15  C   UNL     1     139.119 139.451 136.820  1.00  0.00     0.039 C 
ENDBRANCH  11  12
ENDBRANCH   1  11
TORSDOF 4
ENDMDL
MODEL 6
REMARK VINA RESULT:    -4.850      2.948      4.488
REMARK INTER + INTRA:          -6.908
REMARK INTER:                  -5.431
REMARK INTRA:                  -1.476
REMARK UNBOUND:                -0.924
REMARK SMILES CC(C)=CCC[C@@H](C)[C@@H]1C=CC(C)=CC1
REMARK SMILES IDX 6 1 7 2 8 3 9 4 13 5 12 6 14 7 11 8 15 9 10 10 5 11 4 12
REMARK SMILES IDX 2 13 1 14 3 15
REMARK H PARENT
REMARK Flexibility Score: inf
ROOT
ATOM      1  C   UNL     1     133.807 135.938 133.050  1.00  0.00     0.008 C 
ENDROOT
BRANCH   1   2
ATOM      2  C   UNL     1     133.104 137.321 133.153  1.00  0.00    -0.007 C 
ATOM      3  C   UNL     1     131.571 137.154 133.216  1.00  0.00     0.008 C 
BRANCH   2   4
ATOM      4  C   UNL     1     133.671 138.143 134.351  1.00  0.00     0.018 C 
ATOM      5  C   UNL     1     134.911 139.513 138.269  1.00  0.00     0.044 C 
ATOM      6  C   UNL     1     134.343 138.867 137.039  1.00  0.00    -0.055 C 
ATOM      7  C   UNL     1     133.179 139.295 136.526  1.00  0.00    -0.023 C 
ATOM      8  C   UNL     1     135.115 137.815 136.337  1.00  0.00    -0.001 C 
ATOM      9  C   UNL     1     132.570 138.603 135.336  1.00  0.00     0.035 C 
ATOM     10  C   UNL     1     134.779 137.430 135.100  1.00  0.00    -0.023 C 
ENDBRANCH   2   4
ENDBRANCH   1   2
BRANCH   1  11
ATOM     11  C   UNL     1     132.903 134.756 133.442  1.00  0.00     0.027 C 
BRANCH  11  12
ATOM     12  C   UNL     1     133.443 133.990 134.628  1.00  0.00    -0.028 C 
ATOM     13  C   UNL     1     132.926 134.099 135.871  1.00  0.00    -0.080 C 
ATOM     14  C   UNL     1     131.757 135.005 136.165  1.00  0.00     0.039 C 
ATOM     15  C   UNL     1     133.520 133.309 137.009  1.00  0.00     0.039 C 
ENDBRANCH  11  12
ENDBRANCH   1  11
TORSDOF 4
ENDMDL
MODEL 7
REMARK VINA RESULT:    -4.834      4.822      7.530
REMARK INTER + INTRA:          -6.889
REMARK INTER:                  -5.383
REMARK INTRA:                  -1.506
REMARK UNBOUND:                -0.924
REMARK SMILES CC(C)=CCC[C@@H](C)[C@@H]1C=CC(C)=CC1
REMARK SMILES IDX 6 1 7 2 8 3 9 4 13 5 12 6 14 7 11 8 15 9 10 10 5 11 4 12
REMARK SMILES IDX 2 13 1 14 3 15
REMARK H PARENT
REMARK Flexibility Score: inf
ROOT
ATOM      1  C   UNL     1     136.961 133.628 132.954  1.00  0.00     0.008 C 
ENDROOT
BRANCH   1   2
ATOM      2  C   UNL     1     135.532 133.014 132.936  1.00  0.00    -0.007 C 
ATOM      3  C   UNL     1     135.597 131.472 132.875  1.00  0.00     0.008 C 
BRANCH   2   4
ATOM      4  C   UNL     1     134.689 133.534 134.141  1.00  0.00     0.018 C 
ATOM      5  C   UNL     1     133.259 134.640 138.077  1.00  0.00     0.044 C 
ATOM      6  C   UNL     1     133.926 134.118 136.839  1.00  0.00    -0.055 C 
ATOM      7  C   UNL     1     133.521 132.963 136.287  1.00  0.00    -0.023 C 
ATOM      8  C   UNL     1     134.975 134.924 136.171  1.00  0.00    -0.001 C 
ATOM      9  C   UNL     1     134.234 132.398 135.088  1.00  0.00     0.035 C 
ATOM     10  C   UNL     1     135.378 134.629 134.929  1.00  0.00    -0.023 C 
ENDBRANCH   2   4
ENDBRANCH   1   2
BRANCH   1  11
ATOM     11  C   UNL     1     138.035 132.671 133.501  1.00  0.00     0.027 C 
BRANCH  11  12
ATOM     12  C   UNL     1     138.807 133.275 134.653  1.00  0.00    -0.028 C 
ATOM     13  C   UNL     1     138.648 132.878 135.933  1.00  0.00    -0.080 C 
ATOM     14  C   UNL     1     137.674 131.788 136.308  1.00  0.00     0.039 C 
ATOM     15  C   UNL     1     139.447 133.530 137.032  1.00  0.00     0.039 C 
ENDBRANCH  11  12
ENDBRANCH   1  11
TORSDOF 4
ENDMDL
MODEL 8
REMARK VINA RESULT:    -4.766      2.440      4.923
REMARK INTER + INTRA:          -6.805
REMARK INTER:                  -5.389
REMARK INTRA:                  -1.416
REMARK UNBOUND:                -0.924
REMARK SMILES CC(C)=CCC[C@@H](C)[C@@H]1C=CC(C)=CC1
REMARK SMILES IDX 6 1 7 2 8 3 9 4 13 5 12 6 14 7 11 8 15 9 10 10 5 11 4 12
REMARK SMILES IDX 2 13 1 14 3 15
REMARK H PARENT
REMARK Flexibility Score: inf
ROOT
ATOM      1  C   UNL     1     140.340 137.626 136.150  1.00  0.00     0.008 C 
ENDROOT
BRANCH   1   2
ATOM      2  C   UNL     1     140.069 138.760 135.120  1.00  0.00    -0.007 C 
ATOM      3  C   UNL     1     140.002 138.194 133.685  1.00  0.00     0.008 C 
BRANCH   2   4
ATOM      4  C   UNL     1     138.793 139.568 135.509  1.00  0.00     0.018 C 
ATOM      5  C   UNL     1     134.731 140.840 136.313  1.00  0.00     0.044 C 
ATOM      6  C   UNL     1     136.030 140.208 135.907  1.00  0.00    -0.055 C 
ATOM      7  C   UNL     1     136.610 140.540 134.743  1.00  0.00    -0.023 C 
ATOM      8  C   UNL     1     136.720 139.281 136.835  1.00  0.00    -0.001 C 
ATOM      9  C   UNL     1     137.875 139.856 134.297  1.00  0.00     0.035 C 
ATOM     10  C   UNL     1     137.996 138.933 136.631  1.00  0.00    -0.023 C 
ENDBRANCH   2   4
ENDBRANCH   1   2
BRANCH   1  11
ATOM     11  C   UNL     1     140.146 136.212 135.574  1.00  0.00     0.027 C 
BRANCH  11  12
ATOM     12  C   UNL     1     139.133 135.408 136.358  1.00  0.00    -0.028 C 
ATOM     13  C   UNL     1     137.850 135.259 135.964  1.00  0.00    -0.080 C 
ATOM     14  C   UNL     1     137.333 135.892 134.696  1.00  0.00     0.039 C 
ATOM     15  C   UNL     1     136.893 134.448 136.799  1.00  0.00     0.039 C 
ENDBRANCH  11  12
ENDBRANCH   1  11
TORSDOF 4
ENDMDL
MODEL 9
REMARK VINA RESULT:    -4.750      1.361      5.228
REMARK INTER + INTRA:          -6.784
REMARK INTER:                  -5.336
REMARK INTRA:                  -1.448
REMARK UNBOUND:                -0.924
REMARK SMILES CC(C)=CCC[C@@H](C)[C@@H]1C=CC(C)=CC1
REMARK SMILES IDX 6 1 7 2 8 3 9 4 13 5 12 6 14 7 11 8 15 9 10 10 5 11 4 12
REMARK SMILES IDX 2 13 1 14 3 15
REMARK H PARENT
REMARK Flexibility Score: inf
ROOT
ATOM      1  C   UNL     1     135.063 140.341 136.211  1.00  0.00     0.008 C 
ENDROOT
BRANCH   1   2
ATOM      2  C   UNL     1     133.908 140.124 135.192  1.00  0.00    -0.007 C 
ATOM      3  C   UNL     1     134.449 140.108 133.746  1.00  0.00     0.008 C 
BRANCH   2   4
ATOM      4  C   UNL     1     133.091 138.844 135.545  1.00  0.00     0.018 C 
ATOM      5  C   UNL     1     131.795 134.771 136.251  1.00  0.00     0.044 C 
ATOM      6  C   UNL     1     132.437 136.076 135.879  1.00  0.00    -0.055 C 
ATOM      7  C   UNL     1     132.123 136.679 134.722  1.00  0.00    -0.023 C 
ATOM      8  C   UNL     1     133.352 136.745 136.834  1.00  0.00    -0.001 C 
ATOM      9  C   UNL     1     132.817 137.951 134.311  1.00  0.00     0.035 C 
ATOM     10  C   UNL     1     133.707 138.024 136.660  1.00  0.00    -0.023 C 
ENDBRANCH   2   4
ENDBRANCH   1   2
BRANCH   1  11
ATOM     11  C   UNL     1     136.462 140.106 135.616  1.00  0.00     0.027 C 
BRANCH  11  12
ATOM     12  C   UNL     1     137.228 139.034 136.359  1.00  0.00    -0.028 C 
ATOM     13  C   UNL     1     137.336 137.765 135.913  1.00  0.00    -0.080 C 
ATOM     14  C   UNL     1     136.692 137.322 134.623  1.00  0.00     0.039 C 
ATOM     15  C   UNL     1     138.111 136.746 136.709  1.00  0.00     0.039 C 
ENDBRANCH  11  12
ENDBRANCH   1  11
TORSDOF 4
ENDMDL
