MODEL 1
REMARK VINA RESULT:    -4.524      0.000      0.000
REMARK INTER + INTRA:          -5.845
REMARK INTER:                  -5.450
REMARK INTRA:                  -0.395
REMARK UNBOUND:                -0.395
REMARK SMILES O=c1c(O)c(-c2ccc(O)cc2O)oc2cc(O)cc(O)c12
REMARK SMILES IDX 5 1 3 2 2 3 1 4 22 5 20 6 19 7 17 8 16 9 15 10 14 11 6 12
REMARK SMILES IDX 8 13 7 14 9 15 11 16 12 17 10 18 13 20 4 22 21 24 18 26
REMARK H PARENT 10 19 13 21 4 23 21 25 18 27
REMARK Flexibility Score: inf
ROOT
ATOM      1  C   UNL     1      41.023   0.637  -2.777  1.00  0.00     0.184 A 
ATOM      2  C   UNL     1      41.913  -0.438  -2.630  1.00  0.00     0.208 A 
ATOM      3  C   UNL     1      41.903  -1.465  -3.587  1.00  0.00     0.238 A 
ATOM      4  O   UNL     1      42.752  -2.388  -3.490  1.00  0.00    -0.285 OA
ATOM      5  C   UNL     1      40.965  -1.430  -4.648  1.00  0.00     0.111 A 
ATOM      6  C   UNL     1      40.835  -2.437  -5.651  1.00  0.00     0.134 A 
ATOM      7  C   UNL     1      39.943  -2.244  -6.713  1.00  0.00     0.093 A 
ATOM      8  C   UNL     1      39.132  -1.112  -6.776  1.00  0.00     0.123 A 
ATOM      9  C   UNL     1      39.212  -0.145  -5.773  1.00  0.00     0.094 A 
ATOM     10  C   UNL     1      40.119  -0.291  -4.720  1.00  0.00     0.146 A 
ATOM     11  O   UNL     1      40.177   0.662  -3.798  1.00  0.00    -0.451 OA
ENDROOT
BRANCH   1  12
ATOM     12  C   UNL     1      40.989   1.754  -1.809  1.00  0.00     0.063 A 
ATOM     13  C   UNL     1      39.932   2.803   0.113  1.00  0.00     0.047 A 
ATOM     14  C   UNL     1      39.998   1.760  -0.814  1.00  0.00     0.020 A 
ATOM     15  C   UNL     1      40.847   3.861   0.047  1.00  0.00     0.119 A 
ATOM     16  C   UNL     1      41.822   3.875  -0.954  1.00  0.00     0.093 A 
ATOM     17  C   UNL     1      41.891   2.834  -1.892  1.00  0.00     0.130 A 
BRANCH  15  18
ATOM     18  O   UNL     1      40.793   4.904   0.970  1.00  0.00    -0.508 OA
ATOM     19  H   UNL     1      41.268   4.845   1.863  1.00  0.00     0.293 HD
ENDBRANCH  15  18
BRANCH  17  20
ATOM     20  O   UNL     1      42.837   2.885  -2.917  1.00  0.00    -0.507 OA
ATOM     21  H   UNL     1      42.792   3.586  -3.647  1.00  0.00     0.293 HD
ENDBRANCH  17  20
ENDBRANCH   1  12
BRANCH   2  22
ATOM     22  O   UNL     1      42.779  -0.484  -1.533  1.00  0.00    -0.502 OA
ATOM     23  H   UNL     1      42.755  -1.236  -0.855  1.00  0.00     0.293 HD
ENDBRANCH   2  22
BRANCH   6  24
ATOM     24  O   UNL     1      41.533  -3.649  -5.639  1.00  0.00    -0.507 OA
ATOM     25  H   UNL     1      41.106  -4.562  -5.611  1.00  0.00     0.293 HD
ENDBRANCH   6  24
BRANCH   8  26
ATOM     26  O   UNL     1      38.243  -0.961  -7.838  1.00  0.00    -0.508 OA
ATOM     27  H   UNL     1      38.450  -1.332  -8.759  1.00  0.00     0.293 HD
ENDBRANCH   8  26
TORSDOF 6
ENDMDL
MODEL 2
REMARK VINA RESULT:    -4.490      0.850      1.484
REMARK INTER + INTRA:          -5.804
REMARK INTER:                  -5.396
REMARK INTRA:                  -0.408
REMARK UNBOUND:                -0.395
REMARK SMILES O=c1c(O)c(-c2ccc(O)cc2O)oc2cc(O)cc(O)c12
REMARK SMILES IDX 5 1 3 2 2 3 1 4 22 5 20 6 19 7 17 8 16 9 15 10 14 11 6 12
REMARK SMILES IDX 8 13 7 14 9 15 11 16 12 17 10 18 13 20 4 22 21 24 18 26
REMARK H PARENT 10 19 13 21 4 23 21 25 18 27
REMARK Flexibility Score: inf
ROOT
ATOM      1  C   UNL     1      41.252   0.879  -2.714  1.00  0.00     0.184 A 
ATOM      2  C   UNL     1      42.160  -0.170  -2.509  1.00  0.00     0.208 A 
ATOM      3  C   UNL     1      42.126  -1.278  -3.370  1.00  0.00     0.238 A 
ATOM      4  O   UNL     1      42.990  -2.181  -3.226  1.00  0.00    -0.285 OA
ATOM      5  C   UNL     1      41.149  -1.345  -4.394  1.00  0.00     0.111 A 
ATOM      6  C   UNL     1      40.993  -2.438  -5.299  1.00  0.00     0.134 A 
ATOM      7  C   UNL     1      40.060  -2.347  -6.339  1.00  0.00     0.093 A 
ATOM      8  C   UNL     1      39.233  -1.232  -6.469  1.00  0.00     0.123 A 
ATOM      9  C   UNL     1      39.339  -0.180  -5.558  1.00  0.00     0.094 A 
ATOM     10  C   UNL     1      40.287  -0.225  -4.533  1.00  0.00     0.146 A 
ATOM     11  O   UNL     1      40.367   0.807  -3.700  1.00  0.00    -0.451 OA
ENDROOT
BRANCH   1  12
ATOM     12  C   UNL     1      41.239   2.077  -1.848  1.00  0.00     0.063 A 
ATOM     13  C   UNL     1      42.286   4.168  -1.183  1.00  0.00     0.047 A 
ATOM     14  C   UNL     1      42.263   3.028  -1.990  1.00  0.00     0.020 A 
ATOM     15  C   UNL     1      41.294   4.365  -0.215  1.00  0.00     0.119 A 
ATOM     16  C   UNL     1      40.285   3.412  -0.051  1.00  0.00     0.093 A 
ATOM     17  C   UNL     1      40.258   2.261  -0.853  1.00  0.00     0.130 A 
BRANCH  15  18
ATOM     18  O   UNL     1      41.305   5.501   0.592  1.00  0.00    -0.508 OA
ATOM     19  H   UNL     1      41.951   6.263   0.424  1.00  0.00     0.293 HD
ENDBRANCH  15  18
BRANCH  17  20
ATOM     20  O   UNL     1      39.273   1.294  -0.646  1.00  0.00    -0.507 OA
ATOM     21  H   UNL     1      38.566   1.400   0.072  1.00  0.00     0.293 HD
ENDBRANCH  17  20
ENDBRANCH   1  12
BRANCH   2  22
ATOM     22  O   UNL     1      43.066  -0.112  -1.446  1.00  0.00    -0.502 OA
ATOM     23  H   UNL     1      44.023   0.199  -1.565  1.00  0.00     0.293 HD
ENDBRANCH   2  22
BRANCH   6  24
ATOM     24  O   UNL     1      41.707  -3.637  -5.207  1.00  0.00    -0.507 OA
ATOM     25  H   UNL     1      41.370  -4.477  -4.763  1.00  0.00     0.293 HD
ENDBRANCH   6  24
BRANCH   8  26
ATOM     26  O   UNL     1      38.304  -1.184  -7.505  1.00  0.00    -0.508 OA
ATOM     27  H   UNL     1      37.868  -2.025  -7.866  1.00  0.00     0.293 HD
ENDBRANCH   8  26
TORSDOF 6
ENDMDL
MODEL 3
REMARK VINA RESULT:    -4.337      1.329      1.877
REMARK INTER + INTRA:          -5.620
REMARK INTER:                  -5.213
REMARK INTRA:                  -0.407
REMARK UNBOUND:                -0.395
REMARK SMILES O=c1c(O)c(-c2ccc(O)cc2O)oc2cc(O)cc(O)c12
REMARK SMILES IDX 5 1 3 2 2 3 1 4 22 5 20 6 19 7 17 8 16 9 15 10 14 11 6 12
REMARK SMILES IDX 8 13 7 14 9 15 11 16 12 17 10 18 13 20 4 22 21 24 18 26
REMARK H PARENT 10 19 13 21 4 23 21 25 18 27
REMARK Flexibility Score: inf
ROOT
ATOM      1  C   UNL     1      40.684  -0.029  -4.184  1.00  0.00     0.184 A 
ATOM      2  C   UNL     1      41.222  -1.324  -4.132  1.00  0.00     0.208 A 
ATOM      3  C   UNL     1      40.800  -2.275  -5.074  1.00  0.00     0.238 A 
ATOM      4  O   UNL     1      41.339  -3.412  -5.067  1.00  0.00    -0.285 OA
ATOM      5  C   UNL     1      39.805  -1.933  -6.023  1.00  0.00     0.111 A 
ATOM      6  C   UNL     1      39.270  -2.828  -6.998  1.00  0.00     0.134 A 
ATOM      7  C   UNL     1      38.366  -2.348  -7.954  1.00  0.00     0.093 A 
ATOM      8  C   UNL     1      37.929  -1.024  -7.933  1.00  0.00     0.123 A 
ATOM      9  C   UNL     1      38.404  -0.154  -6.951  1.00  0.00     0.094 A 
ATOM     10  C   UNL     1      39.336  -0.592  -6.007  1.00  0.00     0.146 A 
ATOM     11  O   UNL     1      39.777   0.275  -5.103  1.00  0.00    -0.451 OA
ENDROOT
BRANCH   1  12
ATOM     12  C   UNL     1      41.091   1.020  -3.226  1.00  0.00     0.063 A 
ATOM     13  C   UNL     1      40.787   2.087  -1.062  1.00  0.00     0.047 A 
ATOM     14  C   UNL     1      40.432   1.103  -1.989  1.00  0.00     0.020 A 
ATOM     15  C   UNL     1      41.797   3.008  -1.367  1.00  0.00     0.119 A 
ATOM     16  C   UNL     1      42.442   2.947  -2.605  1.00  0.00     0.093 A 
ATOM     17  C   UNL     1      42.087   1.966  -3.543  1.00  0.00     0.130 A 
BRANCH  15  18
ATOM     18  O   UNL     1      42.162   3.990  -0.448  1.00  0.00    -0.508 OA
ATOM     19  H   UNL     1      41.778   4.926  -0.494  1.00  0.00     0.293 HD
ENDBRANCH  15  18
BRANCH  17  20
ATOM     20  O   UNL     1      42.705   1.947  -4.795  1.00  0.00    -0.507 OA
ATOM     21  H   UNL     1      42.777   1.095  -5.339  1.00  0.00     0.293 HD
ENDBRANCH  17  20
ENDBRANCH   1  12
BRANCH   2  22
ATOM     22  O   UNL     1      42.148  -1.657  -3.139  1.00  0.00    -0.502 OA
ATOM     23  H   UNL     1      42.955  -1.079  -2.934  1.00  0.00     0.293 HD
ENDBRANCH   2  22
BRANCH   6  24
ATOM     24  O   UNL     1      39.571  -4.192  -7.057  1.00  0.00    -0.507 OA
ATOM     25  H   UNL     1      38.970  -4.931  -6.726  1.00  0.00     0.293 HD
ENDBRANCH   6  24
BRANCH   8  26
ATOM     26  O   UNL     1      37.016  -0.587  -8.889  1.00  0.00    -0.508 OA
ATOM     27  H   UNL     1      36.524   0.294  -8.788  1.00  0.00     0.293 HD
ENDBRANCH   8  26
TORSDOF 6
ENDMDL
MODEL 4
REMARK VINA RESULT:    -4.175      1.751      3.602
REMARK INTER + INTRA:          -5.424
REMARK INTER:                  -5.017
REMARK INTRA:                  -0.407
REMARK UNBOUND:                -0.395
REMARK SMILES O=c1c(O)c(-c2ccc(O)cc2O)oc2cc(O)cc(O)c12
REMARK SMILES IDX 5 1 3 2 2 3 1 4 22 5 20 6 19 7 17 8 16 9 15 10 14 11 6 12
REMARK SMILES IDX 8 13 7 14 9 15 11 16 12 17 10 18 13 20 4 22 21 24 18 26
REMARK H PARENT 10 19 13 21 4 23 21 25 18 27
REMARK Flexibility Score: inf
ROOT
ATOM      1  C   UNL     1      41.475   0.234  -2.170  1.00  0.00     0.184 A 
ATOM      2  C   UNL     1      41.122   0.019  -3.511  1.00  0.00     0.208 A 
ATOM      3  C   UNL     1      41.392  -1.228  -4.094  1.00  0.00     0.238 A 
ATOM      4  O   UNL     1      41.007  -1.439  -5.274  1.00  0.00    -0.285 OA
ATOM      5  C   UNL     1      42.059  -2.228  -3.344  1.00  0.00     0.111 A 
ATOM      6  C   UNL     1      42.423  -3.514  -3.845  1.00  0.00     0.134 A 
ATOM      7  C   UNL     1      42.986  -4.459  -2.979  1.00  0.00     0.093 A 
ATOM      8  C   UNL     1      43.258  -4.146  -1.648  1.00  0.00     0.123 A 
ATOM      9  C   UNL     1      42.957  -2.874  -1.161  1.00  0.00     0.094 A 
ATOM     10  C   UNL     1      42.359  -1.921  -1.990  1.00  0.00     0.146 A 
ATOM     11  O   UNL     1      42.071  -0.730  -1.479  1.00  0.00    -0.451 OA
ENDROOT
BRANCH   1  12
ATOM     12  C   UNL     1      41.212   1.522  -1.494  1.00  0.00     0.063 A 
ATOM     13  C   UNL     1      39.702   2.909  -0.187  1.00  0.00     0.047 A 
ATOM     14  C   UNL     1      39.988   1.703  -0.831  1.00  0.00     0.020 A 
ATOM     15  C   UNL     1      40.634   3.955  -0.210  1.00  0.00     0.119 A 
ATOM     16  C   UNL     1      41.845   3.792  -0.887  1.00  0.00     0.093 A 
ATOM     17  C   UNL     1      42.136   2.585  -1.541  1.00  0.00     0.130 A 
BRANCH  15  18
ATOM     18  O   UNL     1      40.362   5.161   0.433  1.00  0.00    -0.508 OA
ATOM     19  H   UNL     1      40.140   5.196   1.421  1.00  0.00     0.293 HD
ENDBRANCH  15  18
BRANCH  17  20
ATOM     20  O   UNL     1      43.328   2.452  -2.255  1.00  0.00    -0.507 OA
ATOM     21  H   UNL     1      44.011   3.199  -2.292  1.00  0.00     0.293 HD
ENDBRANCH  17  20
ENDBRANCH   1  12
BRANCH   2  22
ATOM     22  O   UNL     1      40.530   1.047  -4.251  1.00  0.00    -0.502 OA
ATOM     23  H   UNL     1      40.975   1.457  -5.063  1.00  0.00     0.293 HD
ENDBRANCH   2  22
BRANCH   6  24
ATOM     24  O   UNL     1      42.276  -3.903  -5.180  1.00  0.00    -0.507 OA
ATOM     25  H   UNL     1      41.395  -4.015  -5.656  1.00  0.00     0.293 HD
ENDBRANCH   6  24
BRANCH   8  26
ATOM     26  O   UNL     1      43.835  -5.106  -0.821  1.00  0.00    -0.508 OA
ATOM     27  H   UNL     1      44.833  -5.127  -0.649  1.00  0.00     0.293 HD
ENDBRANCH   8  26
TORSDOF 6
ENDMDL
MODEL 5
REMARK VINA RESULT:    -4.161      9.778     12.475
REMARK INTER + INTRA:          -5.408
REMARK INTER:                  -5.001
REMARK INTRA:                  -0.407
REMARK UNBOUND:                -0.395
REMARK SMILES O=c1c(O)c(-c2ccc(O)cc2O)oc2cc(O)cc(O)c12
REMARK SMILES IDX 5 1 3 2 2 3 1 4 22 5 20 6 19 7 17 8 16 9 15 10 14 11 6 12
REMARK SMILES IDX 8 13 7 14 9 15 11 16 12 17 10 18 13 20 4 22 21 24 18 26
REMARK H PARENT 10 19 13 21 4 23 21 25 18 27
REMARK Flexibility Score: inf
ROOT
ATOM      1  C   UNL     1      32.167   4.821  -7.176  1.00  0.00     0.184 A 
ATOM      2  C   UNL     1      32.359   6.045  -7.836  1.00  0.00     0.208 A 
ATOM      3  C   UNL     1      31.505   7.119  -7.540  1.00  0.00     0.238 A 
ATOM      4  O   UNL     1      31.728   8.233  -8.080  1.00  0.00    -0.285 OA
ATOM      5  C   UNL     1      30.437   6.939  -6.627  1.00  0.00     0.111 A 
ATOM      6  C   UNL     1      29.482   7.943  -6.284  1.00  0.00     0.134 A 
ATOM      7  C   UNL     1      28.532   7.683  -5.289  1.00  0.00     0.093 A 
ATOM      8  C   UNL     1      28.459   6.436  -4.671  1.00  0.00     0.123 A 
ATOM      9  C   UNL     1      29.352   5.428  -5.037  1.00  0.00     0.094 A 
ATOM     10  C   UNL     1      30.336   5.669  -5.999  1.00  0.00     0.146 A 
ATOM     11  O   UNL     1      31.178   4.688  -6.302  1.00  0.00    -0.451 OA
ENDROOT
BRANCH   1  12
ATOM     12  C   UNL     1      33.036   3.654  -7.436  1.00  0.00     0.063 A 
ATOM     13  C   UNL     1      33.392   1.551  -8.604  1.00  0.00     0.047 A 
ATOM     14  C   UNL     1      32.599   2.671  -8.339  1.00  0.00     0.020 A 
ATOM     15  C   UNL     1      34.625   1.394  -7.959  1.00  0.00     0.119 A 
ATOM     16  C   UNL     1      35.057   2.357  -7.042  1.00  0.00     0.093 A 
ATOM     17  C   UNL     1      34.264   3.481  -6.766  1.00  0.00     0.130 A 
BRANCH  15  18
ATOM     18  O   UNL     1      35.426   0.284  -8.219  1.00  0.00    -0.508 OA
ATOM     19  H   UNL     1      35.379  -0.549  -7.644  1.00  0.00     0.293 HD
ENDBRANCH  15  18
BRANCH  17  20
ATOM     20  O   UNL     1      34.683   4.409  -5.812  1.00  0.00    -0.507 OA
ATOM     21  H   UNL     1      34.032   5.048  -5.370  1.00  0.00     0.293 HD
ENDBRANCH  17  20
ENDBRANCH   1  12
BRANCH   2  22
ATOM     22  O   UNL     1      33.377   6.175  -8.786  1.00  0.00    -0.502 OA
ATOM     23  H   UNL     1      34.101   6.879  -8.712  1.00  0.00     0.293 HD
ENDBRANCH   2  22
BRANCH   6  24
ATOM     24  O   UNL     1      29.408   9.196  -6.902  1.00  0.00    -0.507 OA
ATOM     25  H   UNL     1      28.664   9.496  -7.512  1.00  0.00     0.293 HD
ENDBRANCH   6  24
BRANCH   8  26
ATOM     26  O   UNL     1      27.489   6.207  -3.698  1.00  0.00    -0.508 OA
ATOM     27  H   UNL     1      27.025   5.310  -3.613  1.00  0.00     0.293 HD
ENDBRANCH   8  26
TORSDOF 6
ENDMDL
MODEL 6
REMARK VINA RESULT:    -4.152      2.884      3.784
REMARK INTER + INTRA:          -5.397
REMARK INTER:                  -4.963
REMARK INTRA:                  -0.434
REMARK UNBOUND:                -0.395
REMARK SMILES O=c1c(O)c(-c2ccc(O)cc2O)oc2cc(O)cc(O)c12
REMARK SMILES IDX 5 1 3 2 2 3 1 4 22 5 20 6 19 7 17 8 16 9 15 10 14 11 6 12
REMARK SMILES IDX 8 13 7 14 9 15 11 16 12 17 10 18 13 20 4 22 21 24 18 26
REMARK H PARENT 10 19 13 21 4 23 21 25 18 27
REMARK Flexibility Score: inf
ROOT
ATOM      1  C   UNL     1      41.856  -0.335  -0.688  1.00  0.00     0.184 A 
ATOM      2  C   UNL     1      41.952  -1.174   0.432  1.00  0.00     0.208 A 
ATOM      3  C   UNL     1      42.333  -2.513   0.249  1.00  0.00     0.238 A 
ATOM      4  O   UNL     1      42.488  -3.240   1.265  1.00  0.00    -0.285 OA
ATOM      5  C   UNL     1      42.560  -3.008  -1.058  1.00  0.00     0.111 A 
ATOM      6  C   UNL     1      42.908  -4.358  -1.367  1.00  0.00     0.134 A 
ATOM      7  C   UNL     1      43.213  -4.708  -2.688  1.00  0.00     0.093 A 
ATOM      8  C   UNL     1      43.121  -3.776  -3.721  1.00  0.00     0.123 A 
ATOM      9  C   UNL     1      42.728  -2.466  -3.439  1.00  0.00     0.094 A 
ATOM     10  C   UNL     1      42.455  -2.077  -2.125  1.00  0.00     0.146 A 
ATOM     11  O   UNL     1      42.105  -0.816  -1.899  1.00  0.00    -0.451 OA
ENDROOT
BRANCH   1  12
ATOM     12  C   UNL     1      41.467   1.085  -0.563  1.00  0.00     0.063 A 
ATOM     13  C   UNL     1      39.710   2.737  -0.255  1.00  0.00     0.047 A 
ATOM     14  C   UNL     1      40.114   1.405  -0.370  1.00  0.00     0.020 A 
ATOM     15  C   UNL     1      40.654   3.768  -0.344  1.00  0.00     0.119 A 
ATOM     16  C   UNL     1      42.000   3.460  -0.559  1.00  0.00     0.093 A 
ATOM     17  C   UNL     1      42.412   2.125  -0.683  1.00  0.00     0.130 A 
BRANCH  15  18
ATOM     18  O   UNL     1      40.264   5.100  -0.225  1.00  0.00    -0.508 OA
ATOM     19  H   UNL     1      39.997   5.496   0.669  1.00  0.00     0.293 HD
ENDBRANCH  15  18
BRANCH  17  20
ATOM     20  O   UNL     1      43.751   1.833  -0.947  1.00  0.00    -0.507 OA
ATOM     21  H   UNL     1      44.341   1.377  -0.261  1.00  0.00     0.293 HD
ENDBRANCH  17  20
ENDBRANCH   1  12
BRANCH   2  22
ATOM     22  O   UNL     1      41.651  -0.679   1.705  1.00  0.00    -0.502 OA
ATOM     23  H   UNL     1      41.040   0.116   1.847  1.00  0.00     0.293 HD
ENDBRANCH   2  22
BRANCH   6  24
ATOM     24  O   UNL     1      42.946  -5.392  -0.426  1.00  0.00    -0.507 OA
ATOM     25  H   UNL     1      43.596  -6.161  -0.439  1.00  0.00     0.293 HD
ENDBRANCH   6  24
BRANCH   8  26
ATOM     26  O   UNL     1      43.414  -4.164  -5.025  1.00  0.00    -0.508 OA
ATOM     27  H   UNL     1      42.704  -4.171  -5.749  1.00  0.00     0.293 HD
ENDBRANCH   8  26
TORSDOF 6
ENDMDL
MODEL 7
REMARK VINA RESULT:    -4.110      7.647     10.926
REMARK INTER + INTRA:          -5.346
REMARK INTER:                  -4.938
REMARK INTRA:                  -0.408
REMARK UNBOUND:                -0.395
REMARK SMILES O=c1c(O)c(-c2ccc(O)cc2O)oc2cc(O)cc(O)c12
REMARK SMILES IDX 5 1 3 2 2 3 1 4 22 5 20 6 19 7 17 8 16 9 15 10 14 11 6 12
REMARK SMILES IDX 8 13 7 14 9 15 11 16 12 17 10 18 13 20 4 22 21 24 18 26
REMARK H PARENT 10 19 13 21 4 23 21 25 18 27
REMARK Flexibility Score: inf
ROOT
ATOM      1  C   UNL     1      36.164   6.794  -6.614  1.00  0.00     0.184 A 
ATOM      2  C   UNL     1      35.415   7.964  -6.807  1.00  0.00     0.208 A 
ATOM      3  C   UNL     1      35.923   9.183  -6.332  1.00  0.00     0.238 A 
ATOM      4  O   UNL     1      35.282  10.239  -6.572  1.00  0.00    -0.285 OA
ATOM      5  C   UNL     1      37.149   9.207  -5.621  1.00  0.00     0.111 A 
ATOM      6  C   UNL     1      37.738  10.377  -5.055  1.00  0.00     0.134 A 
ATOM      7  C   UNL     1      39.006  10.296  -4.465  1.00  0.00     0.093 A 
ATOM      8  C   UNL     1      39.677   9.079  -4.363  1.00  0.00     0.123 A 
ATOM      9  C   UNL     1      39.087   7.918  -4.864  1.00  0.00     0.094 A 
ATOM     10  C   UNL     1      37.840   7.972  -5.492  1.00  0.00     0.146 A 
ATOM     11  O   UNL     1      37.324   6.847  -5.973  1.00  0.00    -0.451 OA
ENDROOT
BRANCH   1  12
ATOM     12  C   UNL     1      35.690   5.480  -7.097  1.00  0.00     0.063 A 
ATOM     13  C   UNL     1      34.423   3.447  -6.676  1.00  0.00     0.047 A 
ATOM     14  C   UNL     1      34.884   4.697  -6.255  1.00  0.00     0.020 A 
ATOM     15  C   UNL     1      34.774   2.959  -7.942  1.00  0.00     0.119 A 
ATOM     16  C   UNL     1      35.594   3.722  -8.778  1.00  0.00     0.093 A 
ATOM     17  C   UNL     1      36.065   4.975  -8.359  1.00  0.00     0.130 A 
BRANCH  15  18
ATOM     18  O   UNL     1      34.315   1.717  -8.375  1.00  0.00    -0.508 OA
ATOM     19  H   UNL     1      33.835   1.609  -9.260  1.00  0.00     0.293 HD
ENDBRANCH  15  18
BRANCH  17  20
ATOM     20  O   UNL     1      36.924   5.705  -9.183  1.00  0.00    -0.507 OA
ATOM     21  H   UNL     1      36.730   5.835 -10.169  1.00  0.00     0.293 HD
ENDBRANCH  17  20
ENDBRANCH   1  12
BRANCH   2  22
ATOM     22  O   UNL     1      34.174   7.903  -7.448  1.00  0.00    -0.502 OA
ATOM     23  H   UNL     1      34.001   8.354  -8.339  1.00  0.00     0.293 HD
ENDBRANCH   2  22
BRANCH   6  24
ATOM     24  O   UNL     1      37.117  11.629  -5.023  1.00  0.00    -0.507 OA
ATOM     25  H   UNL     1      36.885  12.138  -4.185  1.00  0.00     0.293 HD
ENDBRANCH   6  24
BRANCH   8  26
ATOM     26  O   UNL     1      40.929   9.034  -3.754  1.00  0.00    -0.508 OA
ATOM     27  H   UNL     1      41.553   8.246  -3.884  1.00  0.00     0.293 HD
ENDBRANCH   8  26
TORSDOF 6
ENDMDL
MODEL 8
REMARK VINA RESULT:    -4.105      2.801      6.609
REMARK INTER + INTRA:          -5.340
REMARK INTER:                  -4.959
REMARK INTRA:                  -0.381
REMARK UNBOUND:                -0.395
REMARK SMILES O=c1c(O)c(-c2ccc(O)cc2O)oc2cc(O)cc(O)c12
REMARK SMILES IDX 5 1 3 2 2 3 1 4 22 5 20 6 19 7 17 8 16 9 15 10 14 11 6 12
REMARK SMILES IDX 8 13 7 14 9 15 11 16 12 17 10 18 13 20 4 22 21 24 18 26
REMARK H PARENT 10 19 13 21 4 23 21 25 18 27
REMARK Flexibility Score: inf
ROOT
ATOM      1  C   UNL     1      38.398  -0.451  -6.885  1.00  0.00     0.184 A 
ATOM      2  C   UNL     1      38.734  -1.757  -7.270  1.00  0.00     0.208 A 
ATOM      3  C   UNL     1      39.704  -2.455  -6.533  1.00  0.00     0.238 A 
ATOM      4  O   UNL     1      39.949  -3.651  -6.838  1.00  0.00    -0.285 OA
ATOM      5  C   UNL     1      40.363  -1.816  -5.454  1.00  0.00     0.111 A 
ATOM      6  C   UNL     1      41.393  -2.411  -4.664  1.00  0.00     0.134 A 
ATOM      7  C   UNL     1      41.898  -1.721  -3.554  1.00  0.00     0.093 A 
ATOM      8  C   UNL     1      41.459  -0.435  -3.243  1.00  0.00     0.123 A 
ATOM      9  C   UNL     1      40.491   0.178  -4.041  1.00  0.00     0.094 A 
ATOM     10  C   UNL     1      39.940  -0.499  -5.131  1.00  0.00     0.146 A 
ATOM     11  O   UNL     1      39.007   0.113  -5.851  1.00  0.00    -0.451 OA
ENDROOT
BRANCH   1  12
ATOM     12  C   UNL     1      37.380   0.335  -7.614  1.00  0.00     0.063 A 
ATOM     13  C   UNL     1      35.069   1.067  -7.805  1.00  0.00     0.047 A 
ATOM     14  C   UNL     1      36.058   0.341  -7.138  1.00  0.00     0.020 A 
ATOM     15  C   UNL     1      35.386   1.786  -8.965  1.00  0.00     0.119 A 
ATOM     16  C   UNL     1      36.693   1.767  -9.458  1.00  0.00     0.093 A 
ATOM     17  C   UNL     1      37.691   1.035  -8.797  1.00  0.00     0.130 A 
BRANCH  15  18
ATOM     18  O   UNL     1      34.408   2.518  -9.635  1.00  0.00    -0.508 OA
ATOM     19  H   UNL     1      33.541   2.091  -9.937  1.00  0.00     0.293 HD
ENDBRANCH  15  18
BRANCH  17  20
ATOM     20  O   UNL     1      38.981   0.984  -9.327  1.00  0.00    -0.507 OA
ATOM     21  H   UNL     1      39.359   0.132  -9.725  1.00  0.00     0.293 HD
ENDBRANCH  17  20
ENDBRANCH   1  12
BRANCH   2  22
ATOM     22  O   UNL     1      38.121  -2.339  -8.383  1.00  0.00    -0.502 OA
ATOM     23  H   UNL     1      37.564  -1.802  -9.038  1.00  0.00     0.293 HD
ENDBRANCH   2  22
BRANCH   6  24
ATOM     24  O   UNL     1      41.969  -3.656  -4.937  1.00  0.00    -0.507 OA
ATOM     25  H   UNL     1      41.661  -4.533  -4.546  1.00  0.00     0.293 HD
ENDBRANCH   6  24
BRANCH   8  26
ATOM     26  O   UNL     1      41.996   0.227  -2.143  1.00  0.00    -0.508 OA
ATOM     27  H   UNL     1      41.468   0.928  -1.636  1.00  0.00     0.293 HD
ENDBRANCH   8  26
TORSDOF 6
ENDMDL
MODEL 9
REMARK VINA RESULT:    -4.093      3.483      5.353
REMARK INTER + INTRA:          -5.326
REMARK INTER:                  -5.030
REMARK INTRA:                  -0.296
REMARK UNBOUND:                -0.395
REMARK SMILES O=c1c(O)c(-c2ccc(O)cc2O)oc2cc(O)cc(O)c12
REMARK SMILES IDX 5 1 3 2 2 3 1 4 22 5 20 6 19 7 17 8 16 9 15 10 14 11 6 12
REMARK SMILES IDX 8 13 7 14 9 15 11 16 12 17 10 18 13 20 4 22 21 24 18 26
REMARK H PARENT 10 19 13 21 4 23 21 25 18 27
REMARK Flexibility Score: inf
ROOT
ATOM      1  C   UNL     1      41.728  -0.122   0.118  1.00  0.00     0.184 A 
ATOM      2  C   UNL     1      42.110  -0.646  -1.126  1.00  0.00     0.208 A 
ATOM      3  C   UNL     1      42.340  -2.026  -1.241  1.00  0.00     0.238 A 
ATOM      4  O   UNL     1      42.611  -2.499  -2.376  1.00  0.00    -0.285 OA
ATOM      5  C   UNL     1      42.237  -2.855  -0.098  1.00  0.00     0.111 A 
ATOM      6  C   UNL     1      42.490  -4.260  -0.087  1.00  0.00     0.134 A 
ATOM      7  C   UNL     1      42.253  -4.996   1.080  1.00  0.00     0.093 A 
ATOM      8  C   UNL     1      41.834  -4.371   2.254  1.00  0.00     0.123 A 
ATOM      9  C   UNL     1      41.636  -2.990   2.271  1.00  0.00     0.094 A 
ATOM     10  C   UNL     1      41.827  -2.234   1.112  1.00  0.00     0.146 A 
ATOM     11  O   UNL     1      41.607  -0.925   1.167  1.00  0.00    -0.451 OA
ENDROOT
BRANCH   1  12
ATOM     12  C   UNL     1      41.463   1.320   0.305  1.00  0.00     0.063 A 
ATOM     13  C   UNL     1      42.070   3.421   1.368  1.00  0.00     0.047 A 
ATOM     14  C   UNL     1      42.295   2.058   1.162  1.00  0.00     0.020 A 
ATOM     15  C   UNL     1      41.001   4.061   0.728  1.00  0.00     0.119 A 
ATOM     16  C   UNL     1      40.154   3.330  -0.110  1.00  0.00     0.093 A 
ATOM     17  C   UNL     1      40.370   1.959  -0.316  1.00  0.00     0.130 A 
BRANCH  15  18
ATOM     18  O   UNL     1      40.770   5.422   0.921  1.00  0.00    -0.508 OA
ATOM     19  H   UNL     1      41.483   6.030   1.306  1.00  0.00     0.293 HD
ENDBRANCH  15  18
BRANCH  17  20
ATOM     20  O   UNL     1      39.488   1.230  -1.115  1.00  0.00    -0.507 OA
ATOM     21  H   UNL     1      39.805   0.734  -1.940  1.00  0.00     0.293 HD
ENDBRANCH  17  20
ENDBRANCH   1  12
BRANCH   2  22
ATOM     22  O   UNL     1      42.275   0.206  -2.223  1.00  0.00    -0.502 OA
ATOM     23  H   UNL     1      42.921   0.001  -2.976  1.00  0.00     0.293 HD
ENDBRANCH   2  22
BRANCH   6  24
ATOM     24  O   UNL     1      42.994  -4.973  -1.180  1.00  0.00    -0.507 OA
ATOM     25  H   UNL     1      42.588  -4.980  -2.102  1.00  0.00     0.293 HD
ENDBRANCH   6  24
BRANCH   8  26
ATOM     26  O   UNL     1      41.626  -5.133   3.401  1.00  0.00    -0.508 OA
ATOM     27  H   UNL     1      41.262  -6.078   3.351  1.00  0.00     0.293 HD
ENDBRANCH   8  26
TORSDOF 6
ENDMDL
