MODEL 1
REMARK VINA RESULT:     2.019      0.000      0.000
REMARK INTER + INTRA:           3.636
REMARK INTER:                   2.845
REMARK INTRA:                   0.791
REMARK UNBOUND:                 0.791
REMARK SMILES CC1=CCC(=C(C)C)C(=O)CC(C)=CCC1
REMARK SMILES IDX 12 1 14 2 13 3 15 4 16 5 2 6 1 7 3 8 11 10 9 11 10 12 5 13
REMARK SMILES IDX 6 14 7 15 8 16 4 17
REMARK H PARENT
REMARK Flexibility Score: 60.00
ROOT
ATOM      1  C   UNL     1      76.137  75.548  72.587  1.00  0.00    -0.070 C 
ATOM      2  C   UNL     1      76.144  76.190  73.777  1.00  0.00    -0.027 C 
ATOM      3  C   UNL     1      75.745  76.331  71.360  1.00  0.00     0.039 C 
ENDROOT
BRANCH   2   4
ATOM      4  C   UNL     1      76.568  75.580  75.095  1.00  0.00     0.032 C 
BRANCH   4   5
ATOM      5  C   UNL     1      75.479  75.736  76.167  1.00  0.00     0.034 C 
BRANCH   5   6
ATOM      6  C   UNL     1      74.732  74.445  76.467  1.00  0.00    -0.077 C 
ATOM      7  C   UNL     1      74.993  73.741  77.776  1.00  0.00     0.039 C 
ATOM      8  C   UNL     1      73.826  73.896  75.626  1.00  0.00    -0.023 CG0
ATOM      9  G   UNL     1      73.484  74.413  74.248  1.00  0.00     0.000 G0
ENDBRANCH   5   6
ENDBRANCH   4   5
ENDBRANCH   2   4
BRANCH   1  10
ATOM     10  C   UNL     1      76.502  74.083  72.437  1.00  0.00     0.111 C 
BRANCH  10  11
ATOM     11  C   UNL     1      75.486  73.201  73.105  1.00  0.00     0.163 C 
ATOM     12  O   UNL     1      75.868  72.153  73.693  1.00  0.00    -0.294 OA
BRANCH  11  13
ATOM     13  C   UNL     1      74.043  73.550  73.107  1.00  0.00    -0.002 C 
ATOM     14  C   UNL     1      73.228  73.109  72.110  1.00  0.00    -0.069 C 
ATOM     15  C   UNL     1      73.743  72.180  71.033  1.00  0.00     0.039 C 
ATOM     16  C   UNL     1      71.768  73.497  72.066  1.00  0.00     0.039 C 
BRANCH  13  17
ATOM     17  C   UNL     1      73.487  74.407  74.240  1.00  0.00     0.066 CG0
ATOM     18  G   UNL     1      73.824  73.887  75.618  1.00  0.00     0.000 G0
ENDBRANCH  13  17
ENDBRANCH  11  13
ENDBRANCH  10  11
ENDBRANCH   1  10
TORSDOF 0
ENDMDL
MODEL 2
REMARK VINA RESULT:     2.878      1.647      3.192
REMARK INTER + INTRA:           4.847
REMARK INTER:                   3.503
REMARK INTRA:                   1.344
REMARK UNBOUND:                 0.791
REMARK SMILES CC1=CCC(=C(C)C)C(=O)CC(C)=CCC1
REMARK SMILES IDX 12 1 14 2 13 3 15 4 16 5 2 6 1 7 3 8 11 10 9 11 10 12 5 13
REMARK SMILES IDX 6 14 7 15 8 16 4 17
REMARK H PARENT
REMARK Flexibility Score: 60.00
ROOT
ATOM      1  C   UNL     1      73.120  75.594  73.578  1.00  0.00    -0.070 C 
ATOM      2  C   UNL     1      73.122  75.223  74.879  1.00  0.00    -0.027 C 
ATOM      3  C   UNL     1      73.404  77.038  73.251  1.00  0.00     0.039 C 
ENDROOT
BRANCH   2   4
ATOM      4  C   UNL     1      72.919  73.812  75.384  1.00  0.00     0.032 C 
BRANCH   4   5
ATOM      5  C   UNL     1      74.212  73.231  75.975  1.00  0.00     0.034 C 
BRANCH   5   6
ATOM      6  C   UNL     1      75.384  74.202  75.948  1.00  0.00    -0.077 C 
ATOM      7  C   UNL     1      75.601  75.111  77.132  1.00  0.00     0.039 C 
ATOM      8  C   UNL     1      76.259  74.283  74.921  1.00  0.00    -0.023 CG0
ATOM      9  G   UNL     1      76.167  73.508  73.627  1.00  0.00     0.000 G0
ENDBRANCH   5   6
ENDBRANCH   4   5
ENDBRANCH   2   4
BRANCH   1  10
ATOM     10  C   UNL     1      72.843  74.625  72.444  1.00  0.00     0.111 C 
BRANCH  10  11
ATOM     11  C   UNL     1      74.047  73.773  72.155  1.00  0.00     0.163 C 
ATOM     12  O   UNL     1      73.894  72.662  71.580  1.00  0.00    -0.294 OA
BRANCH  11  13
ATOM     13  C   UNL     1      75.416  74.225  72.511  1.00  0.00    -0.002 C 
ATOM     14  C   UNL     1      75.985  75.275  71.857  1.00  0.00    -0.069 C 
ATOM     15  C   UNL     1      75.211  76.065  70.824  1.00  0.00     0.039 C 
ATOM     16  C   UNL     1      77.395  75.717  72.168  1.00  0.00     0.039 C 
BRANCH  13  17
ATOM     17  C   UNL     1      76.174  73.501  73.618  1.00  0.00     0.066 CG0
ATOM     18  G   UNL     1      76.266  74.285  74.906  1.00  0.00     0.000 G0
ENDBRANCH  13  17
ENDBRANCH  11  13
ENDBRANCH  10  11
ENDBRANCH   1  10
TORSDOF 0
ENDMDL
MODEL 3
REMARK VINA RESULT:     3.666      1.898      3.519
REMARK INTER + INTRA:           5.957
REMARK INTER:                   4.988
REMARK INTRA:                   0.969
REMARK UNBOUND:                 0.791
REMARK SMILES CC1=CCC(=C(C)C)C(=O)CC(C)=CCC1
REMARK SMILES IDX 12 1 14 2 13 3 15 4 16 5 2 6 1 7 3 8 11 10 9 11 10 12 5 13
REMARK SMILES IDX 6 14 7 15 8 16 4 17
REMARK H PARENT
REMARK Flexibility Score: 60.00
ROOT
ATOM      1  C   UNL     1      72.984  74.505  73.228  1.00  0.00    -0.070 C 
ATOM      2  C   UNL     1      72.847  73.557  74.183  1.00  0.00    -0.027 C 
ATOM      3  C   UNL     1      72.864  74.083  71.786  1.00  0.00     0.039 C 
ENDROOT
BRANCH   2   4
ATOM      4  C   UNL     1      72.876  73.810  75.674  1.00  0.00     0.032 C 
BRANCH   4   5
ATOM      5  C   UNL     1      74.128  73.206  76.326  1.00  0.00     0.034 C 
BRANCH   5   6
ATOM      6  C   UNL     1      75.132  74.248  76.797  1.00  0.00    -0.077 C 
ATOM      7  C   UNL     1      75.005  74.801  78.195  1.00  0.00     0.039 C 
ATOM      8  C   UNL     1      76.152  74.698  76.032  1.00  0.00    -0.023 CG0
ATOM      9  G   UNL     1      76.401  74.317  74.591  1.00  0.00     0.000 G0
ENDBRANCH   5   6
ENDBRANCH   4   5
ENDBRANCH   2   4
BRANCH   1  10
ATOM     10  C   UNL     1      73.254  75.964  73.545  1.00  0.00     0.111 C 
BRANCH  10  11
ATOM     11  C   UNL     1      74.669  76.164  74.008  1.00  0.00     0.163 C 
ATOM     12  O   UNL     1      74.932  77.106  74.804  1.00  0.00    -0.294 OA
BRANCH  11  13
ATOM     13  C   UNL     1      75.761  75.261  73.565  1.00  0.00    -0.002 C 
ATOM     14  C   UNL     1      76.189  75.282  72.273  1.00  0.00    -0.069 C 
ATOM     15  C   UNL     1      75.636  76.283  71.283  1.00  0.00     0.039 C 
ATOM     16  C   UNL     1      77.263  74.335  71.791  1.00  0.00     0.039 C 
BRANCH  13  17
ATOM     17  C   UNL     1      76.397  74.312  74.576  1.00  0.00     0.066 CG0
ATOM     18  G   UNL     1      76.153  74.704  76.015  1.00  0.00     0.000 G0
ENDBRANCH  13  17
ENDBRANCH  11  13
ENDBRANCH  10  11
ENDBRANCH   1  10
TORSDOF 0
ENDMDL
MODEL 4
REMARK VINA RESULT:     3.692      1.491      3.888
REMARK INTER + INTRA:           5.994
REMARK INTER:                   3.286
REMARK INTRA:                   2.708
REMARK UNBOUND:                 0.791
REMARK SMILES CC1=CCC(=C(C)C)C(=O)CC(C)=CCC1
REMARK SMILES IDX 12 1 14 2 13 3 15 4 16 5 2 6 1 7 3 8 11 10 9 11 10 12 5 13
REMARK SMILES IDX 6 14 7 15 8 16 4 17
REMARK H PARENT
REMARK Flexibility Score: 60.00
ROOT
ATOM      1  C   UNL     1      76.129  75.317  72.489  1.00  0.00    -0.070 C 
ATOM      2  C   UNL     1      75.066  76.092  72.176  1.00  0.00    -0.027 C 
ATOM      3  C   UNL     1      77.413  75.532  71.728  1.00  0.00     0.039 C 
ENDROOT
BRANCH   2   4
ATOM      4  C   UNL     1      73.725  76.056  72.875  1.00  0.00     0.032 C 
BRANCH   4   5
ATOM      5  C   UNL     1      72.805  74.980  72.280  1.00  0.00     0.034 C 
BRANCH   5   6
ATOM      6  C   UNL     1      73.154  73.568  72.725  1.00  0.00    -0.077 C 
ATOM      7  C   UNL     1      73.195  72.469  71.691  1.00  0.00     0.039 C 
ATOM      8  C   UNL     1      73.450  73.241  74.003  1.00  0.00    -0.023 CG0
ATOM      9  G   UNL     1      73.394  74.184  75.183  1.00  0.00     0.000 G0
ENDBRANCH   5   6
ENDBRANCH   4   5
ENDBRANCH   2   4
BRANCH   1  10
ATOM     10  C   UNL     1      76.084  74.250  73.566  1.00  0.00     0.111 C 
BRANCH  10  11
ATOM     11  C   UNL     1      75.899  74.860  74.926  1.00  0.00     0.163 C 
ATOM     12  O   UNL     1      76.702  75.748  75.321  1.00  0.00    -0.294 OA
BRANCH  11  13
ATOM     13  C   UNL     1      74.773  74.455  75.807  1.00  0.00    -0.002 C 
ATOM     14  C   UNL     1      74.962  74.330  77.149  1.00  0.00    -0.069 C 
ATOM     15  C   UNL     1      76.284  74.689  77.790  1.00  0.00     0.039 C 
ATOM     16  C   UNL     1      73.843  73.869  78.054  1.00  0.00     0.039 C 
BRANCH  13  17
ATOM     17  C   UNL     1      73.406  74.183  75.188  1.00  0.00     0.066 CG0
ATOM     18  G   UNL     1      73.451  73.246  74.002  1.00  0.00     0.000 G0
ENDBRANCH  13  17
ENDBRANCH  11  13
ENDBRANCH  10  11
ENDBRANCH   1  10
TORSDOF 0
ENDMDL
MODEL 5
REMARK VINA RESULT:     3.805      1.482      1.993
REMARK INTER + INTRA:           6.154
REMARK INTER:                   4.942
REMARK INTRA:                   1.212
REMARK UNBOUND:                 0.791
REMARK SMILES CC1=CCC(=C(C)C)C(=O)CC(C)=CCC1
REMARK SMILES IDX 12 1 14 2 13 3 15 4 16 5 2 6 1 7 3 8 11 10 9 11 10 12 5 13
REMARK SMILES IDX 6 14 7 15 8 16 4 17
REMARK H PARENT
REMARK Flexibility Score: 60.00
ROOT
ATOM      1  C   UNL     1      76.367  73.542  73.454  1.00  0.00    -0.070 C 
ATOM      2  C   UNL     1      76.464  73.925  74.748  1.00  0.00    -0.027 C 
ATOM      3  C   UNL     1      76.204  72.072  73.159  1.00  0.00     0.039 C 
ENDROOT
BRANCH   2   4
ATOM      4  C   UNL     1      76.569  75.355  75.228  1.00  0.00     0.032 C 
BRANCH   4   5
ATOM      5  C   UNL     1      75.213  75.891  75.711  1.00  0.00     0.034 C 
BRANCH   5   6
ATOM      6  C   UNL     1      74.163  74.806  75.902  1.00  0.00    -0.077 C 
ATOM      7  C   UNL     1      74.213  73.957  77.147  1.00  0.00     0.039 C 
ATOM      8  C   UNL     1      73.168  74.571  75.017  1.00  0.00    -0.023 CG0
ATOM      9  G   UNL     1      72.995  75.266  73.687  1.00  0.00     0.000 G0
ENDBRANCH   5   6
ENDBRANCH   4   5
ENDBRANCH   2   4
BRANCH   1  10
ATOM     10  C   UNL     1      76.418  74.521  72.297  1.00  0.00     0.111 C 
BRANCH  10  11
ATOM     11  C   UNL     1      75.133  75.294  72.186  1.00  0.00     0.163 C 
ATOM     12  O   UNL     1      75.161  76.481  71.761  1.00  0.00    -0.294 OA
BRANCH  11  13
ATOM     13  C   UNL     1      73.830  74.680  72.544  1.00  0.00    -0.002 C 
ATOM     14  C   UNL     1      73.371  73.595  71.862  1.00  0.00    -0.069 C 
ATOM     15  C   UNL     1      74.211  72.931  70.793  1.00  0.00     0.039 C 
ATOM     16  C   UNL     1      72.024  72.987  72.177  1.00  0.00     0.039 C 
BRANCH  13  17
ATOM     17  C   UNL     1      73.014  75.279  73.685  1.00  0.00     0.066 CG0
ATOM     18  G   UNL     1      73.189  74.558  75.002  1.00  0.00     0.000 G0
ENDBRANCH  13  17
ENDBRANCH  11  13
ENDBRANCH  10  11
ENDBRANCH   1  10
TORSDOF 0
ENDMDL
MODEL 6
REMARK VINA RESULT:     3.818      1.486      4.168
REMARK INTER + INTRA:           6.172
REMARK INTER:                   3.980
REMARK INTRA:                   2.192
REMARK UNBOUND:                 0.791
REMARK SMILES CC1=CCC(=C(C)C)C(=O)CC(C)=CCC1
REMARK SMILES IDX 12 1 14 2 13 3 15 4 16 5 2 6 1 7 3 8 11 10 9 11 10 12 5 13
REMARK SMILES IDX 6 14 7 15 8 16 4 17
REMARK H PARENT
REMARK Flexibility Score: 60.00
ROOT
ATOM      1  C   UNL     1      75.037  74.563  76.547  1.00  0.00    -0.070 C 
ATOM      2  C   UNL     1      73.808  74.042  76.328  1.00  0.00    -0.027 C 
ATOM      3  C   UNL     1      75.743  74.200  77.829  1.00  0.00     0.039 C 
ENDROOT
BRANCH   2   4
ATOM      4  C   UNL     1      72.984  74.249  75.076  1.00  0.00     0.032 C 
BRANCH   4   5
ATOM      5  C   UNL     1      73.157  73.087  74.087  1.00  0.00     0.034 C 
BRANCH   5   6
ATOM      6  C   UNL     1      72.844  73.462  72.646  1.00  0.00    -0.077 C 
ATOM      7  C   UNL     1      72.215  72.428  71.745  1.00  0.00     0.039 C 
ATOM      8  C   UNL     1      73.085  74.687  72.127  1.00  0.00    -0.023 CG0
ATOM      9  G   UNL     1      73.770  75.825  72.848  1.00  0.00     0.000 G0
ENDBRANCH   5   6
ENDBRANCH   4   5
ENDBRANCH   2   4
BRANCH   1  10
ATOM     10  C   UNL     1      75.727  75.492  75.567  1.00  0.00     0.111 C 
BRANCH  10  11
ATOM     11  C   UNL     1      75.774  74.888  74.191  1.00  0.00     0.163 C 
ATOM     12  O   UNL     1      76.232  73.723  74.042  1.00  0.00    -0.294 OA
BRANCH  11  13
ATOM     13  C   UNL     1      75.269  75.628  73.007  1.00  0.00    -0.002 C 
ATOM     14  C   UNL     1      76.139  76.121  72.083  1.00  0.00    -0.069 C 
ATOM     15  C   UNL     1      77.624  75.851  72.185  1.00  0.00     0.039 C 
ATOM     16  C   UNL     1      75.649  76.921  70.898  1.00  0.00     0.039 C 
BRANCH  13  17
ATOM     17  C   UNL     1      73.766  75.826  72.839  1.00  0.00     0.066 CG0
ATOM     18  G   UNL     1      73.080  74.688  72.118  1.00  0.00     0.000 G0
ENDBRANCH  13  17
ENDBRANCH  11  13
ENDBRANCH  10  11
ENDBRANCH   1  10
TORSDOF 0
ENDMDL
MODEL 7
REMARK VINA RESULT:     3.943      1.739      3.610
REMARK INTER + INTRA:           6.348
REMARK INTER:                   3.921
REMARK INTRA:                   2.428
REMARK UNBOUND:                 0.791
REMARK SMILES CC1=CCC(=C(C)C)C(=O)CC(C)=CCC1
REMARK SMILES IDX 12 1 14 2 13 3 15 4 16 5 2 6 1 7 3 8 11 10 9 11 10 12 5 13
REMARK SMILES IDX 6 14 7 15 8 16 4 17
REMARK H PARENT
REMARK Flexibility Score: 60.00
ROOT
ATOM      1  C   UNL     1      75.238  74.268  76.408  1.00  0.00    -0.070 C 
ATOM      2  C   UNL     1      76.176  75.242  76.360  1.00  0.00    -0.027 C 
ATOM      3  C   UNL     1      74.632  73.931  77.746  1.00  0.00     0.039 C 
ENDROOT
BRANCH   2   4
ATOM      4  C   UNL     1      76.843  75.750  75.101  1.00  0.00     0.032 C 
BRANCH   4   5
ATOM      5  C   UNL     1      76.396  74.956  73.865  1.00  0.00     0.034 C 
BRANCH   5   6
ATOM      6  C   UNL     1      76.085  75.832  72.659  1.00  0.00    -0.077 C 
ATOM      7  C   UNL     1      77.201  76.175  71.703  1.00  0.00     0.039 C 
ATOM      8  C   UNL     1      74.851  76.309  72.385  1.00  0.00    -0.023 CG0
ATOM      9  G   UNL     1      73.629  76.132  73.257  1.00  0.00     0.000 G0
ENDBRANCH   5   6
ENDBRANCH   4   5
ENDBRANCH   2   4
BRANCH   1  10
ATOM     10  C   UNL     1      74.777  73.506  75.180  1.00  0.00     0.111 C 
BRANCH  10  11
ATOM     11  C   UNL     1      73.430  73.986  74.719  1.00  0.00     0.163 C 
ATOM     12  O   UNL     1      72.430  73.842  75.474  1.00  0.00    -0.294 OA
BRANCH  11  13
ATOM     13  C   UNL     1      73.256  74.649  73.402  1.00  0.00    -0.002 C 
ATOM     14  C   UNL     1      72.751  73.956  72.345  1.00  0.00    -0.069 C 
ATOM     15  C   UNL     1      72.268  72.531  72.504  1.00  0.00     0.039 C 
ATOM     16  C   UNL     1      72.616  74.598  70.984  1.00  0.00     0.039 C 
BRANCH  13  17
ATOM     17  C   UNL     1      73.648  76.115  73.251  1.00  0.00     0.066 CG0
ATOM     18  G   UNL     1      74.871  76.332  72.389  1.00  0.00     0.000 G0
ENDBRANCH  13  17
ENDBRANCH  11  13
ENDBRANCH  10  11
ENDBRANCH   1  10
TORSDOF 0
ENDMDL
MODEL 8
REMARK VINA RESULT:     4.372      1.554      3.790
REMARK INTER + INTRA:           6.953
REMARK INTER:                   4.853
REMARK INTRA:                   2.100
REMARK UNBOUND:                 0.791
REMARK SMILES CC1=CCC(=C(C)C)C(=O)CC(C)=CCC1
REMARK SMILES IDX 12 1 14 2 13 3 15 4 16 5 2 6 1 7 3 8 11 10 9 11 10 12 5 13
REMARK SMILES IDX 6 14 7 15 8 16 4 17
REMARK H PARENT
REMARK Flexibility Score: 60.00
ROOT
ATOM      1  C   UNL     1      74.953  74.415  76.794  1.00  0.00    -0.070 C 
ATOM      2  C   UNL     1      76.033  75.159  76.461  1.00  0.00    -0.027 C 
ATOM      3  C   UNL     1      74.337  74.628  78.154  1.00  0.00     0.039 C 
ENDROOT
BRANCH   2   4
ATOM      4  C   UNL     1      76.738  75.122  75.124  1.00  0.00     0.032 C 
BRANCH   4   5
ATOM      5  C   UNL     1      76.114  76.110  74.128  1.00  0.00     0.034 C 
BRANCH   5   6
ATOM      6  C   UNL     1      76.401  75.771  72.672  1.00  0.00    -0.077 C 
ATOM      7  C   UNL     1      76.875  76.867  71.750  1.00  0.00     0.039 C 
ATOM      8  C   UNL     1      76.271  74.527  72.159  1.00  0.00    -0.023 CG0
ATOM      9  G   UNL     1      75.746  73.322  72.904  1.00  0.00     0.000 G0
ENDBRANCH   5   6
ENDBRANCH   4   5
ENDBRANCH   2   4
BRANCH   1  10
ATOM     10  C   UNL     1      74.342  73.384  75.865  1.00  0.00     0.111 C 
BRANCH  10  11
ATOM     11  C   UNL     1      73.893  74.015  74.577  1.00  0.00     0.163 C 
ATOM     12  O   UNL     1      73.197  75.065  74.612  1.00  0.00    -0.294 OA
BRANCH  11  13
ATOM     13  C   UNL     1      74.273  73.438  73.262  1.00  0.00    -0.002 C 
ATOM     14  C   UNL     1      73.313  73.018  72.393  1.00  0.00    -0.069 C 
ATOM     15  C   UNL     1      71.844  73.212  72.697  1.00  0.00     0.039 C 
ATOM     16  C   UNL     1      73.681  72.381  71.073  1.00  0.00     0.039 C 
BRANCH  13  17
ATOM     17  C   UNL     1      75.750  73.325  72.899  1.00  0.00     0.066 CG0
ATOM     18  G   UNL     1      76.287  74.524  72.152  1.00  0.00     0.000 G0
ENDBRANCH  13  17
ENDBRANCH  11  13
ENDBRANCH  10  11
ENDBRANCH   1  10
TORSDOF 0
ENDMDL
MODEL 9
REMARK VINA RESULT:     4.427      1.865      3.478
REMARK INTER + INTRA:           7.030
REMARK INTER:                   6.139
REMARK INTRA:                   0.891
REMARK UNBOUND:                 0.791
REMARK SMILES CC1=CCC(=C(C)C)C(=O)CC(C)=CCC1
REMARK SMILES IDX 12 1 14 2 13 3 15 4 16 5 2 6 1 7 3 8 11 10 9 11 10 12 5 13
REMARK SMILES IDX 6 14 7 15 8 16 4 17
REMARK H PARENT
REMARK Flexibility Score: 60.00
ROOT
ATOM      1  C   UNL     1      73.235  74.155  75.491  1.00  0.00    -0.070 C 
ATOM      2  C   UNL     1      74.200  73.745  76.347  1.00  0.00    -0.027 C 
ATOM      3  C   UNL     1      72.164  73.167  75.104  1.00  0.00     0.039 C 
ENDROOT
BRANCH   2   4
ATOM      4  C   UNL     1      75.312  74.617  76.888  1.00  0.00     0.032 C 
BRANCH   4   5
ATOM      5  C   UNL     1      76.606  74.451  76.079  1.00  0.00     0.034 C 
BRANCH   5   6
ATOM      6  C   UNL     1      76.809  75.533  75.028  1.00  0.00    -0.077 C 
ATOM      7  C   UNL     1      77.416  76.849  75.448  1.00  0.00     0.039 C 
ATOM      8  C   UNL     1      76.490  75.373  73.724  1.00  0.00    -0.023 CG0
ATOM      9  G   UNL     1      75.812  74.160  73.130  1.00  0.00     0.000 G0
ENDBRANCH   5   6
ENDBRANCH   4   5
ENDBRANCH   2   4
BRANCH   1  10
ATOM     10  C   UNL     1      73.187  75.555  74.909  1.00  0.00     0.111 C 
BRANCH  10  11
ATOM     11  C   UNL     1      73.650  75.563  73.480  1.00  0.00     0.163 C 
ATOM     12  O   UNL     1      73.487  76.600  72.783  1.00  0.00    -0.294 OA
BRANCH  11  13
ATOM     13  C   UNL     1      74.317  74.380  72.878  1.00  0.00    -0.002 C 
ATOM     14  C   UNL     1      73.604  73.497  72.126  1.00  0.00    -0.069 C 
ATOM     15  C   UNL     1      72.146  73.743  71.805  1.00  0.00     0.039 C 
ATOM     16  C   UNL     1      74.253  72.261  71.549  1.00  0.00     0.039 C 
BRANCH  13  17
ATOM     17  C   UNL     1      75.810  74.170  73.112  1.00  0.00     0.066 CG0
ATOM     18  G   UNL     1      76.503  75.364  73.725  1.00  0.00     0.000 G0
ENDBRANCH  13  17
ENDBRANCH  11  13
ENDBRANCH  10  11
ENDBRANCH   1  10
TORSDOF 0
ENDMDL
