MODEL 1
REMARK VINA RESULT:    -5.356      0.000      0.000
REMARK INTER + INTRA:          -6.737
REMARK INTER:                  -6.452
REMARK INTRA:                  -0.285
REMARK UNBOUND:                -0.285
REMARK SMILES O=c1c(O)c(-c2ccc(O)c(O)c2)oc2cc(O)cc(O)c12
REMARK SMILES IDX 5 1 3 2 2 3 1 4 22 5 20 6 19 7 17 8 16 9 15 10 14 11 6 12
REMARK SMILES IDX 7 13 8 14 9 15 13 16 11 17 10 18 12 20 4 22 21 24 18 26
REMARK H PARENT 10 19 12 21 4 23 21 25 18 27
REMARK Flexibility Score: inf
ROOT
ATOM      1  C   UNL     1     121.009 128.000 129.803  1.00  0.00     0.180 A 
ATOM      2  C   UNL     1     120.793 129.382 129.940  1.00  0.00     0.208 A 
ATOM      3  C   UNL     1     121.818 130.271 129.577  1.00  0.00     0.238 A 
ATOM      4  O   UNL     1     121.639 131.504 129.752  1.00  0.00    -0.285 OA
ATOM      5  C   UNL     1     123.038 129.767 129.065  1.00  0.00     0.111 A 
ATOM      6  C   UNL     1     124.129 130.577 128.629  1.00  0.00     0.134 A 
ATOM      7  C   UNL     1     125.337 129.970 128.264  1.00  0.00     0.093 A 
ATOM      8  C   UNL     1     125.473 128.582 128.259  1.00  0.00     0.123 A 
ATOM      9  C   UNL     1     124.394 127.778 128.627  1.00  0.00     0.094 A 
ATOM     10  C   UNL     1     123.187 128.356 129.031  1.00  0.00     0.146 A 
ATOM     11  O   UNL     1     122.188 127.557 129.384  1.00  0.00    -0.452 OA
ENDROOT
BRANCH   1  12
ATOM     12  C   UNL     1     119.968 127.002 130.142  1.00  0.00     0.025 A 
ATOM     13  C   UNL     1     118.872 126.772 129.296  1.00  0.00     0.016 A 
ATOM     14  C   UNL     1     117.916 125.811 129.624  1.00  0.00     0.051 A 
ATOM     15  C   UNL     1     118.039 125.051 130.793  1.00  0.00     0.157 A 
ATOM     16  C   UNL     1     120.104 126.228 131.304  1.00  0.00     0.062 A 
ATOM     17  C   UNL     1     119.151 125.259 131.642  1.00  0.00     0.158 A 
BRANCH  15  18
ATOM     18  O   UNL     1     117.046 124.108 131.066  1.00  0.00    -0.504 OA
ATOM     19  H   UNL     1     116.232 123.960 130.486  1.00  0.00     0.293 HD
ENDBRANCH  15  18
BRANCH  17  20
ATOM     20  O   UNL     1     119.346 124.535 132.820  1.00  0.00    -0.504 OA
ATOM     21  H   UNL     1     119.361 123.526 132.868  1.00  0.00     0.293 HD
ENDBRANCH  17  20
ENDBRANCH   1  12
BRANCH   2  22
ATOM     22  O   UNL     1     119.589 129.858 130.466  1.00  0.00    -0.502 OA
ATOM     23  H   UNL     1     119.418 129.925 131.462  1.00  0.00     0.293 HD
ENDBRANCH   2  22
BRANCH   6  24
ATOM     24  O   UNL     1     124.070 131.968 128.508  1.00  0.00    -0.507 OA
ATOM     25  H   UNL     1     124.833 132.595 128.714  1.00  0.00     0.293 HD
ENDBRANCH   6  24
BRANCH   8  26
ATOM     26  O   UNL     1     126.685 128.011 127.875  1.00  0.00    -0.508 OA
ATOM     27  H   UNL     1     127.191 127.381 128.487  1.00  0.00     0.293 HD
ENDBRANCH   8  26
TORSDOF 6
ENDMDL
MODEL 2
REMARK VINA RESULT:    -5.308      1.684      6.880
REMARK INTER + INTRA:          -6.679
REMARK INTER:                  -6.356
REMARK INTRA:                  -0.323
REMARK UNBOUND:                -0.285
REMARK SMILES O=c1c(O)c(-c2ccc(O)c(O)c2)oc2cc(O)cc(O)c12
REMARK SMILES IDX 5 1 3 2 2 3 1 4 22 5 20 6 19 7 17 8 16 9 15 10 14 11 6 12
REMARK SMILES IDX 7 13 8 14 9 15 13 16 11 17 10 18 12 20 4 22 21 24 18 26
REMARK H PARENT 10 19 12 21 4 23 21 25 18 27
REMARK Flexibility Score: inf
ROOT
ATOM      1  C   UNL     1     120.825 127.803 129.762  1.00  0.00     0.180 A 
ATOM      2  C   UNL     1     119.806 128.148 128.857  1.00  0.00     0.208 A 
ATOM      3  C   UNL     1     118.574 127.479 128.932  1.00  0.00     0.238 A 
ATOM      4  O   UNL     1     117.684 127.753 128.084  1.00  0.00    -0.285 OA
ATOM      5  C   UNL     1     118.371 126.486 129.920  1.00  0.00     0.111 A 
ATOM      6  C   UNL     1     117.150 125.772 130.112  1.00  0.00     0.134 A 
ATOM      7  C   UNL     1     117.103 124.720 131.035  1.00  0.00     0.093 A 
ATOM      8  C   UNL     1     118.211 124.397 131.817  1.00  0.00     0.123 A 
ATOM      9  C   UNL     1     119.393 125.127 131.679  1.00  0.00     0.094 A 
ATOM     10  C   UNL     1     119.481 126.159 130.741  1.00  0.00     0.146 A 
ATOM     11  O   UNL     1     120.626 126.822 130.634  1.00  0.00    -0.452 OA
ENDROOT
BRANCH   1  12
ATOM     12  C   UNL     1     122.142 128.481 129.761  1.00  0.00     0.025 A 
ATOM     13  C   UNL     1     122.335 129.706 130.420  1.00  0.00     0.016 A 
ATOM     14  C   UNL     1     123.590 130.314 130.426  1.00  0.00     0.051 A 
ATOM     15  C   UNL     1     124.680 129.710 129.789  1.00  0.00     0.157 A 
ATOM     16  C   UNL     1     123.238 127.863 129.140  1.00  0.00     0.062 A 
ATOM     17  C   UNL     1     124.502 128.465 129.141  1.00  0.00     0.158 A 
BRANCH  15  18
ATOM     18  O   UNL     1     125.909 130.373 129.828  1.00  0.00    -0.504 OA
ATOM     19  H   UNL     1     126.059 131.257 130.292  1.00  0.00     0.293 HD
ENDBRANCH  15  18
BRANCH  17  20
ATOM     20  O   UNL     1     125.543 127.798 128.492  1.00  0.00    -0.504 OA
ATOM     21  H   UNL     1     126.215 127.207 128.960  1.00  0.00     0.293 HD
ENDBRANCH  17  20
ENDBRANCH   1  12
BRANCH   2  22
ATOM     22  O   UNL     1     120.035 129.116 127.875  1.00  0.00    -0.502 OA
ATOM     23  H   UNL     1     120.605 129.937 128.041  1.00  0.00     0.293 HD
ENDBRANCH   2  22
BRANCH   6  24
ATOM     24  O   UNL     1     115.957 126.073 129.449  1.00  0.00    -0.507 OA
ATOM     25  H   UNL     1     115.035 125.864 129.803  1.00  0.00     0.293 HD
ENDBRANCH   6  24
BRANCH   8  26
ATOM     26  O   UNL     1     118.124 123.354 132.737  1.00  0.00    -0.508 OA
ATOM     27  H   UNL     1     118.897 122.717 132.889  1.00  0.00     0.293 HD
ENDBRANCH   8  26
TORSDOF 6
ENDMDL
MODEL 3
REMARK VINA RESULT:    -5.248     14.082     16.535
REMARK INTER + INTRA:          -6.606
REMARK INTER:                  -6.289
REMARK INTRA:                  -0.317
REMARK UNBOUND:                -0.285
REMARK SMILES O=c1c(O)c(-c2ccc(O)c(O)c2)oc2cc(O)cc(O)c12
REMARK SMILES IDX 5 1 3 2 2 3 1 4 22 5 20 6 19 7 17 8 16 9 15 10 14 11 6 12
REMARK SMILES IDX 7 13 8 14 9 15 13 16 11 17 10 18 12 20 4 22 21 24 18 26
REMARK H PARENT 10 19 12 21 4 23 21 25 18 27
REMARK Flexibility Score: inf
ROOT
ATOM      1  C   UNL     1     130.637 138.551 137.548  1.00  0.00     0.180 A 
ATOM      2  C   UNL     1     131.076 138.611 138.882  1.00  0.00     0.208 A 
ATOM      3  C   UNL     1     132.403 138.990 139.146  1.00  0.00     0.238 A 
ATOM      4  O   UNL     1     132.806 138.989 140.338  1.00  0.00    -0.285 OA
ATOM      5  C   UNL     1     133.267 139.322 138.075  1.00  0.00     0.111 A 
ATOM      6  C   UNL     1     134.617 139.758 138.228  1.00  0.00     0.134 A 
ATOM      7  C   UNL     1     135.420 139.933 137.094  1.00  0.00     0.093 A 
ATOM      8  C   UNL     1     134.904 139.751 135.812  1.00  0.00     0.123 A 
ATOM      9  C   UNL     1     133.568 139.381 135.648  1.00  0.00     0.094 A 
ATOM     10  C   UNL     1     132.752 139.164 136.761  1.00  0.00     0.146 A 
ATOM     11  O   UNL     1     131.490 138.803 136.563  1.00  0.00    -0.452 OA
ENDROOT
BRANCH   1  12
ATOM     12  C   UNL     1     129.247 138.183 137.192  1.00  0.00     0.025 A 
ATOM     13  C   UNL     1     128.895 136.857 136.895  1.00  0.00     0.016 A 
ATOM     14  C   UNL     1     127.575 136.530 136.586  1.00  0.00     0.051 A 
ATOM     15  C   UNL     1     126.578 137.511 136.581  1.00  0.00     0.157 A 
ATOM     16  C   UNL     1     128.246 139.166 137.208  1.00  0.00     0.062 A 
ATOM     17  C   UNL     1     126.918 138.847 136.900  1.00  0.00     0.158 A 
BRANCH  15  18
ATOM     18  O   UNL     1     125.277 137.119 136.259  1.00  0.00    -0.504 OA
ATOM     19  H   UNL     1     124.785 137.420 135.430  1.00  0.00     0.293 HD
ENDBRANCH  15  18
BRANCH  17  20
ATOM     20  O   UNL     1     125.977 139.879 136.924  1.00  0.00    -0.504 OA
ATOM     21  H   UNL     1     124.988 139.740 137.074  1.00  0.00     0.293 HD
ENDBRANCH  17  20
ENDBRANCH   1  12
BRANCH   2  22
ATOM     22  O   UNL     1     130.213 138.258 139.924  1.00  0.00    -0.502 OA
ATOM     23  H   UNL     1     129.924 137.303 140.092  1.00  0.00     0.293 HD
ENDBRANCH   2  22
BRANCH   6  24
ATOM     24  O   UNL     1     135.205 140.059 139.460  1.00  0.00    -0.507 OA
ATOM     25  H   UNL     1     135.680 139.390 140.048  1.00  0.00     0.293 HD
ENDBRANCH   6  24
BRANCH   8  26
ATOM     26  O   UNL     1     135.727 139.949 134.705  1.00  0.00    -0.508 OA
ATOM     27  H   UNL     1     135.524 140.663 134.015  1.00  0.00     0.293 HD
ENDBRANCH   8  26
TORSDOF 6
ENDMDL
MODEL 4
REMARK VINA RESULT:    -5.195      1.438      7.164
REMARK INTER + INTRA:          -6.543
REMARK INTER:                  -6.209
REMARK INTRA:                  -0.335
REMARK UNBOUND:                -0.285
REMARK SMILES O=c1c(O)c(-c2ccc(O)c(O)c2)oc2cc(O)cc(O)c12
REMARK SMILES IDX 5 1 3 2 2 3 1 4 22 5 20 6 19 7 17 8 16 9 15 10 14 11 6 12
REMARK SMILES IDX 7 13 8 14 9 15 13 16 11 17 10 18 12 20 4 22 21 24 18 26
REMARK H PARENT 10 19 12 21 4 23 21 25 18 27
REMARK Flexibility Score: inf
ROOT
ATOM      1  C   UNL     1     121.661 127.448 130.320  1.00  0.00     0.180 A 
ATOM      2  C   UNL     1     121.907 126.690 131.478  1.00  0.00     0.208 A 
ATOM      3  C   UNL     1     120.889 125.862 131.979  1.00  0.00     0.238 A 
ATOM      4  O   UNL     1     121.096 125.228 133.046  1.00  0.00    -0.285 OA
ATOM      5  C   UNL     1     119.646 125.789 131.307  1.00  0.00     0.111 A 
ATOM      6  C   UNL     1     118.558 124.954 131.703  1.00  0.00     0.134 A 
ATOM      7  C   UNL     1     117.329 125.060 131.040  1.00  0.00     0.093 A 
ATOM      8  C   UNL     1     117.167 125.923 129.957  1.00  0.00     0.123 A 
ATOM      9  C   UNL     1     118.241 126.702 129.524  1.00  0.00     0.094 A 
ATOM     10  C   UNL     1     119.469 126.644 130.187  1.00  0.00     0.146 A 
ATOM     11  O   UNL     1     120.463 127.409 129.751  1.00  0.00    -0.452 OA
ENDROOT
BRANCH   1  12
ATOM     12  C   UNL     1     122.693 128.324 129.719  1.00  0.00     0.025 A 
ATOM     13  C   UNL     1     123.602 127.837 128.767  1.00  0.00     0.016 A 
ATOM     14  C   UNL     1     124.550 128.688 128.196  1.00  0.00     0.051 A 
ATOM     15  C   UNL     1     124.601 130.040 128.550  1.00  0.00     0.157 A 
ATOM     16  C   UNL     1     122.729 129.685 130.060  1.00  0.00     0.062 A 
ATOM     17  C   UNL     1     123.675 130.547 129.492  1.00  0.00     0.158 A 
BRANCH  15  18
ATOM     18  O   UNL     1     125.576 130.837 127.946  1.00  0.00    -0.504 OA
ATOM     19  H   UNL     1     125.588 131.846 127.989  1.00  0.00     0.293 HD
ENDBRANCH  15  18
BRANCH  17  20
ATOM     20  O   UNL     1     123.659 131.886 129.889  1.00  0.00    -0.504 OA
ATOM     21  H   UNL     1     124.470 132.385 130.226  1.00  0.00     0.293 HD
ENDBRANCH  17  20
ENDBRANCH   1  12
BRANCH   2  22
ATOM     22  O   UNL     1     123.135 126.792 132.139  1.00  0.00    -0.502 OA
ATOM     23  H   UNL     1     123.205 126.975 133.132  1.00  0.00     0.293 HD
ENDBRANCH   2  22
BRANCH   6  24
ATOM     24  O   UNL     1     118.640 123.991 132.712  1.00  0.00    -0.507 OA
ATOM     25  H   UNL     1     118.502 124.176 133.695  1.00  0.00     0.293 HD
ENDBRANCH   6  24
BRANCH   8  26
ATOM     26  O   UNL     1     115.934 125.992 129.311  1.00  0.00    -0.508 OA
ATOM     27  H   UNL     1     115.342 126.812 129.385  1.00  0.00     0.293 HD
ENDBRANCH   8  26
TORSDOF 6
ENDMDL
MODEL 5
REMARK VINA RESULT:    -4.935      2.211      2.861
REMARK INTER + INTRA:          -6.230
REMARK INTER:                  -5.928
REMARK INTRA:                  -0.302
REMARK UNBOUND:                -0.285
REMARK SMILES O=c1c(O)c(-c2ccc(O)c(O)c2)oc2cc(O)cc(O)c12
REMARK SMILES IDX 5 1 3 2 2 3 1 4 22 5 20 6 19 7 17 8 16 9 15 10 14 11 6 12
REMARK SMILES IDX 7 13 8 14 9 15 13 16 11 17 10 18 12 20 4 22 21 24 18 26
REMARK H PARENT 10 19 12 21 4 23 21 25 18 27
REMARK Flexibility Score: inf
ROOT
ATOM      1  C   UNL     1     120.215 128.619 130.272  1.00  0.00     0.180 A 
ATOM      2  C   UNL     1     120.514 129.220 129.037  1.00  0.00     0.208 A 
ATOM      3  C   UNL     1     121.560 130.155 128.971  1.00  0.00     0.238 A 
ATOM      4  O   UNL     1     121.789 130.730 127.875  1.00  0.00    -0.285 OA
ATOM      5  C   UNL     1     122.304 130.463 130.136  1.00  0.00     0.111 A 
ATOM      6  C   UNL     1     123.410 131.365 130.176  1.00  0.00     0.134 A 
ATOM      7  C   UNL     1     123.988 131.694 131.408  1.00  0.00     0.093 A 
ATOM      8  C   UNL     1     123.544 131.107 132.592  1.00  0.00     0.123 A 
ATOM      9  C   UNL     1     122.501 130.179 132.557  1.00  0.00     0.094 A 
ATOM     10  C   UNL     1     121.881 129.858 131.347  1.00  0.00     0.146 A 
ATOM     11  O   UNL     1     120.886 128.978 131.359  1.00  0.00    -0.452 OA
ENDROOT
BRANCH   1  12
ATOM     12  C   UNL     1     119.142 127.607 130.415  1.00  0.00     0.025 A 
ATOM     13  C   UNL     1     117.796 127.982 130.549  1.00  0.00     0.016 A 
ATOM     14  C   UNL     1     116.801 127.010 130.659  1.00  0.00     0.051 A 
ATOM     15  C   UNL     1     117.124 125.649 130.622  1.00  0.00     0.157 A 
ATOM     16  C   UNL     1     119.467 126.243 130.358  1.00  0.00     0.062 A 
ATOM     17  C   UNL     1     118.475 125.260 130.466  1.00  0.00     0.158 A 
BRANCH  15  18
ATOM     18  O   UNL     1     116.081 124.727 130.742  1.00  0.00    -0.504 OA
ATOM     19  H   UNL     1     115.189 124.820 130.277  1.00  0.00     0.293 HD
ENDBRANCH  15  18
BRANCH  17  20
ATOM     20  O   UNL     1     118.873 123.923 130.413  1.00  0.00    -0.504 OA
ATOM     21  H   UNL     1     118.329 123.156 130.782  1.00  0.00     0.293 HD
ENDBRANCH  17  20
ENDBRANCH   1  12
BRANCH   2  22
ATOM     22  O   UNL     1     119.754 128.918 127.904  1.00  0.00    -0.502 OA
ATOM     23  H   UNL     1     119.976 129.283 126.986  1.00  0.00     0.293 HD
ENDBRANCH   2  22
BRANCH   6  24
ATOM     24  O   UNL     1     123.992 131.937 129.042  1.00  0.00    -0.507 OA
ATOM     25  H   UNL     1     123.712 131.743 128.092  1.00  0.00     0.293 HD
ENDBRANCH   6  24
BRANCH   8  26
ATOM     26  O   UNL     1     124.153 131.446 133.799  1.00  0.00    -0.508 OA
ATOM     27  H   UNL     1     124.390 132.406 134.020  1.00  0.00     0.293 HD
ENDBRANCH   8  26
TORSDOF 6
ENDMDL
MODEL 6
REMARK VINA RESULT:    -4.910      1.047      1.730
REMARK INTER + INTRA:          -6.200
REMARK INTER:                  -5.912
REMARK INTRA:                  -0.288
REMARK UNBOUND:                -0.285
REMARK SMILES O=c1c(O)c(-c2ccc(O)c(O)c2)oc2cc(O)cc(O)c12
REMARK SMILES IDX 5 1 3 2 2 3 1 4 22 5 20 6 19 7 17 8 16 9 15 10 14 11 6 12
REMARK SMILES IDX 7 13 8 14 9 15 13 16 11 17 10 18 12 20 4 22 21 24 18 26
REMARK H PARENT 10 19 12 21 4 23 21 25 18 27
REMARK Flexibility Score: inf
ROOT
ATOM      1  C   UNL     1     120.515 128.130 129.902  1.00  0.00     0.180 A 
ATOM      2  C   UNL     1     120.391 129.479 130.275  1.00  0.00     0.208 A 
ATOM      3  C   UNL     1     121.476 130.346 130.067  1.00  0.00     0.238 A 
ATOM      4  O   UNL     1     121.379 131.540 130.453  1.00  0.00    -0.285 OA
ATOM      5  C   UNL     1     122.664 129.857 129.471  1.00  0.00     0.111 A 
ATOM      6  C   UNL     1     123.810 130.655 129.176  1.00  0.00     0.134 A 
ATOM      7  C   UNL     1     124.978 130.040 128.708  1.00  0.00     0.093 A 
ATOM      8  C   UNL     1     125.020 128.668 128.463  1.00  0.00     0.123 A 
ATOM      9  C   UNL     1     123.886 127.887 128.692  1.00  0.00     0.094 A 
ATOM     10  C   UNL     1     122.718 128.467 129.193  1.00  0.00     0.146 A 
ATOM     11  O   UNL     1     121.665 127.687 129.408  1.00  0.00    -0.452 OA
ENDROOT
BRANCH   1  12
ATOM     12  C   UNL     1     119.407 127.161 130.068  1.00  0.00     0.025 A 
ATOM     13  C   UNL     1     119.371 126.270 131.152  1.00  0.00     0.016 A 
ATOM     14  C   UNL     1     118.305 125.383 131.301  1.00  0.00     0.051 A 
ATOM     15  C   UNL     1     117.248 125.376 130.385  1.00  0.00     0.157 A 
ATOM     16  C   UNL     1     118.338 127.170 129.159  1.00  0.00     0.062 A 
ATOM     17  C   UNL     1     117.263 126.285 129.301  1.00  0.00     0.158 A 
BRANCH  15  18
ATOM     18  O   UNL     1     116.213 124.460 130.588  1.00  0.00    -0.504 OA
ATOM     19  H   UNL     1     115.655 124.416 131.429  1.00  0.00     0.293 HD
ENDBRANCH  15  18
BRANCH  17  20
ATOM     20  O   UNL     1     116.241 126.342 128.351  1.00  0.00    -0.504 OA
ATOM     21  H   UNL     1     115.306 126.671 128.545  1.00  0.00     0.293 HD
ENDBRANCH  17  20
ENDBRANCH   1  12
BRANCH   2  22
ATOM     22  O   UNL     1     119.218 129.937 130.881  1.00  0.00    -0.502 OA
ATOM     23  H   UNL     1     118.516 130.466 130.378  1.00  0.00     0.293 HD
ENDBRANCH   2  22
BRANCH   6  24
ATOM     24  O   UNL     1     123.845 132.047 129.298  1.00  0.00    -0.507 OA
ATOM     25  H   UNL     1     123.055 132.621 129.552  1.00  0.00     0.293 HD
ENDBRANCH   6  24
BRANCH   8  26
ATOM     26  O   UNL     1     126.194 128.092 127.981  1.00  0.00    -0.508 OA
ATOM     27  H   UNL     1     126.637 127.315 128.458  1.00  0.00     0.293 HD
ENDBRANCH   8  26
TORSDOF 6
ENDMDL
MODEL 7
REMARK VINA RESULT:    -4.897     13.765     15.676
REMARK INTER + INTRA:          -6.184
REMARK INTER:                  -5.864
REMARK INTRA:                  -0.321
REMARK UNBOUND:                -0.285
REMARK SMILES O=c1c(O)c(-c2ccc(O)c(O)c2)oc2cc(O)cc(O)c12
REMARK SMILES IDX 5 1 3 2 2 3 1 4 22 5 20 6 19 7 17 8 16 9 15 10 14 11 6 12
REMARK SMILES IDX 7 13 8 14 9 15 13 16 11 17 10 18 12 20 4 22 21 24 18 26
REMARK H PARENT 10 19 12 21 4 23 21 25 18 27
REMARK Flexibility Score: inf
ROOT
ATOM      1  C   UNL     1     135.035 133.551 134.798  1.00  0.00     0.180 A 
ATOM      2  C   UNL     1     134.827 134.620 135.686  1.00  0.00     0.208 A 
ATOM      3  C   UNL     1     134.870 135.934 135.192  1.00  0.00     0.238 A 
ATOM      4  O   UNL     1     134.737 136.889 136.002  1.00  0.00    -0.285 OA
ATOM      5  C   UNL     1     135.102 136.161 133.814  1.00  0.00     0.111 A 
ATOM      6  C   UNL     1     135.126 137.449 133.198  1.00  0.00     0.134 A 
ATOM      7  C   UNL     1     135.494 137.563 131.852  1.00  0.00     0.093 A 
ATOM      8  C   UNL     1     135.777 136.434 131.084  1.00  0.00     0.123 A 
ATOM      9  C   UNL     1     135.699 135.166 131.661  1.00  0.00     0.094 A 
ATOM     10  C   UNL     1     135.369 135.022 133.011  1.00  0.00     0.146 A 
ATOM     11  O   UNL     1     135.316 133.799 133.524  1.00  0.00    -0.452 OA
ENDROOT
BRANCH   1  12
ATOM     12  C   UNL     1     134.981 132.138 135.240  1.00  0.00     0.025 A 
ATOM     13  C   UNL     1     136.113 131.491 135.760  1.00  0.00     0.016 A 
ATOM     14  C   UNL     1     136.032 130.167 136.193  1.00  0.00     0.051 A 
ATOM     15  C   UNL     1     134.823 129.467 136.129  1.00  0.00     0.157 A 
ATOM     16  C   UNL     1     133.762 131.445 135.193  1.00  0.00     0.062 A 
ATOM     17  C   UNL     1     133.671 130.116 135.626  1.00  0.00     0.158 A 
BRANCH  15  18
ATOM     18  O   UNL     1     134.810 128.143 136.573  1.00  0.00    -0.504 OA
ATOM     19  H   UNL     1     134.027 127.516 136.459  1.00  0.00     0.293 HD
ENDBRANCH  15  18
BRANCH  17  20
ATOM     20  O   UNL     1     132.428 129.486 135.538  1.00  0.00    -0.504 OA
ATOM     21  H   UNL     1     131.594 129.927 135.179  1.00  0.00     0.293 HD
ENDBRANCH  17  20
ENDBRANCH   1  12
BRANCH   2  22
ATOM     22  O   UNL     1     134.621 134.375 137.047  1.00  0.00    -0.502 OA
ATOM     23  H   UNL     1     135.383 134.318 137.712  1.00  0.00     0.293 HD
ENDBRANCH   2  22
BRANCH   6  24
ATOM     24  O   UNL     1     134.772 138.633 133.850  1.00  0.00    -0.507 OA
ATOM     25  H   UNL     1     133.829 138.982 133.935  1.00  0.00     0.293 HD
ENDBRANCH   6  24
BRANCH   8  26
ATOM     26  O   UNL     1     136.125 136.584 129.743  1.00  0.00    -0.508 OA
ATOM     27  H   UNL     1     136.680 135.888 129.259  1.00  0.00     0.293 HD
ENDBRANCH   8  26
TORSDOF 6
ENDMDL
MODEL 8
REMARK VINA RESULT:    -4.874     11.694     13.945
REMARK INTER + INTRA:          -6.157
REMARK INTER:                  -5.834
REMARK INTRA:                  -0.323
REMARK UNBOUND:                -0.285
REMARK SMILES O=c1c(O)c(-c2ccc(O)c(O)c2)oc2cc(O)cc(O)c12
REMARK SMILES IDX 5 1 3 2 2 3 1 4 22 5 20 6 19 7 17 8 16 9 15 10 14 11 6 12
REMARK SMILES IDX 7 13 8 14 9 15 13 16 11 17 10 18 12 20 4 22 21 24 18 26
REMARK H PARENT 10 19 12 21 4 23 21 25 18 27
REMARK Flexibility Score: inf
ROOT
ATOM      1  C   UNL     1     133.485 134.055 130.397  1.00  0.00     0.180 A 
ATOM      2  C   UNL     1     134.732 134.566 130.798  1.00  0.00     0.208 A 
ATOM      3  C   UNL     1     134.939 135.955 130.770  1.00  0.00     0.238 A 
ATOM      4  O   UNL     1     136.075 136.403 131.078  1.00  0.00    -0.285 OA
ATOM      5  C   UNL     1     133.893 136.815 130.360  1.00  0.00     0.111 A 
ATOM      6  C   UNL     1     133.979 138.240 130.332  1.00  0.00     0.134 A 
ATOM      7  C   UNL     1     132.927 138.985 129.784  1.00  0.00     0.093 A 
ATOM      8  C   UNL     1     131.768 138.362 129.323  1.00  0.00     0.123 A 
ATOM      9  C   UNL     1     131.648 136.974 129.400  1.00  0.00     0.094 A 
ATOM     10  C   UNL     1     132.695 136.201 129.908  1.00  0.00     0.146 A 
ATOM     11  O   UNL     1     132.546 134.883 129.954  1.00  0.00    -0.452 OA
ENDROOT
BRANCH   1  12
ATOM     12  C   UNL     1     133.183 132.605 130.422  1.00  0.00     0.025 A 
ATOM     13  C   UNL     1     133.478 131.778 129.327  1.00  0.00     0.016 A 
ATOM     14  C   UNL     1     133.207 130.411 129.382  1.00  0.00     0.051 A 
ATOM     15  C   UNL     1     132.652 129.838 130.531  1.00  0.00     0.157 A 
ATOM     16  C   UNL     1     132.645 132.030 131.584  1.00  0.00     0.062 A 
ATOM     17  C   UNL     1     132.371 130.659 131.649  1.00  0.00     0.158 A 
BRANCH  15  18
ATOM     18  O   UNL     1     132.400 128.464 130.521  1.00  0.00    -0.504 OA
ATOM     19  H   UNL     1     131.881 127.991 129.796  1.00  0.00     0.293 HD
ENDBRANCH  15  18
BRANCH  17  20
ATOM     20  O   UNL     1     131.825 130.159 132.833  1.00  0.00    -0.504 OA
ATOM     21  H   UNL     1     131.929 129.204 133.145  1.00  0.00     0.293 HD
ENDBRANCH  17  20
ENDBRANCH   1  12
BRANCH   2  22
ATOM     22  O   UNL     1     135.759 133.698 131.179  1.00  0.00    -0.502 OA
ATOM     23  H   UNL     1     136.512 133.438 130.554  1.00  0.00     0.293 HD
ENDBRANCH   2  22
BRANCH   6  24
ATOM     24  O   UNL     1     135.053 138.967 130.851  1.00  0.00    -0.507 OA
ATOM     25  H   UNL     1     135.132 139.973 130.826  1.00  0.00     0.293 HD
ENDBRANCH   6  24
BRANCH   8  26
ATOM     26  O   UNL     1     130.735 139.136 128.798  1.00  0.00    -0.508 OA
ATOM     27  H   UNL     1     130.745 140.147 128.862  1.00  0.00     0.293 HD
ENDBRANCH   8  26
TORSDOF 6
ENDMDL
MODEL 9
REMARK VINA RESULT:    -4.867      2.389      2.778
REMARK INTER + INTRA:          -6.148
REMARK INTER:                  -5.859
REMARK INTRA:                  -0.290
REMARK UNBOUND:                -0.285
REMARK SMILES O=c1c(O)c(-c2ccc(O)c(O)c2)oc2cc(O)cc(O)c12
REMARK SMILES IDX 5 1 3 2 2 3 1 4 22 5 20 6 19 7 17 8 16 9 15 10 14 11 6 12
REMARK SMILES IDX 7 13 8 14 9 15 13 16 11 17 10 18 12 20 4 22 21 24 18 26
REMARK H PARENT 10 19 12 21 4 23 21 25 18 27
REMARK Flexibility Score: inf
ROOT
ATOM      1  C   UNL     1     121.057 129.361 130.425  1.00  0.00     0.180 A 
ATOM      2  C   UNL     1     121.519 130.679 130.261  1.00  0.00     0.208 A 
ATOM      3  C   UNL     1     122.728 130.897 129.580  1.00  0.00     0.238 A 
ATOM      4  O   UNL     1     123.164 132.073 129.484  1.00  0.00    -0.285 OA
ATOM      5  C   UNL     1     123.449 129.796 129.056  1.00  0.00     0.111 A 
ATOM      6  C   UNL     1     124.664 129.903 128.314  1.00  0.00     0.134 A 
ATOM      7  C   UNL     1     125.360 128.742 127.958  1.00  0.00     0.093 A 
ATOM      8  C   UNL     1     124.854 127.478 128.259  1.00  0.00     0.123 A 
ATOM      9  C   UNL     1     123.637 127.361 128.933  1.00  0.00     0.094 A 
ATOM     10  C   UNL     1     122.937 128.502 129.333  1.00  0.00     0.146 A 
ATOM     11  O   UNL     1     121.789 128.347 129.981  1.00  0.00    -0.452 OA
ENDROOT
BRANCH   1  12
ATOM     12  C   UNL     1     119.780 129.055 131.110  1.00  0.00     0.025 A 
ATOM     13  C   UNL     1     119.751 128.638 132.450  1.00  0.00     0.016 A 
ATOM     14  C   UNL     1     118.535 128.378 133.082  1.00  0.00     0.051 A 
ATOM     15  C   UNL     1     117.325 128.541 132.399  1.00  0.00     0.157 A 
ATOM     16  C   UNL     1     118.567 129.239 130.428  1.00  0.00     0.062 A 
ATOM     17  C   UNL     1     117.341 128.981 131.054  1.00  0.00     0.158 A 
BRANCH  15  18
ATOM     18  O   UNL     1     116.143 128.259 133.087  1.00  0.00    -0.504 OA
ATOM     19  H   UNL     1     116.079 127.611 133.858  1.00  0.00     0.293 HD
ENDBRANCH  15  18
BRANCH  17  20
ATOM     20  O   UNL     1     116.176 129.175 130.310  1.00  0.00    -0.504 OA
ATOM     21  H   UNL     1     115.243 129.100 130.690  1.00  0.00     0.293 HD
ENDBRANCH  17  20
ENDBRANCH   1  12
BRANCH   2  22
ATOM     22  O   UNL     1     120.803 131.749 130.804  1.00  0.00    -0.502 OA
ATOM     23  H   UNL     1     121.249 132.497 131.322  1.00  0.00     0.293 HD
ENDBRANCH   2  22
BRANCH   6  24
ATOM     24  O   UNL     1     125.211 131.115 127.882  1.00  0.00    -0.507 OA
ATOM     25  H   UNL     1     124.677 131.950 127.692  1.00  0.00     0.293 HD
ENDBRANCH   6  24
BRANCH   8  26
ATOM     26  O   UNL     1     125.565 126.343 127.875  1.00  0.00    -0.508 OA
ATOM     27  H   UNL     1     125.890 126.219 126.923  1.00  0.00     0.293 HD
ENDBRANCH   8  26
TORSDOF 6
ENDMDL
