MODEL 1
REMARK VINA RESULT:    -4.058      0.000      0.000
REMARK INTER + INTRA:          -4.429
REMARK INTER:                  -4.414
REMARK INTRA:                  -0.015
REMARK UNBOUND:                -0.015
REMARK SMILES OCc1ccco1
REMARK SMILES IDX 2 1 3 2 5 3 6 4 4 5 7 6 1 7
REMARK H PARENT 1 8
REMARK Flexibility Score: inf
ROOT
ATOM      1  C   UNL     1      19.193  19.366  29.161  1.00  0.00     0.231 C 
ENDROOT
BRANCH   1   2
ATOM      2  C   UNL     1      20.196  18.702  28.273  1.00  0.00     0.129 A 
ATOM      3  C   UNL     1      21.132  17.441  26.738  1.00  0.00     0.042 A 
ATOM      4  C   UNL     1      22.084  18.121  27.473  1.00  0.00     0.195 A 
ATOM      5  C   UNL     1      19.911  17.813  27.257  1.00  0.00     0.048 A 
ATOM      6  O   UNL     1      21.495  18.862  28.383  1.00  0.00    -0.467 OA
ENDBRANCH   1   2
BRANCH   1   7
ATOM      7  O   UNL     1      19.242  20.755  28.987  1.00  0.00    -0.388 OA
ATOM      8  H   UNL     1      19.282  21.154  29.895  1.00  0.00     0.211 HD
ENDBRANCH   1   7
TORSDOF 2
ENDMDL
MODEL 2
REMARK VINA RESULT:    -3.990     17.564     18.041
REMARK INTER + INTRA:          -4.355
REMARK INTER:                  -4.338
REMARK INTRA:                  -0.017
REMARK UNBOUND:                -0.015
REMARK SMILES OCc1ccco1
REMARK SMILES IDX 2 1 3 2 5 3 6 4 4 5 7 6 1 7
REMARK H PARENT 1 8
REMARK Flexibility Score: inf
ROOT
ATOM      1  C   UNL     1      28.278  33.722  24.178  1.00  0.00     0.231 C 
ENDROOT
BRANCH   1   2
ATOM      2  C   UNL     1      27.597  34.167  22.923  1.00  0.00     0.129 A 
ATOM      3  C   UNL     1      27.189  35.066  20.961  1.00  0.00     0.042 A 
ATOM      4  C   UNL     1      26.041  34.530  21.513  1.00  0.00     0.195 A 
ATOM      5  C   UNL     1      28.195  34.835  21.874  1.00  0.00     0.048 A 
ATOM      6  O   UNL     1      26.316  34.004  22.684  1.00  0.00    -0.467 OA
ENDBRANCH   1   2
BRANCH   1   7
ATOM      7  O   UNL     1      27.676  34.323  25.290  1.00  0.00    -0.388 OA
ATOM      8  H   UNL     1      27.739  33.670  26.035  1.00  0.00     0.211 HD
ENDBRANCH   1   7
TORSDOF 2
ENDMDL
MODEL 3
REMARK VINA RESULT:    -3.929     13.120     13.455
REMARK INTER + INTRA:          -4.288
REMARK INTER:                  -4.268
REMARK INTRA:                  -0.020
REMARK UNBOUND:                -0.015
REMARK SMILES OCc1ccco1
REMARK SMILES IDX 2 1 3 2 5 3 6 4 4 5 7 6 1 7
REMARK H PARENT 1 8
REMARK Flexibility Score: inf
ROOT
ATOM      1  C   UNL     1      21.528  30.897  24.271  1.00  0.00     0.231 C 
ENDROOT
BRANCH   1   2
ATOM      2  C   UNL     1      21.290  30.918  22.795  1.00  0.00     0.129 A 
ATOM      3  C   UNL     1      21.182  31.550  20.694  1.00  0.00     0.042 A 
ATOM      4  C   UNL     1      20.631  30.295  20.867  1.00  0.00     0.195 A 
ATOM      5  C   UNL     1      21.606  31.956  21.942  1.00  0.00     0.048 A 
ATOM      6  O   UNL     1      20.708  29.947  22.130  1.00  0.00    -0.467 OA
ENDBRANCH   1   2
BRANCH   1   7
ATOM      7  O   UNL     1      21.563  29.576  24.733  1.00  0.00    -0.388 OA
ATOM      8  H   UNL     1      22.306  29.524  25.390  1.00  0.00     0.211 HD
ENDBRANCH   1   7
TORSDOF 2
ENDMDL
MODEL 4
REMARK VINA RESULT:    -3.899     13.118     13.877
REMARK INTER + INTRA:          -4.256
REMARK INTER:                  -4.235
REMARK INTRA:                  -0.021
REMARK UNBOUND:                -0.015
REMARK SMILES OCc1ccco1
REMARK SMILES IDX 2 1 3 2 5 3 6 4 4 5 7 6 1 7
REMARK H PARENT 1 8
REMARK Flexibility Score: inf
ROOT
ATOM      1  C   UNL     1      21.499  30.931  24.147  1.00  0.00     0.231 C 
ENDROOT
BRANCH   1   2
ATOM      2  C   UNL     1      21.640  31.927  25.254  1.00  0.00     0.129 A 
ATOM      3  C   UNL     1      21.973  33.784  26.378  1.00  0.00     0.042 A 
ATOM      4  C   UNL     1      21.763  32.717  27.229  1.00  0.00     0.195 A 
ATOM      5  C   UNL     1      21.896  33.274  25.099  1.00  0.00     0.048 A 
ATOM      6  O   UNL     1      21.571  31.623  26.529  1.00  0.00    -0.467 OA
ENDBRANCH   1   2
BRANCH   1   7
ATOM      7  O   UNL     1      21.527  29.630  24.665  1.00  0.00    -0.388 OA
ATOM      8  H   UNL     1      21.082  29.048  23.995  1.00  0.00     0.211 HD
ENDBRANCH   1   7
TORSDOF 2
ENDMDL
MODEL 5
REMARK VINA RESULT:    -3.801      1.460      3.225
REMARK INTER + INTRA:          -4.150
REMARK INTER:                  -4.135
REMARK INTRA:                  -0.015
REMARK UNBOUND:                -0.015
REMARK SMILES OCc1ccco1
REMARK SMILES IDX 2 1 3 2 5 3 6 4 4 5 7 6 1 7
REMARK H PARENT 1 8
REMARK Flexibility Score: inf
ROOT
ATOM      1  C   UNL     1      21.547  17.619  27.056  1.00  0.00     0.231 C 
ENDROOT
BRANCH   1   2
ATOM      2  C   UNL     1      20.827  18.376  28.126  1.00  0.00     0.129 A 
ATOM      3  C   UNL     1      20.288  19.301  30.044  1.00  0.00     0.042 A 
ATOM      4  C   UNL     1      19.285  19.471  29.110  1.00  0.00     0.195 A 
ATOM      5  C   UNL     1      21.285  18.590  29.410  1.00  0.00     0.048 A 
ATOM      6  O   UNL     1      19.635  18.906  27.977  1.00  0.00    -0.467 OA
ENDBRANCH   1   2
BRANCH   1   7
ATOM      7  O   UNL     1      21.872  18.476  25.998  1.00  0.00    -0.388 OA
ATOM      8  H   UNL     1      21.399  18.131  25.197  1.00  0.00     0.211 HD
ENDBRANCH   1   7
TORSDOF 2
ENDMDL
MODEL 6
REMARK VINA RESULT:    -3.732     15.882     17.016
REMARK INTER + INTRA:          -4.075
REMARK INTER:                  -4.054
REMARK INTRA:                  -0.021
REMARK UNBOUND:                -0.015
REMARK SMILES OCc1ccco1
REMARK SMILES IDX 2 1 3 2 5 3 6 4 4 5 7 6 1 7
REMARK H PARENT 1 8
REMARK Flexibility Score: inf
ROOT
ATOM      1  C   UNL     1      33.891  25.681  22.395  1.00  0.00     0.231 C 
ENDROOT
BRANCH   1   2
ATOM      2  C   UNL     1      34.338  26.841  23.226  1.00  0.00     0.129 A 
ATOM      3  C   UNL     1      35.196  28.759  23.866  1.00  0.00     0.042 A 
ATOM      4  C   UNL     1      34.756  28.024  24.949  1.00  0.00     0.195 A 
ATOM      5  C   UNL     1      34.929  27.994  22.750  1.00  0.00     0.048 A 
ATOM      6  O   UNL     1      34.252  26.884  24.535  1.00  0.00    -0.467 OA
ENDBRANCH   1   2
BRANCH   1   7
ATOM      7  O   UNL     1      33.116  24.807  23.167  1.00  0.00    -0.388 OA
ATOM      8  H   UNL     1      32.296  25.305  23.423  1.00  0.00     0.211 HD
ENDBRANCH   1   7
TORSDOF 2
ENDMDL
MODEL 7
REMARK VINA RESULT:    -3.696     12.275     12.816
REMARK INTER + INTRA:          -4.035
REMARK INTER:                  -4.019
REMARK INTRA:                  -0.016
REMARK UNBOUND:                -0.015
REMARK SMILES OCc1ccco1
REMARK SMILES IDX 2 1 3 2 5 3 6 4 4 5 7 6 1 7
REMARK H PARENT 1 8
REMARK Flexibility Score: inf
ROOT
ATOM      1  C   UNL     1      24.616  24.914  16.817  1.00  0.00     0.231 C 
ENDROOT
BRANCH   1   2
ATOM      2  C   UNL     1      23.186  24.550  17.060  1.00  0.00     0.129 A 
ATOM      3  C   UNL     1      21.347  23.419  17.465  1.00  0.00     0.042 A 
ATOM      4  C   UNL     1      21.071  24.751  17.223  1.00  0.00     0.195 A 
ATOM      5  C   UNL     1      22.715  23.287  17.357  1.00  0.00     0.048 A 
ATOM      6  O   UNL     1      22.187  25.398  16.981  1.00  0.00    -0.467 OA
ENDBRANCH   1   2
BRANCH   1   7
ATOM      7  O   UNL     1      25.008  25.930  17.697  1.00  0.00    -0.388 OA
ATOM      8  H   UNL     1      25.816  25.600  18.170  1.00  0.00     0.211 HD
ENDBRANCH   1   7
TORSDOF 2
ENDMDL
MODEL 8
REMARK VINA RESULT:    -3.598     10.488     11.550
REMARK INTER + INTRA:          -3.929
REMARK INTER:                  -3.908
REMARK INTRA:                  -0.021
REMARK UNBOUND:                -0.015
REMARK SMILES OCc1ccco1
REMARK SMILES IDX 2 1 3 2 5 3 6 4 4 5 7 6 1 7
REMARK H PARENT 1 8
REMARK Flexibility Score: inf
ROOT
ATOM      1  C   UNL     1      29.120  19.435  33.479  1.00  0.00     0.231 C 
ENDROOT
BRANCH   1   2
ATOM      2  C   UNL     1      30.503  19.819  33.059  1.00  0.00     0.129 A 
ATOM      3  C   UNL     1      32.650  19.763  32.600  1.00  0.00     0.042 A 
ATOM      4  C   UNL     1      32.137  21.034  32.432  1.00  0.00     0.195 A 
ATOM      5  C   UNL     1      31.594  18.976  33.008  1.00  0.00     0.048 A 
ATOM      6  O   UNL     1      30.855  21.036  32.716  1.00  0.00    -0.467 OA
ENDBRANCH   1   2
BRANCH   1   7
ATOM      7  O   UNL     1      28.212  20.437  33.118  1.00  0.00    -0.388 OA
ATOM      8  H   UNL     1      27.867  20.827  33.963  1.00  0.00     0.211 HD
ENDBRANCH   1   7
TORSDOF 2
ENDMDL
MODEL 9
REMARK VINA RESULT:    -3.537     16.065     16.917
REMARK INTER + INTRA:          -3.863
REMARK INTER:                  -3.841
REMARK INTRA:                  -0.021
REMARK UNBOUND:                -0.015
REMARK SMILES OCc1ccco1
REMARK SMILES IDX 2 1 3 2 5 3 6 4 4 5 7 6 1 7
REMARK H PARENT 1 8
REMARK Flexibility Score: inf
ROOT
ATOM      1  C   UNL     1      34.080  25.881  22.551  1.00  0.00     0.231 C 
ENDROOT
BRANCH   1   2
ATOM      2  C   UNL     1      33.928  26.028  21.071  1.00  0.00     0.129 A 
ATOM      3  C   UNL     1      34.048  26.786  19.013  1.00  0.00     0.042 A 
ATOM      4  C   UNL     1      33.269  25.647  19.081  1.00  0.00     0.195 A 
ATOM      5  C   UNL     1      34.472  27.036  20.301  1.00  0.00     0.048 A 
ATOM      6  O   UNL     1      33.214  25.221  20.321  1.00  0.00    -0.467 OA
ENDBRANCH   1   2
BRANCH   1   7
ATOM      7  O   UNL     1      33.183  24.919  23.033  1.00  0.00    -0.388 OA
ATOM      8  H   UNL     1      33.283  24.907  24.020  1.00  0.00     0.211 HD
ENDBRANCH   1   7
TORSDOF 2
ENDMDL
