MODEL 1
REMARK VINA RESULT:    -4.983      0.000      0.000
REMARK INTER + INTRA:          -8.270
REMARK INTER:                  -6.876
REMARK INTRA:                  -1.394
REMARK UNBOUND:                -1.394
REMARK SMILES O=C([O-])[C@@H]1O[C@H](Oc2cc3oc(-c4ccccc4)cc(=O)c3c(O)c2O)[C@@H](O)[C@@H](O)[C@@H]1O
REMARK SMILES IDX 7 1 6 2 4 3 31 4 5 5 29 6 27 7 2 8 1 9 3 10 32 11 30 13
REMARK SMILES IDX 28 15 8 17 25 18 9 19 23 20 10 21 22 22 11 23 20 24 12 25
REMARK SMILES IDX 19 26 21 27 26 28 24 30 13 32 14 33 18 34 15 35 17 36 16 37
REMARK H PARENT 32 12 30 14 28 16 26 29 24 31
REMARK Flexibility Score: inf
ROOT
ATOM      1  O   UNL     1     -26.667  54.584  45.745  1.00  0.00    -0.458 OA
ENDROOT
BRANCH   1   2
ATOM      2  C   UNL     1     -26.163  54.496  47.077  1.00  0.00     0.339 C 
ATOM      3  C   UNL     1     -23.924  54.875  47.953  1.00  0.00     0.199 C 
ATOM      4  C   UNL     1     -24.531  55.293  49.337  1.00  0.00     0.180 C 
ATOM      5  O   UNL     1     -24.774  54.219  47.005  1.00  0.00    -0.328 OA
ATOM      6  C   UNL     1     -26.067  55.609  49.276  1.00  0.00     0.181 C 
ATOM      7  C   UNL     1     -26.506  55.787  47.826  1.00  0.00     0.214 C 
BRANCH   3   8
ATOM      8  C   UNL     1     -23.157  55.986  47.270  1.00  0.00     0.073 C 
ATOM      9  O   UNL     1     -23.636  56.575  46.260  1.00  0.00    -0.547 OA
ATOM     10  O   UNL     1     -21.903  56.359  47.750  1.00  0.00    -0.547 OA
ENDBRANCH   3   8
BRANCH   4  11
ATOM     11  O   UNL     1     -23.814  56.396  49.861  1.00  0.00    -0.387 OA
ATOM     12  H   UNL     1     -22.839  56.239  49.728  1.00  0.00     0.211 HD
ENDBRANCH   4  11
BRANCH   6  13
ATOM     13  O   UNL     1     -26.873  54.621  49.904  1.00  0.00    -0.387 OA
ATOM     14  H   UNL     1     -27.696  54.462  49.369  1.00  0.00     0.211 HD
ENDBRANCH   6  13
BRANCH   7  15
ATOM     15  O   UNL     1     -27.899  56.017  47.767  1.00  0.00    -0.384 OA
ATOM     16  H   UNL     1     -28.088  56.769  48.382  1.00  0.00     0.211 HD
ENDBRANCH   7  15
ENDBRANCH   1   2
BRANCH   1  17
ATOM     17  C   UNL     1     -26.120  54.118  44.532  1.00  0.00     0.172 A 
ATOM     18  C   UNL     1     -25.262  54.843  43.649  1.00  0.00     0.201 A 
ATOM     19  C   UNL     1     -26.523  52.833  44.161  1.00  0.00     0.098 A 
ATOM     20  C   UNL     1     -24.703  54.190  42.531  1.00  0.00     0.176 A 
ATOM     21  C   UNL     1     -26.089  52.243  42.976  1.00  0.00     0.146 A 
ATOM     22  C   UNL     1     -25.119  52.887  42.187  1.00  0.00     0.111 A 
ATOM     23  O   UNL     1     -26.627  51.089  42.592  1.00  0.00    -0.456 OA
ATOM     24  C   UNL     1     -24.671  52.214  41.035  1.00  0.00     0.197 A 
ATOM     25  C   UNL     1     -26.292  50.471  41.458  1.00  0.00     0.138 A 
ATOM     26  C   UNL     1     -25.279  51.017  40.655  1.00  0.00     0.100 A 
ATOM     27  O   UNL     1     -23.733  52.663  40.320  1.00  0.00    -0.289 OA
BRANCH  18  28
ATOM     28  O   UNL     1     -25.003  56.205  43.777  1.00  0.00    -0.502 OA
ATOM     29  H   UNL     1     -25.668  56.906  43.488  1.00  0.00     0.293 HD
ENDBRANCH  18  28
BRANCH  20  30
ATOM     30  O   UNL     1     -23.762  54.847  41.730  1.00  0.00    -0.504 OA
ATOM     31  H   UNL     1     -24.012  55.494  40.994  1.00  0.00     0.293 HD
ENDBRANCH  20  30
BRANCH  25  32
ATOM     32  C   UNL     1     -27.055  49.255  41.046  1.00  0.00     0.017 A 
ATOM     33  C   UNL     1     -27.784  49.184  39.840  1.00  0.00     0.012 A 
ATOM     34  C   UNL     1     -27.110  48.151  41.926  1.00  0.00     0.012 A 
ATOM     35  C   UNL     1     -28.625  48.090  39.567  1.00  0.00     0.001 A 
ATOM     36  C   UNL     1     -27.927  47.053  41.635  1.00  0.00     0.001 A 
ATOM     37  C   UNL     1     -28.705  47.032  40.468  1.00  0.00     0.000 A 
ENDBRANCH  25  32
ENDBRANCH   1  17
TORSDOF 9
ENDMDL
MODEL 2
REMARK VINA RESULT:    -4.605      2.737      9.059
REMARK INTER + INTRA:          -7.749
REMARK INTER:                  -6.354
REMARK INTRA:                  -1.395
REMARK UNBOUND:                -1.394
REMARK SMILES O=C([O-])[C@@H]1O[C@H](Oc2cc3oc(-c4ccccc4)cc(=O)c3c(O)c2O)[C@@H](O)[C@@H](O)[C@@H]1O
REMARK SMILES IDX 7 1 6 2 4 3 31 4 5 5 29 6 27 7 2 8 1 9 3 10 32 11 30 13
REMARK SMILES IDX 28 15 8 17 25 18 9 19 23 20 10 21 22 22 11 23 20 24 12 25
REMARK SMILES IDX 19 26 21 27 26 28 24 30 13 32 14 33 18 34 15 35 17 36 16 37
REMARK H PARENT 32 12 30 14 28 16 26 29 24 31
REMARK Flexibility Score: inf
ROOT
ATOM      1  O   UNL     1     -26.256  49.107  41.915  1.00  0.00    -0.458 OA
ENDROOT
BRANCH   1   2
ATOM      2  C   UNL     1     -27.491  48.533  41.487  1.00  0.00     0.339 C 
ATOM      3  C   UNL     1     -28.450  48.316  39.261  1.00  0.00     0.199 C 
ATOM      4  C   UNL     1     -29.225  47.031  39.715  1.00  0.00     0.180 C 
ATOM      5  O   UNL     1     -27.864  49.151  40.267  1.00  0.00    -0.328 OA
ATOM      6  C   UNL     1     -28.692  46.422  41.059  1.00  0.00     0.181 C 
ATOM      7  C   UNL     1     -27.326  47.013  41.395  1.00  0.00     0.214 C 
BRANCH   3   8
ATOM      8  C   UNL     1     -27.444  48.058  38.160  1.00  0.00     0.073 C 
ATOM      9  O   UNL     1     -27.824  47.690  37.013  1.00  0.00    -0.547 OA
ATOM     10  O   UNL     1     -26.083  48.216  38.414  1.00  0.00    -0.547 OA
ENDBRANCH   3   8
BRANCH   4  11
ATOM     11  O   UNL     1     -29.196  46.064  38.681  1.00  0.00    -0.387 OA
ATOM     12  H   UNL     1     -28.789  46.472  37.869  1.00  0.00     0.211 HD
ENDBRANCH   4  11
BRANCH   6  13
ATOM     13  O   UNL     1     -29.578  46.608  42.155  1.00  0.00    -0.387 OA
ATOM     14  H   UNL     1     -29.064  46.650  43.006  1.00  0.00     0.211 HD
ENDBRANCH   6  13
BRANCH   7  15
ATOM     15  O   UNL     1     -26.871  46.506  42.633  1.00  0.00    -0.384 OA
ATOM     16  H   UNL     1     -26.789  47.281  43.244  1.00  0.00     0.211 HD
ENDBRANCH   7  15
ENDBRANCH   1   2
BRANCH   1  17
ATOM     17  C   UNL     1     -25.768  50.423  41.776  1.00  0.00     0.172 A 
ATOM     18  C   UNL     1     -24.906  50.907  40.744  1.00  0.00     0.201 A 
ATOM     19  C   UNL     1     -26.140  51.299  42.798  1.00  0.00     0.098 A 
ATOM     20  C   UNL     1     -24.604  52.283  40.681  1.00  0.00     0.176 A 
ATOM     21  C   UNL     1     -25.714  52.625  42.816  1.00  0.00     0.146 A 
ATOM     22  C   UNL     1     -25.003  53.148  41.721  1.00  0.00     0.111 A 
ATOM     23  O   UNL     1     -25.961  53.370  43.889  1.00  0.00    -0.456 OA
ATOM     24  C   UNL     1     -24.656  54.511  41.766  1.00  0.00     0.197 A 
ATOM     25  C   UNL     1     -25.564  54.639  44.003  1.00  0.00     0.138 A 
ATOM     26  C   UNL     1     -24.912  55.251  42.921  1.00  0.00     0.100 A 
ATOM     27  O   UNL     1     -24.108  55.095  40.790  1.00  0.00    -0.289 OA
BRANCH  18  28
ATOM     28  O   UNL     1     -24.266  50.079  39.827  1.00  0.00    -0.502 OA
ATOM     29  H   UNL     1     -23.269  50.116  39.678  1.00  0.00     0.293 HD
ENDBRANCH  18  28
BRANCH  20  30
ATOM     30  O   UNL     1     -23.868  52.793  39.605  1.00  0.00    -0.504 OA
ATOM     31  H   UNL     1     -23.657  52.259  38.772  1.00  0.00     0.293 HD
ENDBRANCH  20  30
BRANCH  25  32
ATOM     32  C   UNL     1     -25.764  55.345  45.304  1.00  0.00     0.017 A 
ATOM     33  C   UNL     1     -25.226  56.623  45.569  1.00  0.00     0.012 A 
ATOM     34  C   UNL     1     -26.461  54.685  46.340  1.00  0.00     0.012 A 
ATOM     35  C   UNL     1     -25.292  57.180  46.859  1.00  0.00     0.001 A 
ATOM     36  C   UNL     1     -26.547  55.258  47.614  1.00  0.00     0.001 A 
ATOM     37  C   UNL     1     -25.941  56.494  47.882  1.00  0.00     0.000 A 
ENDBRANCH  25  32
ENDBRANCH   1  17
TORSDOF 9
ENDMDL
MODEL 3
REMARK VINA RESULT:    -4.595      1.149      1.508
REMARK INTER + INTRA:          -7.735
REMARK INTER:                  -6.370
REMARK INTRA:                  -1.365
REMARK UNBOUND:                -1.394
REMARK SMILES O=C([O-])[C@@H]1O[C@H](Oc2cc3oc(-c4ccccc4)cc(=O)c3c(O)c2O)[C@@H](O)[C@@H](O)[C@@H]1O
REMARK SMILES IDX 7 1 6 2 4 3 31 4 5 5 29 6 27 7 2 8 1 9 3 10 32 11 30 13
REMARK SMILES IDX 28 15 8 17 25 18 9 19 23 20 10 21 22 22 11 23 20 24 12 25
REMARK SMILES IDX 19 26 21 27 26 28 24 30 13 32 14 33 18 34 15 35 17 36 16 37
REMARK H PARENT 32 12 30 14 28 16 26 29 24 31
REMARK Flexibility Score: inf
ROOT
ATOM      1  O   UNL     1     -26.690  55.040  45.151  1.00  0.00    -0.458 OA
ENDROOT
BRANCH   1   2
ATOM      2  C   UNL     1     -26.324  55.193  46.523  1.00  0.00     0.339 C 
ATOM      3  C   UNL     1     -24.853  53.858  47.928  1.00  0.00     0.199 C 
ATOM      4  C   UNL     1     -24.525  55.124  48.794  1.00  0.00     0.180 C 
ATOM      5  O   UNL     1     -25.964  53.917  47.026  1.00  0.00    -0.328 OA
ATOM      6  C   UNL     1     -24.938  56.474  48.110  1.00  0.00     0.181 C 
ATOM      7  C   UNL     1     -25.215  56.244  46.628  1.00  0.00     0.214 C 
BRANCH   3   8
ATOM      8  C   UNL     1     -23.646  53.285  47.217  1.00  0.00     0.073 C 
ATOM      9  O   UNL     1     -23.317  52.076  47.378  1.00  0.00    -0.547 OA
ATOM     10  O   UNL     1     -22.882  54.098  46.383  1.00  0.00    -0.547 OA
ENDBRANCH   3   8
BRANCH   4  11
ATOM     11  O   UNL     1     -23.149  55.132  49.128  1.00  0.00    -0.387 OA
ATOM     12  H   UNL     1     -23.056  55.031  50.115  1.00  0.00     0.211 HD
ENDBRANCH   4  11
BRANCH   6  13
ATOM     13  O   UNL     1     -26.062  57.096  48.718  1.00  0.00    -0.387 OA
ATOM     14  H   UNL     1     -26.057  58.072  48.527  1.00  0.00     0.211 HD
ENDBRANCH   6  13
BRANCH   7  15
ATOM     15  O   UNL     1     -25.641  57.448  46.023  1.00  0.00    -0.384 OA
ATOM     16  H   UNL     1     -26.601  57.335  45.811  1.00  0.00     0.211 HD
ENDBRANCH   7  15
ENDBRANCH   1   2
BRANCH   1  17
ATOM     17  C   UNL     1     -26.025  54.376  44.101  1.00  0.00     0.172 A 
ATOM     18  C   UNL     1     -24.960  54.896  43.302  1.00  0.00     0.201 A 
ATOM     19  C   UNL     1     -26.519  53.104  43.803  1.00  0.00     0.098 A 
ATOM     20  C   UNL     1     -24.319  54.058  42.366  1.00  0.00     0.176 A 
ATOM     21  C   UNL     1     -25.984  52.333  42.773  1.00  0.00     0.146 A 
ATOM     22  C   UNL     1     -24.833  52.773  42.094  1.00  0.00     0.111 A 
ATOM     23  O   UNL     1     -26.592  51.204  42.426  1.00  0.00    -0.456 OA
ATOM     24  C   UNL     1     -24.299  51.923  41.107  1.00  0.00     0.197 A 
ATOM     25  C   UNL     1     -26.166  50.421  41.433  1.00  0.00     0.138 A 
ATOM     26  C   UNL     1     -24.983  50.757  40.757  1.00  0.00     0.100 A 
ATOM     27  O   UNL     1     -23.215  52.182  40.516  1.00  0.00    -0.289 OA
BRANCH  18  28
ATOM     28  O   UNL     1     -24.559  56.229  43.331  1.00  0.00    -0.502 OA
ATOM     29  H   UNL     1     -24.322  56.698  44.192  1.00  0.00     0.293 HD
ENDBRANCH  18  28
BRANCH  20  30
ATOM     30  O   UNL     1     -23.194  54.512  41.670  1.00  0.00    -0.504 OA
ATOM     31  H   UNL     1     -22.708  55.370  41.895  1.00  0.00     0.293 HD
ENDBRANCH  20  30
BRANCH  25  32
ATOM     32  C   UNL     1     -26.999  49.249  41.027  1.00  0.00     0.017 A 
ATOM     33  C   UNL     1     -27.757  49.228  39.837  1.00  0.00     0.012 A 
ATOM     34  C   UNL     1     -27.091  48.141  41.898  1.00  0.00     0.012 A 
ATOM     35  C   UNL     1     -28.659  48.181  39.574  1.00  0.00     0.001 A 
ATOM     36  C   UNL     1     -27.970  47.089  41.616  1.00  0.00     0.001 A 
ATOM     37  C   UNL     1     -28.773  47.119  40.467  1.00  0.00     0.000 A 
ENDBRANCH  25  32
ENDBRANCH   1  17
TORSDOF 9
ENDMDL
MODEL 4
REMARK VINA RESULT:    -4.552      4.446      7.381
REMARK INTER + INTRA:          -7.676
REMARK INTER:                  -6.207
REMARK INTRA:                  -1.469
REMARK UNBOUND:                -1.394
REMARK SMILES O=C([O-])[C@@H]1O[C@H](Oc2cc3oc(-c4ccccc4)cc(=O)c3c(O)c2O)[C@@H](O)[C@@H](O)[C@@H]1O
REMARK SMILES IDX 7 1 6 2 4 3 31 4 5 5 29 6 27 7 2 8 1 9 3 10 32 11 30 13
REMARK SMILES IDX 28 15 8 17 25 18 9 19 23 20 10 21 22 22 11 23 20 24 12 25
REMARK SMILES IDX 19 26 21 27 26 28 24 30 13 32 14 33 18 34 15 35 17 36 16 37
REMARK H PARENT 32 12 30 14 28 16 26 29 24 31
REMARK Flexibility Score: inf
ROOT
ATOM      1  O   UNL     1     -23.518  53.673  41.786  1.00  0.00    -0.458 OA
ENDROOT
BRANCH   1   2
ATOM      2  C   UNL     1     -24.260  52.754  42.588  1.00  0.00     0.339 C 
ATOM      3  C   UNL     1     -25.317  53.042  44.761  1.00  0.00     0.199 C 
ATOM      4  C   UNL     1     -26.377  51.946  44.396  1.00  0.00     0.180 C 
ATOM      5  O   UNL     1     -24.148  53.161  43.942  1.00  0.00    -0.328 OA
ATOM      6  C   UNL     1     -26.428  51.611  42.864  1.00  0.00     0.181 C 
ATOM      7  C   UNL     1     -25.700  52.692  42.070  1.00  0.00     0.214 C 
BRANCH   3   8
ATOM      8  C   UNL     1     -25.920  54.410  44.996  1.00  0.00     0.073 C 
ATOM      9  O   UNL     1     -25.840  55.310  44.114  1.00  0.00    -0.547 OA
ATOM     10  O   UNL     1     -26.561  54.686  46.202  1.00  0.00    -0.547 OA
ENDBRANCH   3   8
BRANCH   4  11
ATOM     11  O   UNL     1     -27.654  52.339  44.865  1.00  0.00    -0.387 OA
ATOM     12  H   UNL     1     -27.540  53.054  45.549  1.00  0.00     0.211 HD
ENDBRANCH   4  11
BRANCH   6  13
ATOM     13  O   UNL     1     -25.890  50.336  42.544  1.00  0.00    -0.387 OA
ATOM     14  H   UNL     1     -26.197  50.052  41.642  1.00  0.00     0.211 HD
ENDBRANCH   6  13
BRANCH   7  15
ATOM     15  O   UNL     1     -25.698  52.363  40.695  1.00  0.00    -0.384 OA
ATOM     16  H   UNL     1     -26.506  51.815  40.534  1.00  0.00     0.211 HD
ENDBRANCH   7  15
ENDBRANCH   1   2
BRANCH   1  17
ATOM     17  C   UNL     1     -23.641  55.072  41.656  1.00  0.00     0.172 A 
ATOM     18  C   UNL     1     -23.212  56.057  42.597  1.00  0.00     0.201 A 
ATOM     19  C   UNL     1     -24.304  55.498  40.503  1.00  0.00     0.098 A 
ATOM     20  C   UNL     1     -23.300  57.424  42.262  1.00  0.00     0.176 A 
ATOM     21  C   UNL     1     -24.528  56.849  40.244  1.00  0.00     0.146 A 
ATOM     22  C   UNL     1     -23.965  57.826  41.085  1.00  0.00     0.111 A 
ATOM     23  O   UNL     1     -25.302  57.193  39.219  1.00  0.00    -0.456 OA
ATOM     24  C   UNL     1     -24.170  59.174  40.738  1.00  0.00     0.197 A 
ATOM     25  C   UNL     1     -25.593  58.460  38.918  1.00  0.00     0.138 A 
ATOM     26  C   UNL     1     -25.008  59.492  39.668  1.00  0.00     0.100 A 
ATOM     27  O   UNL     1     -23.621  60.119  41.370  1.00  0.00    -0.289 OA
BRANCH  18  28
ATOM     28  O   UNL     1     -22.778  55.751  43.884  1.00  0.00    -0.502 OA
ATOM     29  H   UNL     1     -21.834  55.935  44.189  1.00  0.00     0.293 HD
ENDBRANCH  18  28
BRANCH  20  30
ATOM     30  O   UNL     1     -22.767  58.394  43.118  1.00  0.00    -0.504 OA
ATOM     31  H   UNL     1     -23.192  59.300  43.266  1.00  0.00     0.293 HD
ENDBRANCH  20  30
BRANCH  25  32
ATOM     32  C   UNL     1     -26.585  58.736  37.837  1.00  0.00     0.017 A 
ATOM     33  C   UNL     1     -26.281  58.593  36.467  1.00  0.00     0.012 A 
ATOM     34  C   UNL     1     -27.862  59.227  38.191  1.00  0.00     0.012 A 
ATOM     35  C   UNL     1     -27.183  59.024  35.477  1.00  0.00     0.001 A 
ATOM     36  C   UNL     1     -28.767  59.627  37.200  1.00  0.00     0.001 A 
ATOM     37  C   UNL     1     -28.419  59.550  35.844  1.00  0.00     0.000 A 
ENDBRANCH  25  32
ENDBRANCH   1  17
TORSDOF 9
ENDMDL
MODEL 5
REMARK VINA RESULT:    -4.552      2.618      9.212
REMARK INTER + INTRA:          -7.676
REMARK INTER:                  -6.904
REMARK INTRA:                  -0.773
REMARK UNBOUND:                -1.394
REMARK SMILES O=C([O-])[C@@H]1O[C@H](Oc2cc3oc(-c4ccccc4)cc(=O)c3c(O)c2O)[C@@H](O)[C@@H](O)[C@@H]1O
REMARK SMILES IDX 7 1 6 2 4 3 31 4 5 5 29 6 27 7 2 8 1 9 3 10 32 11 30 13
REMARK SMILES IDX 28 15 8 17 25 18 9 19 23 20 10 21 22 22 11 23 20 24 12 25
REMARK SMILES IDX 19 26 21 27 26 28 24 30 13 32 14 33 18 34 15 35 17 36 16 37
REMARK H PARENT 32 12 30 14 28 16 26 29 24 31
REMARK Flexibility Score: inf
ROOT
ATOM      1  O   UNL     1     -26.720  49.666  41.849  1.00  0.00    -0.458 OA
ENDROOT
BRANCH   1   2
ATOM      2  C   UNL     1     -26.508  48.821  40.718  1.00  0.00     0.339 C 
ATOM      3  C   UNL     1     -26.568  46.396  40.518  1.00  0.00     0.199 C 
ATOM      4  C   UNL     1     -26.993  46.526  39.014  1.00  0.00     0.180 C 
ATOM      5  O   UNL     1     -26.066  47.559  41.189  1.00  0.00    -0.328 OA
ATOM      6  C   UNL     1     -27.497  47.961  38.629  1.00  0.00     0.181 C 
ATOM      7  C   UNL     1     -27.796  48.765  39.891  1.00  0.00     0.214 C 
BRANCH   3   8
ATOM      8  C   UNL     1     -27.607  45.715  41.382  1.00  0.00     0.073 C 
ATOM      9  O   UNL     1     -28.286  46.376  42.217  1.00  0.00    -0.547 OA
ATOM     10  O   UNL     1     -27.812  44.342  41.267  1.00  0.00    -0.547 OA
ENDBRANCH   3   8
BRANCH   4  11
ATOM     11  O   UNL     1     -27.973  45.552  38.708  1.00  0.00    -0.387 OA
ATOM     12  H   UNL     1     -27.992  44.873  39.436  1.00  0.00     0.211 HD
ENDBRANCH   4  11
BRANCH   6  13
ATOM     13  O   UNL     1     -26.588  48.679  37.806  1.00  0.00    -0.387 OA
ATOM     14  H   UNL     1     -25.657  48.547  38.130  1.00  0.00     0.211 HD
ENDBRANCH   6  13
BRANCH   7  15
ATOM     15  O   UNL     1     -28.197  50.075  39.545  1.00  0.00    -0.384 OA
ATOM     16  H   UNL     1     -28.339  50.079  38.565  1.00  0.00     0.211 HD
ENDBRANCH   7  15
ENDBRANCH   1   2
BRANCH   1  17
ATOM     17  C   UNL     1     -26.271  50.978  42.102  1.00  0.00     0.172 A 
ATOM     18  C   UNL     1     -25.548  51.820  41.201  1.00  0.00     0.201 A 
ATOM     19  C   UNL     1     -26.527  51.449  43.391  1.00  0.00     0.098 A 
ATOM     20  C   UNL     1     -25.275  53.154  41.565  1.00  0.00     0.176 A 
ATOM     21  C   UNL     1     -26.120  52.717  43.802  1.00  0.00     0.146 A 
ATOM     22  C   UNL     1     -25.556  53.607  42.871  1.00  0.00     0.111 A 
ATOM     23  O   UNL     1     -26.244  53.054  45.082  1.00  0.00    -0.456 OA
ATOM     24  C   UNL     1     -25.224  54.897  43.327  1.00  0.00     0.197 A 
ATOM     25  C   UNL     1     -25.853  54.235  45.566  1.00  0.00     0.138 A 
ATOM     26  C   UNL     1     -25.347  55.202  44.683  1.00  0.00     0.100 A 
ATOM     27  O   UNL     1     -24.808  55.796  42.546  1.00  0.00    -0.289 OA
BRANCH  18  28
ATOM     28  O   UNL     1     -25.014  51.374  39.995  1.00  0.00    -0.502 OA
ATOM     29  H   UNL     1     -24.438  50.548  39.938  1.00  0.00     0.293 HD
ENDBRANCH  18  28
BRANCH  20  30
ATOM     30  O   UNL     1     -24.683  54.027  40.645  1.00  0.00    -0.504 OA
ATOM     31  H   UNL     1     -24.840  55.027  40.646  1.00  0.00     0.293 HD
ENDBRANCH  20  30
BRANCH  25  32
ATOM     32  C   UNL     1     -25.902  54.463  47.041  1.00  0.00     0.017 A 
ATOM     33  C   UNL     1     -25.208  53.650  47.962  1.00  0.00     0.012 A 
ATOM     34  C   UNL     1     -26.729  55.490  47.547  1.00  0.00     0.012 A 
ATOM     35  C   UNL     1     -25.414  53.790  49.347  1.00  0.00     0.001 A 
ATOM     36  C   UNL     1     -26.907  55.643  48.927  1.00  0.00     0.001 A 
ATOM     37  C   UNL     1     -26.270  54.777  49.828  1.00  0.00     0.000 A 
ENDBRANCH  25  32
ENDBRANCH   1  17
TORSDOF 9
ENDMDL
MODEL 6
REMARK VINA RESULT:    -4.483      1.993      3.040
REMARK INTER + INTRA:          -7.580
REMARK INTER:                  -6.042
REMARK INTRA:                  -1.538
REMARK UNBOUND:                -1.394
REMARK SMILES O=C([O-])[C@@H]1O[C@H](Oc2cc3oc(-c4ccccc4)cc(=O)c3c(O)c2O)[C@@H](O)[C@@H](O)[C@@H]1O
REMARK SMILES IDX 7 1 6 2 4 3 31 4 5 5 29 6 27 7 2 8 1 9 3 10 32 11 30 13
REMARK SMILES IDX 28 15 8 17 25 18 9 19 23 20 10 21 22 22 11 23 20 24 12 25
REMARK SMILES IDX 19 26 21 27 26 28 24 30 13 32 14 33 18 34 15 35 17 36 16 37
REMARK H PARENT 32 12 30 14 28 16 26 29 24 31
REMARK Flexibility Score: inf
ROOT
ATOM      1  O   UNL     1     -25.247  55.076  44.198  1.00  0.00    -0.458 OA
ENDROOT
BRANCH   1   2
ATOM      2  C   UNL     1     -25.643  55.981  45.229  1.00  0.00     0.339 C 
ATOM      3  C   UNL     1     -26.072  55.599  47.594  1.00  0.00     0.199 C 
ATOM      4  C   UNL     1     -25.655  57.077  47.913  1.00  0.00     0.180 C 
ATOM      5  O   UNL     1     -26.320  55.239  46.230  1.00  0.00    -0.328 OA
ATOM      6  C   UNL     1     -24.881  57.775  46.740  1.00  0.00     0.181 C 
ATOM      7  C   UNL     1     -24.407  56.731  45.734  1.00  0.00     0.214 C 
BRANCH   3   8
ATOM      8  C   UNL     1     -25.175  54.566  48.242  1.00  0.00     0.073 C 
ATOM      9  O   UNL     1     -25.666  53.615  48.912  1.00  0.00    -0.547 OA
ATOM     10  O   UNL     1     -23.792  54.668  48.108  1.00  0.00    -0.547 OA
ENDBRANCH   3   8
BRANCH   4  11
ATOM     11  O   UNL     1     -24.894  57.113  49.107  1.00  0.00    -0.387 OA
ATOM     12  H   UNL     1     -24.321  57.928  49.099  1.00  0.00     0.211 HD
ENDBRANCH   4  11
BRANCH   6  13
ATOM     13  O   UNL     1     -25.642  58.773  46.074  1.00  0.00    -0.387 OA
ATOM     14  H   UNL     1     -26.551  58.832  46.473  1.00  0.00     0.211 HD
ENDBRANCH   6  13
BRANCH   7  15
ATOM     15  O   UNL     1     -23.757  57.364  44.650  1.00  0.00    -0.384 OA
ATOM     16  H   UNL     1     -23.589  56.664  43.971  1.00  0.00     0.211 HD
ENDBRANCH   7  15
ENDBRANCH   1   2
BRANCH   1  17
ATOM     17  C   UNL     1     -24.970  53.695  44.257  1.00  0.00     0.172 A 
ATOM     18  C   UNL     1     -23.874  53.074  44.933  1.00  0.00     0.201 A 
ATOM     19  C   UNL     1     -25.842  52.888  43.525  1.00  0.00     0.098 A 
ATOM     20  C   UNL     1     -23.804  51.667  44.996  1.00  0.00     0.176 A 
ATOM     21  C   UNL     1     -25.683  51.506  43.463  1.00  0.00     0.146 A 
ATOM     22  C   UNL     1     -24.707  50.876  44.256  1.00  0.00     0.111 A 
ATOM     23  O   UNL     1     -26.440  50.803  42.625  1.00  0.00    -0.456 OA
ATOM     24  C   UNL     1     -24.635  49.472  44.201  1.00  0.00     0.197 A 
ATOM     25  C   UNL     1     -26.333  49.481  42.480  1.00  0.00     0.138 A 
ATOM     26  C   UNL     1     -25.431  48.775  43.291  1.00  0.00     0.100 A 
ATOM     27  O   UNL     1     -23.863  48.811  44.949  1.00  0.00    -0.289 OA
BRANCH  18  28
ATOM     28  O   UNL     1     -22.804  53.783  45.474  1.00  0.00    -0.502 OA
ATOM     29  H   UNL     1     -21.859  53.432  45.440  1.00  0.00     0.293 HD
ENDBRANCH  18  28
BRANCH  20  30
ATOM     30  O   UNL     1     -22.811  51.046  45.761  1.00  0.00    -0.504 OA
ATOM     31  H   UNL     1     -21.840  50.996  45.479  1.00  0.00     0.293 HD
ENDBRANCH  20  30
BRANCH  25  32
ATOM     32  C   UNL     1     -27.128  48.805  41.411  1.00  0.00     0.017 A 
ATOM     33  C   UNL     1     -27.418  49.417  40.173  1.00  0.00     0.012 A 
ATOM     34  C   UNL     1     -27.672  47.527  41.669  1.00  0.00     0.012 A 
ATOM     35  C   UNL     1     -28.308  48.819  39.263  1.00  0.00     0.001 A 
ATOM     36  C   UNL     1     -28.535  46.924  40.746  1.00  0.00     0.001 A 
ATOM     37  C   UNL     1     -28.874  47.580  39.553  1.00  0.00     0.000 A 
ENDBRANCH  25  32
ENDBRANCH   1  17
TORSDOF 9
ENDMDL
MODEL 7
REMARK VINA RESULT:    -4.460      3.598      7.053
REMARK INTER + INTRA:          -7.550
REMARK INTER:                  -6.264
REMARK INTRA:                  -1.286
REMARK UNBOUND:                -1.394
REMARK SMILES O=C([O-])[C@@H]1O[C@H](Oc2cc3oc(-c4ccccc4)cc(=O)c3c(O)c2O)[C@@H](O)[C@@H](O)[C@@H]1O
REMARK SMILES IDX 7 1 6 2 4 3 31 4 5 5 29 6 27 7 2 8 1 9 3 10 32 11 30 13
REMARK SMILES IDX 28 15 8 17 25 18 9 19 23 20 10 21 22 22 11 23 20 24 12 25
REMARK SMILES IDX 19 26 21 27 26 28 24 30 13 32 14 33 18 34 15 35 17 36 16 37
REMARK H PARENT 32 12 30 14 28 16 26 29 24 31
REMARK Flexibility Score: inf
ROOT
ATOM      1  O   UNL     1     -25.652  49.820  42.039  1.00  0.00    -0.458 OA
ENDROOT
BRANCH   1   2
ATOM      2  C   UNL     1     -25.744  51.227  42.259  1.00  0.00     0.339 C 
ATOM      3  C   UNL     1     -24.672  52.643  43.923  1.00  0.00     0.199 C 
ATOM      4  C   UNL     1     -24.736  53.860  42.935  1.00  0.00     0.180 C 
ATOM      5  O   UNL     1     -25.451  51.479  43.623  1.00  0.00    -0.328 OA
ATOM      6  C   UNL     1     -25.030  53.446  41.451  1.00  0.00     0.181 C 
ATOM      7  C   UNL     1     -24.814  51.945  41.276  1.00  0.00     0.214 C 
BRANCH   3   8
ATOM      8  C   UNL     1     -23.261  52.236  44.287  1.00  0.00     0.073 C 
ATOM      9  O   UNL     1     -22.751  51.182  43.813  1.00  0.00    -0.547 OA
ATOM     10  O   UNL     1     -22.517  53.024  45.163  1.00  0.00    -0.547 OA
ENDBRANCH   3   8
BRANCH   4  11
ATOM     11  O   UNL     1     -23.537  54.608  43.019  1.00  0.00    -0.387 OA
ATOM     12  H   UNL     1     -22.789  54.060  42.656  1.00  0.00     0.211 HD
ENDBRANCH   4  11
BRANCH   6  13
ATOM     13  O   UNL     1     -26.335  53.797  41.013  1.00  0.00    -0.387 OA
ATOM     14  H   UNL     1     -26.341  54.732  40.672  1.00  0.00     0.211 HD
ENDBRANCH   6  13
BRANCH   7  15
ATOM     15  O   UNL     1     -25.132  51.563  39.953  1.00  0.00    -0.384 OA
ATOM     16  H   UNL     1     -26.070  51.249  39.966  1.00  0.00     0.211 HD
ENDBRANCH   7  15
ENDBRANCH   1   2
BRANCH   1  17
ATOM     17  C   UNL     1     -26.661  48.875  41.760  1.00  0.00     0.172 A 
ATOM     18  C   UNL     1     -27.530  48.865  40.626  1.00  0.00     0.201 A 
ATOM     19  C   UNL     1     -26.838  47.897  42.741  1.00  0.00     0.098 A 
ATOM     20  C   UNL     1     -28.409  47.780  40.433  1.00  0.00     0.176 A 
ATOM     21  C   UNL     1     -27.813  46.909  42.623  1.00  0.00     0.146 A 
ATOM     22  C   UNL     1     -28.558  46.799  41.436  1.00  0.00     0.111 A 
ATOM     23  O   UNL     1     -28.047  46.103  43.654  1.00  0.00    -0.456 OA
ATOM     24  C   UNL     1     -29.484  45.742  41.348  1.00  0.00     0.197 A 
ATOM     25  C   UNL     1     -28.982  45.151  43.638  1.00  0.00     0.138 A 
ATOM     26  C   UNL     1     -29.716  44.934  42.462  1.00  0.00     0.100 A 
ATOM     27  O   UNL     1     -30.125  45.500  40.289  1.00  0.00    -0.289 OA
BRANCH  18  28
ATOM     28  O   UNL     1     -27.625  49.920  39.722  1.00  0.00    -0.502 OA
ATOM     29  H   UNL     1     -28.509  50.338  39.478  1.00  0.00     0.293 HD
ENDBRANCH  18  28
BRANCH  20  30
ATOM     30  O   UNL     1     -29.173  47.692  39.264  1.00  0.00    -0.504 OA
ATOM     31  H   UNL     1     -29.709  48.463  38.890  1.00  0.00     0.293 HD
ENDBRANCH  20  30
BRANCH  25  32
ATOM     32  C   UNL     1     -29.265  44.394  44.895  1.00  0.00     0.017 A 
ATOM     33  C   UNL     1     -29.347  42.987  44.935  1.00  0.00     0.012 A 
ATOM     34  C   UNL     1     -29.529  45.114  46.081  1.00  0.00     0.012 A 
ATOM     35  C   UNL     1     -29.781  42.321  46.096  1.00  0.00     0.001 A 
ATOM     36  C   UNL     1     -29.934  44.444  47.242  1.00  0.00     0.001 A 
ATOM     37  C   UNL     1     -30.085  43.050  47.244  1.00  0.00     0.000 A 
ENDBRANCH  25  32
ENDBRANCH   1  17
TORSDOF 9
ENDMDL
MODEL 8
REMARK VINA RESULT:    -4.387      5.646      8.014
REMARK INTER + INTRA:          -7.448
REMARK INTER:                  -6.229
REMARK INTRA:                  -1.219
REMARK UNBOUND:                -1.394
REMARK SMILES O=C([O-])[C@@H]1O[C@H](Oc2cc3oc(-c4ccccc4)cc(=O)c3c(O)c2O)[C@@H](O)[C@@H](O)[C@@H]1O
REMARK SMILES IDX 7 1 6 2 4 3 31 4 5 5 29 6 27 7 2 8 1 9 3 10 32 11 30 13
REMARK SMILES IDX 28 15 8 17 25 18 9 19 23 20 10 21 22 22 11 23 20 24 12 25
REMARK SMILES IDX 19 26 21 27 26 28 24 30 13 32 14 33 18 34 15 35 17 36 16 37
REMARK H PARENT 32 12 30 14 28 16 26 29 24 31
REMARK Flexibility Score: inf
ROOT
ATOM      1  O   UNL     1     -27.052  46.347  45.159  1.00  0.00    -0.458 OA
ENDROOT
BRANCH   1   2
ATOM      2  C   UNL     1     -28.223  46.258  45.971  1.00  0.00     0.339 C 
ATOM      3  C   UNL     1     -29.145  44.383  47.220  1.00  0.00     0.199 C 
ATOM      4  C   UNL     1     -29.793  45.378  48.244  1.00  0.00     0.180 C 
ATOM      5  O   UNL     1     -28.648  44.905  45.982  1.00  0.00    -0.328 OA
ATOM      6  C   UNL     1     -29.212  46.833  48.156  1.00  0.00     0.181 C 
ATOM      7  C   UNL     1     -27.911  46.827  47.358  1.00  0.00     0.214 C 
BRANCH   3   8
ATOM      8  C   UNL     1     -28.113  43.466  47.840  1.00  0.00     0.073 C 
ATOM      9  O   UNL     1     -28.178  42.216  47.674  1.00  0.00    -0.547 OA
ATOM     10  O   UNL     1     -27.084  44.003  48.612  1.00  0.00    -0.547 OA
ENDBRANCH   3   8
BRANCH   4  11
ATOM     11  O   UNL     1     -29.665  44.865  49.557  1.00  0.00    -0.387 OA
ATOM     12  H   UNL     1     -30.412  44.230  49.729  1.00  0.00     0.211 HD
ENDBRANCH   4  11
BRANCH   6  13
ATOM     13  O   UNL     1     -30.117  47.772  47.593  1.00  0.00    -0.387 OA
ATOM     14  H   UNL     1     -29.836  48.697  47.824  1.00  0.00     0.211 HD
ENDBRANCH   6  13
BRANCH   7  15
ATOM     15  O   UNL     1     -27.415  48.144  47.233  1.00  0.00    -0.384 OA
ATOM     16  H   UNL     1     -26.996  48.206  46.338  1.00  0.00     0.211 HD
ENDBRANCH   7  15
ENDBRANCH   1   2
BRANCH   1  17
ATOM     17  C   UNL     1     -26.794  47.136  44.020  1.00  0.00     0.172 A 
ATOM     18  C   UNL     1     -26.222  48.445  44.001  1.00  0.00     0.201 A 
ATOM     19  C   UNL     1     -27.201  46.570  42.809  1.00  0.00     0.098 A 
ATOM     20  C   UNL     1     -25.918  49.053  42.765  1.00  0.00     0.176 A 
ATOM     21  C   UNL     1     -27.038  47.239  41.598  1.00  0.00     0.146 A 
ATOM     22  C   UNL     1     -26.330  48.453  41.557  1.00  0.00     0.111 A 
ATOM     23  O   UNL     1     -27.586  46.730  40.499  1.00  0.00    -0.456 OA
ATOM     24  C   UNL     1     -26.141  49.050  40.296  1.00  0.00     0.197 A 
ATOM     25  C   UNL     1     -27.505  47.319  39.304  1.00  0.00     0.138 A 
ATOM     26  C   UNL     1     -26.753  48.496  39.171  1.00  0.00     0.100 A 
ATOM     27  O   UNL     1     -25.434  50.084  40.145  1.00  0.00    -0.289 OA
BRANCH  18  28
ATOM     28  O   UNL     1     -26.018  49.210  45.145  1.00  0.00    -0.502 OA
ATOM     29  H   UNL     1     -25.151  49.182  45.660  1.00  0.00     0.293 HD
ENDBRANCH  18  28
BRANCH  20  30
ATOM     30  O   UNL     1     -25.241  50.277  42.731  1.00  0.00    -0.504 OA
ATOM     31  H   UNL     1     -25.553  51.100  43.231  1.00  0.00     0.293 HD
ENDBRANCH  20  30
BRANCH  25  32
ATOM     32  C   UNL     1     -28.276  46.743  38.161  1.00  0.00     0.017 A 
ATOM     33  C   UNL     1     -29.509  46.080  38.329  1.00  0.00     0.012 A 
ATOM     34  C   UNL     1     -27.719  46.801  36.863  1.00  0.00     0.012 A 
ATOM     35  C   UNL     1     -30.119  45.405  37.256  1.00  0.00     0.001 A 
ATOM     36  C   UNL     1     -28.346  46.151  35.794  1.00  0.00     0.001 A 
ATOM     37  C   UNL     1     -29.533  45.431  35.993  1.00  0.00     0.000 A 
ENDBRANCH  25  32
ENDBRANCH   1  17
TORSDOF 9
ENDMDL
MODEL 9
REMARK VINA RESULT:    -4.362      1.981      3.323
REMARK INTER + INTRA:          -7.414
REMARK INTER:                  -6.133
REMARK INTRA:                  -1.281
REMARK UNBOUND:                -1.394
REMARK SMILES O=C([O-])[C@@H]1O[C@H](Oc2cc3oc(-c4ccccc4)cc(=O)c3c(O)c2O)[C@@H](O)[C@@H](O)[C@@H]1O
REMARK SMILES IDX 7 1 6 2 4 3 31 4 5 5 29 6 27 7 2 8 1 9 3 10 32 11 30 13
REMARK SMILES IDX 28 15 8 17 25 18 9 19 23 20 10 21 22 22 11 23 20 24 12 25
REMARK SMILES IDX 19 26 21 27 26 28 24 30 13 32 14 33 18 34 15 35 17 36 16 37
REMARK H PARENT 32 12 30 14 28 16 26 29 24 31
REMARK Flexibility Score: inf
ROOT
ATOM      1  O   UNL     1     -24.503  52.545  44.305  1.00  0.00    -0.458 OA
ENDROOT
BRANCH   1   2
ATOM      2  C   UNL     1     -25.301  53.237  45.266  1.00  0.00     0.339 C 
ATOM      3  C   UNL     1     -24.935  53.631  47.640  1.00  0.00     0.199 C 
ATOM      4  C   UNL     1     -25.773  54.954  47.554  1.00  0.00     0.180 C 
ATOM      5  O   UNL     1     -25.004  52.707  46.547  1.00  0.00    -0.328 OA
ATOM      6  C   UNL     1     -26.000  55.456  46.086  1.00  0.00     0.181 C 
ATOM      7  C   UNL     1     -25.043  54.741  45.136  1.00  0.00     0.214 C 
BRANCH   3   8
ATOM      8  C   UNL     1     -23.490  53.856  48.029  1.00  0.00     0.073 C 
ATOM      9  O   UNL     1     -23.187  54.232  49.197  1.00  0.00    -0.547 OA
ATOM     10  O   UNL     1     -22.480  53.657  47.090  1.00  0.00    -0.547 OA
ENDBRANCH   3   8
BRANCH   4  11
ATOM     11  O   UNL     1     -25.160  55.961  48.339  1.00  0.00    -0.387 OA
ATOM     12  H   UNL     1     -24.188  55.989  48.125  1.00  0.00     0.211 HD
ENDBRANCH   4  11
BRANCH   6  13
ATOM     13  O   UNL     1     -27.337  55.294  45.632  1.00  0.00    -0.387 OA
ATOM     14  H   UNL     1     -27.345  55.102  44.656  1.00  0.00     0.211 HD
ENDBRANCH   6  13
BRANCH   7  15
ATOM     15  O   UNL     1     -25.284  55.153  43.806  1.00  0.00    -0.384 OA
ATOM     16  H   UNL     1     -26.206  54.869  43.584  1.00  0.00     0.211 HD
ENDBRANCH   7  15
ENDBRANCH   1   2
BRANCH   1  17
ATOM     17  C   UNL     1     -24.888  51.744  43.211  1.00  0.00     0.172 A 
ATOM     18  C   UNL     1     -24.771  52.078  41.827  1.00  0.00     0.201 A 
ATOM     19  C   UNL     1     -25.491  50.532  43.554  1.00  0.00     0.098 A 
ATOM     20  C   UNL     1     -25.094  51.114  40.850  1.00  0.00     0.176 A 
ATOM     21  C   UNL     1     -25.950  49.643  42.585  1.00  0.00     0.146 A 
ATOM     22  C   UNL     1     -25.691  49.893  41.225  1.00  0.00     0.111 A 
ATOM     23  O   UNL     1     -26.659  48.583  42.961  1.00  0.00    -0.456 OA
ATOM     24  C   UNL     1     -26.122  48.928  40.296  1.00  0.00     0.197 A 
ATOM     25  C   UNL     1     -27.162  47.698  42.099  1.00  0.00     0.138 A 
ATOM     26  C   UNL     1     -26.883  47.842  40.731  1.00  0.00     0.100 A 
ATOM     27  O   UNL     1     -25.846  49.012  39.067  1.00  0.00    -0.289 OA
BRANCH  18  28
ATOM     28  O   UNL     1     -24.431  53.348  41.370  1.00  0.00    -0.502 OA
ATOM     29  H   UNL     1     -24.805  54.186  41.789  1.00  0.00     0.293 HD
ENDBRANCH  18  28
BRANCH  20  30
ATOM     30  O   UNL     1     -24.863  51.381  39.495  1.00  0.00    -0.504 OA
ATOM     31  H   UNL     1     -24.229  50.840  38.921  1.00  0.00     0.293 HD
ENDBRANCH  20  30
BRANCH  25  32
ATOM     32  C   UNL     1     -28.065  46.623  42.610  1.00  0.00     0.017 A 
ATOM     33  C   UNL     1     -29.208  46.188  41.906  1.00  0.00     0.012 A 
ATOM     34  C   UNL     1     -27.807  46.061  43.880  1.00  0.00     0.012 A 
ATOM     35  C   UNL     1     -30.123  45.297  42.496  1.00  0.00     0.001 A 
ATOM     36  C   UNL     1     -28.707  45.153  44.449  1.00  0.00     0.001 A 
ATOM     37  C   UNL     1     -29.879  44.789  43.770  1.00  0.00     0.000 A 
ENDBRANCH  25  32
ENDBRANCH   1  17
TORSDOF 9
ENDMDL
