MODEL 1
REMARK VINA RESULT:    -4.488      0.000      0.000
REMARK INTER + INTRA:          -4.922
REMARK INTER:                  -4.751
REMARK INTRA:                  -0.171
REMARK UNBOUND:                -0.171
REMARK SMILES CC1=CCC(C(C)C)=CC1
REMARK SMILES IDX 1 1 2 2 3 3 4 4 5 5 9 6 10 7 6 8 7 9 8 10
REMARK H PARENT
REMARK Flexibility Score: inf
ROOT
ATOM      1  C   UNL     1       0.813  16.663  30.352  1.00  0.00     0.039 C 
ATOM      2  C   UNL     1      -0.017  17.913  30.440  1.00  0.00    -0.073 C 
ATOM      3  C   UNL     1      -0.029  18.786  29.414  1.00  0.00    -0.023 C 
ATOM      4  C   UNL     1      -0.888  20.025  29.470  1.00  0.00     0.058 C 
ATOM      5  C   UNL     1      -1.012  20.547  30.892  1.00  0.00    -0.068 C 
ATOM      6  C   UNL     1      -0.996  19.666  31.916  1.00  0.00    -0.023 C 
ATOM      7  C   UNL     1      -0.869  18.184  31.661  1.00  0.00     0.057 C 
ENDROOT
BRANCH   5   8
ATOM      8  C   UNL     1      -1.125  22.037  31.170  1.00  0.00     0.009 C 
ATOM      9  C   UNL     1      -1.125  22.848  29.869  1.00  0.00     0.012 C 
ATOM     10  C   UNL     1      -0.006  22.501  32.108  1.00  0.00     0.012 C 
ENDBRANCH   5   8
TORSDOF 1
ENDMDL
MODEL 2
REMARK VINA RESULT:    -4.248     13.840     15.881
REMARK INTER + INTRA:          -4.667
REMARK INTER:                  -4.526
REMARK INTRA:                  -0.141
REMARK UNBOUND:                -0.171
REMARK SMILES CC1=CCC(C(C)C)=CC1
REMARK SMILES IDX 1 1 2 2 3 3 4 4 5 5 9 6 10 7 6 8 7 9 8 10
REMARK H PARENT
REMARK Flexibility Score: inf
ROOT
ATOM      1  C   UNL     1       2.251  19.087  17.270  1.00  0.00     0.039 C 
ATOM      2  C   UNL     1       1.844  17.667  16.992  1.00  0.00    -0.073 C 
ATOM      3  C   UNL     1       2.124  16.699  17.885  1.00  0.00    -0.023 C 
ATOM      4  C   UNL     1       1.687  15.276  17.640  1.00  0.00     0.058 C 
ATOM      5  C   UNL     1       1.697  14.944  16.157  1.00  0.00    -0.068 C 
ATOM      6  C   UNL     1       1.418  15.920  15.265  1.00  0.00    -0.023 C 
ATOM      7  C   UNL     1       1.089  17.319  15.726  1.00  0.00     0.057 C 
ENDROOT
BRANCH   5   8
ATOM      8  C   UNL     1       2.042  13.545  15.672  1.00  0.00     0.009 C 
ATOM      9  C   UNL     1       2.825  13.589  14.355  1.00  0.00     0.012 C 
ATOM     10  C   UNL     1       0.776  12.692  15.532  1.00  0.00     0.012 C 
ENDBRANCH   5   8
TORSDOF 1
ENDMDL
MODEL 3
REMARK VINA RESULT:    -4.033     13.369     15.133
REMARK INTER + INTRA:          -4.440
REMARK INTER:                  -4.296
REMARK INTRA:                  -0.143
REMARK UNBOUND:                -0.171
REMARK SMILES CC1=CCC(C(C)C)=CC1
REMARK SMILES IDX 1 1 2 2 3 3 4 4 5 5 9 6 10 7 6 8 7 9 8 10
REMARK H PARENT
REMARK Flexibility Score: inf
ROOT
ATOM      1  C   UNL     1      -1.125  12.791  20.111  1.00  0.00     0.039 C 
ATOM      2  C   UNL     1      -0.636  13.281  18.777  1.00  0.00    -0.073 C 
ATOM      3  C   UNL     1       0.071  12.460  17.977  1.00  0.00    -0.023 C 
ATOM      4  C   UNL     1       0.535  12.923  16.618  1.00  0.00     0.058 C 
ATOM      5  C   UNL     1       0.847  14.411  16.619  1.00  0.00    -0.068 C 
ATOM      6  C   UNL     1       0.136  15.228  17.427  1.00  0.00    -0.023 C 
ATOM      7  C   UNL     1      -0.960  14.684  18.309  1.00  0.00     0.057 C 
ENDROOT
BRANCH   5   8
ATOM      8  C   UNL     1       1.958  14.976  15.749  1.00  0.00     0.009 C 
ATOM      9  C   UNL     1       1.397  15.891  14.654  1.00  0.00     0.012 C 
ATOM     10  C   UNL     1       2.803  13.848  15.146  1.00  0.00     0.012 C 
ENDBRANCH   5   8
TORSDOF 1
ENDMDL
MODEL 4
REMARK VINA RESULT:    -4.005     14.632     16.198
REMARK INTER + INTRA:          -4.410
REMARK INTER:                  -4.272
REMARK INTRA:                  -0.138
REMARK UNBOUND:                -0.171
REMARK SMILES CC1=CCC(C(C)C)=CC1
REMARK SMILES IDX 1 1 2 2 3 3 4 4 5 5 9 6 10 7 6 8 7 9 8 10
REMARK H PARENT
REMARK Flexibility Score: inf
ROOT
ATOM      1  C   UNL     1       1.146  11.324  14.042  1.00  0.00     0.039 C 
ATOM      2  C   UNL     1       1.455  12.548  14.858  1.00  0.00    -0.073 C 
ATOM      3  C   UNL     1       0.931  12.684  16.091  1.00  0.00    -0.023 C 
ATOM      4  C   UNL     1       1.263  13.887  16.939  1.00  0.00     0.058 C 
ATOM      5  C   UNL     1       1.478  15.124  16.082  1.00  0.00    -0.068 C 
ATOM      6  C   UNL     1       2.001  14.979  14.844  1.00  0.00    -0.023 C 
ATOM      7  C   UNL     1       2.380  13.617  14.317  1.00  0.00     0.057 C 
ENDROOT
BRANCH   5   8
ATOM      8  C   UNL     1       1.088  16.503  16.589  1.00  0.00     0.009 C 
ATOM      9  C   UNL     1       1.081  17.532  15.452  1.00  0.00     0.012 C 
ATOM     10  C   UNL     1       2.013  16.945  17.727  1.00  0.00     0.012 C 
ENDBRANCH   5   8
TORSDOF 1
ENDMDL
MODEL 5
REMARK VINA RESULT:    -3.935     15.096     16.607
REMARK INTER + INTRA:          -4.336
REMARK INTER:                  -4.157
REMARK INTRA:                  -0.179
REMARK UNBOUND:                -0.171
REMARK SMILES CC1=CCC(C(C)C)=CC1
REMARK SMILES IDX 1 1 2 2 3 3 4 4 5 5 9 6 10 7 6 8 7 9 8 10
REMARK H PARENT
REMARK Flexibility Score: inf
ROOT
ATOM      1  C   UNL     1       4.324  13.513  12.954  1.00  0.00     0.039 C 
ATOM      2  C   UNL     1       3.185  14.126  13.719  1.00  0.00    -0.073 C 
ATOM      3  C   UNL     1       2.603  15.255  13.270  1.00  0.00    -0.023 C 
ATOM      4  C   UNL     1       1.433  15.861  14.004  1.00  0.00     0.058 C 
ATOM      5  C   UNL     1       1.538  15.624  15.502  1.00  0.00    -0.068 C 
ATOM      6  C   UNL     1       2.125  14.491  15.945  1.00  0.00    -0.023 C 
ATOM      7  C   UNL     1       2.661  13.466  14.976  1.00  0.00     0.057 C 
ENDROOT
BRANCH   5   8
ATOM      8  C   UNL     1       1.019  16.652  16.493  1.00  0.00     0.009 C 
ATOM      9  C   UNL     1       1.049  18.065  15.898  1.00  0.00     0.012 C 
ATOM     10  C   UNL     1       1.809  16.590  17.804  1.00  0.00     0.012 C 
ENDBRANCH   5   8
TORSDOF 1
ENDMDL
MODEL 6
REMARK VINA RESULT:    -3.871     14.346     16.134
REMARK INTER + INTRA:          -4.268
REMARK INTER:                  -4.131
REMARK INTRA:                  -0.138
REMARK UNBOUND:                -0.171
REMARK SMILES CC1=CCC(C(C)C)=CC1
REMARK SMILES IDX 1 1 2 2 3 3 4 4 5 5 9 6 10 7 6 8 7 9 8 10
REMARK H PARENT
REMARK Flexibility Score: inf
ROOT
ATOM      1  C   UNL     1       3.715  13.875  13.611  1.00  0.00     0.039 C 
ATOM      2  C   UNL     1       2.533  13.923  14.539  1.00  0.00    -0.073 C 
ATOM      3  C   UNL     1       2.209  15.076  15.155  1.00  0.00    -0.023 C 
ATOM      4  C   UNL     1       1.003  15.152  16.058  1.00  0.00     0.058 C 
ATOM      5  C   UNL     1       0.766  13.834  16.775  1.00  0.00    -0.068 C 
ATOM      6  C   UNL     1       1.096  12.681  16.152  1.00  0.00    -0.023 C 
ATOM      7  C   UNL     1       1.680  12.692  14.761  1.00  0.00     0.057 C 
ENDROOT
BRANCH   5   8
ATOM      8  C   UNL     1       0.193  13.802  18.183  1.00  0.00     0.009 C 
ATOM      9  C   UNL     1       0.007  12.362  18.676  1.00  0.00     0.012 C 
ATOM     10  C   UNL     1      -1.124  14.582  18.251  1.00  0.00     0.012 C 
ENDBRANCH   5   8
TORSDOF 1
ENDMDL
MODEL 7
REMARK VINA RESULT:    -3.829     14.607     16.503
REMARK INTER + INTRA:          -4.224
REMARK INTER:                  -4.044
REMARK INTRA:                  -0.179
REMARK UNBOUND:                -0.171
REMARK SMILES CC1=CCC(C(C)C)=CC1
REMARK SMILES IDX 1 1 2 2 3 3 4 4 5 5 9 6 10 7 6 8 7 9 8 10
REMARK H PARENT
REMARK Flexibility Score: inf
ROOT
ATOM      1  C   UNL     1      -0.552  18.399  13.736  1.00  0.00     0.039 C 
ATOM      2  C   UNL     1       0.432  17.439  14.344  1.00  0.00    -0.073 C 
ATOM      3  C   UNL     1       0.876  16.388  13.629  1.00  0.00    -0.023 C 
ATOM      4  C   UNL     1       1.894  15.438  14.210  1.00  0.00     0.058 C 
ATOM      5  C   UNL     1       1.719  15.294  15.713  1.00  0.00    -0.068 C 
ATOM      6  C   UNL     1       1.270  16.352  16.424  1.00  0.00    -0.023 C 
ATOM      7  C   UNL     1       0.956  17.663  15.747  1.00  0.00     0.057 C 
ENDROOT
BRANCH   5   8
ATOM      8  C   UNL     1       2.016  13.976  16.410  1.00  0.00     0.009 C 
ATOM      9  C   UNL     1       1.597  12.782  15.546  1.00  0.00     0.012 C 
ATOM     10  C   UNL     1       1.341  13.926  17.785  1.00  0.00     0.012 C 
ENDBRANCH   5   8
TORSDOF 1
ENDMDL
MODEL 8
REMARK VINA RESULT:    -3.828     15.726     17.712
REMARK INTER + INTRA:          -4.223
REMARK INTER:                  -4.054
REMARK INTRA:                  -0.170
REMARK UNBOUND:                -0.171
REMARK SMILES CC1=CCC(C(C)C)=CC1
REMARK SMILES IDX 1 1 2 2 3 3 4 4 5 5 9 6 10 7 6 8 7 9 8 10
REMARK H PARENT
REMARK Flexibility Score: inf
ROOT
ATOM      1  C   UNL     1       1.484  16.306  16.619  1.00  0.00     0.039 C 
ATOM      2  C   UNL     1       1.696  14.919  16.077  1.00  0.00    -0.073 C 
ATOM      3  C   UNL     1       2.257  14.750  14.865  1.00  0.00    -0.023 C 
ATOM      4  C   UNL     1       2.514  13.365  14.324  1.00  0.00     0.058 C 
ATOM      5  C   UNL     1       1.456  12.382  14.798  1.00  0.00    -0.068 C 
ATOM      6  C   UNL     1       0.895  12.560  16.015  1.00  0.00    -0.023 C 
ATOM      7  C   UNL     1       1.315  13.707  16.900  1.00  0.00     0.057 C 
ENDROOT
BRANCH   5   8
ATOM      8  C   UNL     1       1.009  11.230  13.914  1.00  0.00     0.009 C 
ATOM      9  C   UNL     1       1.865  11.136  12.645  1.00  0.00     0.012 C 
ATOM     10  C   UNL     1      -0.478  11.357  13.567  1.00  0.00     0.012 C 
ENDBRANCH   5   8
TORSDOF 1
ENDMDL
MODEL 9
REMARK VINA RESULT:    -3.789     13.979     15.578
REMARK INTER + INTRA:          -4.182
REMARK INTER:                  -4.009
REMARK INTRA:                  -0.173
REMARK UNBOUND:                -0.171
REMARK SMILES CC1=CCC(C(C)C)=CC1
REMARK SMILES IDX 1 1 2 2 3 3 4 4 5 5 9 6 10 7 6 8 7 9 8 10
REMARK H PARENT
REMARK Flexibility Score: inf
ROOT
ATOM      1  C   UNL     1       0.745  12.754  17.945  1.00  0.00     0.039 C 
ATOM      2  C   UNL     1       1.187  14.022  17.271  1.00  0.00    -0.073 C 
ATOM      3  C   UNL     1       0.959  15.212  17.860  1.00  0.00    -0.023 C 
ATOM      4  C   UNL     1       1.432  16.492  17.216  1.00  0.00     0.058 C 
ATOM      5  C   UNL     1       1.394  16.393  15.699  1.00  0.00    -0.068 C 
ATOM      6  C   UNL     1       1.621  15.196  15.116  1.00  0.00    -0.023 C 
ATOM      7  C   UNL     1       1.920  13.973  15.947  1.00  0.00     0.057 C 
ENDROOT
BRANCH   5   8
ATOM      8  C   UNL     1       1.079  17.610  14.845  1.00  0.00     0.009 C 
ATOM      9  C   UNL     1      -0.403  17.991  14.943  1.00  0.00     0.012 C 
ATOM     10  C   UNL     1       1.492  17.374  13.389  1.00  0.00     0.012 C 
ENDBRANCH   5   8
TORSDOF 1
ENDMDL
