MODEL 1
REMARK VINA RESULT:    -7.120      0.000      0.000
REMARK INTER + INTRA:          -8.879
REMARK INTER:                  -8.577
REMARK INTRA:                  -0.303
REMARK UNBOUND:                -0.303
REMARK SMILES O=c1c(O)c(-c2ccc(O)c(O)c2)oc2cc(O)cc(O)c12
REMARK SMILES IDX 5 1 3 2 2 3 1 4 22 5 20 6 19 7 17 8 16 9 15 10 14 11 6 12
REMARK SMILES IDX 7 13 8 14 9 15 13 16 11 17 10 18 12 20 4 22 21 24 18 26
REMARK H PARENT 10 19 12 21 4 23 21 25 18 27
REMARK Flexibility Score: inf
ROOT
ATOM      1  C   UNL     1      24.485 -13.076  13.465  1.00  0.00     0.180 A 
ATOM      2  C   UNL     1      24.360 -13.319  12.084  1.00  0.00     0.208 A 
ATOM      3  C   UNL     1      24.913 -14.492  11.547  1.00  0.00     0.238 A 
ATOM      4  O   UNL     1      24.816 -14.714  10.310  1.00  0.00    -0.285 OA
ATOM      5  C   UNL     1      25.560 -15.409  12.399  1.00  0.00     0.111 A 
ATOM      6  C   UNL     1      26.140 -16.617  11.940  1.00  0.00     0.134 A 
ATOM      7  C   UNL     1      26.758 -17.483  12.853  1.00  0.00     0.093 A 
ATOM      8  C   UNL     1      26.809 -17.168  14.213  1.00  0.00     0.123 A 
ATOM      9  C   UNL     1      26.239 -15.976  14.673  1.00  0.00     0.094 A 
ATOM     10  C   UNL     1      25.619 -15.099  13.778  1.00  0.00     0.146 A 
ATOM     11  O   UNL     1      25.090 -13.971  14.240  1.00  0.00    -0.452 OA
ENDROOT
BRANCH   1  12
ATOM     12  C   UNL     1      23.947 -11.853  14.102  1.00  0.00     0.025 A 
ATOM     13  C   UNL     1      24.674 -10.655  14.023  1.00  0.00     0.016 A 
ATOM     14  C   UNL     1      24.175  -9.483  14.599  1.00  0.00     0.051 A 
ATOM     15  C   UNL     1      22.935  -9.490  15.250  1.00  0.00     0.157 A 
ATOM     16  C   UNL     1      22.692 -11.850  14.738  1.00  0.00     0.062 A 
ATOM     17  C   UNL     1      22.190 -10.675  15.316  1.00  0.00     0.158 A 
BRANCH  15  18
ATOM     18  O   UNL     1      22.434  -8.326  15.828  1.00  0.00    -0.504 OA
ATOM     19  H   UNL     1      22.857  -7.921  16.655  1.00  0.00     0.293 HD
ENDBRANCH  15  18
BRANCH  17  20
ATOM     20  O   UNL     1      20.949 -10.675  15.951  1.00  0.00    -0.504 OA
ATOM     21  H   UNL     1      20.518 -11.534  16.273  1.00  0.00     0.293 HD
ENDBRANCH  17  20
ENDBRANCH   1  12
BRANCH   2  22
ATOM     22  O   UNL     1      23.671 -12.417  11.268  1.00  0.00    -0.502 OA
ATOM     23  H   UNL     1      24.079 -12.020  10.431  1.00  0.00     0.293 HD
ENDBRANCH   2  22
BRANCH   6  24
ATOM     24  O   UNL     1      26.105 -16.962  10.588  1.00  0.00    -0.507 OA
ATOM     25  H   UNL     1      25.486 -17.683  10.237  1.00  0.00     0.293 HD
ENDBRANCH   6  24
BRANCH   8  26
ATOM     26  O   UNL     1      27.429 -18.046  15.099  1.00  0.00    -0.508 OA
ATOM     27  H   UNL     1      28.436 -18.156  15.118  1.00  0.00     0.293 HD
ENDBRANCH   8  26
TORSDOF 6
ENDMDL
MODEL 2
REMARK VINA RESULT:    -6.753      1.281      2.932
REMARK INTER + INTRA:          -8.438
REMARK INTER:                  -8.244
REMARK INTRA:                  -0.194
REMARK UNBOUND:                -0.303
REMARK SMILES O=c1c(O)c(-c2ccc(O)c(O)c2)oc2cc(O)cc(O)c12
REMARK SMILES IDX 5 1 3 2 2 3 1 4 22 5 20 6 19 7 17 8 16 9 15 10 14 11 6 12
REMARK SMILES IDX 7 13 8 14 9 15 13 16 11 17 10 18 12 20 4 22 21 24 18 26
REMARK H PARENT 10 19 12 21 4 23 21 25 18 27
REMARK Flexibility Score: inf
ROOT
ATOM      1  C   UNL     1      24.428 -13.097  13.562  1.00  0.00     0.180 A 
ATOM      2  C   UNL     1      24.695 -14.256  14.315  1.00  0.00     0.208 A 
ATOM      3  C   UNL     1      25.184 -15.395  13.657  1.00  0.00     0.238 A 
ATOM      4  O   UNL     1      25.416 -16.442  14.319  1.00  0.00    -0.285 OA
ATOM      5  C   UNL     1      25.415 -15.351  12.267  1.00  0.00     0.111 A 
ATOM      6  C   UNL     1      25.910 -16.454  11.529  1.00  0.00     0.134 A 
ATOM      7  C   UNL     1      26.122 -16.327  10.148  1.00  0.00     0.093 A 
ATOM      8  C   UNL     1      25.852 -15.124   9.492  1.00  0.00     0.123 A 
ATOM      9  C   UNL     1      25.362 -14.032  10.216  1.00  0.00     0.094 A 
ATOM     10  C   UNL     1      25.142 -14.138  11.592  1.00  0.00     0.146 A 
ATOM     11  O   UNL     1      24.672 -13.087  12.254  1.00  0.00    -0.452 OA
ENDROOT
BRANCH   1  12
ATOM     12  C   UNL     1      23.893 -11.862  14.180  1.00  0.00     0.025 A 
ATOM     13  C   UNL     1      24.652 -10.682  14.137  1.00  0.00     0.016 A 
ATOM     14  C   UNL     1      24.159  -9.500  14.695  1.00  0.00     0.051 A 
ATOM     15  C   UNL     1      22.892  -9.477  15.291  1.00  0.00     0.157 A 
ATOM     16  C   UNL     1      22.612 -11.829  14.761  1.00  0.00     0.062 A 
ATOM     17  C   UNL     1      22.115 -10.643  15.320  1.00  0.00     0.158 A 
BRANCH  15  18
ATOM     18  O   UNL     1      22.396  -8.302  15.851  1.00  0.00    -0.504 OA
ATOM     19  H   UNL     1      22.102  -8.260  16.820  1.00  0.00     0.293 HD
ENDBRANCH  15  18
BRANCH  17  20
ATOM     20  O   UNL     1      20.848 -10.613  15.901  1.00  0.00    -0.504 OA
ATOM     21  H   UNL     1      20.509 -11.378  16.474  1.00  0.00     0.293 HD
ENDBRANCH  17  20
ENDBRANCH   1  12
BRANCH   2  22
ATOM     22  O   UNL     1      24.504 -14.258  15.699  1.00  0.00    -0.502 OA
ATOM     23  H   UNL     1      24.964 -14.922  16.310  1.00  0.00     0.293 HD
ENDBRANCH   2  22
BRANCH   6  24
ATOM     24  O   UNL     1      26.191 -17.669  12.155  1.00  0.00    -0.507 OA
ATOM     25  H   UNL     1      26.916 -18.289  11.814  1.00  0.00     0.293 HD
ENDBRANCH   6  24
BRANCH   8  26
ATOM     26  O   UNL     1      26.073 -15.025   8.120  1.00  0.00    -0.508 OA
ATOM     27  H   UNL     1      26.839 -15.513   7.671  1.00  0.00     0.293 HD
ENDBRANCH   8  26
TORSDOF 6
ENDMDL
MODEL 3
REMARK VINA RESULT:    -6.363      1.948      1.991
REMARK INTER + INTRA:          -7.968
REMARK INTER:                  -7.651
REMARK INTRA:                  -0.316
REMARK UNBOUND:                -0.303
REMARK SMILES O=c1c(O)c(-c2ccc(O)c(O)c2)oc2cc(O)cc(O)c12
REMARK SMILES IDX 5 1 3 2 2 3 1 4 22 5 20 6 19 7 17 8 16 9 15 10 14 11 6 12
REMARK SMILES IDX 7 13 8 14 9 15 13 16 11 17 10 18 12 20 4 22 21 24 18 26
REMARK H PARENT 10 19 12 21 4 23 21 25 18 27
REMARK Flexibility Score: inf
ROOT
ATOM      1  C   UNL     1      25.420 -12.830  12.659  1.00  0.00     0.180 A 
ATOM      2  C   UNL     1      25.071 -13.219  11.352  1.00  0.00     0.208 A 
ATOM      3  C   UNL     1      25.922 -14.090  10.653  1.00  0.00     0.238 A 
ATOM      4  O   UNL     1      25.625 -14.436   9.478  1.00  0.00    -0.285 OA
ATOM      5  C   UNL     1      27.091 -14.571  11.276  1.00  0.00     0.111 A 
ATOM      6  C   UNL     1      27.999 -15.454  10.643  1.00  0.00     0.134 A 
ATOM      7  C   UNL     1      29.136 -15.896  11.334  1.00  0.00     0.093 A 
ATOM      8  C   UNL     1      29.384 -15.475  12.643  1.00  0.00     0.123 A 
ATOM      9  C   UNL     1      28.491 -14.601  13.273  1.00  0.00     0.094 A 
ATOM     10  C   UNL     1      27.353 -14.148  12.600  1.00  0.00     0.146 A 
ATOM     11  O   UNL     1      26.524 -13.316  13.221  1.00  0.00    -0.452 OA
ENDROOT
BRANCH   1  12
ATOM     12  C   UNL     1      24.586 -11.901  13.454  1.00  0.00     0.025 A 
ATOM     13  C   UNL     1      24.861 -10.525  13.422  1.00  0.00     0.016 A 
ATOM     14  C   UNL     1      24.074  -9.627  14.148  1.00  0.00     0.051 A 
ATOM     15  C   UNL     1      22.991 -10.091  14.904  1.00  0.00     0.157 A 
ATOM     16  C   UNL     1      23.483 -12.360  14.199  1.00  0.00     0.062 A 
ATOM     17  C   UNL     1      22.692 -11.460  14.926  1.00  0.00     0.158 A 
BRANCH  15  18
ATOM     18  O   UNL     1      22.204  -9.200  15.631  1.00  0.00    -0.504 OA
ATOM     19  H   UNL     1      21.753  -8.408  15.188  1.00  0.00     0.293 HD
ENDBRANCH  15  18
BRANCH  17  20
ATOM     20  O   UNL     1      21.604 -11.916  15.668  1.00  0.00    -0.504 OA
ATOM     21  H   UNL     1      21.682 -12.110  16.660  1.00  0.00     0.293 HD
ENDBRANCH  17  20
ENDBRANCH   1  12
BRANCH   2  22
ATOM     22  O   UNL     1      23.882 -12.767  10.775  1.00  0.00    -0.502 OA
ATOM     23  H   UNL     1      23.866 -12.197   9.938  1.00  0.00     0.293 HD
ENDBRANCH   2  22
BRANCH   6  24
ATOM     24  O   UNL     1      27.779 -15.895   9.337  1.00  0.00    -0.507 OA
ATOM     25  H   UNL     1      27.178 -15.389   8.697  1.00  0.00     0.293 HD
ENDBRANCH   6  24
BRANCH   8  26
ATOM     26  O   UNL     1      30.521 -15.929  13.307  1.00  0.00    -0.508 OA
ATOM     27  H   UNL     1      31.011 -16.764  13.007  1.00  0.00     0.293 HD
ENDBRANCH   8  26
TORSDOF 6
ENDMDL
MODEL 4
REMARK VINA RESULT:    -6.023     10.814     13.021
REMARK INTER + INTRA:          -7.558
REMARK INTER:                  -7.433
REMARK INTRA:                  -0.125
REMARK UNBOUND:                -0.303
REMARK SMILES O=c1c(O)c(-c2ccc(O)c(O)c2)oc2cc(O)cc(O)c12
REMARK SMILES IDX 5 1 3 2 2 3 1 4 22 5 20 6 19 7 17 8 16 9 15 10 14 11 6 12
REMARK SMILES IDX 7 13 8 14 9 15 13 16 11 17 10 18 12 20 4 22 21 24 18 26
REMARK H PARENT 10 19 12 21 4 23 21 25 18 27
REMARK Flexibility Score: inf
ROOT
ATOM      1  C   UNL     1      26.262  -1.371  11.690  1.00  0.00     0.180 A 
ATOM      2  C   UNL     1      26.125  -0.214  10.900  1.00  0.00     0.208 A 
ATOM      3  C   UNL     1      25.447  -0.305   9.675  1.00  0.00     0.238 A 
ATOM      4  O   UNL     1      25.328   0.722   8.954  1.00  0.00    -0.285 OA
ATOM      5  C   UNL     1      24.901  -1.541   9.271  1.00  0.00     0.111 A 
ATOM      6  C   UNL     1      24.199  -1.717   8.054  1.00  0.00     0.134 A 
ATOM      7  C   UNL     1      23.678  -2.977   7.728  1.00  0.00     0.093 A 
ATOM      8  C   UNL     1      23.842  -4.062   8.592  1.00  0.00     0.123 A 
ATOM      9  C   UNL     1      24.535  -3.894   9.796  1.00  0.00     0.094 A 
ATOM     10  C   UNL     1      25.064  -2.647  10.138  1.00  0.00     0.146 A 
ATOM     11  O   UNL     1      25.722  -2.516  11.284  1.00  0.00    -0.452 OA
ENDROOT
BRANCH   1  12
ATOM     12  C   UNL     1      26.981  -1.360  12.985  1.00  0.00     0.025 A 
ATOM     13  C   UNL     1      26.493  -0.574  14.040  1.00  0.00     0.016 A 
ATOM     14  C   UNL     1      27.143  -0.564  15.277  1.00  0.00     0.051 A 
ATOM     15  C   UNL     1      28.282  -1.353  15.481  1.00  0.00     0.157 A 
ATOM     16  C   UNL     1      28.114  -2.167  13.201  1.00  0.00     0.062 A 
ATOM     17  C   UNL     1      28.766  -2.159  14.442  1.00  0.00     0.158 A 
BRANCH  15  18
ATOM     18  O   UNL     1      28.935  -1.345  16.712  1.00  0.00    -0.504 OA
ATOM     19  H   UNL     1      29.066  -2.195  17.247  1.00  0.00     0.293 HD
ENDBRANCH  15  18
BRANCH  17  20
ATOM     20  O   UNL     1      29.891  -2.954  14.653  1.00  0.00    -0.504 OA
ATOM     21  H   UNL     1      30.057  -3.793  14.109  1.00  0.00     0.293 HD
ENDBRANCH  17  20
ENDBRANCH   1  12
BRANCH   2  22
ATOM     22  O   UNL     1      26.633   1.009  11.345  1.00  0.00    -0.502 OA
ATOM     23  H   UNL     1      27.548   1.096  11.771  1.00  0.00     0.293 HD
ENDBRANCH   2  22
BRANCH   6  24
ATOM     24  O   UNL     1      24.017  -0.653   7.170  1.00  0.00    -0.507 OA
ATOM     25  H   UNL     1      23.204  -0.592   6.568  1.00  0.00     0.293 HD
ENDBRANCH   6  24
BRANCH   8  26
ATOM     26  O   UNL     1      23.313  -5.303   8.244  1.00  0.00    -0.508 OA
ATOM     27  H   UNL     1      22.821  -5.442   7.369  1.00  0.00     0.293 HD
ENDBRANCH   8  26
TORSDOF 6
ENDMDL
MODEL 5
REMARK VINA RESULT:    -5.933      2.960      7.455
REMARK INTER + INTRA:          -7.449
REMARK INTER:                  -7.119
REMARK INTRA:                  -0.330
REMARK UNBOUND:                -0.303
REMARK SMILES O=c1c(O)c(-c2ccc(O)c(O)c2)oc2cc(O)cc(O)c12
REMARK SMILES IDX 5 1 3 2 2 3 1 4 22 5 20 6 19 7 17 8 16 9 15 10 14 11 6 12
REMARK SMILES IDX 7 13 8 14 9 15 13 16 11 17 10 18 12 20 4 22 21 24 18 26
REMARK H PARENT 10 19 12 21 4 23 21 25 18 27
REMARK Flexibility Score: inf
ROOT
ATOM      1  C   UNL     1      27.551 -15.862  12.483  1.00  0.00     0.180 A 
ATOM      2  C   UNL     1      27.967 -16.593  13.612  1.00  0.00     0.208 A 
ATOM      3  C   UNL     1      27.275 -16.426  14.821  1.00  0.00     0.238 A 
ATOM      4  O   UNL     1      27.646 -17.068  15.841  1.00  0.00    -0.285 OA
ATOM      5  C   UNL     1      26.171 -15.552  14.877  1.00  0.00     0.111 A 
ATOM      6  C   UNL     1      25.417 -15.331  16.055  1.00  0.00     0.134 A 
ATOM      7  C   UNL     1      24.325 -14.452  16.028  1.00  0.00     0.093 A 
ATOM      8  C   UNL     1      23.971 -13.791  14.849  1.00  0.00     0.123 A 
ATOM      9  C   UNL     1      24.713 -14.005  13.682  1.00  0.00     0.094 A 
ATOM     10  C   UNL     1      25.806 -14.876  13.690  1.00  0.00     0.146 A 
ATOM     11  O   UNL     1      26.496 -15.057  12.569  1.00  0.00    -0.452 OA
ENDROOT
BRANCH   1  12
ATOM     12  C   UNL     1      28.242 -15.968  11.177  1.00  0.00     0.025 A 
ATOM     13  C   UNL     1      27.807 -16.918  10.240  1.00  0.00     0.016 A 
ATOM     14  C   UNL     1      28.429 -17.022   8.994  1.00  0.00     0.051 A 
ATOM     15  C   UNL     1      29.487 -16.166   8.661  1.00  0.00     0.157 A 
ATOM     16  C   UNL     1      29.291 -15.097  10.831  1.00  0.00     0.062 A 
ATOM     17  C   UNL     1      29.916 -15.199   9.580  1.00  0.00     0.158 A 
BRANCH  15  18
ATOM     18  O   UNL     1      30.114 -16.267   7.420  1.00  0.00    -0.504 OA
ATOM     19  H   UNL     1      30.679 -17.071   7.176  1.00  0.00     0.293 HD
ENDBRANCH  15  18
BRANCH  17  20
ATOM     20  O   UNL     1      30.959 -14.339   9.239  1.00  0.00    -0.504 OA
ATOM     21  H   UNL     1      30.811 -13.343   9.130  1.00  0.00     0.293 HD
ENDBRANCH  17  20
ENDBRANCH   1  12
BRANCH   2  22
ATOM     22  O   UNL     1      29.035 -17.490  13.517  1.00  0.00    -0.502 OA
ATOM     23  H   UNL     1      29.594 -17.583  12.679  1.00  0.00     0.293 HD
ENDBRANCH   2  22
BRANCH   6  24
ATOM     24  O   UNL     1      25.744 -15.977  17.249  1.00  0.00    -0.507 OA
ATOM     25  H   UNL     1      26.597 -16.514  17.349  1.00  0.00     0.293 HD
ENDBRANCH   6  24
BRANCH   8  26
ATOM     26  O   UNL     1      22.881 -12.923  14.848  1.00  0.00    -0.508 OA
ATOM     27  H   UNL     1      21.942 -13.253  14.658  1.00  0.00     0.293 HD
ENDBRANCH   8  26
TORSDOF 6
ENDMDL
MODEL 6
REMARK VINA RESULT:    -5.872      2.365      4.113
REMARK INTER + INTRA:          -7.376
REMARK INTER:                  -7.091
REMARK INTRA:                  -0.285
REMARK UNBOUND:                -0.303
REMARK SMILES O=c1c(O)c(-c2ccc(O)c(O)c2)oc2cc(O)cc(O)c12
REMARK SMILES IDX 5 1 3 2 2 3 1 4 22 5 20 6 19 7 17 8 16 9 15 10 14 11 6 12
REMARK SMILES IDX 7 13 8 14 9 15 13 16 11 17 10 18 12 20 4 22 21 24 18 26
REMARK H PARENT 10 19 12 21 4 23 21 25 18 27
REMARK Flexibility Score: inf
ROOT
ATOM      1  C   UNL     1      25.828 -14.433  12.035  1.00  0.00     0.180 A 
ATOM      2  C   UNL     1      27.016 -15.031  12.495  1.00  0.00     0.208 A 
ATOM      3  C   UNL     1      27.608 -16.045  11.725  1.00  0.00     0.238 A 
ATOM      4  O   UNL     1      28.667 -16.595  12.132  1.00  0.00    -0.285 OA
ATOM      5  C   UNL     1      27.016 -16.427  10.505  1.00  0.00     0.111 A 
ATOM      6  C   UNL     1      27.551 -17.437   9.667  1.00  0.00     0.134 A 
ATOM      7  C   UNL     1      26.907 -17.754   8.463  1.00  0.00     0.093 A 
ATOM      8  C   UNL     1      25.743 -17.085   8.077  1.00  0.00     0.123 A 
ATOM      9  C   UNL     1      25.210 -16.087   8.901  1.00  0.00     0.094 A 
ATOM     10  C   UNL     1      25.836 -15.757  10.106  1.00  0.00     0.146 A 
ATOM     11  O   UNL     1      25.306 -14.810  10.872  1.00  0.00    -0.452 OA
ENDROOT
BRANCH   1  12
ATOM     12  C   UNL     1      25.134 -13.371  12.799  1.00  0.00     0.025 A 
ATOM     13  C   UNL     1      24.358 -13.718  13.916  1.00  0.00     0.016 A 
ATOM     14  C   UNL     1      23.711 -12.731  14.664  1.00  0.00     0.051 A 
ATOM     15  C   UNL     1      23.842 -11.382  14.315  1.00  0.00     0.157 A 
ATOM     16  C   UNL     1      25.280 -12.012  12.464  1.00  0.00     0.062 A 
ATOM     17  C   UNL     1      24.632 -11.021  13.214  1.00  0.00     0.158 A 
BRANCH  15  18
ATOM     18  O   UNL     1      23.197 -10.394  15.056  1.00  0.00    -0.504 OA
ATOM     19  H   UNL     1      23.354 -10.292  16.052  1.00  0.00     0.293 HD
ENDBRANCH  15  18
BRANCH  17  20
ATOM     20  O   UNL     1      24.773  -9.675  12.878  1.00  0.00    -0.504 OA
ATOM     21  H   UNL     1      24.377  -8.941  13.454  1.00  0.00     0.293 HD
ENDBRANCH  17  20
ENDBRANCH   1  12
BRANCH   2  22
ATOM     22  O   UNL     1      27.610 -14.599  13.684  1.00  0.00    -0.502 OA
ATOM     23  H   UNL     1      27.821 -15.231  14.447  1.00  0.00     0.293 HD
ENDBRANCH   2  22
BRANCH   6  24
ATOM     24  O   UNL     1      28.712 -18.124  10.023  1.00  0.00    -0.507 OA
ATOM     25  H   UNL     1      28.680 -18.999  10.531  1.00  0.00     0.293 HD
ENDBRANCH   6  24
BRANCH   8  26
ATOM     26  O   UNL     1      25.124 -17.419   6.875  1.00  0.00    -0.508 OA
ATOM     27  H   UNL     1      24.135 -17.638   6.832  1.00  0.00     0.293 HD
ENDBRANCH   8  26
TORSDOF 6
ENDMDL
MODEL 7
REMARK VINA RESULT:    -5.822     10.478     12.891
REMARK INTER + INTRA:          -7.316
REMARK INTER:                  -7.063
REMARK INTRA:                  -0.253
REMARK UNBOUND:                -0.303
REMARK SMILES O=c1c(O)c(-c2ccc(O)c(O)c2)oc2cc(O)cc(O)c12
REMARK SMILES IDX 5 1 3 2 2 3 1 4 22 5 20 6 19 7 17 8 16 9 15 10 14 11 6 12
REMARK SMILES IDX 7 13 8 14 9 15 13 16 11 17 10 18 12 20 4 22 21 24 18 26
REMARK H PARENT 10 19 12 21 4 23 21 25 18 27
REMARK Flexibility Score: inf
ROOT
ATOM      1  C   UNL     1      27.764  -1.815  13.411  1.00  0.00     0.180 A 
ATOM      2  C   UNL     1      28.005  -3.188  13.217  1.00  0.00     0.208 A 
ATOM      3  C   UNL     1      27.406  -3.835  12.125  1.00  0.00     0.238 A 
ATOM      4  O   UNL     1      27.607  -5.067  11.947  1.00  0.00    -0.285 OA
ATOM      5  C   UNL     1      26.597  -3.098  11.237  1.00  0.00     0.111 A 
ATOM      6  C   UNL     1      25.960  -3.673  10.110  1.00  0.00     0.134 A 
ATOM      7  C   UNL     1      25.176  -2.869   9.269  1.00  0.00     0.093 A 
ATOM      8  C   UNL     1      25.017  -1.506   9.529  1.00  0.00     0.123 A 
ATOM      9  C   UNL     1      25.644  -0.933  10.642  1.00  0.00     0.094 A 
ATOM     10  C   UNL     1      26.427  -1.717  11.493  1.00  0.00     0.146 A 
ATOM     11  O   UNL     1      27.006  -1.148  12.545  1.00  0.00    -0.452 OA
ENDROOT
BRANCH   1  12
ATOM     12  C   UNL     1      28.344  -1.066  14.549  1.00  0.00     0.025 A 
ATOM     13  C   UNL     1      29.701  -0.709  14.523  1.00  0.00     0.016 A 
ATOM     14  C   UNL     1      30.265   0.015  15.577  1.00  0.00     0.051 A 
ATOM     15  C   UNL     1      29.475   0.406  16.665  1.00  0.00     0.157 A 
ATOM     16  C   UNL     1      27.549  -0.654  15.635  1.00  0.00     0.062 A 
ATOM     17  C   UNL     1      28.113   0.074  16.692  1.00  0.00     0.158 A 
BRANCH  15  18
ATOM     18  O   UNL     1      30.032   1.126  17.720  1.00  0.00    -0.504 OA
ATOM     19  H   UNL     1      29.799   2.099  17.878  1.00  0.00     0.293 HD
ENDBRANCH  15  18
BRANCH  17  20
ATOM     20  O   UNL     1      27.327   0.478  17.770  1.00  0.00    -0.504 OA
ATOM     21  H   UNL     1      27.103  -0.155  18.529  1.00  0.00     0.293 HD
ENDBRANCH  17  20
ENDBRANCH   1  12
BRANCH   2  22
ATOM     22  O   UNL     1      28.852  -3.885  14.083  1.00  0.00    -0.502 OA
ATOM     23  H   UNL     1      28.951  -4.892  14.051  1.00  0.00     0.293 HD
ENDBRANCH   2  22
BRANCH   6  24
ATOM     24  O   UNL     1      26.099  -5.031   9.822  1.00  0.00    -0.507 OA
ATOM     25  H   UNL     1      25.435  -5.523   9.236  1.00  0.00     0.293 HD
ENDBRANCH   6  24
BRANCH   8  26
ATOM     26  O   UNL     1      24.235  -0.731   8.677  1.00  0.00    -0.508 OA
ATOM     27  H   UNL     1      23.923  -1.082   7.779  1.00  0.00     0.293 HD
ENDBRANCH   8  26
TORSDOF 6
ENDMDL
MODEL 8
REMARK VINA RESULT:    -5.766     10.726     12.557
REMARK INTER + INTRA:          -7.248
REMARK INTER:                  -7.217
REMARK INTRA:                  -0.031
REMARK UNBOUND:                -0.303
REMARK SMILES O=c1c(O)c(-c2ccc(O)c(O)c2)oc2cc(O)cc(O)c12
REMARK SMILES IDX 5 1 3 2 2 3 1 4 22 5 20 6 19 7 17 8 16 9 15 10 14 11 6 12
REMARK SMILES IDX 7 13 8 14 9 15 13 16 11 17 10 18 12 20 4 22 21 24 18 26
REMARK H PARENT 10 19 12 21 4 23 21 25 18 27
REMARK Flexibility Score: inf
ROOT
ATOM      1  C   UNL     1      26.286  -2.821  11.007  1.00  0.00     0.180 A 
ATOM      2  C   UNL     1      27.298  -3.796  11.071  1.00  0.00     0.208 A 
ATOM      3  C   UNL     1      28.223  -3.747  12.126  1.00  0.00     0.238 A 
ATOM      4  O   UNL     1      29.140  -4.609  12.187  1.00  0.00    -0.285 OA
ATOM      5  C   UNL     1      28.107  -2.741  13.106  1.00  0.00     0.111 A 
ATOM      6  C   UNL     1      28.994  -2.624  14.204  1.00  0.00     0.134 A 
ATOM      7  C   UNL     1      28.807  -1.599  15.143  1.00  0.00     0.093 A 
ATOM      8  C   UNL     1      27.754  -0.692  15.009  1.00  0.00     0.123 A 
ATOM      9  C   UNL     1      26.874  -0.803  13.926  1.00  0.00     0.094 A 
ATOM     10  C   UNL     1      27.045  -1.816  12.978  1.00  0.00     0.146 A 
ATOM     11  O   UNL     1      26.199  -1.895  11.957  1.00  0.00    -0.452 OA
ENDROOT
BRANCH   1  12
ATOM     12  C   UNL     1      25.286  -2.793   9.915  1.00  0.00     0.025 A 
ATOM     13  C   UNL     1      24.504  -3.931   9.665  1.00  0.00     0.016 A 
ATOM     14  C   UNL     1      23.540  -3.922   8.653  1.00  0.00     0.051 A 
ATOM     15  C   UNL     1      23.334  -2.768   7.886  1.00  0.00     0.157 A 
ATOM     16  C   UNL     1      25.062  -1.630   9.156  1.00  0.00     0.062 A 
ATOM     17  C   UNL     1      24.094  -1.618   8.141  1.00  0.00     0.158 A 
BRANCH  15  18
ATOM     18  O   UNL     1      22.376  -2.753   6.875  1.00  0.00    -0.504 OA
ATOM     19  H   UNL     1      22.518  -2.232   6.018  1.00  0.00     0.293 HD
ENDBRANCH  15  18
BRANCH  17  20
ATOM     20  O   UNL     1      23.876  -0.467   7.386  1.00  0.00    -0.504 OA
ATOM     21  H   UNL     1      23.462  -0.510   6.463  1.00  0.00     0.293 HD
ENDBRANCH  17  20
ENDBRANCH   1  12
BRANCH   2  22
ATOM     22  O   UNL     1      27.361  -4.812  10.114  1.00  0.00    -0.502 OA
ATOM     23  H   UNL     1      26.632  -5.507  10.010  1.00  0.00     0.293 HD
ENDBRANCH   2  22
BRANCH   6  24
ATOM     24  O   UNL     1      30.056  -3.515  14.368  1.00  0.00    -0.507 OA
ATOM     25  H   UNL     1      30.775  -3.624  13.662  1.00  0.00     0.293 HD
ENDBRANCH   6  24
BRANCH   8  26
ATOM     26  O   UNL     1      27.590   0.316  15.957  1.00  0.00    -0.508 OA
ATOM     27  H   UNL     1      27.823   1.280  15.749  1.00  0.00     0.293 HD
ENDBRANCH   8  26
TORSDOF 6
ENDMDL
