MODEL 1
REMARK VINA RESULT:    -4.183      0.000      0.000
REMARK INTER + INTRA:          -6.178
REMARK INTER:                  -6.384
REMARK INTRA:                   0.206
REMARK UNBOUND:                 0.206
REMARK SMILES CC1=CCC[C@@H](C)C(=O)C[C@@H](C(C)C)C(=O)C1
REMARK SMILES IDX 8 1 9 2 6 3 7 4 5 5 4 6 3 7 2 8 1 9 10 11 11 12 15 13 16 14
REMARK SMILES IDX 17 15 12 17 13 18 14 19
REMARK H PARENT
REMARK Flexibility Score: 70.00
ROOT
ATOM      1  C   UNL     1      12.536 -12.141 -43.685  1.00  0.00     0.136 C 
ATOM      2  O   UNL     1      13.601 -11.657 -43.329  1.00  0.00    -0.299 OA
ENDROOT
BRANCH   1   3
ATOM      3  C   UNL     1      12.063 -13.420 -43.014  1.00  0.00     0.053 C 
ATOM      4  C   UNL     1      12.821 -14.637 -43.559  1.00  0.00     0.016 C 
BRANCH   3   5
ATOM      5  C   UNL     1      10.534 -13.580 -43.201  1.00  0.00     0.015 C 
BRANCH   5   6
ATOM      6  C   UNL     1      10.167 -14.384 -44.469  1.00  0.00     0.028 C 
BRANCH   6   7
ATOM      7  C   UNL     1       8.747 -14.118 -44.914  1.00  0.00    -0.028 C 
ATOM      8  C   UNL     1       8.351 -13.070 -45.674  1.00  0.00    -0.070 CG0
ATOM      9  C   UNL     1       6.895 -12.974 -46.049  1.00  0.00     0.039 C 
ATOM     10  G   UNL     1       9.303 -11.995 -46.173  1.00  0.00     0.000 G0
ENDBRANCH   6   7
ENDBRANCH   5   6
ENDBRANCH   3   5
ENDBRANCH   1   3
BRANCH   1  11
ATOM     11  C   UNL     1      11.781 -11.432 -44.799  1.00  0.00     0.087 C 
BRANCH  11  12
ATOM     12  C   UNL     1      10.572 -10.546 -44.381  1.00  0.00     0.066 C 
BRANCH  12  13
ATOM     13  C   UNL     1       9.374 -10.763 -45.293  1.00  0.00     0.140 C 
ATOM     14  O   UNL     1       8.428  -9.989 -45.247  1.00  0.00    -0.299 OA
BRANCH  13  15
ATOM     15  C   UNL     1       9.305 -11.977 -46.191  1.00  0.00     0.106 CG0
ATOM     16  G   UNL     1       8.364 -13.046 -45.661  1.00  0.00     0.000 G0
ENDBRANCH  13  15
ENDBRANCH  12  13
BRANCH  12  17
ATOM     17  C   UNL     1      10.918  -9.025 -44.289  1.00  0.00    -0.006 C 
ATOM     18  C   UNL     1      10.660  -8.464 -42.880  1.00  0.00     0.008 C 
ATOM     19  C   UNL     1      12.348  -8.672 -44.736  1.00  0.00     0.008 C 
ENDBRANCH  12  17
ENDBRANCH  11  12
ENDBRANCH   1  11
TORSDOF 1
ENDMDL
MODEL 2
REMARK VINA RESULT:    -4.149      1.923      4.032
REMARK INTER + INTRA:          -6.125
REMARK INTER:                  -5.793
REMARK INTRA:                  -0.333
REMARK UNBOUND:                 0.206
REMARK SMILES CC1=CCC[C@@H](C)C(=O)C[C@@H](C(C)C)C(=O)C1
REMARK SMILES IDX 8 1 9 2 6 3 7 4 5 5 4 6 3 7 2 8 1 9 10 11 11 12 15 13 16 14
REMARK SMILES IDX 17 15 12 17 13 18 14 19
REMARK H PARENT
REMARK Flexibility Score: 70.00
ROOT
ATOM      1  C   UNL     1      11.547 -10.951 -43.352  1.00  0.00     0.136 C 
ATOM      2  O   UNL     1      10.843 -10.779 -42.369  1.00  0.00    -0.299 OA
ENDROOT
BRANCH   1   3
ATOM      3  C   UNL     1      11.217 -10.185 -44.622  1.00  0.00     0.053 C 
ATOM      4  C   UNL     1      11.485  -8.685 -44.442  1.00  0.00     0.016 C 
BRANCH   3   5
ATOM      5  C   UNL     1       9.747 -10.448 -45.031  1.00  0.00     0.015 C 
BRANCH   5   6
ATOM      6  C   UNL     1       9.591 -11.693 -45.933  1.00  0.00     0.028 C 
BRANCH   6   7
ATOM      7  C   UNL     1       8.978 -12.857 -45.188  1.00  0.00    -0.028 C 
ATOM      8  C   UNL     1       9.589 -14.041 -44.952  1.00  0.00    -0.070 CG0
ATOM      9  C   UNL     1       8.837 -15.084 -44.167  1.00  0.00     0.039 C 
ATOM     10  G   UNL     1      10.996 -14.363 -45.429  1.00  0.00     0.000 G0
ENDBRANCH   6   7
ENDBRANCH   5   6
ENDBRANCH   3   5
ENDBRANCH   1   3
BRANCH   1  11
ATOM     11  C   UNL     1      12.689 -11.949 -43.232  1.00  0.00     0.087 C 
BRANCH  11  12
ATOM     12  C   UNL     1      12.933 -12.894 -44.443  1.00  0.00     0.066 C 
BRANCH  12  13
ATOM     13  C   UNL     1      12.053 -14.133 -44.376  1.00  0.00     0.140 C 
ATOM     14  O   UNL     1      12.249 -14.972 -43.508  1.00  0.00    -0.299 OA
BRANCH  13  15
ATOM     15  C   UNL     1      10.994 -14.378 -45.428  1.00  0.00     0.106 CG0
ATOM     16  G   UNL     1       9.595 -14.034 -44.944  1.00  0.00     0.000 G0
ENDBRANCH  13  15
ENDBRANCH  12  13
BRANCH  12  17
ATOM     17  C   UNL     1      14.431 -13.300 -44.624  1.00  0.00    -0.006 C 
ATOM     18  C   UNL     1      14.747 -13.688 -46.078  1.00  0.00     0.008 C 
ATOM     19  C   UNL     1      15.437 -12.243 -44.137  1.00  0.00     0.008 C 
ENDBRANCH  12  17
ENDBRANCH  11  12
ENDBRANCH   1  11
TORSDOF 1
ENDMDL
MODEL 3
REMARK VINA RESULT:    -3.941      2.101      4.758
REMARK INTER + INTRA:          -5.808
REMARK INTER:                  -5.678
REMARK INTRA:                  -0.130
REMARK UNBOUND:                 0.206
REMARK SMILES CC1=CCC[C@@H](C)C(=O)C[C@@H](C(C)C)C(=O)C1
REMARK SMILES IDX 8 1 9 2 6 3 7 4 5 5 4 6 3 7 2 8 1 9 10 11 11 12 15 13 16 14
REMARK SMILES IDX 17 15 12 17 13 18 14 19
REMARK H PARENT
REMARK Flexibility Score: 70.00
ROOT
ATOM      1  C   UNL     1       9.875  -9.926 -44.600  1.00  0.00     0.136 C 
ATOM      2  O   UNL     1       8.953  -9.125 -44.618  1.00  0.00    -0.299 OA
ENDROOT
BRANCH   1   3
ATOM      3  C   UNL     1      10.855  -9.875 -43.439  1.00  0.00     0.053 C 
ATOM      4  C   UNL     1      10.867  -8.483 -42.793  1.00  0.00     0.016 C 
BRANCH   3   5
ATOM      5  C   UNL     1      12.268 -10.283 -43.921  1.00  0.00     0.015 C 
BRANCH   5   6
ATOM      6  C   UNL     1      12.733 -11.636 -43.336  1.00  0.00     0.028 C 
BRANCH   6   7
ATOM      7  C   UNL     1      13.622 -12.391 -44.297  1.00  0.00    -0.028 C 
ATOM      8  C   UNL     1      13.229 -13.432 -45.070  1.00  0.00    -0.070 CG0
ATOM      9  C   UNL     1      14.244 -14.053 -45.994  1.00  0.00     0.039 C 
ATOM     10  G   UNL     1      11.817 -13.993 -45.057  1.00  0.00     0.000 G0
ENDBRANCH   6   7
ENDBRANCH   5   6
ENDBRANCH   3   5
ENDBRANCH   1   3
BRANCH   1  11
ATOM     11  C   UNL     1       9.984 -10.898 -45.764  1.00  0.00     0.087 C 
BRANCH  11  12
ATOM     12  C   UNL     1       9.770 -12.407 -45.449  1.00  0.00     0.066 C 
BRANCH  12  13
ATOM     13  C   UNL     1      10.891 -13.265 -46.016  1.00  0.00     0.140 C 
ATOM     14  O   UNL     1      10.995 -13.405 -47.227  1.00  0.00    -0.299 OA
BRANCH  13  15
ATOM     15  C   UNL     1      11.823 -14.017 -45.092  1.00  0.00     0.106 CG0
ATOM     16  G   UNL     1      13.222 -13.424 -45.061  1.00  0.00     0.000 G0
ENDBRANCH  13  15
ENDBRANCH  12  13
BRANCH  12  17
ATOM     17  C   UNL     1       8.381 -12.949 -45.914  1.00  0.00    -0.006 C 
ATOM     18  C   UNL     1       7.903 -14.122 -45.041  1.00  0.00     0.008 C 
ATOM     19  C   UNL     1       7.278 -11.879 -45.996  1.00  0.00     0.008 C 
ENDBRANCH  12  17
ENDBRANCH  11  12
ENDBRANCH   1  11
TORSDOF 1
ENDMDL
MODEL 4
REMARK VINA RESULT:    -3.453     10.036     11.879
REMARK INTER + INTRA:          -5.064
REMARK INTER:                  -4.888
REMARK INTRA:                  -0.176
REMARK UNBOUND:                 0.206
REMARK SMILES CC1=CCC[C@@H](C)C(=O)C[C@@H](C(C)C)C(=O)C1
REMARK SMILES IDX 8 1 9 2 6 3 7 4 5 5 4 6 3 7 2 8 1 9 10 11 11 12 15 13 16 14
REMARK SMILES IDX 17 15 12 17 13 18 14 19
REMARK H PARENT
REMARK Flexibility Score: 70.00
ROOT
ATOM      1  C   UNL     1       7.571 -21.997 -36.643  1.00  0.00     0.136 C 
ATOM      2  O   UNL     1       6.753 -22.396 -37.458  1.00  0.00    -0.299 OA
ENDROOT
BRANCH   1   3
ATOM      3  C   UNL     1       8.544 -22.998 -36.043  1.00  0.00     0.053 C 
ATOM      4  C   UNL     1       9.186 -22.442 -34.765  1.00  0.00     0.016 C 
BRANCH   3   5
ATOM      5  C   UNL     1       9.618 -23.385 -37.089  1.00  0.00     0.015 C 
BRANCH   5   6
ATOM      6  C   UNL     1      10.783 -22.372 -37.153  1.00  0.00     0.028 C 
BRANCH   6   7
ATOM      7  C   UNL     1      10.810 -21.623 -38.466  1.00  0.00    -0.028 C 
ATOM      8  C   UNL     1      10.461 -20.325 -38.631  1.00  0.00    -0.070 CG0
ATOM      9  C   UNL     1      10.574 -19.730 -40.010  1.00  0.00     0.039 C 
ATOM     10  G   UNL     1       9.974 -19.442 -37.494  1.00  0.00     0.000 G0
ENDBRANCH   6   7
ENDBRANCH   5   6
ENDBRANCH   3   5
ENDBRANCH   1   3
BRANCH   1  11
ATOM     11  C   UNL     1       7.529 -20.522 -36.271  1.00  0.00     0.087 C 
BRANCH  11  12
ATOM     12  C   UNL     1       7.336 -19.505 -37.434  1.00  0.00     0.066 C 
BRANCH  12  13
ATOM     13  C   UNL     1       8.631 -18.781 -37.768  1.00  0.00     0.140 C 
ATOM     14  O   UNL     1       8.592 -17.695 -38.329  1.00  0.00    -0.299 OA
BRANCH  13  15
ATOM     15  C   UNL     1       9.967 -19.434 -37.493  1.00  0.00     0.106 CG0
ATOM     16  G   UNL     1      10.446 -20.299 -38.647  1.00  0.00     0.000 G0
ENDBRANCH  13  15
ENDBRANCH  12  13
BRANCH  12  17
ATOM     17  C   UNL     1       6.188 -18.478 -37.176  1.00  0.00    -0.006 C 
ATOM     18  C   UNL     1       4.818 -19.031 -37.604  1.00  0.00     0.008 C 
ATOM     19  C   UNL     1       6.112 -17.962 -35.729  1.00  0.00     0.008 C 
ENDBRANCH  12  17
ENDBRANCH  11  12
ENDBRANCH   1  11
TORSDOF 1
ENDMDL
MODEL 5
REMARK VINA RESULT:    -3.378     11.102     13.247
REMARK INTER + INTRA:          -4.948
REMARK INTER:                  -4.809
REMARK INTRA:                  -0.140
REMARK UNBOUND:                 0.206
REMARK SMILES CC1=CCC[C@@H](C)C(=O)C[C@@H](C(C)C)C(=O)C1
REMARK SMILES IDX 8 1 9 2 6 3 7 4 5 5 4 6 3 7 2 8 1 9 10 11 11 12 15 13 16 14
REMARK SMILES IDX 17 15 12 17 13 18 14 19
REMARK H PARENT
REMARK Flexibility Score: 70.00
ROOT
ATOM      1  C   UNL     1      10.517 -20.880 -36.479  1.00  0.00     0.136 C 
ATOM      2  O   UNL     1      10.738 -19.729 -36.133  1.00  0.00    -0.299 OA
ENDROOT
BRANCH   1   3
ATOM      3  C   UNL     1       9.148 -21.472 -36.188  1.00  0.00     0.053 C 
ATOM      4  C   UNL     1       8.092 -20.368 -36.044  1.00  0.00     0.016 C 
BRANCH   3   5
ATOM      5  C   UNL     1       9.213 -22.357 -34.919  1.00  0.00     0.015 C 
BRANCH   5   6
ATOM      6  C   UNL     1       9.604 -23.820 -35.229  1.00  0.00     0.028 C 
BRANCH   6   7
ATOM      7  C   UNL     1       8.984 -24.309 -36.518  1.00  0.00    -0.028 C 
ATOM      8  C   UNL     1       9.671 -24.648 -37.635  1.00  0.00    -0.070 CG0
ATOM      9  C   UNL     1       8.892 -25.143 -38.825  1.00  0.00     0.039 C 
ATOM     10  G   UNL     1      11.185 -24.563 -37.740  1.00  0.00     0.000 G0
ENDBRANCH   6   7
ENDBRANCH   5   6
ENDBRANCH   3   5
ENDBRANCH   1   3
BRANCH   1  11
ATOM     11  C   UNL     1      11.649 -21.641 -37.152  1.00  0.00     0.087 C 
BRANCH  11  12
ATOM     12  C   UNL     1      11.423 -22.089 -38.626  1.00  0.00     0.066 C 
BRANCH  12  13
ATOM     13  C   UNL     1      11.660 -23.580 -38.803  1.00  0.00     0.140 C 
ATOM     14  O   UNL     1      12.163 -23.997 -39.838  1.00  0.00    -0.299 OA
BRANCH  13  15
ATOM     15  C   UNL     1      11.198 -24.560 -37.748  1.00  0.00     0.106 CG0
ATOM     16  G   UNL     1       9.684 -24.639 -37.643  1.00  0.00     0.000 G0
ENDBRANCH  13  15
ENDBRANCH  12  13
BRANCH  12  17
ATOM     17  C   UNL     1      12.267 -21.276 -39.659  1.00  0.00    -0.006 C 
ATOM     18  C   UNL     1      11.500 -20.052 -40.188  1.00  0.00     0.008 C 
ATOM     19  C   UNL     1      13.650 -20.841 -39.145  1.00  0.00     0.008 C 
ENDBRANCH  12  17
ENDBRANCH  11  12
ENDBRANCH   1  11
TORSDOF 1
ENDMDL
MODEL 6
REMARK VINA RESULT:    -3.292      9.875     12.179
REMARK INTER + INTRA:          -4.817
REMARK INTER:                  -4.516
REMARK INTRA:                  -0.300
REMARK UNBOUND:                 0.206
REMARK SMILES CC1=CCC[C@@H](C)C(=O)C[C@@H](C(C)C)C(=O)C1
REMARK SMILES IDX 8 1 9 2 6 3 7 4 5 5 4 6 3 7 2 8 1 9 10 11 11 12 15 13 16 14
REMARK SMILES IDX 17 15 12 17 13 18 14 19
REMARK H PARENT
REMARK Flexibility Score: 70.00
ROOT
ATOM      1  C   UNL     1       9.905 -21.021 -36.228  1.00  0.00     0.136 C 
ATOM      2  O   UNL     1       9.562 -20.875 -35.064  1.00  0.00    -0.299 OA
ENDROOT
BRANCH   1   3
ATOM      3  C   UNL     1       9.187 -22.064 -37.067  1.00  0.00     0.053 C 
ATOM      4  C   UNL     1       7.733 -22.234 -36.606  1.00  0.00     0.016 C 
BRANCH   3   5
ATOM      5  C   UNL     1       9.954 -23.408 -37.012  1.00  0.00     0.015 C 
BRANCH   5   6
ATOM      6  C   UNL     1      10.674 -23.741 -38.339  1.00  0.00     0.028 C 
BRANCH   6   7
ATOM      7  C   UNL     1      12.163 -23.911 -38.146  1.00  0.00    -0.028 C 
ATOM      8  C   UNL     1      13.113 -23.086 -38.646  1.00  0.00    -0.070 CG0
ATOM      9  C   UNL     1      14.555 -23.392 -38.332  1.00  0.00     0.039 C 
ATOM     10  G   UNL     1      12.796 -21.867 -39.496  1.00  0.00     0.000 G0
ENDBRANCH   6   7
ENDBRANCH   5   6
ENDBRANCH   3   5
ENDBRANCH   1   3
BRANCH   1  11
ATOM     11  C   UNL     1      11.051 -20.161 -36.736  1.00  0.00     0.087 C 
BRANCH  11  12
ATOM     12  C   UNL     1      11.262 -20.100 -38.277  1.00  0.00     0.066 C 
BRANCH  12  13
ATOM     13  C   UNL     1      12.645 -20.590 -38.675  1.00  0.00     0.140 C 
ATOM     14  O   UNL     1      13.630 -19.921 -38.397  1.00  0.00    -0.299 OA
BRANCH  13  15
ATOM     15  C   UNL     1      12.804 -21.854 -39.491  1.00  0.00     0.106 CG0
ATOM     16  G   UNL     1      13.115 -23.070 -38.633  1.00  0.00     0.000 G0
ENDBRANCH  13  15
ENDBRANCH  12  13
BRANCH  12  17
ATOM     17  C   UNL     1      10.987 -18.688 -38.886  1.00  0.00    -0.006 C 
ATOM     18  C   UNL     1      11.188 -18.675 -40.411  1.00  0.00     0.008 C 
ATOM     19  C   UNL     1       9.607 -18.104 -38.538  1.00  0.00     0.008 C 
ENDBRANCH  12  17
ENDBRANCH  11  12
ENDBRANCH   1  11
TORSDOF 1
ENDMDL
MODEL 7
REMARK VINA RESULT:    -3.270     11.322     13.383
REMARK INTER + INTRA:          -4.783
REMARK INTER:                  -4.460
REMARK INTRA:                  -0.324
REMARK UNBOUND:                 0.206
REMARK SMILES CC1=CCC[C@@H](C)C(=O)C[C@@H](C(C)C)C(=O)C1
REMARK SMILES IDX 8 1 9 2 6 3 7 4 5 5 4 6 3 7 2 8 1 9 10 11 11 12 15 13 16 14
REMARK SMILES IDX 17 15 12 17 13 18 14 19
REMARK H PARENT
REMARK Flexibility Score: 70.00
ROOT
ATOM      1  C   UNL     1      11.061 -21.042 -38.758  1.00  0.00     0.136 C 
ATOM      2  O   UNL     1      11.246 -20.651 -39.901  1.00  0.00    -0.299 OA
ENDROOT
BRANCH   1   3
ATOM      3  C   UNL     1      12.233 -21.029 -37.791  1.00  0.00     0.053 C 
ATOM      4  C   UNL     1      12.598 -19.594 -37.390  1.00  0.00     0.016 C 
BRANCH   3   5
ATOM      5  C   UNL     1      13.444 -21.763 -38.417  1.00  0.00     0.015 C 
BRANCH   5   6
ATOM      6  C   UNL     1      13.510 -23.256 -38.022  1.00  0.00     0.028 C 
BRANCH   6   7
ATOM      7  C   UNL     1      12.776 -24.134 -39.009  1.00  0.00    -0.028 C 
ATOM      8  C   UNL     1      11.611 -24.778 -38.765  1.00  0.00    -0.070 CG0
ATOM      9  C   UNL     1      11.003 -25.593 -39.877  1.00  0.00     0.039 C 
ATOM     10  G   UNL     1      10.884 -24.710 -37.432  1.00  0.00     0.000 G0
ENDBRANCH   6   7
ENDBRANCH   5   6
ENDBRANCH   3   5
ENDBRANCH   1   3
BRANCH   1  11
ATOM     11  C   UNL     1       9.669 -21.541 -38.403  1.00  0.00     0.087 C 
BRANCH  11  12
ATOM     12  C   UNL     1       9.543 -22.456 -37.150  1.00  0.00     0.066 C 
BRANCH  12  13
ATOM     13  C   UNL     1       9.580 -23.929 -37.524  1.00  0.00     0.140 C 
ATOM     14  O   UNL     1       8.545 -24.503 -37.836  1.00  0.00    -0.299 OA
BRANCH  13  15
ATOM     15  C   UNL     1      10.870 -24.712 -37.427  1.00  0.00     0.106 CG0
ATOM     16  G   UNL     1      11.611 -24.788 -38.752  1.00  0.00     0.000 G0
ENDBRANCH  13  15
ENDBRANCH  12  13
BRANCH  12  17
ATOM     17  C   UNL     1       8.285 -22.146 -36.278  1.00  0.00    -0.006 C 
ATOM     18  C   UNL     1       8.579 -22.296 -34.776  1.00  0.00     0.008 C 
ATOM     19  C   UNL     1       7.648 -20.771 -36.549  1.00  0.00     0.008 C 
ENDBRANCH  12  17
ENDBRANCH  11  12
ENDBRANCH   1  11
TORSDOF 1
ENDMDL
MODEL 8
REMARK VINA RESULT:    -3.227     11.117     13.028
REMARK INTER + INTRA:          -4.718
REMARK INTER:                  -4.687
REMARK INTRA:                  -0.031
REMARK UNBOUND:                 0.206
REMARK SMILES CC1=CCC[C@@H](C)C(=O)C[C@@H](C(C)C)C(=O)C1
REMARK SMILES IDX 8 1 9 2 6 3 7 4 5 5 4 6 3 7 2 8 1 9 10 11 11 12 15 13 16 14
REMARK SMILES IDX 17 15 12 17 13 18 14 19
REMARK H PARENT
REMARK Flexibility Score: 70.00
ROOT
ATOM      1  C   UNL     1       9.184 -23.663 -36.477  1.00  0.00     0.136 C 
ATOM      2  O   UNL     1       9.464 -24.166 -35.399  1.00  0.00    -0.299 OA
ENDROOT
BRANCH   1   3
ATOM      3  C   UNL     1       9.627 -24.375 -37.744  1.00  0.00     0.053 C 
ATOM      4  C   UNL     1       8.870 -25.697 -37.923  1.00  0.00     0.016 C 
BRANCH   3   5
ATOM      5  C   UNL     1      11.158 -24.604 -37.714  1.00  0.00     0.015 C 
BRANCH   5   6
ATOM      6  C   UNL     1      11.914 -23.728 -38.739  1.00  0.00     0.028 C 
BRANCH   6   7
ATOM      7  C   UNL     1      12.847 -22.749 -38.064  1.00  0.00    -0.028 C 
ATOM      8  C   UNL     1      12.592 -21.432 -37.874  1.00  0.00    -0.070 CG0
ATOM      9  C   UNL     1      13.627 -20.605 -37.156  1.00  0.00     0.039 C 
ATOM     10  G   UNL     1      11.313 -20.756 -38.338  1.00  0.00     0.000 G0
ENDBRANCH   6   7
ENDBRANCH   5   6
ENDBRANCH   3   5
ENDBRANCH   1   3
BRANCH   1  11
ATOM     11  C   UNL     1       8.435 -22.340 -36.461  1.00  0.00     0.087 C 
BRANCH  11  12
ATOM     12  C   UNL     1       8.853 -21.277 -37.517  1.00  0.00     0.066 C 
BRANCH  12  13
ATOM     13  C   UNL     1      10.246 -20.731 -37.244  1.00  0.00     0.140 C 
ATOM     14  O   UNL     1      10.494 -20.208 -36.166  1.00  0.00    -0.299 OA
BRANCH  13  15
ATOM     15  C   UNL     1      11.302 -20.748 -38.327  1.00  0.00     0.106 CG0
ATOM     16  G   UNL     1      12.588 -21.424 -37.881  1.00  0.00     0.000 G0
ENDBRANCH  13  15
ENDBRANCH  12  13
BRANCH  12  17
ATOM     17  C   UNL     1       7.829 -20.107 -37.663  1.00  0.00    -0.006 C 
ATOM     18  C   UNL     1       6.863 -20.334 -38.838  1.00  0.00     0.008 C 
ATOM     19  C   UNL     1       7.029 -19.802 -36.384  1.00  0.00     0.008 C 
ENDBRANCH  12  17
ENDBRANCH  11  12
ENDBRANCH   1  11
TORSDOF 1
ENDMDL
MODEL 9
REMARK VINA RESULT:    -3.219      9.236     11.122
REMARK INTER + INTRA:          -4.706
REMARK INTER:                  -4.390
REMARK INTRA:                  -0.316
REMARK UNBOUND:                 0.206
REMARK SMILES CC1=CCC[C@@H](C)C(=O)C[C@@H](C(C)C)C(=O)C1
REMARK SMILES IDX 8 1 9 2 6 3 7 4 5 5 4 6 3 7 2 8 1 9 10 11 11 12 15 13 16 14
REMARK SMILES IDX 17 15 12 17 13 18 14 19
REMARK H PARENT
REMARK Flexibility Score: 70.00
ROOT
ATOM      1  C   UNL     1       9.397 -22.224 -37.261  1.00  0.00     0.136 C 
ATOM      2  O   UNL     1       9.616 -23.426 -37.308  1.00  0.00    -0.299 OA
ENDROOT
BRANCH   1   3
ATOM      3  C   UNL     1       8.697 -21.664 -36.034  1.00  0.00     0.053 C 
ATOM      4  C   UNL     1       8.705 -22.681 -34.886  1.00  0.00     0.016 C 
BRANCH   3   5
ATOM      5  C   UNL     1       7.253 -21.237 -36.397  1.00  0.00     0.015 C 
BRANCH   5   6
ATOM      6  C   UNL     1       7.059 -19.704 -36.374  1.00  0.00     0.028 C 
BRANCH   6   7
ATOM      7  C   UNL     1       6.615 -19.171 -37.717  1.00  0.00    -0.028 C 
ATOM      8  C   UNL     1       7.379 -18.427 -38.552  1.00  0.00    -0.070 CG0
ATOM      9  C   UNL     1       6.783 -18.001 -39.869  1.00  0.00     0.039 C 
ATOM     10  G   UNL     1       8.805 -18.013 -38.230  1.00  0.00     0.000 G0
ENDBRANCH   6   7
ENDBRANCH   5   6
ENDBRANCH   3   5
ENDBRANCH   1   3
BRANCH   1  11
ATOM     11  C   UNL     1       9.820 -21.386 -38.457  1.00  0.00     0.087 C 
BRANCH  11  12
ATOM     12  C   UNL     1      10.510 -20.023 -38.158  1.00  0.00     0.066 C 
BRANCH  12  13
ATOM     13  C   UNL     1       9.848 -18.881 -38.913  1.00  0.00     0.140 C 
ATOM     14  O   UNL     1      10.201 -18.621 -40.055  1.00  0.00    -0.299 OA
BRANCH  13  15
ATOM     15  C   UNL     1       8.819 -18.007 -38.231  1.00  0.00     0.106 CG0
ATOM     16  G   UNL     1       7.393 -18.433 -38.536  1.00  0.00     0.000 G0
ENDBRANCH  13  15
ENDBRANCH  12  13
BRANCH  12  17
ATOM     17  C   UNL     1      12.049 -20.033 -38.425  1.00  0.00    -0.006 C 
ATOM     18  C   UNL     1      12.854 -19.774 -37.141  1.00  0.00     0.008 C 
ATOM     19  C   UNL     1      12.565 -21.309 -39.115  1.00  0.00     0.008 C 
ENDBRANCH  12  17
ENDBRANCH  11  12
ENDBRANCH   1  11
TORSDOF 1
ENDMDL
