MODEL 1
REMARK VINA RESULT:    -3.728      0.000      0.000
REMARK INTER + INTRA:          -4.719
REMARK INTER:                  -4.600
REMARK INTRA:                  -0.119
REMARK UNBOUND:                -0.119
REMARK SMILES CCCCCC(=O)[O-]
REMARK SMILES IDX 4 1 5 2 6 3 7 4 8 5 3 6 2 7 1 8
REMARK H PARENT
REMARK Flexibility Score: inf
ROOT
ATOM      1  C   UNL     1      11.773 -28.672  23.417  1.00  0.00     0.006 C 
ENDROOT
BRANCH   1   2
ATOM      2  C   UNL     1      13.130 -29.387  23.473  1.00  0.00     0.053 C 
BRANCH   2   3
ATOM      3  C   UNL     1      13.045 -30.779  22.927  1.00  0.00     0.041 C 
ATOM      4  O   UNL     1      12.593 -30.981  21.769  1.00  0.00    -0.550 OA
ATOM      5  O   UNL     1      13.435 -31.858  23.711  1.00  0.00    -0.550 OA
ENDBRANCH   2   3
ENDBRANCH   1   2
BRANCH   1   6
ATOM      6  C   UNL     1      11.881 -27.188  23.799  1.00  0.00     0.000 C 
BRANCH   6   7
ATOM      7  C   UNL     1      13.340 -26.717  23.762  1.00  0.00    -0.003 C 
ATOM      8  C   UNL     1      13.709 -25.966  25.037  1.00  0.00     0.004 C 
ENDBRANCH   6   7
ENDBRANCH   1   6
TORSDOF 4
ENDMDL
MODEL 2
REMARK VINA RESULT:    -3.714      1.503      2.023
REMARK INTER + INTRA:          -4.702
REMARK INTER:                  -4.622
REMARK INTRA:                  -0.081
REMARK UNBOUND:                -0.119
REMARK SMILES CCCCCC(=O)[O-]
REMARK SMILES IDX 4 1 5 2 6 3 7 4 8 5 3 6 2 7 1 8
REMARK H PARENT
REMARK Flexibility Score: inf
ROOT
ATOM      1  C   UNL     1      13.147 -29.736  23.467  1.00  0.00     0.006 C 
ENDROOT
BRANCH   1   2
ATOM      2  C   UNL     1      12.737 -30.906  22.562  1.00  0.00     0.053 C 
BRANCH   2   3
ATOM      3  C   UNL     1      13.427 -30.847  21.234  1.00  0.00     0.041 C 
ATOM      4  O   UNL     1      14.379 -30.043  21.048  1.00  0.00    -0.550 OA
ATOM      5  O   UNL     1      12.998 -31.659  20.191  1.00  0.00    -0.550 OA
ENDBRANCH   2   3
ENDBRANCH   1   2
BRANCH   1   6
ATOM      6  C   UNL     1      12.092 -28.620  23.489  1.00  0.00     0.000 C 
BRANCH   6   7
ATOM      7  C   UNL     1      12.471 -27.526  24.494  1.00  0.00    -0.003 C 
ATOM      8  C   UNL     1      13.103 -26.328  23.792  1.00  0.00     0.004 C 
ENDBRANCH   6   7
ENDBRANCH   1   6
TORSDOF 4
ENDMDL
MODEL 3
REMARK VINA RESULT:    -3.641      9.491     10.225
REMARK INTER + INTRA:          -4.611
REMARK INTER:                  -4.414
REMARK INTRA:                  -0.197
REMARK UNBOUND:                -0.119
REMARK SMILES CCCCCC(=O)[O-]
REMARK SMILES IDX 4 1 5 2 6 3 7 4 8 5 3 6 2 7 1 8
REMARK H PARENT
REMARK Flexibility Score: inf
ROOT
ATOM      1  C   UNL     1      20.355 -25.642  20.092  1.00  0.00     0.006 C 
ENDROOT
BRANCH   1   2
ATOM      2  C   UNL     1      21.736 -25.048  20.402  1.00  0.00     0.053 C 
BRANCH   2   3
ATOM      3  C   UNL     1      22.778 -25.538  19.444  1.00  0.00     0.041 C 
ATOM      4  O   UNL     1      23.145 -26.743  19.467  1.00  0.00    -0.550 OA
ATOM      5  O   UNL     1      23.366 -24.656  18.546  1.00  0.00    -0.550 OA
ENDBRANCH   2   3
ENDBRANCH   1   2
BRANCH   1   6
ATOM      6  C   UNL     1      19.839 -26.538  21.229  1.00  0.00     0.000 C 
BRANCH   6   7
ATOM      7  C   UNL     1      19.513 -27.944  20.713  1.00  0.00    -0.003 C 
ATOM      8  C   UNL     1      20.710 -28.878  20.867  1.00  0.00     0.004 C 
ENDBRANCH   6   7
ENDBRANCH   1   6
TORSDOF 4
ENDMDL
MODEL 4
REMARK VINA RESULT:    -3.618      2.284      3.353
REMARK INTER + INTRA:          -4.583
REMARK INTER:                  -4.401
REMARK INTRA:                  -0.181
REMARK UNBOUND:                -0.119
REMARK SMILES CCCCCC(=O)[O-]
REMARK SMILES IDX 4 1 5 2 6 3 7 4 8 5 3 6 2 7 1 8
REMARK H PARENT
REMARK Flexibility Score: inf
ROOT
ATOM      1  C   UNL     1      14.311 -30.248  21.128  1.00  0.00     0.006 C 
ENDROOT
BRANCH   1   2
ATOM      2  C   UNL     1      13.353 -31.437  20.971  1.00  0.00     0.053 C 
BRANCH   2   3
ATOM      3  C   UNL     1      14.094 -32.730  20.822  1.00  0.00     0.041 C 
ATOM      4  O   UNL     1      14.144 -33.307  19.704  1.00  0.00    -0.550 OA
ATOM      5  O   UNL     1      14.702 -33.314  21.927  1.00  0.00    -0.550 OA
ENDBRANCH   2   3
ENDBRANCH   1   2
BRANCH   1   6
ATOM      6  C   UNL     1      14.434 -29.790  22.590  1.00  0.00     0.000 C 
BRANCH   6   7
ATOM      7  C   UNL     1      13.144 -30.079  23.365  1.00  0.00    -0.003 C 
ATOM      8  C   UNL     1      12.520 -28.792  23.895  1.00  0.00     0.004 C 
ENDBRANCH   6   7
ENDBRANCH   1   6
TORSDOF 4
ENDMDL
MODEL 5
REMARK VINA RESULT:    -3.611      1.928      3.037
REMARK INTER + INTRA:          -4.575
REMARK INTER:                  -4.451
REMARK INTRA:                  -0.124
REMARK UNBOUND:                -0.119
REMARK SMILES CCCCCC(=O)[O-]
REMARK SMILES IDX 4 1 5 2 6 3 7 4 8 5 3 6 2 7 1 8
REMARK H PARENT
REMARK Flexibility Score: inf
ROOT
ATOM      1  C   UNL     1      12.746 -30.697  22.442  1.00  0.00     0.006 C 
ENDROOT
BRANCH   1   2
ATOM      2  C   UNL     1      13.186 -31.031  21.010  1.00  0.00     0.053 C 
BRANCH   2   3
ATOM      3  C   UNL     1      13.868 -32.362  20.936  1.00  0.00     0.041 C 
ATOM      4  O   UNL     1      14.475 -32.821  21.940  1.00  0.00    -0.550 OA
ATOM      5  O   UNL     1      13.861 -33.081  19.748  1.00  0.00    -0.550 OA
ENDBRANCH   2   3
ENDBRANCH   1   2
BRANCH   1   6
ATOM      6  C   UNL     1      13.430 -29.431  22.980  1.00  0.00     0.000 C 
BRANCH   6   7
ATOM      7  C   UNL     1      12.492 -28.654  23.910  1.00  0.00    -0.003 C 
ATOM      8  C   UNL     1      11.205 -28.261  23.192  1.00  0.00     0.004 C 
ENDBRANCH   6   7
ENDBRANCH   1   6
TORSDOF 4
ENDMDL
MODEL 6
REMARK VINA RESULT:    -3.611      9.496     10.184
REMARK INTER + INTRA:          -4.574
REMARK INTER:                  -4.378
REMARK INTRA:                  -0.196
REMARK UNBOUND:                -0.119
REMARK SMILES CCCCCC(=O)[O-]
REMARK SMILES IDX 4 1 5 2 6 3 7 4 8 5 3 6 2 7 1 8
REMARK H PARENT
REMARK Flexibility Score: inf
ROOT
ATOM      1  C   UNL     1      20.376 -25.541  20.075  1.00  0.00     0.006 C 
ENDROOT
BRANCH   1   2
ATOM      2  C   UNL     1      21.762 -24.965  20.397  1.00  0.00     0.053 C 
BRANCH   2   3
ATOM      3  C   UNL     1      22.813 -25.507  19.479  1.00  0.00     0.041 C 
ATOM      4  O   UNL     1      23.243 -24.807  18.523  1.00  0.00    -0.550 OA
ATOM      5  O   UNL     1      23.296 -26.797  19.659  1.00  0.00    -0.550 OA
ENDBRANCH   2   3
ENDBRANCH   1   2
BRANCH   1   6
ATOM      6  C   UNL     1      19.854 -26.458  21.192  1.00  0.00     0.000 C 
BRANCH   6   7
ATOM      7  C   UNL     1      19.575 -27.868  20.658  1.00  0.00    -0.003 C 
ATOM      8  C   UNL     1      20.733 -28.813  20.966  1.00  0.00     0.004 C 
ENDBRANCH   6   7
ENDBRANCH   1   6
TORSDOF 4
ENDMDL
MODEL 7
REMARK VINA RESULT:    -3.526      2.652      4.364
REMARK INTER + INTRA:          -4.470
REMARK INTER:                  -4.368
REMARK INTRA:                  -0.102
REMARK UNBOUND:                -0.119
REMARK SMILES CCCCCC(=O)[O-]
REMARK SMILES IDX 4 1 5 2 6 3 7 4 8 5 3 6 2 7 1 8
REMARK H PARENT
REMARK Flexibility Score: inf
ROOT
ATOM      1  C   UNL     1      13.807 -29.130  22.777  1.00  0.00     0.006 C 
ENDROOT
BRANCH   1   2
ATOM      2  C   UNL     1      12.464 -29.111  23.519  1.00  0.00     0.053 C 
BRANCH   2   3
ATOM      3  C   UNL     1      12.091 -27.728  23.954  1.00  0.00     0.041 C 
ATOM      4  O   UNL     1      11.237 -27.066  23.306  1.00  0.00    -0.550 OA
ATOM      5  O   UNL     1      12.711 -27.156  25.059  1.00  0.00    -0.550 OA
ENDBRANCH   2   3
ENDBRANCH   1   2
BRANCH   1   6
ATOM      6  C   UNL     1      14.582 -30.436  23.010  1.00  0.00     0.000 C 
BRANCH   6   7
ATOM      7  C   UNL     1      13.625 -31.591  23.331  1.00  0.00    -0.003 C 
ATOM      8  C   UNL     1      14.392 -32.840  23.755  1.00  0.00     0.004 C 
ENDBRANCH   6   7
ENDBRANCH   1   6
TORSDOF 4
ENDMDL
MODEL 8
REMARK VINA RESULT:    -3.474      3.611      4.968
REMARK INTER + INTRA:          -4.406
REMARK INTER:                  -4.285
REMARK INTRA:                  -0.121
REMARK UNBOUND:                -0.119
REMARK SMILES CCCCCC(=O)[O-]
REMARK SMILES IDX 4 1 5 2 6 3 7 4 8 5 3 6 2 7 1 8
REMARK H PARENT
REMARK Flexibility Score: inf
ROOT
ATOM      1  C   UNL     1      14.251 -31.993  20.992  1.00  0.00     0.006 C 
ENDROOT
BRANCH   1   2
ATOM      2  C   UNL     1      14.255 -33.232  20.086  1.00  0.00     0.053 C 
BRANCH   2   3
ATOM      3  C   UNL     1      15.119 -34.321  20.641  1.00  0.00     0.041 C 
ATOM      4  O   UNL     1      15.356 -34.377  21.877  1.00  0.00    -0.550 OA
ATOM      5  O   UNL     1      15.692 -35.257  19.788  1.00  0.00    -0.550 OA
ENDBRANCH   2   3
ENDBRANCH   1   2
BRANCH   1   6
ATOM      6  C   UNL     1      12.947 -31.189  20.873  1.00  0.00     0.000 C 
BRANCH   6   7
ATOM      7  C   UNL     1      12.542 -30.597  22.228  1.00  0.00    -0.003 C 
ATOM      8  C   UNL     1      13.413 -31.149  23.352  1.00  0.00     0.004 C 
ENDBRANCH   6   7
ENDBRANCH   1   6
TORSDOF 4
ENDMDL
MODEL 9
REMARK VINA RESULT:    -3.432      8.631      9.223
REMARK INTER + INTRA:          -4.354
REMARK INTER:                  -4.173
REMARK INTRA:                  -0.181
REMARK UNBOUND:                -0.119
REMARK SMILES CCCCCC(=O)[O-]
REMARK SMILES IDX 4 1 5 2 6 3 7 4 8 5 3 6 2 7 1 8
REMARK H PARENT
REMARK Flexibility Score: inf
ROOT
ATOM      1  C   UNL     1      20.421 -25.625  20.069  1.00  0.00     0.006 C 
ENDROOT
BRANCH   1   2
ATOM      2  C   UNL     1      19.875 -26.441  21.249  1.00  0.00     0.053 C 
BRANCH   2   3
ATOM      3  C   UNL     1      19.716 -27.888  20.894  1.00  0.00     0.041 C 
ATOM      4  O   UNL     1      20.712 -28.565  20.526  1.00  0.00    -0.550 OA
ATOM      5  O   UNL     1      18.460 -28.480  20.940  1.00  0.00    -0.550 OA
ENDBRANCH   2   3
ENDBRANCH   1   2
BRANCH   1   6
ATOM      6  C   UNL     1      21.766 -24.960  20.395  1.00  0.00     0.000 C 
BRANCH   6   7
ATOM      7  C   UNL     1      22.796 -25.237  19.294  1.00  0.00    -0.003 C 
ATOM      8  C   UNL     1      23.403 -26.628  19.445  1.00  0.00     0.004 C 
ENDBRANCH   6   7
ENDBRANCH   1   6
TORSDOF 4
ENDMDL
