MODEL 1
REMARK VINA RESULT:    -1.727      0.000      0.000
REMARK INTER + INTRA:          -1.410
REMARK INTER:                  -2.535
REMARK INTRA:                   1.126
REMARK UNBOUND:                 1.126
REMARK SMILES C=C1CC=CC(C)(C)CC=C(C)CCC1
REMARK SMILES IDX 2 1 1 2 15 3 14 4 13 5 11 6 12 7 10 8 3 10 4 11 5 12 6 13
REMARK SMILES IDX 7 14 8 15 9 16
REMARK H PARENT
REMARK Flexibility Score: 60.00
ROOT
ATOM      1  C   UNL     1       3.617   9.944  11.660  1.00  0.00    -0.074 C 
ATOM      2  C   UNL     1       3.472  11.197  11.197  1.00  0.00     0.008 C 
ENDROOT
BRANCH   1   3
ATOM      3  C   UNL     1       3.041   9.550  13.006  1.00  0.00     0.031 C 
BRANCH   3   4
ATOM      4  C   UNL     1       3.998   9.801  14.190  1.00  0.00     0.009 C 
BRANCH   4   5
ATOM      5  C   UNL     1       4.583   8.525  14.824  1.00  0.00     0.030 C 
BRANCH   5   6
ATOM      6  C   UNL     1       6.109   8.434  14.858  1.00  0.00    -0.077 C 
ATOM      7  C   UNL     1       6.943   9.580  15.382  1.00  0.00     0.039 C 
ATOM      8  C   UNL     1       6.770   7.286  14.562  1.00  0.00    -0.027 CG0
ATOM      9  G   UNL     1       6.129   5.973  14.163  1.00  0.00     0.000 G0
ENDBRANCH   5   6
ENDBRANCH   4   5
ENDBRANCH   3   4
ENDBRANCH   1   3
BRANCH   1  10
ATOM     10  C   UNL     1       4.428   8.938  10.875  1.00  0.00     0.057 C 
BRANCH  10  11
ATOM     11  C   UNL     1       4.571   7.659  11.644  1.00  0.00    -0.026 C 
ATOM     12  C   UNL     1       5.782   7.139  11.914  1.00  0.00    -0.024 C 
BRANCH  12  13
ATOM     13  C   UNL     1       5.986   5.794  12.607  1.00  0.00    -0.014 C 
ATOM     14  C   UNL     1       7.194   5.035  12.008  1.00  0.00     0.016 C 
ATOM     15  C   UNL     1       4.726   4.936  12.361  1.00  0.00     0.016 C 
BRANCH  13  16
ATOM     16  C   UNL     1       6.150   5.974  14.144  1.00  0.00     0.038 CG0
ATOM     17  G   UNL     1       6.776   7.290  14.557  1.00  0.00     0.000 G0
ENDBRANCH  13  16
ENDBRANCH  12  13
ENDBRANCH  10  11
ENDBRANCH   1  10
TORSDOF 0
ENDMDL
MODEL 2
REMARK VINA RESULT:    -0.675      1.872      4.644
REMARK INTER + INTRA:           0.135
REMARK INTER:                  -1.640
REMARK INTRA:                   1.775
REMARK UNBOUND:                 1.126
REMARK SMILES C=C1CC=CC(C)(C)CC=C(C)CCC1
REMARK SMILES IDX 2 1 1 2 15 3 14 4 13 5 11 6 12 7 10 8 3 10 4 11 5 12 6 13
REMARK SMILES IDX 7 14 8 15 9 16
REMARK H PARENT
REMARK Flexibility Score: 60.00
ROOT
ATOM      1  C   UNL     1       5.806   6.426  12.381  1.00  0.00    -0.074 C 
ATOM      2  C   UNL     1       5.577   5.122  12.605  1.00  0.00     0.008 C 
ENDROOT
BRANCH   1   3
ATOM      3  C   UNL     1       6.788   7.194  13.247  1.00  0.00     0.031 C 
BRANCH   3   4
ATOM      4  C   UNL     1       6.226   7.581  14.630  1.00  0.00     0.009 C 
BRANCH   4   5
ATOM      5  C   UNL     1       5.605   8.990  14.700  1.00  0.00     0.030 C 
BRANCH   5   6
ATOM      6  C   UNL     1       4.092   9.045  14.908  1.00  0.00    -0.077 C 
ATOM      7  C   UNL     1       3.431   8.250  16.010  1.00  0.00     0.039 C 
ATOM      8  C   UNL     1       3.300   9.907  14.221  1.00  0.00    -0.027 CG0
ATOM      9  G   UNL     1       3.769  10.903  13.181  1.00  0.00     0.000 G0
ENDBRANCH   5   6
ENDBRANCH   4   5
ENDBRANCH   3   4
ENDBRANCH   1   3
BRANCH   1  10
ATOM     10  C   UNL     1       5.025   7.158  11.314  1.00  0.00     0.057 C 
BRANCH  10  11
ATOM     11  C   UNL     1       4.276   8.314  11.907  1.00  0.00    -0.026 C 
ATOM     12  C   UNL     1       3.962   9.394  11.170  1.00  0.00    -0.024 C 
BRANCH  12  13
ATOM     13  C   UNL     1       3.288  10.639  11.741  1.00  0.00    -0.014 C 
ATOM     14  C   UNL     1       1.747  10.522  11.669  1.00  0.00     0.016 C 
ATOM     15  C   UNL     1       3.707  11.847  10.876  1.00  0.00     0.016 C 
BRANCH  13  16
ATOM     16  C   UNL     1       3.756  10.910  13.201  1.00  0.00     0.038 CG0
ATOM     17  G   UNL     1       3.268   9.896  14.214  1.00  0.00     0.000 G0
ENDBRANCH  13  16
ENDBRANCH  12  13
ENDBRANCH  10  11
ENDBRANCH   1  10
TORSDOF 0
ENDMDL
MODEL 3
REMARK VINA RESULT:     0.808      1.683      2.683
REMARK INTER + INTRA:           2.312
REMARK INTER:                  -0.900
REMARK INTRA:                   3.211
REMARK UNBOUND:                 1.126
REMARK SMILES C=C1CC=CC(C)(C)CC=C(C)CCC1
REMARK SMILES IDX 2 1 1 2 15 3 14 4 13 5 11 6 12 7 10 8 3 10 4 11 5 12 6 13
REMARK SMILES IDX 7 14 8 15 9 16
REMARK H PARENT
REMARK Flexibility Score: 60.00
ROOT
ATOM      1  C   UNL     1       2.892  11.085  11.115  1.00  0.00    -0.074 C 
ATOM      2  C   UNL     1       3.160  12.369  11.402  1.00  0.00     0.008 C 
ENDROOT
BRANCH   1   3
ATOM      3  C   UNL     1       1.462  10.580  11.108  1.00  0.00     0.031 C 
BRANCH   3   4
ATOM      4  C   UNL     1       0.890  10.313  12.515  1.00  0.00     0.009 C 
BRANCH   4   5
ATOM      5  C   UNL     1       1.591   9.179  13.288  1.00  0.00     0.030 C 
BRANCH   5   6
ATOM      6  C   UNL     1       2.715   9.607  14.231  1.00  0.00    -0.077 C 
ATOM      7  C   UNL     1       2.680  10.953  14.919  1.00  0.00     0.039 C 
ATOM      8  C   UNL     1       3.706   8.759  14.605  1.00  0.00    -0.027 CG0
ATOM      9  G   UNL     1       3.852   7.318  14.161  1.00  0.00     0.000 G0
ENDBRANCH   5   6
ENDBRANCH   4   5
ENDBRANCH   3   4
ENDBRANCH   1   3
BRANCH   1  10
ATOM     10  C   UNL     1       4.025  10.113  10.875  1.00  0.00     0.057 C 
BRANCH  10  11
ATOM     11  C   UNL     1       4.206   9.210  12.058  1.00  0.00    -0.026 C 
ATOM     12  C   UNL     1       4.841   8.030  11.945  1.00  0.00    -0.024 C 
BRANCH  12  13
ATOM     13  C   UNL     1       4.970   7.028  13.090  1.00  0.00    -0.014 C 
ATOM     14  C   UNL     1       6.392   7.056  13.698  1.00  0.00     0.016 C 
ATOM     15  C   UNL     1       4.735   5.615  12.514  1.00  0.00     0.016 C 
BRANCH  13  16
ATOM     16  C   UNL     1       3.893   7.285  14.184  1.00  0.00     0.038 CG0
ATOM     17  G   UNL     1       3.727   8.740  14.570  1.00  0.00     0.000 G0
ENDBRANCH  13  16
ENDBRANCH  12  13
ENDBRANCH  10  11
ENDBRANCH   1  10
TORSDOF 0
ENDMDL
MODEL 4
REMARK VINA RESULT:     0.938      1.059      3.396
REMARK INTER + INTRA:           2.502
REMARK INTER:                   0.887
REMARK INTRA:                   1.615
REMARK UNBOUND:                 1.126
REMARK SMILES C=C1CC=CC(C)(C)CC=C(C)CCC1
REMARK SMILES IDX 2 1 1 2 15 3 14 4 13 5 11 6 12 7 10 8 3 10 4 11 5 12 6 13
REMARK SMILES IDX 7 14 8 15 9 16
REMARK H PARENT
REMARK Flexibility Score: 60.00
ROOT
ATOM      1  C   UNL     1       3.315  10.820  11.489  1.00  0.00    -0.074 C 
ATOM      2  C   UNL     1       3.760  11.944  10.904  1.00  0.00     0.008 C 
ENDROOT
BRANCH   1   3
ATOM      3  C   UNL     1       3.610   9.464  10.876  1.00  0.00     0.031 C 
BRANCH   3   4
ATOM      4  C   UNL     1       4.982   8.886  11.279  1.00  0.00     0.009 C 
BRANCH   4   5
ATOM      5  C   UNL     1       5.046   7.346  11.311  1.00  0.00     0.030 C 
BRANCH   5   6
ATOM      6  C   UNL     1       6.030   6.738  12.310  1.00  0.00    -0.077 C 
ATOM      7  C   UNL     1       7.418   6.325  11.879  1.00  0.00     0.039 C 
ATOM      8  C   UNL     1       5.762   6.676  13.639  1.00  0.00    -0.027 CG0
ATOM      9  G   UNL     1       4.499   7.173  14.312  1.00  0.00     0.000 G0
ENDBRANCH   5   6
ENDBRANCH   4   5
ENDBRANCH   3   4
ENDBRANCH   1   3
BRANCH   1  10
ATOM     10  C   UNL     1       2.444  10.904  12.722  1.00  0.00     0.057 C 
BRANCH  10  11
ATOM     11  C   UNL     1       2.848   9.866  13.726  1.00  0.00    -0.026 C 
ATOM     12  C   UNL     1       4.140   9.664  14.040  1.00  0.00    -0.024 C 
BRANCH  12  13
ATOM     13  C   UNL     1       4.617   8.560  14.979  1.00  0.00    -0.014 C 
ATOM     14  C   UNL     1       3.838   8.588  16.316  1.00  0.00     0.016 C 
ATOM     15  C   UNL     1       6.105   8.817  15.300  1.00  0.00     0.016 C 
BRANCH  13  16
ATOM     16  C   UNL     1       4.507   7.162  14.303  1.00  0.00     0.038 CG0
ATOM     17  G   UNL     1       5.778   6.694  13.624  1.00  0.00     0.000 G0
ENDBRANCH  13  16
ENDBRANCH  12  13
ENDBRANCH  10  11
ENDBRANCH   1  10
TORSDOF 0
ENDMDL
MODEL 5
REMARK VINA RESULT:     1.200      1.218      3.368
REMARK INTER + INTRA:           2.886
REMARK INTER:                  -0.448
REMARK INTRA:                   3.335
REMARK UNBOUND:                 1.126
REMARK SMILES C=C1CC=CC(C)(C)CC=C(C)CCC1
REMARK SMILES IDX 2 1 1 2 15 3 14 4 13 5 11 6 12 7 10 8 3 10 4 11 5 12 6 13
REMARK SMILES IDX 7 14 8 15 9 16
REMARK H PARENT
REMARK Flexibility Score: 60.00
ROOT
ATOM      1  C   UNL     1       3.055   9.587  13.118  1.00  0.00    -0.074 C 
ATOM      2  C   UNL     1       1.736   9.727  13.332  1.00  0.00     0.008 C 
ENDROOT
BRANCH   1   3
ATOM      3  C   UNL     1       3.596   9.461  11.706  1.00  0.00     0.031 C 
BRANCH   3   4
ATOM      4  C   UNL     1       4.731   8.426  11.567  1.00  0.00     0.009 C 
BRANCH   4   5
ATOM      5  C   UNL     1       4.287   7.055  11.021  1.00  0.00     0.030 C 
BRANCH   5   6
ATOM      6  C   UNL     1       4.372   5.885  12.001  1.00  0.00    -0.077 C 
ATOM      7  C   UNL     1       3.251   4.877  12.106  1.00  0.00     0.039 C 
ATOM      8  C   UNL     1       5.499   5.616  12.708  1.00  0.00    -0.027 CG0
ATOM      9  G   UNL     1       6.792   6.402  12.643  1.00  0.00     0.000 G0
ENDBRANCH   5   6
ENDBRANCH   4   5
ENDBRANCH   3   4
ENDBRANCH   1   3
BRANCH   1  10
ATOM     10  C   UNL     1       4.002   9.472  14.290  1.00  0.00     0.057 C 
BRANCH  10  11
ATOM     11  C   UNL     1       4.861   8.251  14.158  1.00  0.00    -0.026 C 
ATOM     12  C   UNL     1       6.203   8.331  14.214  1.00  0.00    -0.024 C 
BRANCH  12  13
ATOM     13  C   UNL     1       7.130   7.140  13.989  1.00  0.00    -0.014 C 
ATOM     14  C   UNL     1       7.080   6.160  15.186  1.00  0.00     0.016 C 
ATOM     15  C   UNL     1       8.574   7.674  13.882  1.00  0.00     0.016 C 
BRANCH  13  16
ATOM     16  C   UNL     1       6.790   6.407  12.658  1.00  0.00     0.038 CG0
ATOM     17  G   UNL     1       5.496   5.619  12.690  1.00  0.00     0.000 G0
ENDBRANCH  13  16
ENDBRANCH  12  13
ENDBRANCH  10  11
ENDBRANCH   1  10
TORSDOF 0
ENDMDL
