MODEL 1
REMARK VINA RESULT:    -4.442      0.000      0.000
REMARK INTER + INTRA:          -6.159
REMARK INTER:                  -5.481
REMARK INTRA:                  -0.678
REMARK UNBOUND:                -0.678
REMARK SMILES CC(C)=CCC[C@@H](C)c1ccc(C)cc1
REMARK SMILES IDX 6 1 7 2 8 3 9 4 13 5 12 6 11 7 14 8 10 9 15 10 5 11 4 12
REMARK SMILES IDX 2 13 1 14 3 15
REMARK H PARENT
REMARK Flexibility Score: inf
ROOT
ATOM      1  C   UNL     1     -34.415  -1.254  -7.681  1.00  0.00     0.012 C 
ENDROOT
BRANCH   1   2
ATOM      2  C   UNL     1     -35.057  -0.533  -8.892  1.00  0.00     0.016 C 
ATOM      3  C   UNL     1     -34.219  -0.658 -10.174  1.00  0.00     0.013 C 
BRANCH   2   4
ATOM      4  C   UNL     1     -36.464  -1.053  -9.128  1.00  0.00    -0.045 A 
ATOM      5  C   UNL     1     -40.455  -2.535  -9.855  1.00  0.00     0.044 C 
ATOM      6  C   UNL     1     -39.069  -2.035  -9.576  1.00  0.00    -0.051 A 
ATOM      7  C   UNL     1     -37.955  -2.748 -10.040  1.00  0.00     0.004 A 
ATOM      8  C   UNL     1     -38.878  -0.816  -8.909  1.00  0.00     0.004 A 
ATOM      9  C   UNL     1     -36.663  -2.264  -9.814  1.00  0.00     0.004 A 
ATOM     10  C   UNL     1     -37.587  -0.332  -8.680  1.00  0.00     0.004 A 
ENDBRANCH   2   4
ENDBRANCH   1   2
BRANCH   1  11
ATOM     11  C   UNL     1     -32.946  -1.660  -7.908  1.00  0.00     0.028 C 
BRANCH  11  12
ATOM     12  C   UNL     1     -32.670  -3.094  -7.515  1.00  0.00    -0.028 C 
ATOM     13  C   UNL     1     -32.966  -4.144  -8.311  1.00  0.00    -0.080 C 
ATOM     14  C   UNL     1     -32.664  -5.548  -7.853  1.00  0.00     0.039 C 
ATOM     15  C   UNL     1     -33.603  -3.956  -9.665  1.00  0.00     0.039 C 
ENDBRANCH  11  12
ENDBRANCH   1  11
TORSDOF 4
ENDMDL
MODEL 2
REMARK VINA RESULT:    -4.313      1.305      5.573
REMARK INTER + INTRA:          -6.000
REMARK INTER:                  -5.212
REMARK INTRA:                  -0.788
REMARK UNBOUND:                -0.678
REMARK SMILES CC(C)=CCC[C@@H](C)c1ccc(C)cc1
REMARK SMILES IDX 6 1 7 2 8 3 9 4 13 5 12 6 11 7 14 8 10 9 15 10 5 11 4 12
REMARK SMILES IDX 2 13 1 14 3 15
REMARK H PARENT
REMARK Flexibility Score: inf
ROOT
ATOM      1  C   UNL     1     -36.660  -0.391 -10.551  1.00  0.00     0.012 C 
ENDROOT
BRANCH   1   2
ATOM      2  C   UNL     1     -35.738  -0.229  -9.317  1.00  0.00     0.016 C 
ATOM      3  C   UNL     1     -36.504   0.177  -8.049  1.00  0.00     0.013 C 
BRANCH   2   4
ATOM      4  C   UNL     1     -34.956  -1.508  -9.074  1.00  0.00    -0.045 A 
ATOM      5  C   UNL     1     -32.745  -5.142  -8.326  1.00  0.00     0.044 C 
ATOM      6  C   UNL     1     -33.520  -3.891  -8.614  1.00  0.00    -0.051 A 
ATOM      7  C   UNL     1     -34.864  -3.789  -8.229  1.00  0.00     0.004 A 
ATOM      8  C   UNL     1     -32.888  -2.787  -9.207  1.00  0.00     0.004 A 
ATOM      9  C   UNL     1     -35.578  -2.609  -8.462  1.00  0.00     0.004 A 
ATOM     10  C   UNL     1     -33.601  -1.609  -9.441  1.00  0.00     0.004 A 
ENDBRANCH   2   4
ENDBRANCH   1   2
BRANCH   1  11
ATOM     11  C   UNL     1     -38.092   0.133 -10.329  1.00  0.00     0.028 C 
BRANCH  11  12
ATOM     12  C   UNL     1     -39.148  -0.883 -10.700  1.00  0.00    -0.028 C 
ATOM     13  C   UNL     1     -39.634  -1.790  -9.826  1.00  0.00    -0.080 C 
ATOM     14  C   UNL     1     -40.687  -2.775 -10.266  1.00  0.00     0.039 C 
ATOM     15  C   UNL     1     -39.147  -1.856  -8.400  1.00  0.00     0.039 C 
ENDBRANCH  11  12
ENDBRANCH   1  11
TORSDOF 4
ENDMDL
MODEL 3
REMARK VINA RESULT:    -4.297      1.453      6.055
REMARK INTER + INTRA:          -5.981
REMARK INTER:                  -5.458
REMARK INTRA:                  -0.523
REMARK UNBOUND:                -0.678
REMARK SMILES CC(C)=CCC[C@@H](C)c1ccc(C)cc1
REMARK SMILES IDX 6 1 7 2 8 3 9 4 13 5 12 6 11 7 14 8 10 9 15 10 5 11 4 12
REMARK SMILES IDX 2 13 1 14 3 15
REMARK H PARENT
REMARK Flexibility Score: inf
ROOT
ATOM      1  C   UNL     1     -37.939  -1.169  -9.222  1.00  0.00     0.012 C 
ENDROOT
BRANCH   1   2
ATOM      2  C   UNL     1     -36.648  -1.109 -10.075  1.00  0.00     0.016 C 
ATOM      3  C   UNL     1     -36.098   0.318 -10.227  1.00  0.00     0.013 C 
BRANCH   2   4
ATOM      4  C   UNL     1     -35.588  -2.023  -9.487  1.00  0.00    -0.045 A 
ATOM      5  C   UNL     1     -32.592  -4.610  -7.759  1.00  0.00     0.044 C 
ATOM      6  C   UNL     1     -33.633  -3.730  -8.383  1.00  0.00    -0.051 A 
ATOM      7  C   UNL     1     -34.989  -3.913  -8.074  1.00  0.00     0.004 A 
ATOM      8  C   UNL     1     -33.256  -2.674  -9.226  1.00  0.00     0.004 A 
ATOM      9  C   UNL     1     -35.958  -3.070  -8.625  1.00  0.00     0.004 A 
ATOM     10  C   UNL     1     -34.224  -1.832  -9.778  1.00  0.00     0.004 A 
ENDBRANCH   2   4
ENDBRANCH   1   2
BRANCH   1  11
ATOM     11  C   UNL     1     -39.235  -1.060 -10.050  1.00  0.00     0.028 C 
BRANCH  11  12
ATOM     12  C   UNL     1     -40.016  -2.354 -10.082  1.00  0.00    -0.028 C 
ATOM     13  C   UNL     1     -41.139  -2.516 -10.814  1.00  0.00    -0.080 C 
ATOM     14  C   UNL     1     -41.869  -3.834 -10.797  1.00  0.00     0.039 C 
ATOM     15  C   UNL     1     -41.701  -1.400 -11.660  1.00  0.00     0.039 C 
ENDBRANCH  11  12
ENDBRANCH   1  11
TORSDOF 4
ENDMDL
MODEL 4
REMARK VINA RESULT:    -4.080      1.327      1.568
REMARK INTER + INTRA:          -5.713
REMARK INTER:                  -4.714
REMARK INTRA:                  -0.999
REMARK UNBOUND:                -0.678
REMARK SMILES CC(C)=CCC[C@@H](C)c1ccc(C)cc1
REMARK SMILES IDX 6 1 7 2 8 3 9 4 13 5 12 6 11 7 14 8 10 9 15 10 5 11 4 12
REMARK SMILES IDX 2 13 1 14 3 15
REMARK H PARENT
REMARK Flexibility Score: inf
ROOT
ATOM      1  C   UNL     1     -34.764  -0.597  -9.898  1.00  0.00     0.012 C 
ENDROOT
BRANCH   1   2
ATOM      2  C   UNL     1     -36.034   0.289  -9.911  1.00  0.00     0.016 C 
ATOM      3  C   UNL     1     -36.234   1.028 -11.243  1.00  0.00     0.013 C 
BRANCH   2   4
ATOM      4  C   UNL     1     -37.259  -0.546  -9.582  1.00  0.00    -0.045 A 
ATOM      5  C   UNL     1     -40.768  -2.904  -8.696  1.00  0.00     0.044 C 
ATOM      6  C   UNL     1     -39.533  -2.106  -8.989  1.00  0.00    -0.051 A 
ATOM      7  C   UNL     1     -38.848  -2.284 -10.200  1.00  0.00     0.004 A 
ATOM      8  C   UNL     1     -39.092  -1.127  -8.087  1.00  0.00     0.004 A 
ATOM      9  C   UNL     1     -37.718  -1.515 -10.492  1.00  0.00     0.004 A 
ATOM     10  C   UNL     1     -37.961  -0.358  -8.376  1.00  0.00     0.004 A 
ENDBRANCH   2   4
ENDBRANCH   1   2
BRANCH   1  11
ATOM     11  C   UNL     1     -34.222  -0.883  -8.484  1.00  0.00     0.028 C 
BRANCH  11  12
ATOM     12  C   UNL     1     -33.410  -2.156  -8.418  1.00  0.00    -0.028 C 
ATOM     13  C   UNL     1     -33.969  -3.380  -8.312  1.00  0.00    -0.080 C 
ATOM     14  C   UNL     1     -33.097  -4.608  -8.250  1.00  0.00     0.039 C 
ATOM     15  C   UNL     1     -35.465  -3.564  -8.250  1.00  0.00     0.039 C 
ENDBRANCH  11  12
ENDBRANCH   1  11
TORSDOF 4
ENDMDL
MODEL 5
REMARK VINA RESULT:    -4.039      1.197      5.111
REMARK INTER + INTRA:          -5.662
REMARK INTER:                  -4.570
REMARK INTRA:                  -1.092
REMARK UNBOUND:                -0.678
REMARK SMILES CC(C)=CCC[C@@H](C)c1ccc(C)cc1
REMARK SMILES IDX 6 1 7 2 8 3 9 4 13 5 12 6 11 7 14 8 10 9 15 10 5 11 4 12
REMARK SMILES IDX 2 13 1 14 3 15
REMARK H PARENT
REMARK Flexibility Score: inf
ROOT
ATOM      1  C   UNL     1     -36.075  -0.036  -8.258  1.00  0.00     0.012 C 
ENDROOT
BRANCH   1   2
ATOM      2  C   UNL     1     -34.531  -0.145  -8.244  1.00  0.00     0.016 C 
ATOM      3  C   UNL     1     -33.921   0.191  -6.874  1.00  0.00     0.013 C 
BRANCH   2   4
ATOM      4  C   UNL     1     -34.099  -1.531  -8.688  1.00  0.00    -0.045 A 
ATOM      5  C   UNL     1     -32.895  -5.465 -10.003  1.00  0.00     0.044 C 
ATOM      6  C   UNL     1     -33.288  -4.098  -9.529  1.00  0.00    -0.051 A 
ATOM      7  C   UNL     1     -32.930  -2.964 -10.272  1.00  0.00     0.004 A 
ATOM      8  C   UNL     1     -34.074  -3.947  -8.378  1.00  0.00     0.004 A 
ATOM      9  C   UNL     1     -33.328  -1.691  -9.852  1.00  0.00     0.004 A 
ATOM     10  C   UNL     1     -34.471  -2.675  -7.956  1.00  0.00     0.004 A 
ENDBRANCH   2   4
ENDBRANCH   1   2
BRANCH   1  11
ATOM     11  C   UNL     1     -36.688  -0.111  -9.671  1.00  0.00     0.028 C 
BRANCH  11  12
ATOM     12  C   UNL     1     -38.119  -0.600  -9.660  1.00  0.00    -0.028 C 
ATOM     13  C   UNL     1     -38.453  -1.899  -9.822  1.00  0.00    -0.080 C 
ATOM     14  C   UNL     1     -39.901  -2.315  -9.801  1.00  0.00     0.039 C 
ATOM     15  C   UNL     1     -37.406  -2.965 -10.032  1.00  0.00     0.039 C 
ENDBRANCH  11  12
ENDBRANCH   1  11
TORSDOF 4
ENDMDL
MODEL 6
REMARK VINA RESULT:    -4.038      1.448      1.771
REMARK INTER + INTRA:          -5.661
REMARK INTER:                  -5.192
REMARK INTRA:                  -0.469
REMARK UNBOUND:                -0.678
REMARK SMILES CC(C)=CCC[C@@H](C)c1ccc(C)cc1
REMARK SMILES IDX 6 1 7 2 8 3 9 4 13 5 12 6 11 7 14 8 10 9 15 10 5 11 4 12
REMARK SMILES IDX 2 13 1 14 3 15
REMARK H PARENT
REMARK Flexibility Score: inf
ROOT
ATOM      1  C   UNL     1     -35.066  -0.784  -9.770  1.00  0.00     0.012 C 
ENDROOT
BRANCH   1   2
ATOM      2  C   UNL     1     -36.281   0.177  -9.764  1.00  0.00     0.016 C 
ATOM      3  C   UNL     1     -36.227   1.216 -10.893  1.00  0.00     0.013 C 
BRANCH   2   4
ATOM      4  C   UNL     1     -37.575  -0.614  -9.836  1.00  0.00    -0.045 A 
ATOM      5  C   UNL     1     -41.225  -2.914 -10.050  1.00  0.00     0.044 C 
ATOM      6  C   UNL     1     -39.971  -2.097  -9.956  1.00  0.00    -0.051 A 
ATOM      7  C   UNL     1     -38.968  -2.446  -9.040  1.00  0.00     0.004 A 
ATOM      8  C   UNL     1     -39.762  -1.019 -10.829  1.00  0.00     0.004 A 
ATOM      9  C   UNL     1     -37.782  -1.708  -8.977  1.00  0.00     0.004 A 
ATOM     10  C   UNL     1     -38.578  -0.280 -10.766  1.00  0.00     0.004 A 
ENDBRANCH   2   4
ENDBRANCH   1   2
BRANCH   1  11
ATOM     11  C   UNL     1     -34.421  -0.976  -8.383  1.00  0.00     0.028 C 
BRANCH  11  12
ATOM     12  C   UNL     1     -33.477  -2.156  -8.338  1.00  0.00    -0.028 C 
ATOM     13  C   UNL     1     -33.899  -3.430  -8.190  1.00  0.00    -0.080 C 
ATOM     14  C   UNL     1     -32.900  -4.557  -8.153  1.00  0.00     0.039 C 
ATOM     15  C   UNL     1     -35.363  -3.768  -8.054  1.00  0.00     0.039 C 
ENDBRANCH  11  12
ENDBRANCH   1  11
TORSDOF 4
ENDMDL
MODEL 7
REMARK VINA RESULT:    -3.969      1.338      1.950
REMARK INTER + INTRA:          -5.575
REMARK INTER:                  -5.115
REMARK INTRA:                  -0.460
REMARK UNBOUND:                -0.678
REMARK SMILES CC(C)=CCC[C@@H](C)c1ccc(C)cc1
REMARK SMILES IDX 6 1 7 2 8 3 9 4 13 5 12 6 11 7 14 8 10 9 15 10 5 11 4 12
REMARK SMILES IDX 2 13 1 14 3 15
REMARK H PARENT
REMARK Flexibility Score: inf
ROOT
ATOM      1  C   UNL     1     -33.175  -1.180  -9.245  1.00  0.00     0.012 C 
ENDROOT
BRANCH   1   2
ATOM      2  C   UNL     1     -34.254  -0.894  -8.172  1.00  0.00     0.016 C 
ATOM      3  C   UNL     1     -33.936   0.345  -7.320  1.00  0.00     0.013 C 
BRANCH   2   4
ATOM      4  C   UNL     1     -35.617  -0.751  -8.824  1.00  0.00    -0.045 A 
ATOM      5  C   UNL     1     -39.499  -0.401 -10.685  1.00  0.00     0.044 C 
ATOM      6  C   UNL     1     -38.158  -0.498 -10.022  1.00  0.00    -0.051 A 
ATOM      7  C   UNL     1     -37.984  -1.319  -8.898  1.00  0.00     0.004 A 
ATOM      8  C   UNL     1     -37.052   0.176 -10.560  1.00  0.00     0.004 A 
ATOM      9  C   UNL     1     -36.725  -1.440  -8.301  1.00  0.00     0.004 A 
ATOM     10  C   UNL     1     -35.794   0.057  -9.963  1.00  0.00     0.004 A 
ENDBRANCH   2   4
ENDBRANCH   1   2
BRANCH   1  11
ATOM     11  C   UNL     1     -33.398  -2.498 -10.013  1.00  0.00     0.028 C 
BRANCH  11  12
ATOM     12  C   UNL     1     -32.731  -3.680  -9.347  1.00  0.00    -0.028 C 
ATOM     13  C   UNL     1     -33.325  -4.408  -8.377  1.00  0.00    -0.080 C 
ATOM     14  C   UNL     1     -32.600  -5.574  -7.756  1.00  0.00     0.039 C 
ATOM     15  C   UNL     1     -34.713  -4.085  -7.883  1.00  0.00     0.039 C 
ENDBRANCH  11  12
ENDBRANCH   1  11
TORSDOF 4
ENDMDL
MODEL 8
REMARK VINA RESULT:    -2.810      1.509      3.078
REMARK INTER + INTRA:          -4.145
REMARK INTER:                  -4.364
REMARK INTRA:                   0.218
REMARK UNBOUND:                -0.678
REMARK SMILES CC(C)=CCC[C@@H](C)c1ccc(C)cc1
REMARK SMILES IDX 6 1 7 2 8 3 9 4 13 5 12 6 11 7 14 8 10 9 15 10 5 11 4 12
REMARK SMILES IDX 2 13 1 14 3 15
REMARK H PARENT
REMARK Flexibility Score: inf
ROOT
ATOM      1  C   UNL     1     -34.200  -3.825  -9.465  1.00  0.00     0.012 C 
ENDROOT
BRANCH   1   2
ATOM      2  C   UNL     1     -35.686  -3.901  -9.034  1.00  0.00     0.016 C 
ATOM      3  C   UNL     1     -35.859  -4.196  -7.536  1.00  0.00     0.013 C 
BRANCH   2   4
ATOM      4  C   UNL     1     -36.406  -2.617  -9.406  1.00  0.00    -0.045 A 
ATOM      5  C   UNL     1     -38.497   1.003 -10.491  1.00  0.00     0.044 C 
ATOM      6  C   UNL     1     -37.762  -0.240 -10.088  1.00  0.00    -0.051 A 
ATOM      7  C   UNL     1     -38.429  -1.262  -9.398  1.00  0.00     0.004 A 
ATOM      8  C   UNL     1     -36.421  -0.421 -10.459  1.00  0.00     0.004 A 
ATOM      9  C   UNL     1     -37.756  -2.438  -9.055  1.00  0.00     0.004 A 
ATOM     10  C   UNL     1     -35.747  -1.596 -10.116  1.00  0.00     0.004 A 
ENDBRANCH   2   4
ENDBRANCH   1   2
BRANCH   1  11
ATOM     11  C   UNL     1     -33.213  -3.779  -8.282  1.00  0.00     0.028 C 
BRANCH  11  12
ATOM     12  C   UNL     1     -33.296  -2.486  -7.504  1.00  0.00    -0.028 C 
ATOM     13  C   UNL     1     -33.109  -1.274  -8.070  1.00  0.00    -0.080 C 
ATOM     14  C   UNL     1     -33.205  -0.025  -7.232  1.00  0.00     0.039 C 
ATOM     15  C   UNL     1     -32.798  -1.126  -9.539  1.00  0.00     0.039 C 
ENDBRANCH  11  12
ENDBRANCH   1  11
TORSDOF 4
ENDMDL
MODEL 9
REMARK VINA RESULT:    -1.480      0.932      5.791
REMARK INTER + INTRA:          -2.504
REMARK INTER:                  -2.164
REMARK INTRA:                  -0.340
REMARK UNBOUND:                -0.678
REMARK SMILES CC(C)=CCC[C@@H](C)c1ccc(C)cc1
REMARK SMILES IDX 6 1 7 2 8 3 9 4 13 5 12 6 11 7 14 8 10 9 15 10 5 11 4 12
REMARK SMILES IDX 2 13 1 14 3 15
REMARK H PARENT
REMARK Flexibility Score: inf
ROOT
ATOM      1  C   UNL     1     -35.467  -1.129  -9.625  1.00  0.00     0.012 C 
ENDROOT
BRANCH   1   2
ATOM      2  C   UNL     1     -34.048  -0.958  -9.030  1.00  0.00     0.016 C 
ATOM      3  C   UNL     1     -34.012   0.010  -7.838  1.00  0.00     0.013 C 
BRANCH   2   4
ATOM      4  C   UNL     1     -33.480  -2.308  -8.631  1.00  0.00    -0.045 A 
ATOM      5  C   UNL     1     -31.811  -6.125  -7.490  1.00  0.00     0.044 C 
ATOM      6  C   UNL     1     -32.417  -4.808  -7.873  1.00  0.00    -0.051 A 
ATOM      7  C   UNL     1     -32.259  -3.690  -7.041  1.00  0.00     0.004 A 
ATOM      8  C   UNL     1     -33.086  -4.666  -9.097  1.00  0.00     0.004 A 
ATOM      9  C   UNL     1     -32.790  -2.452  -7.414  1.00  0.00     0.004 A 
ATOM     10  C   UNL     1     -33.619  -3.429  -9.471  1.00  0.00     0.004 A 
ENDBRANCH   2   4
ENDBRANCH   1   2
BRANCH   1  11
ATOM     11  C   UNL     1     -36.352  -2.119  -8.842  1.00  0.00     0.028 C 
BRANCH  11  12
ATOM     12  C   UNL     1     -37.652  -2.424  -9.549  1.00  0.00    -0.028 C 
ATOM     13  C   UNL     1     -38.797  -1.749  -9.309  1.00  0.00    -0.080 C 
ATOM     14  C   UNL     1     -40.057  -2.108 -10.052  1.00  0.00     0.039 C 
ATOM     15  C   UNL     1     -38.857  -0.629  -8.300  1.00  0.00     0.039 C 
ENDBRANCH  11  12
ENDBRANCH   1  11
TORSDOF 4
ENDMDL
