MODEL 1
REMARK VINA RESULT:    -3.349      0.000      0.000
REMARK INTER + INTRA:          -5.881
REMARK INTER:                  -5.112
REMARK INTRA:                  -0.770
REMARK UNBOUND:                -0.770
REMARK SMILES O=C([O-])CCCCCCCCC(=O)[O-]
REMARK SMILES IDX 7 1 6 2 5 3 4 4 2 5 1 6 3 7 8 8 9 9 10 10 11 11 12 12 13 13
REMARK SMILES IDX 14 14
REMARK H PARENT
REMARK Flexibility Score: inf
ROOT
ATOM      1  C   UNL     1      25.692   6.250  26.669  1.00  0.00     0.000 C 
ENDROOT
BRANCH   1   2
ATOM      2  C   UNL     1      24.668   6.437  25.543  1.00  0.00     0.000 C 
BRANCH   2   3
ATOM      3  C   UNL     1      23.392   5.627  25.819  1.00  0.00     0.006 C 
BRANCH   3   4
ATOM      4  C   UNL     1      23.639   4.469  26.794  1.00  0.00     0.053 C 
BRANCH   4   5
ATOM      5  C   UNL     1      23.718   3.151  26.085  1.00  0.00     0.041 C 
ATOM      6  O   UNL     1      24.832   2.583  25.928  1.00  0.00    -0.550 OA
ATOM      7  O   UNL     1      22.569   2.568  25.568  1.00  0.00    -0.550 OA
ENDBRANCH   4   5
ENDBRANCH   3   4
ENDBRANCH   2   3
ENDBRANCH   1   2
BRANCH   1   8
ATOM      8  C   UNL     1      26.430   7.559  26.965  1.00  0.00     0.000 C 
BRANCH   8   9
ATOM      9  C   UNL     1      26.144   8.610  25.885  1.00  0.00     0.000 C 
BRANCH   9  10
ATOM     10  C   UNL     1      25.477   9.854  26.490  1.00  0.00     0.006 C 
BRANCH  10  11
ATOM     11  C   UNL     1      24.970   9.608  27.916  1.00  0.00     0.053 C 
BRANCH  11  12
ATOM     12  C   UNL     1      23.515   9.252  27.934  1.00  0.00     0.041 C 
ATOM     13  O   UNL     1      22.652  10.090  27.561  1.00  0.00    -0.550 OA
ATOM     14  O   UNL     1      23.115   7.984  28.333  1.00  0.00    -0.550 OA
ENDBRANCH  11  12
ENDBRANCH  10  11
ENDBRANCH   9  10
ENDBRANCH   8   9
ENDBRANCH   1   8
TORSDOF 9
ENDMDL
MODEL 2
REMARK VINA RESULT:    -3.332      9.329     11.048
REMARK INTER + INTRA:          -5.855
REMARK INTER:                  -4.944
REMARK INTRA:                  -0.911
REMARK UNBOUND:                -0.770
REMARK SMILES O=C([O-])CCCCCCCCC(=O)[O-]
REMARK SMILES IDX 7 1 6 2 5 3 4 4 2 5 1 6 3 7 8 8 9 9 10 10 11 11 12 12 13 13
REMARK SMILES IDX 14 14
REMARK H PARENT
REMARK Flexibility Score: inf
ROOT
ATOM      1  C   UNL     1      20.833   9.818  37.502  1.00  0.00     0.000 C 
ENDROOT
BRANCH   1   2
ATOM      2  C   UNL     1      20.574   9.810  35.990  1.00  0.00     0.000 C 
BRANCH   2   3
ATOM      3  C   UNL     1      21.180   8.561  35.335  1.00  0.00     0.006 C 
BRANCH   3   4
ATOM      4  C   UNL     1      20.104   7.575  34.859  1.00  0.00     0.053 C 
BRANCH   4   5
ATOM      5  C   UNL     1      20.671   6.531  33.945  1.00  0.00     0.041 C 
ATOM      6  O   UNL     1      21.766   6.732  33.356  1.00  0.00    -0.550 OA
ATOM      7  O   UNL     1      19.974   5.352  33.718  1.00  0.00    -0.550 OA
ENDBRANCH   4   5
ENDBRANCH   3   4
ENDBRANCH   2   3
ENDBRANCH   1   2
BRANCH   1   8
ATOM      8  C   UNL     1      22.304   9.518  37.810  1.00  0.00     0.000 C 
BRANCH   8   9
ATOM      9  C   UNL     1      22.475   9.023  39.251  1.00  0.00     0.000 C 
BRANCH   9  10
ATOM     10  C   UNL     1      21.660   7.743  39.494  1.00  0.00     0.006 C 
BRANCH  10  11
ATOM     11  C   UNL     1      22.349   6.497  38.923  1.00  0.00     0.053 C 
BRANCH  11  12
ATOM     12  C   UNL     1      21.518   5.842  37.863  1.00  0.00     0.041 C 
ATOM     13  O   UNL     1      20.266   5.977  37.863  1.00  0.00    -0.550 OA
ATOM     14  O   UNL     1      22.130   5.107  36.855  1.00  0.00    -0.550 OA
ENDBRANCH  11  12
ENDBRANCH  10  11
ENDBRANCH   9  10
ENDBRANCH   8   9
ENDBRANCH   1   8
TORSDOF 9
ENDMDL
MODEL 3
REMARK VINA RESULT:    -3.284     10.322     11.987
REMARK INTER + INTRA:          -5.782
REMARK INTER:                  -4.882
REMARK INTRA:                  -0.899
REMARK UNBOUND:                -0.770
REMARK SMILES O=C([O-])CCCCCCCCC(=O)[O-]
REMARK SMILES IDX 7 1 6 2 5 3 4 4 2 5 1 6 3 7 8 8 9 9 10 10 11 11 12 12 13 13
REMARK SMILES IDX 14 14
REMARK H PARENT
REMARK Flexibility Score: inf
ROOT
ATOM      1  C   UNL     1      22.262   9.224  36.885  1.00  0.00     0.000 C 
ENDROOT
BRANCH   1   2
ATOM      2  C   UNL     1      21.035  10.007  36.402  1.00  0.00     0.000 C 
BRANCH   2   3
ATOM      3  C   UNL     1      20.277   9.227  35.317  1.00  0.00     0.006 C 
BRANCH   3   4
ATOM      4  C   UNL     1      19.485   8.047  35.896  1.00  0.00     0.053 C 
BRANCH   4   5
ATOM      5  C   UNL     1      19.902   6.744  35.287  1.00  0.00     0.041 C 
ATOM      6  O   UNL     1      19.089   6.085  34.584  1.00  0.00    -0.550 OA
ATOM      7  O   UNL     1      21.174   6.240  35.522  1.00  0.00    -0.550 OA
ENDBRANCH   4   5
ENDBRANCH   3   4
ENDBRANCH   2   3
ENDBRANCH   1   2
BRANCH   1   8
ATOM      8  C   UNL     1      22.746   9.743  38.244  1.00  0.00     0.000 C 
BRANCH   8   9
ATOM      9  C   UNL     1      22.469   8.722  39.354  1.00  0.00     0.000 C 
BRANCH   9  10
ATOM     10  C   UNL     1      21.730   7.494  38.801  1.00  0.00     0.006 C 
BRANCH  10  11
ATOM     11  C   UNL     1      20.497   7.131  39.639  1.00  0.00     0.053 C 
BRANCH  11  12
ATOM     12  C   UNL     1      19.737   8.350  40.063  1.00  0.00     0.041 C 
ATOM     13  O   UNL     1      19.078   9.013  39.220  1.00  0.00    -0.550 OA
ATOM     14  O   UNL     1      19.729   8.735  41.398  1.00  0.00    -0.550 OA
ENDBRANCH  11  12
ENDBRANCH  10  11
ENDBRANCH   9  10
ENDBRANCH   8   9
ENDBRANCH   1   8
TORSDOF 9
ENDMDL
MODEL 4
REMARK VINA RESULT:    -3.279     11.409     13.579
REMARK INTER + INTRA:          -5.775
REMARK INTER:                  -4.992
REMARK INTRA:                  -0.782
REMARK UNBOUND:                -0.770
REMARK SMILES O=C([O-])CCCCCCCCC(=O)[O-]
REMARK SMILES IDX 7 1 6 2 5 3 4 4 2 5 1 6 3 7 8 8 9 9 10 10 11 11 12 12 13 13
REMARK SMILES IDX 14 14
REMARK H PARENT
REMARK Flexibility Score: inf
ROOT
ATOM      1  C   UNL     1      21.702   8.225  39.328  1.00  0.00     0.000 C 
ENDROOT
BRANCH   1   2
ATOM      2  C   UNL     1      20.530   8.701  40.195  1.00  0.00     0.000 C 
BRANCH   2   3
ATOM      3  C   UNL     1      19.261   8.889  39.350  1.00  0.00     0.006 C 
BRANCH   3   4
ATOM      4  C   UNL     1      18.342   9.980  39.916  1.00  0.00     0.053 C 
BRANCH   4   5
ATOM      5  C   UNL     1      17.357   9.424  40.898  1.00  0.00     0.041 C 
ATOM      6  O   UNL     1      16.205   9.086  40.518  1.00  0.00    -0.550 OA
ATOM      7  O   UNL     1      17.699   9.311  42.240  1.00  0.00    -0.550 OA
ENDBRANCH   4   5
ENDBRANCH   3   4
ENDBRANCH   2   3
ENDBRANCH   1   2
BRANCH   1   8
ATOM      8  C   UNL     1      22.566   9.406  38.873  1.00  0.00     0.000 C 
BRANCH   8   9
ATOM      9  C   UNL     1      22.255   9.789  37.421  1.00  0.00     0.000 C 
BRANCH   9  10
ATOM     10  C   UNL     1      22.157   8.541  36.531  1.00  0.00     0.006 C 
BRANCH  10  11
ATOM     11  C   UNL     1      21.000   8.631  35.528  1.00  0.00     0.053 C 
BRANCH  11  12
ATOM     12  C   UNL     1      19.891   7.686  35.875  1.00  0.00     0.041 C 
ATOM     13  O   UNL     1      20.114   6.683  36.601  1.00  0.00    -0.550 OA
ATOM     14  O   UNL     1      18.601   7.933  35.422  1.00  0.00    -0.550 OA
ENDBRANCH  11  12
ENDBRANCH  10  11
ENDBRANCH   9  10
ENDBRANCH   8   9
ENDBRANCH   1   8
TORSDOF 9
ENDMDL
MODEL 5
REMARK VINA RESULT:    -3.268     10.939     12.777
REMARK INTER + INTRA:          -5.758
REMARK INTER:                  -4.811
REMARK INTRA:                  -0.946
REMARK UNBOUND:                -0.770
REMARK SMILES O=C([O-])CCCCCCCCC(=O)[O-]
REMARK SMILES IDX 7 1 6 2 5 3 4 4 2 5 1 6 3 7 8 8 9 9 10 10 11 11 12 12 13 13
REMARK SMILES IDX 14 14
REMARK H PARENT
REMARK Flexibility Score: inf
ROOT
ATOM      1  C   UNL     1      22.424   8.771  39.267  1.00  0.00     0.000 C 
ENDROOT
BRANCH   1   2
ATOM      2  C   UNL     1      22.407   9.664  38.021  1.00  0.00     0.000 C 
BRANCH   2   3
ATOM      3  C   UNL     1      22.064   8.849  36.765  1.00  0.00     0.006 C 
BRANCH   3   4
ATOM      4  C   UNL     1      20.850   9.417  36.017  1.00  0.00     0.053 C 
BRANCH   4   5
ATOM      5  C   UNL     1      20.009   8.332  35.417  1.00  0.00     0.041 C 
ATOM      6  O   UNL     1      18.824   8.160  35.808  1.00  0.00    -0.550 OA
ATOM      7  O   UNL     1      20.543   7.490  34.450  1.00  0.00    -0.550 OA
ENDBRANCH   4   5
ENDBRANCH   3   4
ENDBRANCH   2   3
ENDBRANCH   1   2
BRANCH   1   8
ATOM      8  C   UNL     1      22.267   7.295  38.889  1.00  0.00     0.000 C 
BRANCH   8   9
ATOM      9  C   UNL     1      21.119   6.645  39.671  1.00  0.00     0.000 C 
BRANCH   9  10
ATOM     10  C   UNL     1      19.767   7.259  39.279  1.00  0.00     0.006 C 
BRANCH  10  11
ATOM     11  C   UNL     1      19.053   7.905  40.472  1.00  0.00     0.053 C 
BRANCH  11  12
ATOM     12  C   UNL     1      18.854   9.376  40.271  1.00  0.00     0.041 C 
ATOM     13  O   UNL     1      18.597  10.122  41.251  1.00  0.00    -0.550 OA
ATOM     14  O   UNL     1      18.986   9.927  39.003  1.00  0.00    -0.550 OA
ENDBRANCH  11  12
ENDBRANCH  10  11
ENDBRANCH   9  10
ENDBRANCH   8   9
ENDBRANCH   1   8
TORSDOF 9
ENDMDL
MODEL 6
REMARK VINA RESULT:    -3.195      9.844     11.155
REMARK INTER + INTRA:          -5.646
REMARK INTER:                  -4.946
REMARK INTRA:                  -0.700
REMARK UNBOUND:                -0.770
REMARK SMILES O=C([O-])CCCCCCCCC(=O)[O-]
REMARK SMILES IDX 7 1 6 2 5 3 4 4 2 5 1 6 3 7 8 8 9 9 10 10 11 11 12 12 13 13
REMARK SMILES IDX 14 14
REMARK H PARENT
REMARK Flexibility Score: inf
ROOT
ATOM      1  C   UNL     1      21.624   8.185  39.414  1.00  0.00     0.000 C 
ENDROOT
BRANCH   1   2
ATOM      2  C   UNL     1      22.021   6.768  38.985  1.00  0.00     0.000 C 
BRANCH   2   3
ATOM      3  C   UNL     1      20.981   6.172  38.024  1.00  0.00     0.006 C 
BRANCH   3   4
ATOM      4  C   UNL     1      21.083   4.644  37.934  1.00  0.00     0.053 C 
BRANCH   4   5
ATOM      5  C   UNL     1      22.047   4.211  36.872  1.00  0.00     0.041 C 
ATOM      6  O   UNL     1      22.089   4.819  35.769  1.00  0.00    -0.550 OA
ATOM      7  O   UNL     1      22.876   3.118  37.087  1.00  0.00    -0.550 OA
ENDBRANCH   4   5
ENDBRANCH   3   4
ENDBRANCH   2   3
ENDBRANCH   1   2
BRANCH   1   8
ATOM      8  C   UNL     1      22.675   9.209  38.971  1.00  0.00     0.000 C 
BRANCH   8   9
ATOM      9  C   UNL     1      22.389   9.713  37.551  1.00  0.00     0.000 C 
BRANCH   9  10
ATOM     10  C   UNL     1      20.878   9.817  37.297  1.00  0.00     0.006 C 
BRANCH  10  11
ATOM     11  C   UNL     1      20.542   9.868  35.801  1.00  0.00     0.053 C 
BRANCH  11  12
ATOM     12  C   UNL     1      20.216   8.510  35.259  1.00  0.00     0.041 C 
ATOM     13  O   UNL     1      21.103   7.828  34.681  1.00  0.00    -0.550 OA
ATOM     14  O   UNL     1      18.940   7.985  35.420  1.00  0.00    -0.550 OA
ENDBRANCH  11  12
ENDBRANCH  10  11
ENDBRANCH   9  10
ENDBRANCH   8   9
ENDBRANCH   1   8
TORSDOF 9
ENDMDL
MODEL 7
REMARK VINA RESULT:    -3.161      9.860     11.916
REMARK INTER + INTRA:          -5.594
REMARK INTER:                  -4.596
REMARK INTRA:                  -0.998
REMARK UNBOUND:                -0.770
REMARK SMILES O=C([O-])CCCCCCCCC(=O)[O-]
REMARK SMILES IDX 7 1 6 2 5 3 4 4 2 5 1 6 3 7 8 8 9 9 10 10 11 11 12 12 13 13
REMARK SMILES IDX 14 14
REMARK H PARENT
REMARK Flexibility Score: inf
ROOT
ATOM      1  C   UNL     1      21.978   8.988  39.082  1.00  0.00     0.000 C 
ENDROOT
BRANCH   1   2
ATOM      2  C   UNL     1      20.989   9.561  38.061  1.00  0.00     0.000 C 
BRANCH   2   3
ATOM      3  C   UNL     1      21.637   9.679  36.673  1.00  0.00     0.006 C 
BRANCH   3   4
ATOM      4  C   UNL     1      20.594   9.747  35.549  1.00  0.00     0.053 C 
BRANCH   4   5
ATOM      5  C   UNL     1      20.050   8.392  35.212  1.00  0.00     0.041 C 
ATOM      6  O   UNL     1      20.722   7.599  34.500  1.00  0.00    -0.550 OA
ATOM      7  O   UNL     1      18.788   8.018  35.655  1.00  0.00    -0.550 OA
ENDBRANCH   4   5
ENDBRANCH   3   4
ENDBRANCH   2   3
ENDBRANCH   1   2
BRANCH   1   8
ATOM      8  C   UNL     1      22.038   7.459  38.992  1.00  0.00     0.000 C 
BRANCH   8   9
ATOM      9  C   UNL     1      20.630   6.855  38.930  1.00  0.00     0.000 C 
BRANCH   9  10
ATOM     10  C   UNL     1      20.542   5.774  37.843  1.00  0.00     0.006 C 
BRANCH  10  11
ATOM     11  C   UNL     1      21.869   5.588  37.097  1.00  0.00     0.053 C 
BRANCH  11  12
ATOM     12  C   UNL     1      22.339   4.167  37.145  1.00  0.00     0.041 C 
ATOM     13  O   UNL     1      22.509   3.517  36.080  1.00  0.00    -0.550 OA
ATOM     14  O   UNL     1      22.618   3.569  38.367  1.00  0.00    -0.550 OA
ENDBRANCH  11  12
ENDBRANCH  10  11
ENDBRANCH   9  10
ENDBRANCH   8   9
ENDBRANCH   1   8
TORSDOF 9
ENDMDL
MODEL 8
REMARK VINA RESULT:    -3.105      9.906     11.518
REMARK INTER + INTRA:          -5.509
REMARK INTER:                  -4.580
REMARK INTRA:                  -0.928
REMARK UNBOUND:                -0.770
REMARK SMILES O=C([O-])CCCCCCCCC(=O)[O-]
REMARK SMILES IDX 7 1 6 2 5 3 4 4 2 5 1 6 3 7 8 8 9 9 10 10 11 11 12 12 13 13
REMARK SMILES IDX 14 14
REMARK H PARENT
REMARK Flexibility Score: inf
ROOT
ATOM      1  C   UNL     1      21.089   5.137  36.938  1.00  0.00     0.000 C 
ENDROOT
BRANCH   1   2
ATOM      2  C   UNL     1      21.639   4.995  35.513  1.00  0.00     0.000 C 
BRANCH   2   3
ATOM      3  C   UNL     1      21.193   6.170  34.631  1.00  0.00     0.006 C 
BRANCH   3   4
ATOM      4  C   UNL     1      21.359   7.522  35.337  1.00  0.00     0.053 C 
BRANCH   4   5
ATOM      5  C   UNL     1      20.115   8.352  35.252  1.00  0.00     0.041 C 
ATOM      6  O   UNL     1      20.195   9.606  35.156  1.00  0.00    -0.550 OA
ATOM      7  O   UNL     1      18.867   7.745  35.312  1.00  0.00    -0.550 OA
ENDBRANCH   4   5
ENDBRANCH   3   4
ENDBRANCH   2   3
ENDBRANCH   1   2
BRANCH   1   8
ATOM      8  C   UNL     1      22.133   4.712  37.976  1.00  0.00     0.000 C 
BRANCH   8   9
ATOM      9  C   UNL     1      21.994   5.533  39.264  1.00  0.00     0.000 C 
BRANCH   9  10
ATOM     10  C   UNL     1      22.202   7.030  38.990  1.00  0.00     0.006 C 
BRANCH  10  11
ATOM     11  C   UNL     1      20.994   7.873  39.418  1.00  0.00     0.053 C 
BRANCH  11  12
ATOM     12  C   UNL     1      20.931   9.170  38.672  1.00  0.00     0.041 C 
ATOM     13  O   UNL     1      21.974   9.666  38.169  1.00  0.00    -0.550 OA
ATOM     14  O   UNL     1      19.713   9.817  38.504  1.00  0.00    -0.550 OA
ENDBRANCH  11  12
ENDBRANCH  10  11
ENDBRANCH   9  10
ENDBRANCH   8   9
ENDBRANCH   1   8
TORSDOF 9
ENDMDL
MODEL 9
REMARK VINA RESULT:    -3.072      2.660      3.393
REMARK INTER + INTRA:          -5.458
REMARK INTER:                  -4.955
REMARK INTRA:                  -0.503
REMARK UNBOUND:                -0.770
REMARK SMILES O=C([O-])CCCCCCCCC(=O)[O-]
REMARK SMILES IDX 7 1 6 2 5 3 4 4 2 5 1 6 3 7 8 8 9 9 10 10 11 11 12 12 13 13
REMARK SMILES IDX 14 14
REMARK H PARENT
REMARK Flexibility Score: inf
ROOT
ATOM      1  C   UNL     1      23.554   5.063  26.971  1.00  0.00     0.000 C 
ENDROOT
BRANCH   1   2
ATOM      2  C   UNL     1      23.480   3.552  26.721  1.00  0.00     0.000 C 
BRANCH   2   3
ATOM      3  C   UNL     1      22.867   2.823  27.926  1.00  0.00     0.006 C 
BRANCH   3   4
ATOM      4  C   UNL     1      22.012   3.755  28.795  1.00  0.00     0.053 C 
BRANCH   4   5
ATOM      5  C   UNL     1      21.980   3.309  30.225  1.00  0.00     0.041 C 
ATOM      6  O   UNL     1      21.279   3.932  31.066  1.00  0.00    -0.550 OA
ATOM      7  O   UNL     1      22.750   2.229  30.635  1.00  0.00    -0.550 OA
ENDBRANCH   4   5
ENDBRANCH   3   4
ENDBRANCH   2   3
ENDBRANCH   1   2
BRANCH   1   8
ATOM      8  C   UNL     1      24.950   5.606  26.651  1.00  0.00     0.000 C 
BRANCH   8   9
ATOM      9  C   UNL     1      24.864   6.965  25.946  1.00  0.00     0.000 C 
BRANCH   9  10
ATOM     10  C   UNL     1      25.868   7.961  26.546  1.00  0.00     0.006 C 
BRANCH  10  11
ATOM     11  C   UNL     1      26.167   7.669  28.022  1.00  0.00     0.053 C 
BRANCH  11  12
ATOM     12  C   UNL     1      25.287   8.468  28.934  1.00  0.00     0.041 C 
ATOM     13  O   UNL     1      25.462   9.708  29.060  1.00  0.00    -0.550 OA
ATOM     14  O   UNL     1      24.253   7.846  29.622  1.00  0.00    -0.550 OA
ENDBRANCH  11  12
ENDBRANCH  10  11
ENDBRANCH   9  10
ENDBRANCH   8   9
ENDBRANCH   1   8
TORSDOF 9
ENDMDL
