MODEL 1
REMARK VINA RESULT:    -5.901      0.000      0.000
REMARK INTER + INTRA:          -7.484
REMARK INTER:                  -7.108
REMARK INTRA:                  -0.376
REMARK UNBOUND:                -0.376
REMARK SMILES Oc1cc(O)c2c(c1)O[C@H](c1ccc(O)c(O)c1)[C@H](O)C2
REMARK SMILES IDX 21 1 19 2 10 3 9 4 7 5 8 6 2 7 3 8 4 9 6 10 20 11 11 13
REMARK SMILES IDX 18 14 12 15 16 16 13 17 14 18 17 19 15 21 5 23 1 25
REMARK H PARENT 20 12 17 20 15 22 5 24 1 26
REMARK Flexibility Score: inf
ROOT
ATOM      1  C   UNL     1      -3.035  19.380  28.988  1.00  0.00     0.079 C 
ATOM      2  C   UNL     1      -1.672  20.086  28.842  1.00  0.00     0.164 C 
ATOM      3  C   UNL     1      -0.674  19.483  29.844  1.00  0.00     0.232 C 
ATOM      4  O   UNL     1      -1.183  19.605  31.172  1.00  0.00    -0.482 OA
ATOM      5  C   UNL     1      -2.536  19.408  31.468  1.00  0.00     0.131 A 
ATOM      6  C   UNL     1      -2.938  19.351  32.805  1.00  0.00     0.093 A 
ATOM      7  C   UNL     1      -4.278  19.139  33.130  1.00  0.00     0.122 A 
ATOM      8  C   UNL     1      -5.224  18.974  32.112  1.00  0.00     0.092 A 
ATOM      9  C   UNL     1      -4.840  19.027  30.767  1.00  0.00     0.126 A 
ATOM     10  C   UNL     1      -3.490  19.286  30.432  1.00  0.00     0.039 A 
ENDROOT
BRANCH   2  11
ATOM     11  O   UNL     1      -1.819  21.463  29.084  1.00  0.00    -0.389 OA
ATOM     12  H   UNL     1      -2.489  21.798  28.432  1.00  0.00     0.211 HD
ENDBRANCH   2  11
BRANCH   3  13
ATOM     13  C   UNL     1       0.684  20.138  29.734  1.00  0.00    -0.001 A 
ATOM     14  C   UNL     1       1.316  20.637  30.886  1.00  0.00     0.057 A 
ATOM     15  C   UNL     1       1.360  20.201  28.503  1.00  0.00     0.012 A 
ATOM     16  C   UNL     1       2.591  21.216  30.807  1.00  0.00     0.157 A 
ATOM     17  C   UNL     1       2.630  20.777  28.422  1.00  0.00     0.050 A 
ATOM     18  C   UNL     1       3.249  21.288  29.567  1.00  0.00     0.157 A 
BRANCH  16  19
ATOM     19  O   UNL     1       3.206  21.716  31.953  1.00  0.00    -0.504 OA
ATOM     20  H   UNL     1       2.693  21.845  32.817  1.00  0.00     0.293 HD
ENDBRANCH  16  19
BRANCH  18  21
ATOM     21  O   UNL     1       4.517  21.859  29.455  1.00  0.00    -0.504 OA
ATOM     22  H   UNL     1       4.658  22.780  29.058  1.00  0.00     0.293 HD
ENDBRANCH  18  21
ENDBRANCH   3  13
BRANCH   9  23
ATOM     23  O   UNL     1      -5.820  18.809  29.796  1.00  0.00    -0.507 OA
ATOM     24  H   UNL     1      -6.040  17.895  29.423  1.00  0.00     0.293 HD
ENDBRANCH   9  23
BRANCH   7  25
ATOM     25  O   UNL     1      -4.660  19.087  34.469  1.00  0.00    -0.508 OA
ATOM     26  H   UNL     1      -4.432  19.834  35.115  1.00  0.00     0.293 HD
ENDBRANCH   7  25
TORSDOF 6
ENDMDL
MODEL 2
REMARK VINA RESULT:    -5.843      4.459      7.528
REMARK INTER + INTRA:          -7.415
REMARK INTER:                  -7.025
REMARK INTRA:                  -0.390
REMARK UNBOUND:                -0.376
REMARK SMILES Oc1cc(O)c2c(c1)O[C@H](c1ccc(O)c(O)c1)[C@H](O)C2
REMARK SMILES IDX 21 1 19 2 10 3 9 4 7 5 8 6 2 7 3 8 4 9 6 10 20 11 11 13
REMARK SMILES IDX 18 14 12 15 16 16 13 17 14 18 17 19 15 21 5 23 1 25
REMARK H PARENT 20 12 17 20 15 22 5 24 1 26
REMARK Flexibility Score: inf
ROOT
ATOM      1  C   UNL     1      -2.341  18.691  27.480  1.00  0.00     0.079 C 
ATOM      2  C   UNL     1      -2.695  17.324  26.863  1.00  0.00     0.164 C 
ATOM      3  C   UNL     1      -4.099  16.901  27.328  1.00  0.00     0.232 C 
ATOM      4  O   UNL     1      -4.147  16.857  28.753  1.00  0.00    -0.482 OA
ATOM      5  C   UNL     1      -3.505  17.814  29.548  1.00  0.00     0.131 A 
ATOM      6  C   UNL     1      -3.748  17.829  30.923  1.00  0.00     0.093 A 
ATOM      7  C   UNL     1      -3.135  18.782  31.737  1.00  0.00     0.122 A 
ATOM      8  C   UNL     1      -2.281  19.735  31.171  1.00  0.00     0.092 A 
ATOM      9  C   UNL     1      -2.026  19.736  29.795  1.00  0.00     0.126 A 
ATOM     10  C   UNL     1      -2.610  18.744  28.971  1.00  0.00     0.039 A 
ENDROOT
BRANCH   2  11
ATOM     11  O   UNL     1      -1.751  16.361  27.260  1.00  0.00    -0.389 OA
ATOM     12  H   UNL     1      -0.909  16.569  26.776  1.00  0.00     0.211 HD
ENDBRANCH   2  11
BRANCH   3  13
ATOM     13  C   UNL     1      -4.498  15.566  26.741  1.00  0.00    -0.001 A 
ATOM     14  C   UNL     1      -4.907  14.524  27.589  1.00  0.00     0.057 A 
ATOM     15  C   UNL     1      -4.528  15.367  25.350  1.00  0.00     0.012 A 
ATOM     16  C   UNL     1      -5.313  13.290  27.059  1.00  0.00     0.157 A 
ATOM     17  C   UNL     1      -4.932  14.140  24.820  1.00  0.00     0.050 A 
ATOM     18  C   UNL     1      -5.323  13.098  25.666  1.00  0.00     0.157 A 
BRANCH  16  19
ATOM     19  O   UNL     1      -5.709  12.258  27.909  1.00  0.00    -0.504 OA
ATOM     20  H   UNL     1      -5.116  11.935  28.663  1.00  0.00     0.293 HD
ENDBRANCH  16  19
BRANCH  18  21
ATOM     21  O   UNL     1      -5.721  11.883  25.108  1.00  0.00    -0.504 OA
ATOM     22  H   UNL     1      -5.606  11.681  24.123  1.00  0.00     0.293 HD
ENDBRANCH  18  21
ENDBRANCH   3  13
BRANCH   9  23
ATOM     23  O   UNL     1      -1.202  20.740  29.280  1.00  0.00    -0.507 OA
ATOM     24  H   UNL     1      -0.770  20.691  28.368  1.00  0.00     0.293 HD
ENDBRANCH   9  23
BRANCH   7  25
ATOM     25  O   UNL     1      -3.388  18.779  33.107  1.00  0.00    -0.508 OA
ATOM     26  H   UNL     1      -3.816  19.573  33.568  1.00  0.00     0.293 HD
ENDBRANCH   7  25
TORSDOF 6
ENDMDL
MODEL 3
REMARK VINA RESULT:    -5.718      4.448      7.045
REMARK INTER + INTRA:          -7.263
REMARK INTER:                  -6.918
REMARK INTRA:                  -0.346
REMARK UNBOUND:                -0.376
REMARK SMILES Oc1cc(O)c2c(c1)O[C@H](c1ccc(O)c(O)c1)[C@H](O)C2
REMARK SMILES IDX 21 1 19 2 10 3 9 4 7 5 8 6 2 7 3 8 4 9 6 10 20 11 11 13
REMARK SMILES IDX 18 14 12 15 16 16 13 17 14 18 17 19 15 21 5 23 1 25
REMARK H PARENT 20 12 17 20 15 22 5 24 1 26
REMARK Flexibility Score: inf
ROOT
ATOM      1  C   UNL     1      -4.933  18.321  27.040  1.00  0.00     0.079 C 
ATOM      2  C   UNL     1      -5.035  18.737  28.521  1.00  0.00     0.164 C 
ATOM      3  C   UNL     1      -4.443  17.627  29.406  1.00  0.00     0.232 C 
ATOM      4  O   UNL     1      -5.124  16.396  29.162  1.00  0.00    -0.482 OA
ATOM      5  C   UNL     1      -5.515  16.006  27.877  1.00  0.00     0.131 A 
ATOM      6  C   UNL     1      -6.001  14.712  27.678  1.00  0.00     0.093 A 
ATOM      7  C   UNL     1      -6.383  14.290  26.404  1.00  0.00     0.122 A 
ATOM      8  C   UNL     1      -6.269  15.165  25.317  1.00  0.00     0.092 A 
ATOM      9  C   UNL     1      -5.784  16.465  25.497  1.00  0.00     0.126 A 
ATOM     10  C   UNL     1      -5.437  16.913  26.795  1.00  0.00     0.039 A 
ENDROOT
BRANCH   2  11
ATOM     11  O   UNL     1      -6.381  18.955  28.864  1.00  0.00    -0.389 OA
ATOM     12  H   UNL     1      -6.403  19.128  29.841  1.00  0.00     0.211 HD
ENDBRANCH   2  11
BRANCH   3  13
ATOM     13  C   UNL     1      -4.513  17.991  30.871  1.00  0.00    -0.001 A 
ATOM     14  C   UNL     1      -3.678  19.000  31.382  1.00  0.00     0.057 A 
ATOM     15  C   UNL     1      -5.447  17.380  31.725  1.00  0.00     0.012 A 
ATOM     16  C   UNL     1      -3.754  19.374  32.731  1.00  0.00     0.157 A 
ATOM     17  C   UNL     1      -5.525  17.752  33.069  1.00  0.00     0.050 A 
ATOM     18  C   UNL     1      -4.682  18.744  33.579  1.00  0.00     0.157 A 
BRANCH  16  19
ATOM     19  O   UNL     1      -2.917  20.370  33.231  1.00  0.00    -0.504 OA
ATOM     20  H   UNL     1      -2.472  20.284  34.137  1.00  0.00     0.293 HD
ENDBRANCH  16  19
BRANCH  18  21
ATOM     21  O   UNL     1      -4.782  19.093  34.926  1.00  0.00    -0.504 OA
ATOM     22  H   UNL     1      -4.170  19.780  35.350  1.00  0.00     0.293 HD
ENDBRANCH  18  21
ENDBRANCH   3  13
BRANCH   9  23
ATOM     23  O   UNL     1      -5.649  17.278  24.369  1.00  0.00    -0.507 OA
ATOM     24  H   UNL     1      -4.785  17.374  23.853  1.00  0.00     0.293 HD
ENDBRANCH   9  23
BRANCH   7  25
ATOM     25  O   UNL     1      -6.867  12.996  26.225  1.00  0.00    -0.508 OA
ATOM     26  H   UNL     1      -7.537  12.777  25.497  1.00  0.00     0.293 HD
ENDBRANCH   7  25
TORSDOF 6
ENDMDL
MODEL 4
REMARK VINA RESULT:    -5.708      2.028      6.643
REMARK INTER + INTRA:          -7.252
REMARK INTER:                  -7.180
REMARK INTRA:                  -0.072
REMARK UNBOUND:                -0.376
REMARK SMILES Oc1cc(O)c2c(c1)O[C@H](c1ccc(O)c(O)c1)[C@H](O)C2
REMARK SMILES IDX 21 1 19 2 10 3 9 4 7 5 8 6 2 7 3 8 4 9 6 10 20 11 11 13
REMARK SMILES IDX 18 14 12 15 16 16 13 17 14 18 17 19 15 21 5 23 1 25
REMARK H PARENT 20 12 17 20 15 22 5 24 1 26
REMARK Flexibility Score: inf
ROOT
ATOM      1  C   UNL     1       0.439  20.047  28.763  1.00  0.00     0.079 C 
ATOM      2  C   UNL     1      -0.645  18.951  28.735  1.00  0.00     0.164 C 
ATOM      3  C   UNL     1      -1.642  19.189  29.882  1.00  0.00     0.232 C 
ATOM      4  O   UNL     1      -0.951  19.206  31.131  1.00  0.00    -0.482 OA
ATOM      5  C   UNL     1       0.301  19.812  31.278  1.00  0.00     0.131 A 
ATOM      6  C   UNL     1       0.835  19.965  32.559  1.00  0.00     0.093 A 
ATOM      7  C   UNL     1       2.075  20.581  32.738  1.00  0.00     0.122 A 
ATOM      8  C   UNL     1       2.782  21.056  31.628  1.00  0.00     0.092 A 
ATOM      9  C   UNL     1       2.262  20.912  30.336  1.00  0.00     0.126 A 
ATOM     10  C   UNL     1       1.027  20.249  30.146  1.00  0.00     0.039 A 
ENDROOT
BRANCH   2  11
ATOM     11  O   UNL     1      -0.049  17.686  28.874  1.00  0.00    -0.389 OA
ATOM     12  H   UNL     1       0.808  17.824  29.354  1.00  0.00     0.211 HD
ENDBRANCH   2  11
BRANCH   3  13
ATOM     13  C   UNL     1      -2.733  18.142  29.892  1.00  0.00    -0.001 A 
ATOM     14  C   UNL     1      -3.479  17.921  31.062  1.00  0.00     0.057 A 
ATOM     15  C   UNL     1      -3.060  17.426  28.728  1.00  0.00     0.012 A 
ATOM     16  C   UNL     1      -4.518  16.978  31.079  1.00  0.00     0.157 A 
ATOM     17  C   UNL     1      -4.094  16.488  28.742  1.00  0.00     0.050 A 
ATOM     18  C   UNL     1      -4.824  16.257  29.912  1.00  0.00     0.157 A 
BRANCH  16  19
ATOM     19  O   UNL     1      -5.247  16.760  32.247  1.00  0.00    -0.504 OA
ATOM     20  H   UNL     1      -5.316  17.467  32.969  1.00  0.00     0.293 HD
ENDBRANCH  16  19
BRANCH  18  21
ATOM     21  O   UNL     1      -5.850  15.312  29.896  1.00  0.00    -0.504 OA
ATOM     22  H   UNL     1      -6.709  15.460  29.381  1.00  0.00     0.293 HD
ENDBRANCH  18  21
ENDBRANCH   3  13
BRANCH   9  23
ATOM     23  O   UNL     1       2.991  21.447  29.272  1.00  0.00    -0.507 OA
ATOM     24  H   UNL     1       2.561  21.840  28.445  1.00  0.00     0.293 HD
ENDBRANCH   9  23
BRANCH   7  25
ATOM     25  O   UNL     1       2.593  20.723  34.024  1.00  0.00    -0.508 OA
ATOM     26  H   UNL     1       3.343  20.131  34.360  1.00  0.00     0.293 HD
ENDBRANCH   7  25
TORSDOF 6
ENDMDL
MODEL 5
REMARK VINA RESULT:    -5.682      9.089     10.121
REMARK INTER + INTRA:          -7.221
REMARK INTER:                  -6.850
REMARK INTRA:                  -0.371
REMARK UNBOUND:                -0.376
REMARK SMILES Oc1cc(O)c2c(c1)O[C@H](c1ccc(O)c(O)c1)[C@H](O)C2
REMARK SMILES IDX 21 1 19 2 10 3 9 4 7 5 8 6 2 7 3 8 4 9 6 10 20 11 11 13
REMARK SMILES IDX 18 14 12 15 16 16 13 17 14 18 17 19 15 21 5 23 1 25
REMARK H PARENT 20 12 17 20 15 22 5 24 1 26
REMARK Flexibility Score: inf
ROOT
ATOM      1  C   UNL     1      -0.641  14.230  24.387  1.00  0.00     0.079 C 
ATOM      2  C   UNL     1       0.476  13.452  25.110  1.00  0.00     0.164 C 
ATOM      3  C   UNL     1       0.322  11.949  24.823  1.00  0.00     0.232 C 
ATOM      4  O   UNL     1      -0.971  11.506  25.234  1.00  0.00    -0.482 OA
ATOM      5  C   UNL     1      -2.119  12.284  25.041  1.00  0.00     0.131 A 
ATOM      6  C   UNL     1      -3.372  11.718  25.285  1.00  0.00     0.093 A 
ATOM      7  C   UNL     1      -4.534  12.464  25.085  1.00  0.00     0.122 A 
ATOM      8  C   UNL     1      -4.443  13.784  24.626  1.00  0.00     0.092 A 
ATOM      9  C   UNL     1      -3.196  14.367  24.375  1.00  0.00     0.126 A 
ATOM     10  C   UNL     1      -2.013  13.629  24.619  1.00  0.00     0.039 A 
ENDROOT
BRANCH   2  11
ATOM     11  O   UNL     1       0.400  13.685  26.495  1.00  0.00    -0.389 OA
ATOM     12  H   UNL     1      -0.210  14.457  26.622  1.00  0.00     0.211 HD
ENDBRANCH   2  11
BRANCH   3  13
ATOM     13  C   UNL     1       1.402  11.142  25.506  1.00  0.00    -0.001 A 
ATOM     14  C   UNL     1       2.754  11.456  25.289  1.00  0.00     0.057 A 
ATOM     15  C   UNL     1       1.075  10.116  26.410  1.00  0.00     0.012 A 
ATOM     16  C   UNL     1       3.767  10.739  25.942  1.00  0.00     0.157 A 
ATOM     17  C   UNL     1       2.083   9.401  27.062  1.00  0.00     0.050 A 
ATOM     18  C   UNL     1       3.428   9.705  26.832  1.00  0.00     0.157 A 
BRANCH  16  19
ATOM     19  O   UNL     1       5.106  11.053  25.714  1.00  0.00    -0.504 OA
ATOM     20  H   UNL     1       5.625  10.637  24.950  1.00  0.00     0.293 HD
ENDBRANCH  16  19
BRANCH  18  21
ATOM     21  O   UNL     1       4.413   8.973  27.496  1.00  0.00    -0.504 OA
ATOM     22  H   UNL     1       4.745   8.081  27.149  1.00  0.00     0.293 HD
ENDBRANCH  18  21
ENDBRANCH   3  13
BRANCH   9  23
ATOM     23  O   UNL     1      -3.170  15.671  23.875  1.00  0.00    -0.507 OA
ATOM     24  H   UNL     1      -3.989  16.261  23.814  1.00  0.00     0.293 HD
ENDBRANCH   9  23
BRANCH   7  25
ATOM     25  O   UNL     1      -5.775  11.884  25.336  1.00  0.00    -0.508 OA
ATOM     26  H   UNL     1      -5.855  10.956  25.735  1.00  0.00     0.293 HD
ENDBRANCH   7  25
TORSDOF 6
ENDMDL
MODEL 6
REMARK VINA RESULT:    -5.627      4.580      7.122
REMARK INTER + INTRA:          -7.154
REMARK INTER:                  -6.765
REMARK INTRA:                  -0.389
REMARK UNBOUND:                -0.376
REMARK SMILES Oc1cc(O)c2c(c1)O[C@H](c1ccc(O)c(O)c1)[C@H](O)C2
REMARK SMILES IDX 21 1 19 2 10 3 9 4 7 5 8 6 2 7 3 8 4 9 6 10 20 11 11 13
REMARK SMILES IDX 18 14 12 15 16 16 13 17 14 18 17 19 15 21 5 23 1 25
REMARK H PARENT 20 12 17 20 15 22 5 24 1 26
REMARK Flexibility Score: inf
ROOT
ATOM      1  C   UNL     1      -6.018  15.095  27.683  1.00  0.00     0.079 C 
ATOM      2  C   UNL     1      -5.465  15.798  28.938  1.00  0.00     0.164 C 
ATOM      3  C   UNL     1      -4.578  16.980  28.513  1.00  0.00     0.232 C 
ATOM      4  O   UNL     1      -3.525  16.519  27.668  1.00  0.00    -0.482 OA
ATOM      5  C   UNL     1      -3.730  15.533  26.697  1.00  0.00     0.131 A 
ATOM      6  C   UNL     1      -2.715  15.263  25.777  1.00  0.00     0.093 A 
ATOM      7  C   UNL     1      -2.898  14.297  24.787  1.00  0.00     0.122 A 
ATOM      8  C   UNL     1      -4.109  13.601  24.710  1.00  0.00     0.092 A 
ATOM      9  C   UNL     1      -5.139  13.857  25.623  1.00  0.00     0.126 A 
ATOM     10  C   UNL     1      -4.941  14.805  26.656  1.00  0.00     0.039 A 
ENDROOT
BRANCH   2  11
ATOM     11  O   UNL     1      -4.714  14.888  29.703  1.00  0.00    -0.389 OA
ATOM     12  H   UNL     1      -4.307  15.406  30.446  1.00  0.00     0.211 HD
ENDBRANCH   2  11
BRANCH   3  13
ATOM     13  C   UNL     1      -4.016  17.710  29.712  1.00  0.00    -0.001 A 
ATOM     14  C   UNL     1      -2.630  17.908  29.824  1.00  0.00     0.057 A 
ATOM     15  C   UNL     1      -4.866  18.252  30.693  1.00  0.00     0.012 A 
ATOM     16  C   UNL     1      -2.095  18.613  30.913  1.00  0.00     0.157 A 
ATOM     17  C   UNL     1      -4.335  18.954  31.777  1.00  0.00     0.050 A 
ATOM     18  C   UNL     1      -2.954  19.137  31.895  1.00  0.00     0.157 A 
BRANCH  16  19
ATOM     19  O   UNL     1      -0.718  18.798  31.019  1.00  0.00    -0.504 OA
ATOM     20  H   UNL     1      -0.167  18.298  31.707  1.00  0.00     0.293 HD
ENDBRANCH  16  19
BRANCH  18  21
ATOM     21  O   UNL     1      -2.453  19.841  32.990  1.00  0.00    -0.504 OA
ATOM     22  H   UNL     1      -1.655  19.514  33.520  1.00  0.00     0.293 HD
ENDBRANCH  18  21
ENDBRANCH   3  13
BRANCH   9  23
ATOM     23  O   UNL     1      -6.342  13.165  25.469  1.00  0.00    -0.507 OA
ATOM     24  H   UNL     1      -7.214  13.465  25.883  1.00  0.00     0.293 HD
ENDBRANCH   9  23
BRANCH   7  25
ATOM     25  O   UNL     1      -1.873  14.040  23.879  1.00  0.00    -0.508 OA
ATOM     26  H   UNL     1      -1.971  14.257  22.894  1.00  0.00     0.293 HD
ENDBRANCH   7  25
TORSDOF 6
ENDMDL
MODEL 7
REMARK VINA RESULT:    -5.623      1.765      6.790
REMARK INTER + INTRA:          -7.150
REMARK INTER:                  -6.864
REMARK INTRA:                  -0.286
REMARK UNBOUND:                -0.376
REMARK SMILES Oc1cc(O)c2c(c1)O[C@H](c1ccc(O)c(O)c1)[C@H](O)C2
REMARK SMILES IDX 21 1 19 2 10 3 9 4 7 5 8 6 2 7 3 8 4 9 6 10 20 11 11 13
REMARK SMILES IDX 18 14 12 15 16 16 13 17 14 18 17 19 15 21 5 23 1 25
REMARK H PARENT 20 12 17 20 15 22 5 24 1 26
REMARK Flexibility Score: inf
ROOT
ATOM      1  C   UNL     1       1.587  19.826  29.714  1.00  0.00     0.079 C 
ATOM      2  C   UNL     1       0.141  19.314  29.871  1.00  0.00     0.164 C 
ATOM      3  C   UNL     1      -0.560  20.097  30.994  1.00  0.00     0.232 C 
ATOM      4  O   UNL     1       0.174  19.963  32.211  1.00  0.00    -0.482 OA
ATOM      5  C   UNL     1       1.573  19.979  32.240  1.00  0.00     0.131 A 
ATOM      6  C   UNL     1       2.227  20.039  33.472  1.00  0.00     0.093 A 
ATOM      7  C   UNL     1       3.620  20.072  33.531  1.00  0.00     0.122 A 
ATOM      8  C   UNL     1       4.367  20.056  32.347  1.00  0.00     0.092 A 
ATOM      9  C   UNL     1       3.730  19.998  31.103  1.00  0.00     0.126 A 
ATOM     10  C   UNL     1       2.318  19.918  31.040  1.00  0.00     0.039 A 
ENDROOT
BRANCH   2  11
ATOM     11  O   UNL     1       0.150  17.943  30.178  1.00  0.00    -0.389 OA
ATOM     12  H   UNL     1      -0.799  17.657  30.242  1.00  0.00     0.211 HD
ENDBRANCH   2  11
BRANCH   3  13
ATOM     13  C   UNL     1      -1.988  19.637  31.182  1.00  0.00    -0.001 A 
ATOM     14  C   UNL     1      -2.535  19.561  32.474  1.00  0.00     0.057 A 
ATOM     15  C   UNL     1      -2.804  19.342  30.076  1.00  0.00     0.012 A 
ATOM     16  C   UNL     1      -3.868  19.170  32.663  1.00  0.00     0.157 A 
ATOM     17  C   UNL     1      -4.132  18.952  30.262  1.00  0.00     0.050 A 
ATOM     18  C   UNL     1      -4.669  18.862  31.550  1.00  0.00     0.157 A 
BRANCH  16  19
ATOM     19  O   UNL     1      -4.400  19.090  33.949  1.00  0.00    -0.504 OA
ATOM     20  H   UNL     1      -3.840  19.298  34.768  1.00  0.00     0.293 HD
ENDBRANCH  16  19
BRANCH  18  21
ATOM     21  O   UNL     1      -5.999  18.468  31.704  1.00  0.00    -0.504 OA
ATOM     22  H   UNL     1      -6.293  17.507  31.581  1.00  0.00     0.293 HD
ENDBRANCH  18  21
ENDBRANCH   3  13
BRANCH   9  23
ATOM     23  O   UNL     1       4.525  20.031  29.955  1.00  0.00    -0.507 OA
ATOM     24  H   UNL     1       4.506  20.790  29.287  1.00  0.00     0.293 HD
ENDBRANCH   9  23
BRANCH   7  25
ATOM     25  O   UNL     1       4.255  20.129  34.770  1.00  0.00    -0.508 OA
ATOM     26  H   UNL     1       3.728  20.162  35.634  1.00  0.00     0.293 HD
ENDBRANCH   7  25
TORSDOF 6
ENDMDL
MODEL 8
REMARK VINA RESULT:    -5.546     11.962     12.706
REMARK INTER + INTRA:          -7.057
REMARK INTER:                  -6.706
REMARK INTRA:                  -0.351
REMARK UNBOUND:                -0.376
REMARK SMILES Oc1cc(O)c2c(c1)O[C@H](c1ccc(O)c(O)c1)[C@H](O)C2
REMARK SMILES IDX 21 1 19 2 10 3 9 4 7 5 8 6 2 7 3 8 4 9 6 10 20 11 11 13
REMARK SMILES IDX 18 14 12 15 16 16 13 17 14 18 17 19 15 21 5 23 1 25
REMARK H PARENT 20 12 17 20 15 22 5 24 1 26
REMARK Flexibility Score: inf
ROOT
ATOM      1  C   UNL     1      -1.563   8.913  33.151  1.00  0.00     0.079 C 
ATOM      2  C   UNL     1      -0.603   9.270  31.999  1.00  0.00     0.164 C 
ATOM      3  C   UNL     1      -0.918   8.388  30.779  1.00  0.00     0.232 C 
ATOM      4  O   UNL     1      -0.814   7.010  31.135  1.00  0.00    -0.482 OA
ATOM      5  C   UNL     1      -1.265   6.526  32.368  1.00  0.00     0.131 A 
ATOM      6  C   UNL     1      -1.313   5.146  32.580  1.00  0.00     0.093 A 
ATOM      7  C   UNL     1      -1.774   4.635  33.793  1.00  0.00     0.122 A 
ATOM      8  C   UNL     1      -2.200   5.509  34.800  1.00  0.00     0.092 A 
ATOM      9  C   UNL     1      -2.159   6.894  34.606  1.00  0.00     0.126 A 
ATOM     10  C   UNL     1      -1.651   7.419  33.394  1.00  0.00     0.039 A 
ENDROOT
BRANCH   2  11
ATOM     11  O   UNL     1       0.727   9.066  32.405  1.00  0.00    -0.389 OA
ATOM     12  H   UNL     1       0.740   8.226  32.934  1.00  0.00     0.211 HD
ENDBRANCH   2  11
BRANCH   3  13
ATOM     13  C   UNL     1      -0.006   8.706  29.616  1.00  0.00    -0.001 A 
ATOM     14  C   UNL     1      -0.139   9.928  28.936  1.00  0.00     0.057 A 
ATOM     15  C   UNL     1       1.022   7.824  29.240  1.00  0.00     0.012 A 
ATOM     16  C   UNL     1       0.722  10.254  27.877  1.00  0.00     0.157 A 
ATOM     17  C   UNL     1       1.880   8.147  28.186  1.00  0.00     0.050 A 
ATOM     18  C   UNL     1       1.735   9.356  27.500  1.00  0.00     0.157 A 
BRANCH  16  19
ATOM     19  O   UNL     1       0.576  11.466  27.203  1.00  0.00    -0.504 OA
ATOM     20  H   UNL     1      -0.132  12.140  27.470  1.00  0.00     0.293 HD
ENDBRANCH  16  19
BRANCH  18  21
ATOM     21  O   UNL     1       2.606   9.651  26.451  1.00  0.00    -0.504 OA
ATOM     22  H   UNL     1       2.516  10.494  25.899  1.00  0.00     0.293 HD
ENDBRANCH  18  21
ENDBRANCH   3  13
BRANCH   9  23
ATOM     23  O   UNL     1      -2.640   7.715  35.628  1.00  0.00    -0.507 OA
ATOM     24  H   UNL     1      -3.619   7.933  35.754  1.00  0.00     0.293 HD
ENDBRANCH   9  23
BRANCH   7  25
ATOM     25  O   UNL     1      -1.813   3.256  33.987  1.00  0.00    -0.508 OA
ATOM     26  H   UNL     1      -1.014   2.749  34.350  1.00  0.00     0.293 HD
ENDBRANCH   7  25
TORSDOF 6
ENDMDL
MODEL 9
REMARK VINA RESULT:    -5.538     10.677     11.433
REMARK INTER + INTRA:          -7.047
REMARK INTER:                  -6.670
REMARK INTRA:                  -0.377
REMARK UNBOUND:                -0.376
REMARK SMILES Oc1cc(O)c2c(c1)O[C@H](c1ccc(O)c(O)c1)[C@H](O)C2
REMARK SMILES IDX 21 1 19 2 10 3 9 4 7 5 8 6 2 7 3 8 4 9 6 10 20 11 11 13
REMARK SMILES IDX 18 14 12 15 16 16 13 17 14 18 17 19 15 21 5 23 1 25
REMARK H PARENT 20 12 17 20 15 22 5 24 1 26
REMARK Flexibility Score: inf
ROOT
ATOM      1  C   UNL     1       0.185   7.159  31.916  1.00  0.00     0.079 C 
ATOM      2  C   UNL     1       0.282   7.519  30.420  1.00  0.00     0.164 C 
ATOM      3  C   UNL     1       1.078   8.825  30.259  1.00  0.00     0.232 C 
ATOM      4  O   UNL     1       0.456   9.869  31.007  1.00  0.00    -0.482 OA
ATOM      5  C   UNL     1      -0.099   9.647  32.272  1.00  0.00     0.131 A 
ATOM      6  C   UNL     1      -0.517  10.741  33.032  1.00  0.00     0.093 A 
ATOM      7  C   UNL     1      -1.059  10.551  34.304  1.00  0.00     0.122 A 
ATOM      8  C   UNL     1      -1.174   9.257  34.825  1.00  0.00     0.092 A 
ATOM      9  C   UNL     1      -0.760   8.148  34.078  1.00  0.00     0.126 A 
ATOM     10  C   UNL     1      -0.251   8.333  32.770  1.00  0.00     0.039 A 
ENDROOT
BRANCH   2  11
ATOM     11  O   UNL     1      -1.007   7.676  29.882  1.00  0.00    -0.389 OA
ATOM     12  H   UNL     1      -1.385   6.765  29.773  1.00  0.00     0.211 HD
ENDBRANCH   2  11
BRANCH   3  13
ATOM     13  C   UNL     1       1.209   9.218  28.805  1.00  0.00    -0.001 A 
ATOM     14  C   UNL     1       0.549  10.363  28.328  1.00  0.00     0.057 A 
ATOM     15  C   UNL     1       2.034   8.490  27.930  1.00  0.00     0.012 A 
ATOM     16  C   UNL     1       0.688  10.762  26.991  1.00  0.00     0.157 A 
ATOM     17  C   UNL     1       2.173   8.885  26.598  1.00  0.00     0.050 A 
ATOM     18  C   UNL     1       1.503  10.016  26.121  1.00  0.00     0.157 A 
BRANCH  16  19
ATOM     19  O   UNL     1       0.023  11.895  26.524  1.00  0.00    -0.504 OA
ATOM     20  H   UNL     1       0.354  12.409  25.716  1.00  0.00     0.293 HD
ENDBRANCH  16  19
BRANCH  18  21
ATOM     21  O   UNL     1       1.660  10.385  24.785  1.00  0.00    -0.504 OA
ATOM     22  H   UNL     1       0.920  10.267  24.104  1.00  0.00     0.293 HD
ENDBRANCH  18  21
ENDBRANCH   3  13
BRANCH   9  23
ATOM     23  O   UNL     1      -0.856   6.886  34.668  1.00  0.00    -0.507 OA
ATOM     24  H   UNL     1      -0.359   6.073  34.328  1.00  0.00     0.293 HD
ENDBRANCH   9  23
BRANCH   7  25
ATOM     25  O   UNL     1      -1.474  11.654  35.047  1.00  0.00    -0.508 OA
ATOM     26  H   UNL     1      -1.933  11.547  35.944  1.00  0.00     0.293 HD
ENDBRANCH   7  25
TORSDOF 6
ENDMDL
