MODEL 1
REMARK VINA RESULT:    -2.872      0.000      0.000
REMARK INTER + INTRA:          -3.196
REMARK INTER:                  -3.040
REMARK INTRA:                  -0.156
REMARK UNBOUND:                -0.156
REMARK SMILES C=C(C)[C@@H]1CC=C(C)CC1
REMARK SMILES IDX 8 1 7 2 6 3 5 4 4 5 10 6 9 7 2 8 1 9 3 10
REMARK H PARENT
REMARK Flexibility Score: inf
ROOT
ATOM      1  C   UNL     1      37.199  30.697   7.894  1.00  0.00     0.039 C 
ATOM      2  C   UNL     1      37.482  29.861   9.111  1.00  0.00    -0.077 C 
ATOM      3  C   UNL     1      37.301  28.531   9.075  1.00  0.00    -0.027 C 
ATOM      4  C   UNL     1      37.539  27.718  10.317  1.00  0.00     0.035 C 
ATOM      5  C   UNL     1      36.875  28.400  11.538  1.00  0.00     0.018 C 
ATOM      6  C   UNL     1      37.104  29.947  11.590  1.00  0.00     0.013 C 
ATOM      7  C   UNL     1      37.930  30.492  10.409  1.00  0.00     0.031 C 
ENDROOT
BRANCH   5   8
ATOM      8  C   UNL     1      37.299  27.720  12.832  1.00  0.00    -0.077 C 
ATOM      9  C   UNL     1      37.194  28.354  14.012  1.00  0.00     0.008 C 
ATOM     10  C   UNL     1      37.847  26.316  12.812  1.00  0.00     0.039 C 
ENDBRANCH   5   8
TORSDOF 1
ENDMDL
MODEL 2
REMARK VINA RESULT:    -2.676      9.062     10.851
REMARK INTER + INTRA:          -2.989
REMARK INTER:                  -2.834
REMARK INTRA:                  -0.154
REMARK UNBOUND:                -0.156
REMARK SMILES C=C(C)[C@@H]1CC=C(C)CC1
REMARK SMILES IDX 8 1 7 2 6 3 5 4 4 5 10 6 9 7 2 8 1 9 3 10
REMARK H PARENT
REMARK Flexibility Score: inf
ROOT
ATOM      1  C   UNL     1      37.020  26.184  20.183  1.00  0.00     0.039 C 
ATOM      2  C   UNL     1      37.362  27.567  20.659  1.00  0.00    -0.077 C 
ATOM      3  C   UNL     1      37.166  27.908  21.944  1.00  0.00    -0.027 C 
ATOM      4  C   UNL     1      37.466  29.313  22.389  1.00  0.00     0.035 C 
ATOM      5  C   UNL     1      36.877  30.330  21.383  1.00  0.00     0.018 C 
ATOM      6  C   UNL     1      37.124  29.942  19.887  1.00  0.00     0.013 C 
ATOM      7  C   UNL     1      37.887  28.617  19.707  1.00  0.00     0.031 C 
ENDROOT
BRANCH   5   8
ATOM      8  C   UNL     1      37.366  31.739  21.692  1.00  0.00    -0.077 C 
ATOM      9  C   UNL     1      38.241  31.963  22.687  1.00  0.00     0.008 C 
ATOM     10  C   UNL     1      36.875  32.911  20.882  1.00  0.00     0.039 C 
ENDBRANCH   5   8
TORSDOF 1
ENDMDL
MODEL 3
REMARK VINA RESULT:    -2.544     24.577     25.498
REMARK INTER + INTRA:          -2.849
REMARK INTER:                  -2.682
REMARK INTRA:                  -0.166
REMARK UNBOUND:                -0.156
REMARK SMILES C=C(C)[C@@H]1CC=C(C)CC1
REMARK SMILES IDX 8 1 7 2 6 3 5 4 4 5 10 6 9 7 2 8 1 9 3 10
REMARK H PARENT
REMARK Flexibility Score: inf
ROOT
ATOM      1  C   UNL     1      56.949  12.989  17.267  1.00  0.00     0.039 C 
ATOM      2  C   UNL     1      56.309  13.172  18.614  1.00  0.00    -0.077 C 
ATOM      3  C   UNL     1      55.022  13.546  18.707  1.00  0.00    -0.027 C 
ATOM      4  C   UNL     1      54.415  13.774  20.063  1.00  0.00     0.035 C 
ATOM      5  C   UNL     1      55.369  14.618  20.942  1.00  0.00     0.018 C 
ATOM      6  C   UNL     1      56.865  14.168  20.849  1.00  0.00     0.013 C 
ATOM      7  C   UNL     1      57.099  12.986  19.889  1.00  0.00     0.031 C 
ENDROOT
BRANCH   5   8
ATOM      8  C   UNL     1      54.878  14.662  22.383  1.00  0.00    -0.077 C 
ATOM      9  C   UNL     1      54.536  13.536  23.030  1.00  0.00     0.008 C 
ATOM     10  C   UNL     1      54.769  15.977  23.111  1.00  0.00     0.039 C 
ENDBRANCH   5   8
TORSDOF 1
ENDMDL
MODEL 4
REMARK VINA RESULT:    -2.411      7.802     10.928
REMARK INTER + INTRA:          -2.708
REMARK INTER:                  -2.550
REMARK INTRA:                  -0.158
REMARK UNBOUND:                -0.156
REMARK SMILES C=C(C)[C@@H]1CC=C(C)CC1
REMARK SMILES IDX 8 1 7 2 6 3 5 4 4 5 10 6 9 7 2 8 1 9 3 10
REMARK H PARENT
REMARK Flexibility Score: inf
ROOT
ATOM      1  C   UNL     1      37.619  24.632  23.029  1.00  0.00     0.039 C 
ATOM      2  C   UNL     1      37.233  25.781  22.142  1.00  0.00    -0.077 C 
ATOM      3  C   UNL     1      37.235  25.636  20.807  1.00  0.00    -0.027 C 
ATOM      4  C   UNL     1      36.896  26.813  19.934  1.00  0.00     0.035 C 
ATOM      5  C   UNL     1      37.651  28.073  20.419  1.00  0.00     0.018 C 
ATOM      6  C   UNL     1      37.631  28.253  21.974  1.00  0.00     0.013 C 
ATOM      7  C   UNL     1      36.880  27.133  22.718  1.00  0.00     0.031 C 
ENDROOT
BRANCH   5   8
ATOM      8  C   UNL     1      37.146  29.315  19.698  1.00  0.00    -0.077 C 
ATOM      9  C   UNL     1      36.877  29.288  18.382  1.00  0.00     0.008 C 
ATOM     10  C   UNL     1      36.939  30.604  20.452  1.00  0.00     0.039 C 
ENDBRANCH   5   8
TORSDOF 1
ENDMDL
MODEL 5
REMARK VINA RESULT:    -2.378     23.123     24.604
REMARK INTER + INTRA:          -2.672
REMARK INTER:                  -2.509
REMARK INTRA:                  -0.163
REMARK UNBOUND:                -0.156
REMARK SMILES C=C(C)[C@@H]1CC=C(C)CC1
REMARK SMILES IDX 8 1 7 2 6 3 5 4 4 5 10 6 9 7 2 8 1 9 3 10
REMARK H PARENT
REMARK Flexibility Score: inf
ROOT
ATOM      1  C   UNL     1      55.549  12.875  17.195  1.00  0.00     0.039 C 
ATOM      2  C   UNL     1      55.692  13.345  15.775  1.00  0.00    -0.077 C 
ATOM      3  C   UNL     1      54.603  13.551  15.017  1.00  0.00    -0.027 C 
ATOM      4  C   UNL     1      54.769  13.971  13.583  1.00  0.00     0.035 C 
ATOM      5  C   UNL     1      55.847  13.101  12.892  1.00  0.00     0.018 C 
ATOM      6  C   UNL     1      57.125  12.879  13.768  1.00  0.00     0.013 C 
ATOM      7  C   UNL     1      57.054  13.553  15.151  1.00  0.00     0.031 C 
ENDROOT
BRANCH   5   8
ATOM      8  C   UNL     1      56.192  13.659  11.518  1.00  0.00    -0.077 C 
ATOM      9  C   UNL     1      57.031  14.699  11.386  1.00  0.00     0.008 C 
ATOM     10  C   UNL     1      55.593  13.051  10.276  1.00  0.00     0.039 C 
ENDBRANCH   5   8
TORSDOF 1
ENDMDL
MODEL 6
REMARK VINA RESULT:    -2.245      8.843     10.694
REMARK INTER + INTRA:          -2.532
REMARK INTER:                  -2.377
REMARK INTRA:                  -0.155
REMARK UNBOUND:                -0.156
REMARK SMILES C=C(C)[C@@H]1CC=C(C)CC1
REMARK SMILES IDX 8 1 7 2 6 3 5 4 4 5 10 6 9 7 2 8 1 9 3 10
REMARK H PARENT
REMARK Flexibility Score: inf
ROOT
ATOM      1  C   UNL     1      37.553  25.931  20.111  1.00  0.00     0.039 C 
ATOM      2  C   UNL     1      37.194  27.353  20.442  1.00  0.00    -0.077 C 
ATOM      3  C   UNL     1      37.188  28.290  19.480  1.00  0.00    -0.027 C 
ATOM      4  C   UNL     1      36.877  29.716  19.840  1.00  0.00     0.035 C 
ATOM      5  C   UNL     1      37.664  30.133  21.106  1.00  0.00     0.018 C 
ATOM      6  C   UNL     1      37.652  29.048  22.234  1.00  0.00     0.013 C 
ATOM      7  C   UNL     1      36.875  27.772  21.859  1.00  0.00     0.031 C 
ENDROOT
BRANCH   5   8
ATOM      8  C   UNL     1      37.188  31.487  21.616  1.00  0.00    -0.077 C 
ATOM      9  C   UNL     1      37.028  31.711  22.930  1.00  0.00     0.008 C 
ATOM     10  C   UNL     1      36.888  32.603  20.649  1.00  0.00     0.039 C 
ENDBRANCH   5   8
TORSDOF 1
ENDMDL
MODEL 7
REMARK VINA RESULT:    -2.169     24.188     25.705
REMARK INTER + INTRA:          -2.452
REMARK INTER:                  -2.294
REMARK INTRA:                  -0.157
REMARK UNBOUND:                -0.156
REMARK SMILES C=C(C)[C@@H]1CC=C(C)CC1
REMARK SMILES IDX 8 1 7 2 6 3 5 4 4 5 10 6 9 7 2 8 1 9 3 10
REMARK H PARENT
REMARK Flexibility Score: inf
ROOT
ATOM      1  C   UNL     1      55.823  12.963  16.786  1.00  0.00     0.039 C 
ATOM      2  C   UNL     1      55.948  13.444  18.204  1.00  0.00    -0.077 C 
ATOM      3  C   UNL     1      57.039  13.142  18.927  1.00  0.00    -0.027 C 
ATOM      4  C   UNL     1      57.122  13.589  20.361  1.00  0.00     0.035 C 
ATOM      5  C   UNL     1      55.792  13.288  21.093  1.00  0.00     0.018 C 
ATOM      6  C   UNL     1      54.522  13.660  20.257  1.00  0.00     0.013 C 
ATOM      7  C   UNL     1      54.842  14.235  18.864  1.00  0.00     0.031 C 
ENDROOT
BRANCH   5   8
ATOM      8  C   UNL     1      55.775  13.939  22.469  1.00  0.00    -0.077 C 
ATOM      9  C   UNL     1      56.920  14.200  23.123  1.00  0.00     0.008 C 
ATOM     10  C   UNL     1      54.468  14.303  23.125  1.00  0.00     0.039 C 
ENDBRANCH   5   8
TORSDOF 1
ENDMDL
MODEL 8
REMARK VINA RESULT:    -2.115      9.588     10.854
REMARK INTER + INTRA:          -2.395
REMARK INTER:                  -2.237
REMARK INTRA:                  -0.158
REMARK UNBOUND:                -0.156
REMARK SMILES C=C(C)[C@@H]1CC=C(C)CC1
REMARK SMILES IDX 8 1 7 2 6 3 5 4 4 5 10 6 9 7 2 8 1 9 3 10
REMARK H PARENT
REMARK Flexibility Score: inf
ROOT
ATOM      1  C   UNL     1      37.391  32.488  21.785  1.00  0.00     0.039 C 
ATOM      2  C   UNL     1      37.623  31.011  21.641  1.00  0.00    -0.077 C 
ATOM      3  C   UNL     1      37.667  30.449  20.421  1.00  0.00    -0.027 C 
ATOM      4  C   UNL     1      37.848  28.961  20.300  1.00  0.00     0.035 C 
ATOM      5  C   UNL     1      36.910  28.225  21.286  1.00  0.00     0.018 C 
ATOM      6  C   UNL     1      36.875  28.869  22.712  1.00  0.00     0.013 C 
ATOM      7  C   UNL     1      37.766  30.117  22.851  1.00  0.00     0.031 C 
ENDROOT
BRANCH   5   8
ATOM      8  C   UNL     1      37.243  26.741  21.341  1.00  0.00    -0.077 C 
ATOM      9  C   UNL     1      37.562  26.063  20.226  1.00  0.00     0.008 C 
ATOM     10  C   UNL     1      37.221  26.003  22.655  1.00  0.00     0.039 C 
ENDBRANCH   5   8
TORSDOF 1
ENDMDL
MODEL 9
REMARK VINA RESULT:    -2.088     24.067     25.522
REMARK INTER + INTRA:          -2.366
REMARK INTER:                  -2.205
REMARK INTRA:                  -0.161
REMARK UNBOUND:                -0.156
REMARK SMILES C=C(C)[C@@H]1CC=C(C)CC1
REMARK SMILES IDX 8 1 7 2 6 3 5 4 4 5 10 6 9 7 2 8 1 9 3 10
REMARK H PARENT
REMARK Flexibility Score: inf
ROOT
ATOM      1  C   UNL     1      55.187  13.907  22.957  1.00  0.00     0.039 C 
ATOM      2  C   UNL     1      55.405  14.077  21.481  1.00  0.00    -0.077 C 
ATOM      3  C   UNL     1      54.356  14.191  20.650  1.00  0.00    -0.027 C 
ATOM      4  C   UNL     1      54.594  14.309  19.170  1.00  0.00     0.035 C 
ATOM      5  C   UNL     1      55.635  13.260  18.711  1.00  0.00     0.018 C 
ATOM      6  C   UNL     1      56.868  13.143  19.668  1.00  0.00     0.013 C 
ATOM      7  C   UNL     1      56.796  14.080  20.889  1.00  0.00     0.031 C 
ENDROOT
BRANCH   5   8
ATOM      8  C   UNL     1      56.059  13.515  17.270  1.00  0.00    -0.077 C 
ATOM      9  C   UNL     1      57.103  14.311  16.989  1.00  0.00     0.008 C 
ATOM     10  C   UNL     1      55.308  12.875  16.130  1.00  0.00     0.039 C 
ENDBRANCH   5   8
TORSDOF 1
ENDMDL
