MODEL 1
REMARK VINA RESULT:    -5.211      0.000      0.000
REMARK INTER + INTRA:          -8.324
REMARK INTER:                  -7.953
REMARK INTRA:                  -0.371
REMARK UNBOUND:                -0.371
REMARK SMILES O=C([O-])CCCCCCCCC(=O)[O-]
REMARK SMILES IDX 7 1 6 2 5 3 4 4 2 5 1 6 3 7 8 8 9 9 10 10 11 11 12 12 13 13
REMARK SMILES IDX 14 14
REMARK H PARENT
REMARK Flexibility Score: inf
ROOT
ATOM      1  C   UNL     1     -20.620 -31.433  23.591  1.00  0.00     0.000 C 
ENDROOT
BRANCH   1   2
ATOM      2  C   UNL     1     -20.337 -30.193  24.453  1.00  0.00     0.000 C 
BRANCH   2   3
ATOM      3  C   UNL     1     -18.835 -29.962  24.683  1.00  0.00     0.006 C 
BRANCH   3   4
ATOM      4  C   UNL     1     -17.956 -30.879  23.823  1.00  0.00     0.053 C 
BRANCH   4   5
ATOM      5  C   UNL     1     -17.146 -30.072  22.858  1.00  0.00     0.041 C 
ATOM      6  O   UNL     1     -17.517 -28.914  22.532  1.00  0.00    -0.550 OA
ATOM      7  O   UNL     1     -15.954 -30.579  22.356  1.00  0.00    -0.550 OA
ENDBRANCH   4   5
ENDBRANCH   3   4
ENDBRANCH   2   3
ENDBRANCH   1   2
BRANCH   1   8
ATOM      8  C   UNL     1     -22.131 -31.641  23.411  1.00  0.00     0.000 C 
BRANCH   8   9
ATOM      9  C   UNL     1     -22.935 -31.282  24.671  1.00  0.00     0.000 C 
BRANCH   9  10
ATOM     10  C   UNL     1     -24.378 -31.811  24.624  1.00  0.00     0.006 C 
BRANCH  10  11
ATOM     11  C   UNL     1     -24.691 -32.746  25.800  1.00  0.00     0.053 C 
BRANCH  11  12
ATOM     12  C   UNL     1     -26.167 -32.910  26.005  1.00  0.00     0.041 C 
ATOM     13  O   UNL     1     -26.963 -32.732  25.045  1.00  0.00    -0.550 OA
ATOM     14  O   UNL     1     -26.660 -33.287  27.247  1.00  0.00    -0.550 OA
ENDBRANCH  11  12
ENDBRANCH  10  11
ENDBRANCH   9  10
ENDBRANCH   8   9
ENDBRANCH   1   8
TORSDOF 9
ENDMDL
MODEL 2
REMARK VINA RESULT:    -5.209      1.776      2.716
REMARK INTER + INTRA:          -8.321
REMARK INTER:                  -7.888
REMARK INTRA:                  -0.433
REMARK UNBOUND:                -0.371
REMARK SMILES O=C([O-])CCCCCCCCC(=O)[O-]
REMARK SMILES IDX 7 1 6 2 5 3 4 4 2 5 1 6 3 7 8 8 9 9 10 10 11 11 12 12 13 13
REMARK SMILES IDX 14 14
REMARK H PARENT
REMARK Flexibility Score: inf
ROOT
ATOM      1  C   UNL     1     -18.798 -30.075  24.426  1.00  0.00     0.000 C 
ENDROOT
BRANCH   1   2
ATOM      2  C   UNL     1     -18.041 -31.156  23.638  1.00  0.00     0.000 C 
BRANCH   2   3
ATOM      3  C   UNL     1     -16.613 -30.727  23.266  1.00  0.00     0.006 C 
BRANCH   3   4
ATOM      4  C   UNL     1     -16.293 -30.959  21.784  1.00  0.00     0.053 C 
BRANCH   4   5
ATOM      5  C   UNL     1     -16.516 -29.705  20.999  1.00  0.00     0.041 C 
ATOM      6  O   UNL     1     -16.774 -28.624  21.590  1.00  0.00    -0.550 OA
ATOM      7  O   UNL     1     -16.389 -29.720  19.615  1.00  0.00    -0.550 OA
ENDBRANCH   4   5
ENDBRANCH   3   4
ENDBRANCH   2   3
ENDBRANCH   1   2
BRANCH   1   8
ATOM      8  C   UNL     1     -20.315 -30.309  24.356  1.00  0.00     0.000 C 
BRANCH   8   9
ATOM      9  C   UNL     1     -20.691 -31.513  23.478  1.00  0.00     0.000 C 
BRANCH   9  10
ATOM     10  C   UNL     1     -22.208 -31.761  23.431  1.00  0.00     0.006 C 
BRANCH  10  11
ATOM     11  C   UNL     1     -22.926 -31.196  24.664  1.00  0.00     0.053 C 
BRANCH  11  12
ATOM     12  C   UNL     1     -24.408 -31.114  24.459  1.00  0.00     0.041 C 
ATOM     13  O   UNL     1     -25.097 -30.303  25.133  1.00  0.00    -0.550 OA
ATOM     14  O   UNL     1     -25.024 -31.912  23.504  1.00  0.00    -0.550 OA
ENDBRANCH  11  12
ENDBRANCH  10  11
ENDBRANCH   9  10
ENDBRANCH   8   9
ENDBRANCH   1   8
TORSDOF 9
ENDMDL
MODEL 3
REMARK VINA RESULT:    -5.184      1.083      1.411
REMARK INTER + INTRA:          -8.282
REMARK INTER:                  -7.935
REMARK INTRA:                  -0.347
REMARK UNBOUND:                -0.371
REMARK SMILES O=C([O-])CCCCCCCCC(=O)[O-]
REMARK SMILES IDX 7 1 6 2 5 3 4 4 2 5 1 6 3 7 8 8 9 9 10 10 11 11 12 12 13 13
REMARK SMILES IDX 14 14
REMARK H PARENT
REMARK Flexibility Score: inf
ROOT
ATOM      1  C   UNL     1     -20.474 -31.289  23.678  1.00  0.00     0.000 C 
ENDROOT
BRANCH   1   2
ATOM      2  C   UNL     1     -19.029 -31.676  23.327  1.00  0.00     0.000 C 
BRANCH   2   3
ATOM      3  C   UNL     1     -17.994 -30.714  23.932  1.00  0.00     0.006 C 
BRANCH   3   4
ATOM      4  C   UNL     1     -16.673 -30.699  23.153  1.00  0.00     0.053 C 
BRANCH   4   5
ATOM      5  C   UNL     1     -16.786 -29.818  21.949  1.00  0.00     0.041 C 
ATOM      6  O   UNL     1     -17.055 -28.595  22.082  1.00  0.00    -0.550 OA
ATOM      7  O   UNL     1     -16.546 -30.336  20.683  1.00  0.00    -0.550 OA
ENDBRANCH   4   5
ENDBRANCH   3   4
ENDBRANCH   2   3
ENDBRANCH   1   2
BRANCH   1   8
ATOM      8  C   UNL     1     -21.475 -32.222  22.980  1.00  0.00     0.000 C 
BRANCH   8   9
ATOM      9  C   UNL     1     -22.938 -31.850  23.273  1.00  0.00     0.000 C 
BRANCH   9  10
ATOM     10  C   UNL     1     -23.150 -31.382  24.723  1.00  0.00     0.006 C 
BRANCH  10  11
ATOM     11  C   UNL     1     -24.635 -31.186  25.056  1.00  0.00     0.053 C 
BRANCH  11  12
ATOM     12  C   UNL     1     -25.349 -32.493  25.216  1.00  0.00     0.041 C 
ATOM     13  O   UNL     1     -26.188 -32.867  24.354  1.00  0.00    -0.550 OA
ATOM     14  O   UNL     1     -25.066 -33.314  26.301  1.00  0.00    -0.550 OA
ENDBRANCH  11  12
ENDBRANCH  10  11
ENDBRANCH   9  10
ENDBRANCH   8   9
ENDBRANCH   1   8
TORSDOF 9
ENDMDL
MODEL 4
REMARK VINA RESULT:    -5.154      0.624      8.046
REMARK INTER + INTRA:          -8.236
REMARK INTER:                  -7.869
REMARK INTRA:                  -0.367
REMARK UNBOUND:                -0.371
REMARK SMILES O=C([O-])CCCCCCCCC(=O)[O-]
REMARK SMILES IDX 7 1 6 2 5 3 4 4 2 5 1 6 3 7 8 8 9 9 10 10 11 11 12 12 13 13
REMARK SMILES IDX 14 14
REMARK H PARENT
REMARK Flexibility Score: inf
ROOT
ATOM      1  C   UNL     1     -21.994 -30.089  24.788  1.00  0.00     0.000 C 
ENDROOT
BRANCH   1   2
ATOM      2  C   UNL     1     -22.792 -31.348  24.414  1.00  0.00     0.000 C 
BRANCH   2   3
ATOM      3  C   UNL     1     -24.174 -31.394  25.083  1.00  0.00     0.006 C 
BRANCH   3   4
ATOM      4  C   UNL     1     -24.473 -32.753  25.730  1.00  0.00     0.053 C 
BRANCH   4   5
ATOM      5  C   UNL     1     -25.950 -32.961  25.851  1.00  0.00     0.041 C 
ATOM      6  O   UNL     1     -26.675 -32.968  24.821  1.00  0.00    -0.550 OA
ATOM      7  O   UNL     1     -26.519 -33.196  27.096  1.00  0.00    -0.550 OA
ENDBRANCH   4   5
ENDBRANCH   3   4
ENDBRANCH   2   3
ENDBRANCH   1   2
BRANCH   1   8
ATOM      8  C   UNL     1     -20.527 -30.221  24.352  1.00  0.00     0.000 C 
BRANCH   8   9
ATOM      9  C   UNL     1     -20.255 -31.510  23.560  1.00  0.00     0.000 C 
BRANCH   9  10
ATOM     10  C   UNL     1     -18.760 -31.722  23.268  1.00  0.00     0.006 C 
BRANCH  10  11
ATOM     11  C   UNL     1     -17.892 -30.597  23.847  1.00  0.00     0.053 C 
BRANCH  11  12
ATOM     12  C   UNL     1     -16.941 -30.045  22.830  1.00  0.00     0.041 C 
ATOM     13  O   UNL     1     -16.006 -30.762  22.383  1.00  0.00    -0.550 OA
ATOM     14  O   UNL     1     -17.105 -28.752  22.351  1.00  0.00    -0.550 OA
ENDBRANCH  11  12
ENDBRANCH  10  11
ENDBRANCH   9  10
ENDBRANCH   8   9
ENDBRANCH   1   8
TORSDOF 9
ENDMDL
MODEL 5
REMARK VINA RESULT:    -5.052      2.681      7.897
REMARK INTER + INTRA:          -8.081
REMARK INTER:                  -7.662
REMARK INTRA:                  -0.419
REMARK UNBOUND:                -0.371
REMARK SMILES O=C([O-])CCCCCCCCC(=O)[O-]
REMARK SMILES IDX 7 1 6 2 5 3 4 4 2 5 1 6 3 7 8 8 9 9 10 10 11 11 12 12 13 13
REMARK SMILES IDX 14 14
REMARK H PARENT
REMARK Flexibility Score: inf
ROOT
ATOM      1  C   UNL     1     -19.549 -30.834  23.936  1.00  0.00     0.000 C 
ENDROOT
BRANCH   1   2
ATOM      2  C   UNL     1     -20.552 -30.051  24.799  1.00  0.00     0.000 C 
BRANCH   2   3
ATOM      3  C   UNL     1     -21.996 -30.546  24.626  1.00  0.00     0.006 C 
BRANCH   3   4
ATOM      4  C   UNL     1     -22.131 -31.603  23.522  1.00  0.00     0.053 C 
BRANCH   4   5
ATOM      5  C   UNL     1     -23.292 -31.286  22.634  1.00  0.00     0.041 C 
ATOM      6  O   UNL     1     -23.133 -30.566  21.614  1.00  0.00    -0.550 OA
ATOM      7  O   UNL     1     -24.543 -31.828  22.906  1.00  0.00    -0.550 OA
ENDBRANCH   4   5
ENDBRANCH   3   4
ENDBRANCH   2   3
ENDBRANCH   1   2
BRANCH   1   8
ATOM      8  C   UNL     1     -18.159 -30.183  23.987  1.00  0.00     0.000 C 
BRANCH   8   9
ATOM      9  C   UNL     1     -17.031 -31.162  23.621  1.00  0.00     0.000 C 
BRANCH   9  10
ATOM     10  C   UNL     1     -16.210 -30.693  22.408  1.00  0.00     0.006 C 
BRANCH  10  11
ATOM     11  C   UNL     1     -16.551 -29.254  21.999  1.00  0.00     0.053 C 
BRANCH  11  12
ATOM     12  C   UNL     1     -16.465 -29.060  20.516  1.00  0.00     0.041 C 
ATOM     13  O   UNL     1     -16.629 -30.038  19.739  1.00  0.00    -0.550 OA
ATOM     14  O   UNL     1     -16.233 -27.796  19.990  1.00  0.00    -0.550 OA
ENDBRANCH  11  12
ENDBRANCH  10  11
ENDBRANCH   9  10
ENDBRANCH   8   9
ENDBRANCH   1   8
TORSDOF 9
ENDMDL
MODEL 6
REMARK VINA RESULT:    -5.014      1.471      7.747
REMARK INTER + INTRA:          -8.023
REMARK INTER:                  -7.569
REMARK INTRA:                  -0.453
REMARK UNBOUND:                -0.371
REMARK SMILES O=C([O-])CCCCCCCCC(=O)[O-]
REMARK SMILES IDX 7 1 6 2 5 3 4 4 2 5 1 6 3 7 8 8 9 9 10 10 11 11 12 12 13 13
REMARK SMILES IDX 14 14
REMARK H PARENT
REMARK Flexibility Score: inf
ROOT
ATOM      1  C   UNL     1     -21.885 -31.843  23.271  1.00  0.00     0.000 C 
ENDROOT
BRANCH   1   2
ATOM      2  C   UNL     1     -22.692 -30.956  24.231  1.00  0.00     0.000 C 
BRANCH   2   3
ATOM      3  C   UNL     1     -23.706 -31.755  25.065  1.00  0.00     0.006 C 
BRANCH   3   4
ATOM      4  C   UNL     1     -25.042 -31.955  24.338  1.00  0.00     0.053 C 
BRANCH   4   5
ATOM      5  C   UNL     1     -25.911 -30.748  24.500  1.00  0.00     0.041 C 
ATOM      6  O   UNL     1     -26.654 -30.370  23.556  1.00  0.00    -0.550 OA
ATOM      7  O   UNL     1     -25.938 -30.068  25.712  1.00  0.00    -0.550 OA
ENDBRANCH   4   5
ENDBRANCH   3   4
ENDBRANCH   2   3
ENDBRANCH   1   2
BRANCH   1   8
ATOM      8  C   UNL     1     -20.377 -31.600  23.438  1.00  0.00     0.000 C 
BRANCH   8   9
ATOM      9  C   UNL     1     -20.066 -30.343  24.266  1.00  0.00     0.000 C 
BRANCH   9  10
ATOM     10  C   UNL     1     -18.567 -30.197  24.582  1.00  0.00     0.006 C 
BRANCH  10  11
ATOM     11  C   UNL     1     -17.691 -31.011  23.620  1.00  0.00     0.053 C 
BRANCH  11  12
ATOM     12  C   UNL     1     -16.915 -30.129  22.691  1.00  0.00     0.041 C 
ATOM     13  O   UNL     1     -15.875 -30.563  22.127  1.00  0.00    -0.550 OA
ATOM     14  O   UNL     1     -17.354 -28.839  22.424  1.00  0.00    -0.550 OA
ENDBRANCH  11  12
ENDBRANCH  10  11
ENDBRANCH   9  10
ENDBRANCH   8   9
ENDBRANCH   1   8
TORSDOF 9
ENDMDL
MODEL 7
REMARK VINA RESULT:    -4.925      2.818      4.490
REMARK INTER + INTRA:          -7.886
REMARK INTER:                  -7.305
REMARK INTRA:                  -0.581
REMARK UNBOUND:                -0.371
REMARK SMILES O=C([O-])CCCCCCCCC(=O)[O-]
REMARK SMILES IDX 7 1 6 2 5 3 4 4 2 5 1 6 3 7 8 8 9 9 10 10 11 11 12 12 13 13
REMARK SMILES IDX 14 14
REMARK H PARENT
REMARK Flexibility Score: inf
ROOT
ATOM      1  C   UNL     1     -25.320 -31.638  25.417  1.00  0.00     0.000 C 
ENDROOT
BRANCH   1   2
ATOM      2  C   UNL     1     -23.901 -32.089  25.037  1.00  0.00     0.000 C 
BRANCH   2   3
ATOM      3  C   UNL     1     -23.327 -31.302  23.848  1.00  0.00     0.006 C 
BRANCH   3   4
ATOM      4  C   UNL     1     -22.074 -31.959  23.255  1.00  0.00     0.053 C 
BRANCH   4   5
ATOM      5  C   UNL     1     -20.842 -31.245  23.715  1.00  0.00     0.041 C 
ATOM      6  O   UNL     1     -20.938 -30.215  24.434  1.00  0.00    -0.550 OA
ATOM      7  O   UNL     1     -19.587 -31.745  23.392  1.00  0.00    -0.550 OA
ENDBRANCH   4   5
ENDBRANCH   3   4
ENDBRANCH   2   3
ENDBRANCH   1   2
BRANCH   1   8
ATOM      8  C   UNL     1     -26.248 -32.847  25.601  1.00  0.00     0.000 C 
BRANCH   8   9
ATOM      9  C   UNL     1     -27.623 -32.648  24.943  1.00  0.00     0.000 C 
BRANCH   9  10
ATOM     10  C   UNL     1     -27.733 -33.348  23.578  1.00  0.00     0.006 C 
BRANCH  10  11
ATOM     11  C   UNL     1     -27.288 -32.441  22.423  1.00  0.00     0.053 C 
BRANCH  11  12
ATOM     12  C   UNL     1     -28.032 -31.141  22.416  1.00  0.00     0.041 C 
ATOM     13  O   UNL     1     -27.412 -30.055  22.566  1.00  0.00    -0.550 OA
ATOM     14  O   UNL     1     -29.406 -31.125  22.214  1.00  0.00    -0.550 OA
ENDBRANCH  11  12
ENDBRANCH  10  11
ENDBRANCH   9  10
ENDBRANCH   8   9
ENDBRANCH   1   8
TORSDOF 9
ENDMDL
MODEL 8
REMARK VINA RESULT:    -4.897      5.903      7.363
REMARK INTER + INTRA:          -7.844
REMARK INTER:                  -6.808
REMARK INTRA:                  -1.036
REMARK UNBOUND:                -0.371
REMARK SMILES O=C([O-])CCCCCCCCC(=O)[O-]
REMARK SMILES IDX 7 1 6 2 5 3 4 4 2 5 1 6 3 7 8 8 9 9 10 10 11 11 12 12 13 13
REMARK SMILES IDX 14 14
REMARK H PARENT
REMARK Flexibility Score: inf
ROOT
ATOM      1  C   UNL     1     -24.791 -31.598  24.913  1.00  0.00     0.000 C 
ENDROOT
BRANCH   1   2
ATOM      2  C   UNL     1     -24.892 -31.200  23.432  1.00  0.00     0.000 C 
BRANCH   2   3
ATOM      3  C   UNL     1     -25.838 -32.112  22.636  1.00  0.00     0.006 C 
BRANCH   3   4
ATOM      4  C   UNL     1     -27.119 -31.393  22.193  1.00  0.00     0.053 C 
BRANCH   4   5
ATOM      5  C   UNL     1     -28.291 -32.320  22.266  1.00  0.00     0.041 C 
ATOM      6  O   UNL     1     -29.430 -31.932  21.896  1.00  0.00    -0.550 OA
ATOM      7  O   UNL     1     -28.116 -33.629  22.695  1.00  0.00    -0.550 OA
ENDBRANCH   4   5
ENDBRANCH   3   4
ENDBRANCH   2   3
ENDBRANCH   1   2
BRANCH   1   8
ATOM      8  C   UNL     1     -25.576 -32.890  25.187  1.00  0.00     0.000 C 
BRANCH   8   9
ATOM      9  C   UNL     1     -26.728 -32.687  26.184  1.00  0.00     0.000 C 
BRANCH   9  10
ATOM     10  C   UNL     1     -27.123 -31.208  26.338  1.00  0.00     0.006 C 
BRANCH  10  11
ATOM     11  C   UNL     1     -28.486 -30.904  25.702  1.00  0.00     0.053 C 
BRANCH  11  12
ATOM     12  C   UNL     1     -28.648 -29.446  25.399  1.00  0.00     0.041 C 
ATOM     13  O   UNL     1     -29.596 -28.794  25.912  1.00  0.00    -0.550 OA
ATOM     14  O   UNL     1     -27.735 -28.800  24.575  1.00  0.00    -0.550 OA
ENDBRANCH  11  12
ENDBRANCH  10  11
ENDBRANCH   9  10
ENDBRANCH   8   9
ENDBRANCH   1   8
TORSDOF 9
ENDMDL
MODEL 9
REMARK VINA RESULT:    -4.893      2.449      2.971
REMARK INTER + INTRA:          -7.837
REMARK INTER:                  -7.323
REMARK INTRA:                  -0.514
REMARK UNBOUND:                -0.371
REMARK SMILES O=C([O-])CCCCCCCCC(=O)[O-]
REMARK SMILES IDX 7 1 6 2 5 3 4 4 2 5 1 6 3 7 8 8 9 9 10 10 11 11 12 12 13 13
REMARK SMILES IDX 14 14
REMARK H PARENT
REMARK Flexibility Score: inf
ROOT
ATOM      1  C   UNL     1     -20.676 -30.501  24.395  1.00  0.00     0.000 C 
ENDROOT
BRANCH   1   2
ATOM      2  C   UNL     1     -19.187 -30.152  24.246  1.00  0.00     0.000 C 
BRANCH   2   3
ATOM      3  C   UNL     1     -18.379 -31.277  23.580  1.00  0.00     0.006 C 
BRANCH   3   4
ATOM      4  C   UNL     1     -16.867 -31.018  23.611  1.00  0.00     0.053 C 
BRANCH   4   5
ATOM      5  C   UNL     1     -16.431 -30.324  22.360  1.00  0.00     0.041 C 
ATOM      6  O   UNL     1     -15.876 -30.974  21.435  1.00  0.00    -0.550 OA
ATOM      7  O   UNL     1     -16.681 -28.967  22.193  1.00  0.00    -0.550 OA
ENDBRANCH   4   5
ENDBRANCH   3   4
ENDBRANCH   2   3
ENDBRANCH   1   2
BRANCH   1   8
ATOM      8  C   UNL     1     -21.129 -31.458  23.282  1.00  0.00     0.000 C 
BRANCH   8   9
ATOM      9  C   UNL     1     -22.627 -31.793  23.358  1.00  0.00     0.000 C 
BRANCH   9  10
ATOM     10  C   UNL     1     -23.229 -31.501  24.743  1.00  0.00     0.006 C 
BRANCH  10  11
ATOM     11  C   UNL     1     -24.490 -30.630  24.655  1.00  0.00     0.053 C 
BRANCH  11  12
ATOM     12  C   UNL     1     -24.165 -29.214  24.290  1.00  0.00     0.041 C 
ATOM     13  O   UNL     1     -23.761 -28.409  25.171  1.00  0.00    -0.550 OA
ATOM     14  O   UNL     1     -24.279 -28.789  22.972  1.00  0.00    -0.550 OA
ENDBRANCH  11  12
ENDBRANCH  10  11
ENDBRANCH   9  10
ENDBRANCH   8   9
ENDBRANCH   1   8
TORSDOF 9
ENDMDL
