MODEL 1
REMARK VINA RESULT:    -3.855      0.000      0.000
REMARK INTER + INTRA:          -6.273
REMARK INTER:                  -5.884
REMARK INTRA:                  -0.389
REMARK UNBOUND:                -0.389
REMARK SMILES CCCCCCCCCCC(=O)[O-]
REMARK SMILES IDX 7 1 8 2 9 3 10 4 11 5 12 6 13 7 6 8 5 9 4 10 3 11 2 12 1 13
REMARK H PARENT
REMARK Flexibility Score: inf
ROOT
ATOM      1  C   UNL     1     120.160  72.163   4.382  1.00  0.00     0.000 C 
ENDROOT
BRANCH   1   2
ATOM      2  C   UNL     1     120.512  71.073   5.410  1.00  0.00     0.000 C 
BRANCH   2   3
ATOM      3  C   UNL     1     119.964  71.391   6.817  1.00  0.00     0.006 C 
BRANCH   3   4
ATOM      4  C   UNL     1     120.206  72.844   7.257  1.00  0.00     0.053 C 
BRANCH   4   5
ATOM      5  C   UNL     1     120.417  72.965   8.733  1.00  0.00     0.041 C 
ATOM      6  O   UNL     1     120.855  71.986   9.392  1.00  0.00    -0.550 OA
ATOM      7  O   UNL     1     120.157  74.168   9.378  1.00  0.00    -0.550 OA
ENDBRANCH   4   5
ENDBRANCH   3   4
ENDBRANCH   2   3
ENDBRANCH   1   2
BRANCH   1   8
ATOM      8  C   UNL     1     121.235  72.328   3.295  1.00  0.00     0.000 C 
BRANCH   8   9
ATOM      9  C   UNL     1     120.751  72.999   1.993  1.00  0.00    -0.000 C 
BRANCH   9  10
ATOM     10  C   UNL     1     120.071  72.054   0.986  1.00  0.00    -0.000 C 
BRANCH  10  11
ATOM     11  C   UNL     1     120.570  70.605   1.095  1.00  0.00    -0.000 C 
BRANCH  11  12
ATOM     12  C   UNL     1     121.134  70.116  -0.244  1.00  0.00    -0.003 C 
ATOM     13  C   UNL     1     121.066  68.596  -0.350  1.00  0.00     0.004 C 
ENDBRANCH  11  12
ENDBRANCH  10  11
ENDBRANCH   9  10
ENDBRANCH   8   9
ENDBRANCH   1   8
TORSDOF 9
ENDMDL
MODEL 2
REMARK VINA RESULT:    -3.760      1.071      2.106
REMARK INTER + INTRA:          -6.128
REMARK INTER:                  -5.769
REMARK INTRA:                  -0.358
REMARK UNBOUND:                -0.389
REMARK SMILES CCCCCCCCCCC(=O)[O-]
REMARK SMILES IDX 7 1 8 2 9 3 10 4 11 5 12 6 13 7 6 8 5 9 4 10 3 11 2 12 1 13
REMARK H PARENT
REMARK Flexibility Score: inf
ROOT
ATOM      1  C   UNL     1     121.372  72.730   2.781  1.00  0.00     0.000 C 
ENDROOT
BRANCH   1   2
ATOM      2  C   UNL     1     120.870  71.648   3.754  1.00  0.00     0.000 C 
BRANCH   2   3
ATOM      3  C   UNL     1     119.922  72.218   4.829  1.00  0.00     0.006 C 
BRANCH   3   4
ATOM      4  C   UNL     1     119.919  71.410   6.137  1.00  0.00     0.053 C 
BRANCH   4   5
ATOM      5  C   UNL     1     120.248  72.253   7.328  1.00  0.00     0.041 C 
ATOM      6  O   UNL     1     120.142  73.506   7.267  1.00  0.00    -0.550 OA
ATOM      7  O   UNL     1     120.645  71.653   8.518  1.00  0.00    -0.550 OA
ENDBRANCH   4   5
ENDBRANCH   3   4
ENDBRANCH   2   3
ENDBRANCH   1   2
BRANCH   1   8
ATOM      8  C   UNL     1     120.614  72.727   1.442  1.00  0.00     0.000 C 
BRANCH   8   9
ATOM      9  C   UNL     1     120.070  71.353   1.001  1.00  0.00    -0.000 C 
BRANCH   9  10
ATOM     10  C   UNL     1     121.077  70.462   0.252  1.00  0.00    -0.000 C 
BRANCH  10  11
ATOM     11  C   UNL     1     120.397  69.404  -0.629  1.00  0.00    -0.000 C 
BRANCH  11  12
ATOM     12  C   UNL     1     120.233  68.081   0.129  1.00  0.00    -0.003 C 
ATOM     13  C   UNL     1     120.693  66.899  -0.718  1.00  0.00     0.004 C 
ENDBRANCH  11  12
ENDBRANCH  10  11
ENDBRANCH   9  10
ENDBRANCH   8   9
ENDBRANCH   1   8
TORSDOF 9
ENDMDL
MODEL 3
REMARK VINA RESULT:    -3.659      4.213      7.468
REMARK INTER + INTRA:          -5.974
REMARK INTER:                  -5.605
REMARK INTRA:                  -0.369
REMARK UNBOUND:                -0.389
REMARK SMILES CCCCCCCCCCC(=O)[O-]
REMARK SMILES IDX 7 1 8 2 9 3 10 4 11 5 12 6 13 7 6 8 5 9 4 10 3 11 2 12 1 13
REMARK H PARENT
REMARK Flexibility Score: inf
ROOT
ATOM      1  C   UNL     1     120.069  71.524   2.329  1.00  0.00     0.000 C 
ENDROOT
BRANCH   1   2
ATOM      2  C   UNL     1     120.962  71.306   1.095  1.00  0.00     0.000 C 
BRANCH   2   3
ATOM      3  C   UNL     1     120.258  70.481  -0.003  1.00  0.00     0.006 C 
BRANCH   3   4
ATOM      4  C   UNL     1     121.127  69.349  -0.574  1.00  0.00     0.053 C 
BRANCH   4   5
ATOM      5  C   UNL     1     120.651  67.996  -0.151  1.00  0.00     0.041 C 
ATOM      6  O   UNL     1     120.252  67.804   1.028  1.00  0.00    -0.550 OA
ATOM      7  O   UNL     1     120.619  66.950  -1.067  1.00  0.00    -0.550 OA
ENDBRANCH   4   5
ENDBRANCH   3   4
ENDBRANCH   2   3
ENDBRANCH   1   2
BRANCH   1   8
ATOM      8  C   UNL     1     120.537  72.700   3.204  1.00  0.00     0.000 C 
BRANCH   8   9
ATOM      9  C   UNL     1     120.103  72.629   4.682  1.00  0.00    -0.000 C 
BRANCH   9  10
ATOM     10  C   UNL     1     120.285  71.254   5.350  1.00  0.00    -0.000 C 
BRANCH  10  11
ATOM     11  C   UNL     1     119.896  71.256   6.836  1.00  0.00    -0.000 C 
BRANCH  11  12
ATOM     12  C   UNL     1     121.060  71.741   7.708  1.00  0.00    -0.003 C 
ATOM     13  C   UNL     1     120.628  72.890   8.614  1.00  0.00     0.004 C 
ENDBRANCH  11  12
ENDBRANCH  10  11
ENDBRANCH   9  10
ENDBRANCH   8   9
ENDBRANCH   1   8
TORSDOF 9
ENDMDL
MODEL 4
REMARK VINA RESULT:    -3.657      4.155      7.308
REMARK INTER + INTRA:          -5.970
REMARK INTER:                  -5.524
REMARK INTRA:                  -0.446
REMARK UNBOUND:                -0.389
REMARK SMILES CCCCCCCCCCC(=O)[O-]
REMARK SMILES IDX 7 1 8 2 9 3 10 4 11 5 12 6 13 7 6 8 5 9 4 10 3 11 2 12 1 13
REMARK H PARENT
REMARK Flexibility Score: inf
ROOT
ATOM      1  C   UNL     1     121.274  72.282   2.795  1.00  0.00     0.000 C 
ENDROOT
BRANCH   1   2
ATOM      2  C   UNL     1     120.977  72.057   1.302  1.00  0.00     0.000 C 
BRANCH   2   3
ATOM      3  C   UNL     1     120.330  70.683   1.031  1.00  0.00     0.006 C 
BRANCH   3   4
ATOM      4  C   UNL     1     121.057  69.862  -0.047  1.00  0.00     0.053 C 
BRANCH   4   5
ATOM      5  C   UNL     1     120.541  68.461  -0.141  1.00  0.00     0.041 C 
ATOM      6  O   UNL     1     120.392  67.916  -1.266  1.00  0.00    -0.550 OA
ATOM      7  O   UNL     1     120.250  67.746   1.014  1.00  0.00    -0.550 OA
ENDBRANCH   4   5
ENDBRANCH   3   4
ENDBRANCH   2   3
ENDBRANCH   1   2
BRANCH   1   8
ATOM      8  C   UNL     1     120.258  73.218   3.471  1.00  0.00     0.000 C 
BRANCH   8   9
ATOM      9  C   UNL     1     119.875  72.835   4.915  1.00  0.00    -0.000 C 
BRANCH   9  10
ATOM     10  C   UNL     1     120.229  71.393   5.323  1.00  0.00    -0.000 C 
BRANCH  10  11
ATOM     11  C   UNL     1     120.598  71.268   6.809  1.00  0.00    -0.000 C 
BRANCH  11  12
ATOM     12  C   UNL     1     120.144  72.504   7.594  1.00  0.00    -0.003 C 
ATOM     13  C   UNL     1     120.619  72.444   9.042  1.00  0.00     0.004 C 
ENDBRANCH  11  12
ENDBRANCH  10  11
ENDBRANCH   9  10
ENDBRANCH   8   9
ENDBRANCH   1   8
TORSDOF 9
ENDMDL
MODEL 5
REMARK VINA RESULT:    -3.405      4.204      6.593
REMARK INTER + INTRA:          -5.585
REMARK INTER:                  -5.294
REMARK INTRA:                  -0.291
REMARK UNBOUND:                -0.389
REMARK SMILES CCCCCCCCCCC(=O)[O-]
REMARK SMILES IDX 7 1 8 2 9 3 10 4 11 5 12 6 13 7 6 8 5 9 4 10 3 11 2 12 1 13
REMARK H PARENT
REMARK Flexibility Score: inf
ROOT
ATOM      1  C   UNL     1     120.762  69.848  -1.727  1.00  0.00     0.000 C 
ENDROOT
BRANCH   1   2
ATOM      2  C   UNL     1     120.342  69.531  -0.282  1.00  0.00     0.000 C 
BRANCH   2   3
ATOM      3  C   UNL     1     119.875  70.786   0.485  1.00  0.00     0.006 C 
BRANCH   3   4
ATOM      4  C   UNL     1     120.986  71.446   1.317  1.00  0.00     0.053 C 
BRANCH   4   5
ATOM      5  C   UNL     1     120.577  71.671   2.738  1.00  0.00     0.041 C 
ATOM      6  O   UNL     1     120.223  72.817   3.122  1.00  0.00    -0.550 OA
ATOM      7  O   UNL     1     120.560  70.610   3.635  1.00  0.00    -0.550 OA
ENDBRANCH   4   5
ENDBRANCH   3   4
ENDBRANCH   2   3
ENDBRANCH   1   2
BRANCH   1   8
ATOM      8  C   UNL     1     119.910  69.110  -2.773  1.00  0.00     0.000 C 
BRANCH   8   9
ATOM      9  C   UNL     1     120.076  69.607  -4.223  1.00  0.00    -0.000 C 
BRANCH   9  10
ATOM     10  C   UNL     1     120.279  68.500  -5.274  1.00  0.00    -0.000 C 
BRANCH  10  11
ATOM     11  C   UNL     1     120.554  67.126  -4.647  1.00  0.00    -0.000 C 
BRANCH  11  12
ATOM     12  C   UNL     1     120.988  66.113  -5.714  1.00  0.00    -0.003 C 
ATOM     13  C   UNL     1     120.186  64.820  -5.606  1.00  0.00     0.004 C 
ENDBRANCH  11  12
ENDBRANCH  10  11
ENDBRANCH   9  10
ENDBRANCH   8   9
ENDBRANCH   1   8
TORSDOF 9
ENDMDL
MODEL 6
REMARK VINA RESULT:    -3.363      7.548     10.945
REMARK INTER + INTRA:          -5.522
REMARK INTER:                  -5.174
REMARK INTRA:                  -0.348
REMARK UNBOUND:                -0.389
REMARK SMILES CCCCCCCCCCC(=O)[O-]
REMARK SMILES IDX 7 1 8 2 9 3 10 4 11 5 12 6 13 7 6 8 5 9 4 10 3 11 2 12 1 13
REMARK H PARENT
REMARK Flexibility Score: inf
ROOT
ATOM      1  C   UNL     1     120.188  69.851  -4.053  1.00  0.00     0.000 C 
ENDROOT
BRANCH   1   2
ATOM      2  C   UNL     1     120.214  68.950  -5.300  1.00  0.00     0.000 C 
BRANCH   2   3
ATOM      3  C   UNL     1     119.875  67.480  -4.971  1.00  0.00     0.006 C 
BRANCH   3   4
ATOM      4  C   UNL     1     120.985  66.491  -5.364  1.00  0.00     0.053 C 
BRANCH   4   5
ATOM      5  C   UNL     1     120.439  65.181  -5.837  1.00  0.00     0.041 C 
ATOM      6  O   UNL     1     120.013  64.335  -5.008  1.00  0.00    -0.550 OA
ATOM      7  O   UNL     1     120.375  64.904  -7.198  1.00  0.00    -0.550 OA
ENDBRANCH   4   5
ENDBRANCH   3   4
ENDBRANCH   2   3
ENDBRANCH   1   2
BRANCH   1   8
ATOM      8  C   UNL     1     120.033  69.056  -2.745  1.00  0.00     0.000 C 
BRANCH   8   9
ATOM      9  C   UNL     1     119.875  69.913  -1.473  1.00  0.00    -0.000 C 
BRANCH   9  10
ATOM     10  C   UNL     1     120.703  69.444  -0.263  1.00  0.00    -0.000 C 
BRANCH  10  11
ATOM     11  C   UNL     1     121.199  70.608   0.608  1.00  0.00    -0.000 C 
BRANCH  11  12
ATOM     12  C   UNL     1     120.087  71.639   0.832  1.00  0.00    -0.003 C 
ATOM     13  C   UNL     1     120.589  72.823   1.651  1.00  0.00     0.004 C 
ENDBRANCH  11  12
ENDBRANCH  10  11
ENDBRANCH   9  10
ENDBRANCH   8   9
ENDBRANCH   1   8
TORSDOF 9
ENDMDL
MODEL 7
REMARK VINA RESULT:    -3.339      2.868      4.722
REMARK INTER + INTRA:          -5.485
REMARK INTER:                  -5.075
REMARK INTRA:                  -0.410
REMARK UNBOUND:                -0.389
REMARK SMILES CCCCCCCCCCC(=O)[O-]
REMARK SMILES IDX 7 1 8 2 9 3 10 4 11 5 12 6 13 7 6 8 5 9 4 10 3 11 2 12 1 13
REMARK H PARENT
REMARK Flexibility Score: inf
ROOT
ATOM      1  C   UNL     1     121.281  70.600  -0.037  1.00  0.00     0.000 C 
ENDROOT
BRANCH   1   2
ATOM      2  C   UNL     1     120.818  71.654   0.984  1.00  0.00     0.000 C 
BRANCH   2   3
ATOM      3  C   UNL     1     120.122  71.023   2.208  1.00  0.00     0.006 C 
BRANCH   3   4
ATOM      4  C   UNL     1     120.081  71.947   3.436  1.00  0.00     0.053 C 
BRANCH   4   5
ATOM      5  C   UNL     1     120.591  71.276   4.671  1.00  0.00     0.041 C 
ATOM      6  O   UNL     1     121.681  70.648   4.647  1.00  0.00    -0.550 OA
ATOM      7  O   UNL     1     119.875  71.368   5.860  1.00  0.00    -0.550 OA
ENDBRANCH   4   5
ENDBRANCH   3   4
ENDBRANCH   2   3
ENDBRANCH   1   2
BRANCH   1   8
ATOM      8  C   UNL     1     120.632  69.223   0.191  1.00  0.00     0.000 C 
BRANCH   8   9
ATOM      9  C   UNL     1     119.880  68.645  -1.024  1.00  0.00    -0.000 C 
BRANCH   9  10
ATOM     10  C   UNL     1     120.380  69.135  -2.395  1.00  0.00    -0.000 C 
BRANCH  10  11
ATOM     11  C   UNL     1     119.875  68.270  -3.559  1.00  0.00    -0.000 C 
BRANCH  11  12
ATOM     12  C   UNL     1     120.332  68.842  -4.906  1.00  0.00    -0.003 C 
ATOM     13  C   UNL     1     120.176  70.359  -4.943  1.00  0.00     0.004 C 
ENDBRANCH  11  12
ENDBRANCH  10  11
ENDBRANCH   9  10
ENDBRANCH   8   9
ENDBRANCH   1   8
TORSDOF 9
ENDMDL
MODEL 8
REMARK VINA RESULT:    -2.638      8.648     12.070
REMARK INTER + INTRA:          -4.416
REMARK INTER:                  -4.057
REMARK INTRA:                  -0.358
REMARK UNBOUND:                -0.389
REMARK SMILES CCCCCCCCCCC(=O)[O-]
REMARK SMILES IDX 7 1 8 2 9 3 10 4 11 5 12 6 13 7 6 8 5 9 4 10 3 11 2 12 1 13
REMARK H PARENT
REMARK Flexibility Score: inf
ROOT
ATOM      1  C   UNL     1     120.449  70.069  -5.023  1.00  0.00     0.000 C 
ENDROOT
BRANCH   1   2
ATOM      2  C   UNL     1     120.261  69.582  -6.470  1.00  0.00     0.000 C 
BRANCH   2   3
ATOM      3  C   UNL     1     120.332  68.045  -6.589  1.00  0.00     0.006 C 
BRANCH   3   4
ATOM      4  C   UNL     1     120.298  67.538  -8.040  1.00  0.00     0.053 C 
BRANCH   4   5
ATOM      5  C   UNL     1     121.608  66.960  -8.473  1.00  0.00     0.041 C 
ATOM      6  O   UNL     1     121.752  65.713  -8.559  1.00  0.00    -0.550 OA
ATOM      7  O   UNL     1     122.663  67.800  -8.809  1.00  0.00    -0.550 OA
ENDBRANCH   4   5
ENDBRANCH   3   4
ENDBRANCH   2   3
ENDBRANCH   1   2
BRANCH   1   8
ATOM      8  C   UNL     1     119.875  69.088  -3.985  1.00  0.00     0.000 C 
BRANCH   8   9
ATOM      9  C   UNL     1     119.875  69.601  -2.530  1.00  0.00    -0.000 C 
BRANCH   9  10
ATOM     10  C   UNL     1     120.239  68.549  -1.467  1.00  0.00    -0.000 C 
BRANCH  10  11
ATOM     11  C   UNL     1     120.777  69.172  -0.171  1.00  0.00    -0.000 C 
BRANCH  11  12
ATOM     12  C   UNL     1     120.293  70.618  -0.015  1.00  0.00    -0.003 C 
ATOM     13  C   UNL     1     120.895  71.270   1.226  1.00  0.00     0.004 C 
ENDBRANCH  11  12
ENDBRANCH  10  11
ENDBRANCH   9  10
ENDBRANCH   8   9
ENDBRANCH   1   8
TORSDOF 9
ENDMDL
