MODEL 1
REMARK VINA RESULT:    13.234      0.000      0.000
REMARK INTER + INTRA:          15.617
REMARK INTER:                  15.555
REMARK INTRA:                   0.062
REMARK UNBOUND:                 0.062
REMARK SMILES O=c1c(O)c(-c2ccc(O)cc2)oc2cc(O)cc(O)c12
REMARK SMILES IDX 5 1 3 2 2 3 1 4 21 5 19 6 18 7 16 8 15 9 14 10 13 11 6 12
REMARK SMILES IDX 7 13 8 14 9 15 12 16 11 17 10 18 4 20 20 22 17 24
REMARK H PARENT 10 19 4 21 20 23 17 25
REMARK Flexibility Score: inf
ROOT
ATOM      1  C   UNL     1      28.605  59.277   4.337  1.00  0.00     0.180 A 
ATOM      2  C   UNL     1      27.216  59.490   4.427  1.00  0.00     0.208 A 
ATOM      3  C   UNL     1      26.740  60.800   4.596  1.00  0.00     0.238 A 
ATOM      4  O   UNL     1      25.497  61.003   4.666  1.00  0.00    -0.285 OA
ATOM      5  C   UNL     1      27.656  61.867   4.691  1.00  0.00     0.111 A 
ATOM      6  C   UNL     1      27.259  63.215   4.865  1.00  0.00     0.134 A 
ATOM      7  C   UNL     1      28.233  64.221   4.961  1.00  0.00     0.093 A 
ATOM      8  C   UNL     1      29.591  63.906   4.887  1.00  0.00     0.123 A 
ATOM      9  C   UNL     1      29.990  62.576   4.715  1.00  0.00     0.094 A 
ATOM     10  C   UNL     1      29.035  61.560   4.615  1.00  0.00     0.146 A 
ATOM     11  O   UNL     1      29.440  60.307   4.447  1.00  0.00    -0.452 OA
ENDROOT
BRANCH   1  12
ATOM     12  C   UNL     1      29.184  57.928   4.140  1.00  0.00     0.021 A 
ATOM     13  C   UNL     1      28.672  57.097   3.130  1.00  0.00     0.016 A 
ATOM     14  C   UNL     1      29.188  55.811   2.942  1.00  0.00     0.047 A 
ATOM     15  C   UNL     1      30.209  55.334   3.769  1.00  0.00     0.115 A 
ATOM     16  C   UNL     1      30.197  57.436   4.983  1.00  0.00     0.016 A 
ATOM     17  C   UNL     1      30.710  56.149   4.792  1.00  0.00     0.047 A 
BRANCH  15  18
ATOM     18  O   UNL     1      30.713  54.051   3.570  1.00  0.00    -0.508 OA
ATOM     19  H   UNL     1      30.112  53.282   3.303  1.00  0.00     0.293 HD
ENDBRANCH  15  18
ENDBRANCH   1  12
BRANCH   2  20
ATOM     20  O   UNL     1      26.332  58.409   4.379  1.00  0.00    -0.502 OA
ATOM     21  H   UNL     1      26.631  57.456   4.551  1.00  0.00     0.293 HD
ENDBRANCH   2  20
BRANCH   6  22
ATOM     22  O   UNL     1      25.909  63.561   4.944  1.00  0.00    -0.507 OA
ATOM     23  H   UNL     1      25.477  64.178   4.264  1.00  0.00     0.293 HD
ENDBRANCH   6  22
BRANCH   8  24
ATOM     24  O   UNL     1      30.537  64.923   4.986  1.00  0.00    -0.508 OA
ATOM     25  H   UNL     1      31.498  64.784   4.694  1.00  0.00     0.293 HD
ENDBRANCH   8  24
TORSDOF 5
ENDMDL
MODEL 2
REMARK VINA RESULT:    13.599      3.081      8.700
REMARK INTER + INTRA:          16.046
REMARK INTER:                  15.938
REMARK INTRA:                   0.108
REMARK UNBOUND:                 0.062
REMARK SMILES O=c1c(O)c(-c2ccc(O)cc2)oc2cc(O)cc(O)c12
REMARK SMILES IDX 5 1 3 2 2 3 1 4 21 5 19 6 18 7 16 8 15 9 14 10 13 11 6 12
REMARK SMILES IDX 7 13 8 14 9 15 12 16 11 17 10 18 4 20 20 22 17 24
REMARK H PARENT 10 19 4 21 20 23 17 25
REMARK Flexibility Score: inf
ROOT
ATOM      1  C   UNL     1      27.588  65.544   5.142  1.00  0.00     0.180 A 
ATOM      2  C   UNL     1      28.947  65.340   4.835  1.00  0.00     0.208 A 
ATOM      3  C   UNL     1      29.398  64.032   4.590  1.00  0.00     0.238 A 
ATOM      4  O   UNL     1      30.611  63.839   4.303  1.00  0.00    -0.285 OA
ATOM      5  C   UNL     1      28.492  62.956   4.674  1.00  0.00     0.111 A 
ATOM      6  C   UNL     1      28.866  61.609   4.446  1.00  0.00     0.134 A 
ATOM      7  C   UNL     1      27.906  60.592   4.558  1.00  0.00     0.093 A 
ATOM      8  C   UNL     1      26.584  60.893   4.895  1.00  0.00     0.123 A 
ATOM      9  C   UNL     1      26.209  62.221   5.122  1.00  0.00     0.094 A 
ATOM     10  C   UNL     1      27.150  63.249   5.013  1.00  0.00     0.146 A 
ATOM     11  O   UNL     1      26.766  64.502   5.228  1.00  0.00    -0.452 OA
ENDROOT
BRANCH   1  12
ATOM     12  C   UNL     1      27.034  66.894   5.395  1.00  0.00     0.021 A 
ATOM     13  C   UNL     1      27.366  67.951   4.532  1.00  0.00     0.016 A 
ATOM     14  C   UNL     1      26.872  69.238   4.766  1.00  0.00     0.047 A 
ATOM     15  C   UNL     1      26.054  69.488   5.871  1.00  0.00     0.115 A 
ATOM     16  C   UNL     1      26.226  67.155   6.517  1.00  0.00     0.016 A 
ATOM     17  C   UNL     1      25.734  68.444   6.748  1.00  0.00     0.047 A 
BRANCH  15  18
ATOM     18  O   UNL     1      25.568  70.775   6.090  1.00  0.00    -0.508 OA
ATOM     19  H   UNL     1      24.574  70.967   6.123  1.00  0.00     0.293 HD
ENDBRANCH  15  18
ENDBRANCH   1  12
BRANCH   2  20
ATOM     20  O   UNL     1      29.835  66.418   4.807  1.00  0.00    -0.502 OA
ATOM     21  H   UNL     1      30.772  66.359   5.186  1.00  0.00     0.293 HD
ENDBRANCH   2  20
BRANCH   6  22
ATOM     22  O   UNL     1      30.179  61.276   4.109  1.00  0.00    -0.507 OA
ATOM     23  H   UNL     1      30.421  60.935   3.185  1.00  0.00     0.293 HD
ENDBRANCH   6  22
BRANCH   8  24
ATOM     24  O   UNL     1      25.652  59.865   5.001  1.00  0.00    -0.508 OA
ATOM     25  H   UNL     1      24.656  60.053   5.040  1.00  0.00     0.293 HD
ENDBRANCH   8  24
TORSDOF 5
ENDMDL
MODEL 3
REMARK VINA RESULT:    15.645      4.581      7.512
REMARK INTER + INTRA:          18.451
REMARK INTER:                  18.745
REMARK INTRA:                  -0.294
REMARK UNBOUND:                 0.062
REMARK SMILES O=c1c(O)c(-c2ccc(O)cc2)oc2cc(O)cc(O)c12
REMARK SMILES IDX 5 1 3 2 2 3 1 4 21 5 19 6 18 7 16 8 15 9 14 10 13 11 6 12
REMARK SMILES IDX 7 13 8 14 9 15 12 16 11 17 10 18 4 20 20 22 17 24
REMARK H PARENT 10 19 4 21 20 23 17 25
REMARK Flexibility Score: inf
ROOT
ATOM      1  C   UNL     1      27.016  66.365   5.296  1.00  0.00     0.180 A 
ATOM      2  C   UNL     1      26.298  66.776   6.435  1.00  0.00     0.208 A 
ATOM      3  C   UNL     1      26.112  68.150   6.659  1.00  0.00     0.238 A 
ATOM      4  O   UNL     1      25.460  68.530   7.670  1.00  0.00    -0.285 OA
ATOM      5  C   UNL     1      26.661  69.084   5.757  1.00  0.00     0.111 A 
ATOM      6  C   UNL     1      26.522  70.485   5.913  1.00  0.00     0.134 A 
ATOM      7  C   UNL     1      27.106  71.350   4.976  1.00  0.00     0.093 A 
ATOM      8  C   UNL     1      27.826  70.845   3.891  1.00  0.00     0.123 A 
ATOM      9  C   UNL     1      27.966  69.462   3.732  1.00  0.00     0.094 A 
ATOM     10  C   UNL     1      27.389  68.583   4.653  1.00  0.00     0.146 A 
ATOM     11  O   UNL     1      27.533  67.275   4.475  1.00  0.00    -0.452 OA
ENDROOT
BRANCH   1  12
ATOM     12  C   UNL     1      27.239  64.935   4.980  1.00  0.00     0.021 A 
ATOM     13  C   UNL     1      28.384  64.288   5.476  1.00  0.00     0.016 A 
ATOM     14  C   UNL     1      28.625  62.945   5.171  1.00  0.00     0.047 A 
ATOM     15  C   UNL     1      27.736  62.236   4.357  1.00  0.00     0.115 A 
ATOM     16  C   UNL     1      26.358  64.223   4.146  1.00  0.00     0.016 A 
ATOM     17  C   UNL     1      26.603  62.880   3.843  1.00  0.00     0.047 A 
BRANCH  15  18
ATOM     18  O   UNL     1      27.989  60.899   4.064  1.00  0.00    -0.508 OA
ATOM     19  H   UNL     1      28.270  60.243   4.782  1.00  0.00     0.293 HD
ENDBRANCH  15  18
ENDBRANCH   1  12
BRANCH   2  20
ATOM     20  O   UNL     1      25.807  65.832   7.340  1.00  0.00    -0.502 OA
ATOM     21  H   UNL     1      25.682  66.037   8.323  1.00  0.00     0.293 HD
ENDBRANCH   2  20
BRANCH   6  22
ATOM     22  O   UNL     1      25.810  71.021   6.988  1.00  0.00    -0.507 OA
ATOM     23  H   UNL     1      24.799  71.090   6.975  1.00  0.00     0.293 HD
ENDBRANCH   6  22
BRANCH   8  24
ATOM     24  O   UNL     1      28.396  71.726   2.976  1.00  0.00    -0.508 OA
ATOM     25  H   UNL     1      28.852  72.580   3.275  1.00  0.00     0.293 HD
ENDBRANCH   8  24
TORSDOF 5
ENDMDL
