MODEL 1
REMARK VINA RESULT:    -3.819      0.000      0.000
REMARK INTER + INTRA:          -5.806
REMARK INTER:                  -5.159
REMARK INTRA:                  -0.647
REMARK UNBOUND:                -0.647
REMARK SMILES CCCCCCC=CC(=O)[O-]
REMARK SMILES IDX 5 1 6 2 7 3 8 4 9 5 10 6 11 7 4 8 3 9 2 10 1 11
REMARK H PARENT
REMARK Flexibility Score: inf
ROOT
ATOM      1  C   UNL     1       9.079   9.141  17.822  1.00  0.00     0.004 C 
ENDROOT
BRANCH   1   2
ATOM      2  C   UNL     1       8.474  10.099  16.784  1.00  0.00     0.027 C 
BRANCH   2   3
ATOM      3  C   UNL     1       8.056   9.387  15.523  1.00  0.00    -0.025 C 
ATOM      4  C   UNL     1       6.798   9.088  15.166  1.00  0.00     0.020 C 
BRANCH   4   5
ATOM      5  C   UNL     1       5.572   9.345  15.952  1.00  0.00     0.064 C 
ATOM      6  O   UNL     1       4.982  10.456  15.925  1.00  0.00    -0.545 OA
ATOM      7  O   UNL     1       5.073   8.337  16.765  1.00  0.00    -0.545 OA
ENDBRANCH   4   5
ENDBRANCH   2   3
ENDBRANCH   1   2
BRANCH   1   8
ATOM      8  C   UNL     1       8.115   8.875  18.992  1.00  0.00     0.000 C 
BRANCH   8   9
ATOM      9  C   UNL     1       7.148  10.044  19.239  1.00  0.00    -0.000 C 
BRANCH   9  10
ATOM     10  C   UNL     1       7.146  10.509  20.702  1.00  0.00    -0.003 C 
ATOM     11  C   UNL     1       8.562  10.536  21.271  1.00  0.00     0.004 C 
ENDBRANCH   9  10
ENDBRANCH   8   9
ENDBRANCH   1   8
TORSDOF 6
ENDMDL
MODEL 2
REMARK VINA RESULT:    -3.776      2.894      4.979
REMARK INTER + INTRA:          -5.747
REMARK INTER:                  -5.159
REMARK INTRA:                  -0.588
REMARK UNBOUND:                -0.647
REMARK SMILES CCCCCCC=CC(=O)[O-]
REMARK SMILES IDX 5 1 6 2 7 3 8 4 9 5 10 6 11 7 4 8 3 9 2 10 1 11
REMARK H PARENT
REMARK Flexibility Score: inf
ROOT
ATOM      1  C   UNL     1       9.139   9.185  16.903  1.00  0.00     0.004 C 
ENDROOT
BRANCH   1   2
ATOM      2  C   UNL     1       8.950   9.113  18.426  1.00  0.00     0.027 C 
BRANCH   2   3
ATOM      3  C   UNL     1       7.717   9.848  18.884  1.00  0.00    -0.025 C 
ATOM      4  C   UNL     1       7.463  10.259  20.137  1.00  0.00     0.020 C 
BRANCH   4   5
ATOM      5  C   UNL     1       8.308  10.033  21.329  1.00  0.00     0.064 C 
ATOM      6  O   UNL     1       8.307   8.940  21.952  1.00  0.00    -0.545 OA
ATOM      7  O   UNL     1       9.106  11.070  21.792  1.00  0.00    -0.545 OA
ENDBRANCH   4   5
ENDBRANCH   2   3
ENDBRANCH   1   2
BRANCH   1   8
ATOM      8  C   UNL     1       8.223  10.239  16.257  1.00  0.00     0.000 C 
BRANCH   8   9
ATOM      9  C   UNL     1       7.224   9.625  15.263  1.00  0.00    -0.000 C 
BRANCH   9  10
ATOM     10  C   UNL     1       5.766   9.795  15.712  1.00  0.00    -0.003 C 
ATOM     11  C   UNL     1       5.179   8.467  16.185  1.00  0.00     0.004 C 
ENDBRANCH   9  10
ENDBRANCH   8   9
ENDBRANCH   1   8
TORSDOF 6
ENDMDL
MODEL 3
REMARK VINA RESULT:    -3.773      4.456      5.804
REMARK INTER + INTRA:          -5.744
REMARK INTER:                  -5.374
REMARK INTRA:                  -0.370
REMARK UNBOUND:                -0.647
REMARK SMILES CCCCCCC=CC(=O)[O-]
REMARK SMILES IDX 5 1 6 2 7 3 8 4 9 5 10 6 11 7 4 8 3 9 2 10 1 11
REMARK H PARENT
REMARK Flexibility Score: inf
ROOT
ATOM      1  C   UNL     1       7.211  11.709  12.679  1.00  0.00     0.004 C 
ENDROOT
BRANCH   1   2
ATOM      2  C   UNL     1       8.008  10.954  11.604  1.00  0.00     0.027 C 
BRANCH   2   3
ATOM      3  C   UNL     1       7.178  10.648  10.384  1.00  0.00    -0.025 C 
ATOM      4  C   UNL     1       7.024   9.441   9.817  1.00  0.00     0.020 C 
BRANCH   4   5
ATOM      5  C   UNL     1       7.670   8.179  10.234  1.00  0.00     0.064 C 
ATOM      6  O   UNL     1       7.359   7.591  11.302  1.00  0.00    -0.545 OA
ATOM      7  O   UNL     1       8.672   7.643   9.437  1.00  0.00    -0.545 OA
ENDBRANCH   4   5
ENDBRANCH   2   3
ENDBRANCH   1   2
BRANCH   1   8
ATOM      8  C   UNL     1       7.551  11.222  14.098  1.00  0.00     0.000 C 
BRANCH   8   9
ATOM      9  C   UNL     1       7.606   9.690  14.201  1.00  0.00    -0.000 C 
BRANCH   9  10
ATOM     10  C   UNL     1       7.550   9.193  15.653  1.00  0.00    -0.003 C 
ATOM     11  C   UNL     1       8.850   9.505  16.390  1.00  0.00     0.004 C 
ENDBRANCH   9  10
ENDBRANCH   8   9
ENDBRANCH   1   8
TORSDOF 6
ENDMDL
MODEL 4
REMARK VINA RESULT:    -3.760      7.324      8.549
REMARK INTER + INTRA:          -5.726
REMARK INTER:                  -5.112
REMARK INTRA:                  -0.615
REMARK UNBOUND:                -0.647
REMARK SMILES CCCCCCC=CC(=O)[O-]
REMARK SMILES IDX 5 1 6 2 7 3 8 4 9 5 10 6 11 7 4 8 3 9 2 10 1 11
REMARK H PARENT
REMARK Flexibility Score: inf
ROOT
ATOM      1  C   UNL     1       7.275   3.090  20.894  1.00  0.00     0.004 C 
ENDROOT
BRANCH   1   2
ATOM      2  C   UNL     1       8.613   2.515  20.405  1.00  0.00     0.027 C 
BRANCH   2   3
ATOM      3  C   UNL     1       9.477   3.558  19.745  1.00  0.00    -0.025 C 
ATOM      4  C   UNL     1      10.480   4.235  20.327  1.00  0.00     0.020 C 
BRANCH   4   5
ATOM      5  C   UNL     1      10.910   4.138  21.738  1.00  0.00     0.064 C 
ATOM      6  O   UNL     1      10.456   4.903  22.629  1.00  0.00    -0.545 OA
ATOM      7  O   UNL     1      11.865   3.193  22.085  1.00  0.00    -0.545 OA
ENDBRANCH   4   5
ENDBRANCH   2   3
ENDBRANCH   1   2
BRANCH   1   8
ATOM      8  C   UNL     1       6.310   3.375  19.729  1.00  0.00     0.000 C 
BRANCH   8   9
ATOM      9  C   UNL     1       5.899   2.101  18.975  1.00  0.00    -0.000 C 
BRANCH   9  10
ATOM     10  C   UNL     1       5.990   2.261  17.451  1.00  0.00    -0.003 C 
ATOM     11  C   UNL     1       7.419   2.047  16.961  1.00  0.00     0.004 C 
ENDBRANCH   9  10
ENDBRANCH   8   9
ENDBRANCH   1   8
TORSDOF 6
ENDMDL
MODEL 5
REMARK VINA RESULT:    -3.756      6.935      8.414
REMARK INTER + INTRA:          -5.720
REMARK INTER:                  -5.122
REMARK INTRA:                  -0.599
REMARK UNBOUND:                -0.647
REMARK SMILES CCCCCCC=CC(=O)[O-]
REMARK SMILES IDX 5 1 6 2 7 3 8 4 9 5 10 6 11 7 4 8 3 9 2 10 1 11
REMARK H PARENT
REMARK Flexibility Score: inf
ROOT
ATOM      1  C   UNL     1       6.448   3.910  19.868  1.00  0.00     0.004 C 
ENDROOT
BRANCH   1   2
ATOM      2  C   UNL     1       7.589   4.478  20.726  1.00  0.00     0.027 C 
BRANCH   2   3
ATOM      3  C   UNL     1       8.855   4.679  19.934  1.00  0.00    -0.025 C 
ATOM      4  C   UNL     1       9.947   3.900  19.980  1.00  0.00     0.020 C 
BRANCH   4   5
ATOM      5  C   UNL     1      10.155   2.720  20.846  1.00  0.00     0.064 C 
ATOM      6  O   UNL     1       9.897   1.552  20.456  1.00  0.00    -0.545 OA
ATOM      7  O   UNL     1      10.621   2.911  22.139  1.00  0.00    -0.545 OA
ENDBRANCH   4   5
ENDBRANCH   2   3
ENDBRANCH   1   2
BRANCH   1   8
ATOM      8  C   UNL     1       6.376   2.374  19.947  1.00  0.00     0.000 C 
BRANCH   8   9
ATOM      9  C   UNL     1       5.614   1.756  18.764  1.00  0.00    -0.000 C 
BRANCH   9  10
ATOM     10  C   UNL     1       5.982   2.405  17.421  1.00  0.00    -0.003 C 
ATOM     11  C   UNL     1       7.380   1.987  16.975  1.00  0.00     0.004 C 
ENDBRANCH   9  10
ENDBRANCH   8   9
ENDBRANCH   1   8
TORSDOF 6
ENDMDL
MODEL 6
REMARK VINA RESULT:    -3.716     10.943     12.078
REMARK INTER + INTRA:          -5.666
REMARK INTER:                  -5.099
REMARK INTRA:                  -0.567
REMARK UNBOUND:                -0.647
REMARK SMILES CCCCCCC=CC(=O)[O-]
REMARK SMILES IDX 5 1 6 2 7 3 8 4 9 5 10 6 11 7 4 8 3 9 2 10 1 11
REMARK H PARENT
REMARK Flexibility Score: inf
ROOT
ATOM      1  C   UNL     1      13.241  11.021   7.829  1.00  0.00     0.004 C 
ENDROOT
BRANCH   1   2
ATOM      2  C   UNL     1      13.710   9.648   7.322  1.00  0.00     0.027 C 
BRANCH   2   3
ATOM      3  C   UNL     1      13.210   8.518   8.185  1.00  0.00    -0.025 C 
ATOM      4  C   UNL     1      13.015   7.250   7.789  1.00  0.00     0.020 C 
BRANCH   4   5
ATOM      5  C   UNL     1      13.200   6.712   6.425  1.00  0.00     0.064 C 
ATOM      6  O   UNL     1      14.249   6.109   6.080  1.00  0.00    -0.545 OA
ATOM      7  O   UNL     1      12.195   6.903   5.487  1.00  0.00    -0.545 OA
ENDBRANCH   4   5
ENDBRANCH   2   3
ENDBRANCH   1   2
BRANCH   1   8
ATOM      8  C   UNL     1      14.419  11.987   8.048  1.00  0.00     0.000 C 
BRANCH   8   9
ATOM      9  C   UNL     1      15.408  11.483   9.111  1.00  0.00    -0.000 C 
BRANCH   9  10
ATOM     10  C   UNL     1      14.752  11.300  10.487  1.00  0.00    -0.003 C 
ATOM     11  C   UNL     1      14.940   9.875  11.000  1.00  0.00     0.004 C 
ENDBRANCH   9  10
ENDBRANCH   8   9
ENDBRANCH   1   8
TORSDOF 6
ENDMDL
MODEL 7
REMARK VINA RESULT:    -3.678      1.891      4.094
REMARK INTER + INTRA:          -5.615
REMARK INTER:                  -4.779
REMARK INTRA:                  -0.836
REMARK UNBOUND:                -0.647
REMARK SMILES CCCCCCC=CC(=O)[O-]
REMARK SMILES IDX 5 1 6 2 7 3 8 4 9 5 10 6 11 7 4 8 3 9 2 10 1 11
REMARK H PARENT
REMARK Flexibility Score: inf
ROOT
ATOM      1  C   UNL     1       9.005   9.194  16.596  1.00  0.00     0.004 C 
ENDROOT
BRANCH   1   2
ATOM      2  C   UNL     1       9.048   9.089  18.128  1.00  0.00     0.027 C 
BRANCH   2   3
ATOM      3  C   UNL     1       8.011   9.958  18.791  1.00  0.00    -0.025 C 
ATOM      4  C   UNL     1       6.949   9.527  19.490  1.00  0.00     0.020 C 
BRANCH   4   5
ATOM      5  C   UNL     1       6.549   8.121  19.711  1.00  0.00     0.064 C 
ATOM      6  O   UNL     1       5.557   7.609  19.131  1.00  0.00    -0.545 OA
ATOM      7  O   UNL     1       7.275   7.350  20.609  1.00  0.00    -0.545 OA
ENDBRANCH   4   5
ENDBRANCH   2   3
ENDBRANCH   1   2
BRANCH   1   8
ATOM      8  C   UNL     1       8.163  10.393  16.124  1.00  0.00     0.000 C 
BRANCH   8   9
ATOM      9  C   UNL     1       7.064   9.987  15.129  1.00  0.00    -0.000 C 
BRANCH   9  10
ATOM     10  C   UNL     1       6.057   8.998  15.734  1.00  0.00    -0.003 C 
ATOM     11  C   UNL     1       4.877   9.731  16.365  1.00  0.00     0.004 C 
ENDBRANCH   9  10
ENDBRANCH   8   9
ENDBRANCH   1   8
TORSDOF 6
ENDMDL
MODEL 8
REMARK VINA RESULT:    -3.573      3.560      6.442
REMARK INTER + INTRA:          -5.473
REMARK INTER:                  -5.006
REMARK INTRA:                  -0.467
REMARK UNBOUND:                -0.647
REMARK SMILES CCCCCCC=CC(=O)[O-]
REMARK SMILES IDX 5 1 6 2 7 3 8 4 9 5 10 6 11 7 4 8 3 9 2 10 1 11
REMARK H PARENT
REMARK Flexibility Score: inf
ROOT
ATOM      1  C   UNL     1       7.450  11.653  12.453  1.00  0.00     0.004 C 
ENDROOT
BRANCH   1   2
ATOM      2  C   UNL     1       7.545  11.284  13.942  1.00  0.00     0.027 C 
BRANCH   2   3
ATOM      3  C   UNL     1       7.506   9.795  14.166  1.00  0.00    -0.025 C 
ATOM      4  C   UNL     1       7.716   9.167  15.334  1.00  0.00     0.020 C 
BRANCH   4   5
ATOM      5  C   UNL     1       8.076   9.795  16.623  1.00  0.00     0.064 C 
ATOM      6  O   UNL     1       7.280  10.543  17.247  1.00  0.00    -0.545 OA
ATOM      7  O   UNL     1       9.342   9.575  17.146  1.00  0.00    -0.545 OA
ENDBRANCH   4   5
ENDBRANCH   2   3
ENDBRANCH   1   2
BRANCH   1   8
ATOM      8  C   UNL     1       8.029  10.551  11.548  1.00  0.00     0.000 C 
BRANCH   8   9
ATOM      9  C   UNL     1       7.192  10.328  10.279  1.00  0.00    -0.000 C 
BRANCH   9  10
ATOM     10  C   UNL     1       7.130   8.851   9.865  1.00  0.00    -0.003 C 
ATOM     11  C   UNL     1       7.416   7.936  11.053  1.00  0.00     0.004 C 
ENDBRANCH   9  10
ENDBRANCH   8   9
ENDBRANCH   1   8
TORSDOF 6
ENDMDL
MODEL 9
REMARK VINA RESULT:    -3.461      7.631      9.193
REMARK INTER + INTRA:          -5.322
REMARK INTER:                  -4.986
REMARK INTRA:                  -0.336
REMARK UNBOUND:                -0.647
REMARK SMILES CCCCCCC=CC(=O)[O-]
REMARK SMILES IDX 5 1 6 2 7 3 8 4 9 5 10 6 11 7 4 8 3 9 2 10 1 11
REMARK H PARENT
REMARK Flexibility Score: inf
ROOT
ATOM      1  C   UNL     1       8.914   3.414  20.078  1.00  0.00     0.004 C 
ENDROOT
BRANCH   1   2
ATOM      2  C   UNL     1      10.134   2.786  20.769  1.00  0.00     0.027 C 
BRANCH   2   3
ATOM      3  C   UNL     1       9.861   2.443  22.211  1.00  0.00    -0.025 C 
ATOM      4  C   UNL     1      10.360   3.080  23.282  1.00  0.00     0.020 C 
BRANCH   4   5
ATOM      5  C   UNL     1      11.315   4.209  23.273  1.00  0.00     0.064 C 
ATOM      6  O   UNL     1      10.935   5.406  23.346  1.00  0.00    -0.545 OA
ATOM      7  O   UNL     1      12.671   3.940  23.152  1.00  0.00    -0.545 OA
ENDBRANCH   4   5
ENDBRANCH   2   3
ENDBRANCH   1   2
BRANCH   1   8
ATOM      8  C   UNL     1       7.902   2.350  19.616  1.00  0.00     0.000 C 
BRANCH   8   9
ATOM      9  C   UNL     1       6.570   2.962  19.154  1.00  0.00    -0.000 C 
BRANCH   9  10
ATOM     10  C   UNL     1       6.120   2.429  17.786  1.00  0.00    -0.003 C 
ATOM     11  C   UNL     1       7.315   1.973  16.953  1.00  0.00     0.004 C 
ENDBRANCH   9  10
ENDBRANCH   8   9
ENDBRANCH   1   8
TORSDOF 6
ENDMDL
