MODEL 1
REMARK VINA RESULT:    -3.509      0.000      0.000
REMARK INTER + INTRA:          -6.453
REMARK INTER:                  -5.560
REMARK INTRA:                  -0.894
REMARK UNBOUND:                -0.894
REMARK SMILES CCCCCCCCCCCC(=O)[O-]
REMARK SMILES IDX 7 1 8 2 9 3 10 4 11 5 12 6 13 7 14 8 6 9 5 10 4 11 3 12 2 13
REMARK SMILES IDX 1 14
REMARK H PARENT
REMARK Flexibility Score: inf
ROOT
ATOM      1  C   UNL     1       5.988   3.991   1.367  1.00  0.00     0.000 C 
ENDROOT
BRANCH   1   2
ATOM      2  C   UNL     1       7.367   4.657   1.176  1.00  0.00     0.000 C 
BRANCH   2   3
ATOM      3  C   UNL     1       7.502   5.951   1.998  1.00  0.00     0.000 C 
BRANCH   3   4
ATOM      4  C   UNL     1       8.112   7.104   1.186  1.00  0.00     0.006 C 
BRANCH   4   5
ATOM      5  C   UNL     1       7.045   8.027   0.583  1.00  0.00     0.053 C 
BRANCH   5   6
ATOM      6  C   UNL     1       6.916   7.786  -0.887  1.00  0.00     0.041 C 
ATOM      7  O   UNL     1       7.936   7.531  -1.580  1.00  0.00    -0.550 OA
ATOM      8  O   UNL     1       5.662   7.792  -1.485  1.00  0.00    -0.550 OA
ENDBRANCH   5   6
ENDBRANCH   4   5
ENDBRANCH   3   4
ENDBRANCH   2   3
ENDBRANCH   1   2
BRANCH   1   9
ATOM      9  C   UNL     1       4.819   4.820   0.805  1.00  0.00     0.000 C 
BRANCH   9  10
ATOM     10  C   UNL     1       3.999   5.516   1.902  1.00  0.00    -0.000 C 
BRANCH  10  11
ATOM     11  C   UNL     1       3.698   6.991   1.582  1.00  0.00    -0.000 C 
BRANCH  11  12
ATOM     12  C   UNL     1       2.558   7.627   2.403  1.00  0.00    -0.000 C 
BRANCH  12  13
ATOM     13  C   UNL     1       2.681   7.457   3.928  1.00  0.00    -0.003 C 
ATOM     14  C   UNL     1       1.540   8.125   4.694  1.00  0.00     0.004 C 
ENDBRANCH  12  13
ENDBRANCH  11  12
ENDBRANCH  10  11
ENDBRANCH   9  10
ENDBRANCH   1   9
TORSDOF 10
ENDMDL
MODEL 2
REMARK VINA RESULT:    -3.502      2.909      5.031
REMARK INTER + INTRA:          -6.443
REMARK INTER:                  -5.097
REMARK INTRA:                  -1.346
REMARK UNBOUND:                -0.894
REMARK SMILES CCCCCCCCCCCC(=O)[O-]
REMARK SMILES IDX 7 1 8 2 9 3 10 4 11 5 12 6 13 7 14 8 6 9 5 10 4 11 3 12 2 13
REMARK SMILES IDX 1 14
REMARK H PARENT
REMARK Flexibility Score: inf
ROOT
ATOM      1  C   UNL     1       5.400   3.979   0.969  1.00  0.00     0.000 C 
ENDROOT
BRANCH   1   2
ATOM      2  C   UNL     1       4.377   5.108   0.723  1.00  0.00     0.000 C 
BRANCH   2   3
ATOM      3  C   UNL     1       3.786   5.648   2.038  1.00  0.00     0.000 C 
BRANCH   3   4
ATOM      4  C   UNL     1       3.612   7.175   2.023  1.00  0.00     0.006 C 
BRANCH   4   5
ATOM      5  C   UNL     1       4.541   7.881   3.019  1.00  0.00     0.053 C 
BRANCH   5   6
ATOM      6  C   UNL     1       3.986   7.789   4.405  1.00  0.00     0.041 C 
ATOM      7  O   UNL     1       4.754   7.851   5.401  1.00  0.00    -0.550 OA
ATOM      8  O   UNL     1       2.615   7.684   4.599  1.00  0.00    -0.550 OA
ENDBRANCH   5   6
ENDBRANCH   4   5
ENDBRANCH   3   4
ENDBRANCH   2   3
ENDBRANCH   1   2
BRANCH   1   9
ATOM      9  C   UNL     1       6.792   4.487   1.382  1.00  0.00     0.000 C 
BRANCH   9  10
ATOM     10  C   UNL     1       7.366   5.521   0.401  1.00  0.00    -0.000 C 
BRANCH  10  11
ATOM     11  C   UNL     1       7.901   6.782   1.103  1.00  0.00    -0.000 C 
BRANCH  11  12
ATOM     12  C   UNL     1       7.355   8.121   0.565  1.00  0.00    -0.000 C 
BRANCH  12  13
ATOM     13  C   UNL     1       7.003   8.125  -0.933  1.00  0.00    -0.003 C 
ATOM     14  C   UNL     1       5.496   8.125  -1.189  1.00  0.00     0.004 C 
ENDBRANCH  12  13
ENDBRANCH  11  12
ENDBRANCH  10  11
ENDBRANCH   9  10
ENDBRANCH   1   9
TORSDOF 10
ENDMDL
MODEL 3
REMARK VINA RESULT:    -2.696      2.668      4.874
REMARK INTER + INTRA:          -5.165
REMARK INTER:                  -4.597
REMARK INTRA:                  -0.568
REMARK UNBOUND:                -0.894
REMARK SMILES CCCCCCCCCCCC(=O)[O-]
REMARK SMILES IDX 7 1 8 2 9 3 10 4 11 5 12 6 13 7 14 8 6 9 5 10 4 11 3 12 2 13
REMARK SMILES IDX 1 14
REMARK H PARENT
REMARK Flexibility Score: inf
ROOT
ATOM      1  C   UNL     1       7.939   7.211   1.270  1.00  0.00     0.000 C 
ENDROOT
BRANCH   1   2
ATOM      2  C   UNL     1       7.464   6.980   2.720  1.00  0.00     0.000 C 
BRANCH   2   3
ATOM      3  C   UNL     1       6.564   8.124   3.222  1.00  0.00     0.000 C 
BRANCH   3   4
ATOM      4  C   UNL     1       5.096   7.946   2.802  1.00  0.00     0.006 C 
BRANCH   4   5
ATOM      5  C   UNL     1       4.151   7.832   4.005  1.00  0.00     0.053 C 
BRANCH   5   6
ATOM      6  C   UNL     1       2.770   7.482   3.552  1.00  0.00     0.041 C 
ATOM      7  O   UNL     1       2.598   6.806   2.504  1.00  0.00    -0.550 OA
ATOM      8  O   UNL     1       1.672   7.860   4.314  1.00  0.00    -0.550 OA
ENDBRANCH   5   6
ENDBRANCH   4   5
ENDBRANCH   3   4
ENDBRANCH   2   3
ENDBRANCH   1   2
BRANCH   1   9
ATOM      9  C   UNL     1       7.334   6.223   0.257  1.00  0.00     0.000 C 
BRANCH   9  10
ATOM     10  C   UNL     1       7.681   4.760   0.571  1.00  0.00    -0.000 C 
BRANCH  10  11
ATOM     11  C   UNL     1       6.501   3.981   1.180  1.00  0.00    -0.000 C 
BRANCH  11  12
ATOM     12  C   UNL     1       5.197   4.785   1.353  1.00  0.00    -0.000 C 
BRANCH  12  13
ATOM     13  C   UNL     1       4.372   4.972   0.067  1.00  0.00    -0.003 C 
ATOM     14  C   UNL     1       4.291   3.701  -0.777  1.00  0.00     0.004 C 
ENDBRANCH  12  13
ENDBRANCH  11  12
ENDBRANCH  10  11
ENDBRANCH   9  10
ENDBRANCH   1   9
TORSDOF 10
ENDMDL
MODEL 4
REMARK VINA RESULT:    -2.599     22.705     24.057
REMARK INTER + INTRA:          -5.012
REMARK INTER:                  -4.332
REMARK INTRA:                  -0.679
REMARK UNBOUND:                -0.894
REMARK SMILES CCCCCCCCCCCC(=O)[O-]
REMARK SMILES IDX 7 1 8 2 9 3 10 4 11 5 12 6 13 7 14 8 6 9 5 10 4 11 3 12 2 13
REMARK SMILES IDX 1 14
REMARK H PARENT
REMARK Flexibility Score: inf
ROOT
ATOM      1  C   UNL     1     -11.036  -9.651  -1.577  1.00  0.00     0.000 C 
ENDROOT
BRANCH   1   2
ATOM      2  C   UNL     1     -11.440  -9.382  -0.111  1.00  0.00     0.000 C 
BRANCH   2   3
ATOM      3  C   UNL     1     -11.757 -10.683   0.648  1.00  0.00     0.000 C 
BRANCH   3   4
ATOM      4  C   UNL     1     -10.923 -11.874   0.150  1.00  0.00     0.006 C 
BRANCH   4   5
ATOM      5  C   UNL     1      -9.682 -12.125   1.017  1.00  0.00     0.053 C 
BRANCH   5   6
ATOM      6  C   UNL     1      -8.452 -11.639   0.320  1.00  0.00     0.041 C 
ATOM      7  O   UNL     1      -8.478 -11.392  -0.915  1.00  0.00    -0.550 OA
ATOM      8  O   UNL     1      -7.287 -11.412   1.042  1.00  0.00    -0.550 OA
ENDBRANCH   5   6
ENDBRANCH   4   5
ENDBRANCH   3   4
ENDBRANCH   2   3
ENDBRANCH   1   2
BRANCH   1   9
ATOM      9  C   UNL     1     -12.104  -9.228  -2.599  1.00  0.00     0.000 C 
BRANCH   9  10
ATOM     10  C   UNL     1     -11.956  -9.946  -3.950  1.00  0.00    -0.000 C 
BRANCH  10  11
ATOM     11  C   UNL     1     -10.843 -11.010  -3.945  1.00  0.00    -0.000 C 
BRANCH  11  12
ATOM     12  C   UNL     1     -10.043 -11.135  -5.257  1.00  0.00    -0.000 C 
BRANCH  12  13
ATOM     13  C   UNL     1      -9.029 -10.006  -5.513  1.00  0.00    -0.003 C 
ATOM     14  C   UNL     1      -7.579 -10.470  -5.390  1.00  0.00     0.004 C 
ENDBRANCH  12  13
ENDBRANCH  11  12
ENDBRANCH  10  11
ENDBRANCH   9  10
ENDBRANCH   1   9
TORSDOF 10
ENDMDL
MODEL 5
REMARK VINA RESULT:    -2.586     22.254     23.700
REMARK INTER + INTRA:          -4.991
REMARK INTER:                  -4.654
REMARK INTRA:                  -0.338
REMARK UNBOUND:                -0.894
REMARK SMILES CCCCCCCCCCCC(=O)[O-]
REMARK SMILES IDX 7 1 8 2 9 3 10 4 11 5 12 6 13 7 14 8 6 9 5 10 4 11 3 12 2 13
REMARK SMILES IDX 1 14
REMARK H PARENT
REMARK Flexibility Score: inf
ROOT
ATOM      1  C   UNL     1      -9.531 -11.155   8.307  1.00  0.00     0.000 C 
ENDROOT
BRANCH   1   2
ATOM      2  C   UNL     1      -8.469 -12.125   7.747  1.00  0.00     0.000 C 
BRANCH   2   3
ATOM      3  C   UNL     1      -8.434 -12.117   6.208  1.00  0.00     0.000 C 
BRANCH   3   4
ATOM      4  C   UNL     1      -7.016 -11.909   5.652  1.00  0.00     0.006 C 
BRANCH   4   5
ATOM      5  C   UNL     1      -6.947 -12.106   4.132  1.00  0.00     0.053 C 
BRANCH   5   6
ATOM      6  C   UNL     1      -5.883 -11.236   3.541  1.00  0.00     0.041 C 
ATOM      7  O   UNL     1      -5.839 -11.045   2.298  1.00  0.00    -0.550 OA
ATOM      8  O   UNL     1      -4.970 -10.596   4.369  1.00  0.00    -0.550 OA
ENDBRANCH   5   6
ENDBRANCH   4   5
ENDBRANCH   3   4
ENDBRANCH   2   3
ENDBRANCH   1   2
BRANCH   1   9
ATOM      9  C   UNL     1     -10.966 -11.708   8.244  1.00  0.00     0.000 C 
BRANCH   9  10
ATOM     10  C   UNL     1     -11.929 -10.977   9.192  1.00  0.00    -0.000 C 
BRANCH  10  11
ATOM     11  C   UNL     1     -11.247  -9.850   9.989  1.00  0.00    -0.000 C 
BRANCH  11  12
ATOM     12  C   UNL     1     -11.275 -10.015  11.522  1.00  0.00    -0.000 C 
BRANCH  12  13
ATOM     13  C   UNL     1     -10.888  -8.756  12.319  1.00  0.00    -0.003 C 
ATOM     14  C   UNL     1     -10.834  -9.000  13.827  1.00  0.00     0.004 C 
ENDBRANCH  12  13
ENDBRANCH  11  12
ENDBRANCH  10  11
ENDBRANCH   9  10
ENDBRANCH   1   9
TORSDOF 10
ENDMDL
MODEL 6
REMARK VINA RESULT:    -2.234     23.025     24.912
REMARK INTER + INTRA:          -4.433
REMARK INTER:                  -4.133
REMARK INTRA:                  -0.300
REMARK UNBOUND:                -0.894
REMARK SMILES CCCCCCCCCCCC(=O)[O-]
REMARK SMILES IDX 7 1 8 2 9 3 10 4 11 5 12 6 13 7 14 8 6 9 5 10 4 11 3 12 2 13
REMARK SMILES IDX 1 14
REMARK H PARENT
REMARK Flexibility Score: inf
ROOT
ATOM      1  C   UNL     1      -8.686 -11.831   8.470  1.00  0.00     0.000 C 
ENDROOT
BRANCH   1   2
ATOM      2  C   UNL     1      -9.858 -10.917   8.884  1.00  0.00     0.000 C 
BRANCH   2   3
ATOM      3  C   UNL     1     -10.978 -11.700   9.594  1.00  0.00     0.000 C 
BRANCH   3   4
ATOM      4  C   UNL     1     -10.608 -12.081  11.036  1.00  0.00     0.006 C 
BRANCH   4   5
ATOM      5  C   UNL     1     -11.616 -11.546  12.061  1.00  0.00     0.053 C 
BRANCH   5   6
ATOM      6  C   UNL     1     -11.376 -10.093  12.321  1.00  0.00     0.041 C 
ATOM      7  O   UNL     1     -10.655  -9.732  13.288  1.00  0.00    -0.550 OA
ATOM      8  O   UNL     1     -11.907  -9.136  11.465  1.00  0.00    -0.550 OA
ENDBRANCH   5   6
ENDBRANCH   4   5
ENDBRANCH   3   4
ENDBRANCH   2   3
ENDBRANCH   1   2
BRANCH   1   9
ATOM      9  C   UNL     1      -8.636 -12.125   6.960  1.00  0.00     0.000 C 
BRANCH   9  10
ATOM     10  C   UNL     1      -7.206 -12.125   6.399  1.00  0.00    -0.000 C 
BRANCH  10  11
ATOM     11  C   UNL     1      -7.107 -11.476   5.006  1.00  0.00    -0.000 C 
BRANCH  11  12
ATOM     12  C   UNL     1      -5.694 -11.024   4.586  1.00  0.00    -0.000 C 
BRANCH  12  13
ATOM     13  C   UNL     1      -5.427 -11.047   3.070  1.00  0.00    -0.003 C 
ATOM     14  C   UNL     1      -6.538 -11.738   2.281  1.00  0.00     0.004 C 
ENDBRANCH  12  13
ENDBRANCH  11  12
ENDBRANCH  10  11
ENDBRANCH   9  10
ENDBRANCH   1   9
TORSDOF 10
ENDMDL
MODEL 7
REMARK VINA RESULT:    -2.212     21.821     23.589
REMARK INTER + INTRA:          -4.398
REMARK INTER:                  -3.829
REMARK INTRA:                  -0.569
REMARK UNBOUND:                -0.894
REMARK SMILES CCCCCCCCCCCC(=O)[O-]
REMARK SMILES IDX 7 1 8 2 9 3 10 4 11 5 12 6 13 7 14 8 6 9 5 10 4 11 3 12 2 13
REMARK SMILES IDX 1 14
REMARK H PARENT
REMARK Flexibility Score: inf
ROOT
ATOM      1  C   UNL     1     -10.185 -10.106  -1.707  1.00  0.00     0.000 C 
ENDROOT
BRANCH   1   2
ATOM      2  C   UNL     1     -10.212 -10.544  -0.227  1.00  0.00     0.000 C 
BRANCH   2   3
ATOM      3  C   UNL     1      -9.731 -11.995  -0.045  1.00  0.00     0.000 C 
BRANCH   3   4
ATOM      4  C   UNL     1      -8.400 -12.085   0.717  1.00  0.00     0.006 C 
BRANCH   4   5
ATOM      5  C   UNL     1      -8.596 -12.125   2.238  1.00  0.00     0.053 C 
BRANCH   5   6
ATOM      6  C   UNL     1      -7.274 -12.106   2.936  1.00  0.00     0.041 C 
ATOM      7  O   UNL     1      -7.220 -12.124   4.194  1.00  0.00    -0.550 OA
ATOM      8  O   UNL     1      -6.098 -12.117   2.197  1.00  0.00    -0.550 OA
ENDBRANCH   5   6
ENDBRANCH   4   5
ENDBRANCH   3   4
ENDBRANCH   2   3
ENDBRANCH   1   2
BRANCH   1   9
ATOM      9  C   UNL     1     -10.310 -11.276  -2.698  1.00  0.00     0.000 C 
BRANCH   9  10
ATOM     10  C   UNL     1     -10.816 -10.835  -4.081  1.00  0.00    -0.000 C 
BRANCH  10  11
ATOM     11  C   UNL     1      -9.677 -10.451  -5.042  1.00  0.00    -0.000 C 
BRANCH  11  12
ATOM     12  C   UNL     1      -8.370 -11.251  -4.871  1.00  0.00    -0.000 C 
BRANCH  12  13
ATOM     13  C   UNL     1      -7.083 -10.477  -5.209  1.00  0.00    -0.003 C 
ATOM     14  C   UNL     1      -7.319  -8.976  -5.375  1.00  0.00     0.004 C 
ENDBRANCH  12  13
ENDBRANCH  11  12
ENDBRANCH  10  11
ENDBRANCH   9  10
ENDBRANCH   1   9
TORSDOF 10
ENDMDL
MODEL 8
REMARK VINA RESULT:    -2.211     21.671     23.164
REMARK INTER + INTRA:          -4.396
REMARK INTER:                  -3.930
REMARK INTRA:                  -0.466
REMARK UNBOUND:                -0.894
REMARK SMILES CCCCCCCCCCCC(=O)[O-]
REMARK SMILES IDX 7 1 8 2 9 3 10 4 11 5 12 6 13 7 14 8 6 9 5 10 4 11 3 12 2 13
REMARK SMILES IDX 1 14
REMARK H PARENT
REMARK Flexibility Score: inf
ROOT
ATOM      1  C   UNL     1     -11.232 -11.746  -4.851  1.00  0.00     0.000 C 
ENDROOT
BRANCH   1   2
ATOM      2  C   UNL     1      -9.936 -12.021  -5.643  1.00  0.00     0.000 C 
BRANCH   2   3
ATOM      3  C   UNL     1      -9.148 -10.729  -5.927  1.00  0.00     0.000 C 
BRANCH   3   4
ATOM      4  C   UNL     1      -7.809 -10.678  -5.175  1.00  0.00     0.006 C 
BRANCH   4   5
ATOM      5  C   UNL     1      -6.606 -10.591  -6.124  1.00  0.00     0.053 C 
BRANCH   5   6
ATOM      6  C   UNL     1      -5.725  -9.443  -5.745  1.00  0.00     0.041 C 
ATOM      7  O   UNL     1      -4.524  -9.415  -6.123  1.00  0.00    -0.550 OA
ATOM      8  O   UNL     1      -6.242  -8.381  -5.016  1.00  0.00    -0.550 OA
ENDBRANCH   5   6
ENDBRANCH   4   5
ENDBRANCH   3   4
ENDBRANCH   2   3
ENDBRANCH   1   2
BRANCH   1   9
ATOM      9  C   UNL     1     -11.030 -11.721  -3.326  1.00  0.00     0.000 C 
BRANCH   9  10
ATOM     10  C   UNL     1     -11.089 -10.302  -2.740  1.00  0.00    -0.000 C 
BRANCH  10  11
ATOM     11  C   UNL     1     -11.381 -10.288  -1.228  1.00  0.00    -0.000 C 
BRANCH  11  12
ATOM     12  C   UNL     1     -10.634 -11.354  -0.401  1.00  0.00    -0.000 C 
BRANCH  12  13
ATOM     13  C   UNL     1      -9.102 -11.341  -0.555  1.00  0.00    -0.003 C 
ATOM     14  C   UNL     1      -8.374 -11.781   0.715  1.00  0.00     0.004 C 
ENDBRANCH  12  13
ENDBRANCH  11  12
ENDBRANCH  10  11
ENDBRANCH   9  10
ENDBRANCH   1   9
TORSDOF 10
ENDMDL
MODEL 9
REMARK VINA RESULT:    -1.974      2.917      5.290
REMARK INTER + INTRA:          -4.021
REMARK INTER:                  -2.940
REMARK INTRA:                  -1.081
REMARK UNBOUND:                -0.894
REMARK SMILES CCCCCCCCCCCC(=O)[O-]
REMARK SMILES IDX 7 1 8 2 9 3 10 4 11 5 12 6 13 7 14 8 6 9 5 10 4 11 3 12 2 13
REMARK SMILES IDX 1 14
REMARK H PARENT
REMARK Flexibility Score: inf
ROOT
ATOM      1  C   UNL     1       4.217   5.364   1.165  1.00  0.00     0.000 C 
ENDROOT
BRANCH   1   2
ATOM      2  C   UNL     1       4.699   6.527   0.272  1.00  0.00     0.000 C 
BRANCH   2   3
ATOM      3  C   UNL     1       4.178   7.889   0.768  1.00  0.00     0.000 C 
BRANCH   3   4
ATOM      4  C   UNL     1       4.084   7.961   2.300  1.00  0.00     0.006 C 
BRANCH   4   5
ATOM      5  C   UNL     1       2.640   8.124   2.792  1.00  0.00     0.053 C 
BRANCH   5   6
ATOM      6  C   UNL     1       2.494   7.570   4.174  1.00  0.00     0.041 C 
ATOM      7  O   UNL     1       3.427   6.901   4.691  1.00  0.00    -0.550 OA
ATOM      8  O   UNL     1       1.346   7.833   4.910  1.00  0.00    -0.550 OA
ENDBRANCH   5   6
ENDBRANCH   4   5
ENDBRANCH   3   4
ENDBRANCH   2   3
ENDBRANCH   1   2
BRANCH   1   9
ATOM      9  C   UNL     1       5.350   4.434   1.633  1.00  0.00     0.000 C 
BRANCH   9  10
ATOM     10  C   UNL     1       6.459   4.269   0.581  1.00  0.00    -0.000 C 
BRANCH  10  11
ATOM     11  C   UNL     1       7.792   4.910   1.009  1.00  0.00    -0.000 C 
BRANCH  11  12
ATOM     12  C   UNL     1       8.125   6.255   0.333  1.00  0.00    -0.000 C 
BRANCH  12  13
ATOM     13  C   UNL     1       7.987   7.491   1.240  1.00  0.00    -0.003 C 
ATOM     14  C   UNL     1       8.054   7.147   2.728  1.00  0.00     0.004 C 
ENDBRANCH  12  13
ENDBRANCH  11  12
ENDBRANCH  10  11
ENDBRANCH   9  10
ENDBRANCH   1   9
TORSDOF 10
ENDMDL
