MODEL 1
REMARK VINA RESULT:    -3.803      0.000      0.000
REMARK INTER + INTRA:          -4.583
REMARK INTER:                  -4.469
REMARK INTRA:                  -0.113
REMARK UNBOUND:                -0.113
REMARK SMILES O=C([O-])CCC(=O)[O-]
REMARK SMILES IDX 4 1 2 2 1 3 3 4 5 5 6 6 7 7 8 8
REMARK H PARENT
REMARK Flexibility Score: inf
ROOT
ATOM      1  C   UNL     1       7.943  25.711 108.723  1.00  0.00     0.059 C 
ENDROOT
BRANCH   1   2
ATOM      2  C   UNL     1       7.051  26.198 107.622  1.00  0.00     0.042 C 
ATOM      3  O   UNL     1       7.391  26.047 106.418  1.00  0.00    -0.550 OA
ATOM      4  O   UNL     1       5.865  26.856 107.924  1.00  0.00    -0.550 OA
ENDBRANCH   1   2
BRANCH   1   5
ATOM      5  C   UNL     1       7.163  25.486 110.024  1.00  0.00     0.059 C 
BRANCH   5   6
ATOM      6  C   UNL     1       7.667  26.364 111.128  1.00  0.00     0.042 C 
ATOM      7  O   UNL     1       7.526  27.613 111.059  1.00  0.00    -0.550 OA
ATOM      8  O   UNL     1       8.329  25.805 112.215  1.00  0.00    -0.550 OA
ENDBRANCH   5   6
ENDBRANCH   1   5
TORSDOF 3
ENDMDL
MODEL 2
REMARK VINA RESULT:    -3.770      0.139      4.040
REMARK INTER + INTRA:          -4.545
REMARK INTER:                  -4.448
REMARK INTRA:                  -0.096
REMARK UNBOUND:                -0.113
REMARK SMILES O=C([O-])CCC(=O)[O-]
REMARK SMILES IDX 4 1 2 2 1 3 3 4 5 5 6 6 7 7 8 8
REMARK H PARENT
REMARK Flexibility Score: inf
ROOT
ATOM      1  C   UNL     1       7.043  25.632 110.040  1.00  0.00     0.059 C 
ENDROOT
BRANCH   1   2
ATOM      2  C   UNL     1       7.617  26.433 111.168  1.00  0.00     0.042 C 
ATOM      3  O   UNL     1       7.520  27.689 111.166  1.00  0.00    -0.550 OA
ATOM      4  O   UNL     1       8.294  25.798 112.202  1.00  0.00    -0.550 OA
ENDBRANCH   1   2
BRANCH   1   5
ATOM      5  C   UNL     1       7.857  25.803 108.753  1.00  0.00     0.059 C 
BRANCH   5   6
ATOM      6  C   UNL     1       6.994  26.232 107.606  1.00  0.00     0.042 C 
ATOM      7  O   UNL     1       5.945  26.897 107.817  1.00  0.00    -0.550 OA
ATOM      8  O   UNL     1       7.327  25.865 106.308  1.00  0.00    -0.550 OA
ENDBRANCH   5   6
ENDBRANCH   1   5
TORSDOF 3
ENDMDL
MODEL 3
REMARK VINA RESULT:    -3.716      1.273      1.947
REMARK INTER + INTRA:          -4.481
REMARK INTER:                  -4.390
REMARK INTRA:                  -0.090
REMARK UNBOUND:                -0.113
REMARK SMILES O=C([O-])CCC(=O)[O-]
REMARK SMILES IDX 4 1 2 2 1 3 3 4 5 5 6 6 7 7 8 8
REMARK H PARENT
REMARK Flexibility Score: inf
ROOT
ATOM      1  C   UNL     1       8.207  25.762 109.023  1.00  0.00     0.059 C 
ENDROOT
BRANCH   1   2
ATOM      2  C   UNL     1       7.059  26.203 108.167  1.00  0.00     0.042 C 
ATOM      3  O   UNL     1       6.051  26.749 108.690  1.00  0.00    -0.550 OA
ATOM      4  O   UNL     1       7.083  25.975 106.796  1.00  0.00    -0.550 OA
ENDBRANCH   1   2
BRANCH   1   5
ATOM      5  C   UNL     1       8.047  26.239 110.471  1.00  0.00     0.059 C 
BRANCH   5   6
ATOM      6  C   UNL     1       8.081  25.093 111.436  1.00  0.00     0.042 C 
ATOM      7  O   UNL     1       8.949  25.059 112.348  1.00  0.00    -0.550 OA
ATOM      8  O   UNL     1       7.178  24.046 111.305  1.00  0.00    -0.550 OA
ENDBRANCH   5   6
ENDBRANCH   1   5
TORSDOF 3
ENDMDL
MODEL 4
REMARK VINA RESULT:    -3.709      1.272      4.055
REMARK INTER + INTRA:          -4.473
REMARK INTER:                  -4.393
REMARK INTRA:                  -0.080
REMARK UNBOUND:                -0.113
REMARK SMILES O=C([O-])CCC(=O)[O-]
REMARK SMILES IDX 4 1 2 2 1 3 3 4 5 5 6 6 7 7 8 8
REMARK H PARENT
REMARK Flexibility Score: inf
ROOT
ATOM      1  C   UNL     1       7.943  26.246 110.399  1.00  0.00     0.059 C 
ENDROOT
BRANCH   1   2
ATOM      2  C   UNL     1       8.001  25.115 111.381  1.00  0.00     0.042 C 
ATOM      3  O   UNL     1       8.853  25.124 112.308  1.00  0.00    -0.550 OA
ATOM      4  O   UNL     1       7.141  24.031 111.248  1.00  0.00    -0.550 OA
ENDBRANCH   1   2
BRANCH   1   5
ATOM      5  C   UNL     1       8.209  25.766 108.968  1.00  0.00     0.059 C 
BRANCH   5   6
ATOM      6  C   UNL     1       7.143  26.232 108.023  1.00  0.00     0.042 C 
ATOM      7  O   UNL     1       6.067  26.710 108.467  1.00  0.00    -0.550 OA
ATOM      8  O   UNL     1       7.324  26.101 106.651  1.00  0.00    -0.550 OA
ENDBRANCH   5   6
ENDBRANCH   1   5
TORSDOF 3
ENDMDL
MODEL 5
REMARK VINA RESULT:    -3.669      1.764      4.211
REMARK INTER + INTRA:          -4.426
REMARK INTER:                  -4.328
REMARK INTRA:                  -0.098
REMARK UNBOUND:                -0.113
REMARK SMILES O=C([O-])CCC(=O)[O-]
REMARK SMILES IDX 4 1 2 2 1 3 3 4 5 5 6 6 7 7 8 8
REMARK H PARENT
REMARK Flexibility Score: inf
ROOT
ATOM      1  C   UNL     1       6.841  24.544 111.603  1.00  0.00     0.059 C 
ENDROOT
BRANCH   1   2
ATOM      2  C   UNL     1       7.649  24.705 112.854  1.00  0.00     0.042 C 
ATOM      3  O   UNL     1       8.590  23.906 113.108  1.00  0.00    -0.550 OA
ATOM      4  O   UNL     1       7.339  25.711 113.761  1.00  0.00    -0.550 OA
ENDBRANCH   1   2
BRANCH   1   5
ATOM      5  C   UNL     1       7.570  25.116 110.382  1.00  0.00     0.059 C 
BRANCH   5   6
ATOM      6  C   UNL     1       7.156  26.529 110.103  1.00  0.00     0.042 C 
ATOM      7  O   UNL     1       6.462  26.796 109.086  1.00  0.00    -0.550 OA
ATOM      8  O   UNL     1       7.569  27.554 110.944  1.00  0.00    -0.550 OA
ENDBRANCH   5   6
ENDBRANCH   1   5
TORSDOF 3
ENDMDL
MODEL 6
REMARK VINA RESULT:    -3.634      1.773      2.810
REMARK INTER + INTRA:          -4.385
REMARK INTER:                  -4.298
REMARK INTRA:                  -0.087
REMARK UNBOUND:                -0.113
REMARK SMILES O=C([O-])CCC(=O)[O-]
REMARK SMILES IDX 4 1 2 2 1 3 3 4 5 5 6 6 7 7 8 8
REMARK H PARENT
REMARK Flexibility Score: inf
ROOT
ATOM      1  C   UNL     1       7.514  25.088 110.439  1.00  0.00     0.059 C 
ENDROOT
BRANCH   1   2
ATOM      2  C   UNL     1       7.184  26.517 110.128  1.00  0.00     0.042 C 
ATOM      3  O   UNL     1       6.580  26.809 109.062  1.00  0.00    -0.550 OA
ATOM      4  O   UNL     1       7.580  27.529 110.993  1.00  0.00    -0.550 OA
ENDBRANCH   1   2
BRANCH   1   5
ATOM      5  C   UNL     1       6.787  24.602 111.698  1.00  0.00     0.059 C 
BRANCH   5   6
ATOM      6  C   UNL     1       7.653  24.715 112.915  1.00  0.00     0.042 C 
ATOM      7  O   UNL     1       8.631  23.936 113.071  1.00  0.00    -0.550 OA
ATOM      8  O   UNL     1       7.357  25.654 113.896  1.00  0.00    -0.550 OA
ENDBRANCH   5   6
ENDBRANCH   1   5
TORSDOF 3
ENDMDL
MODEL 7
REMARK VINA RESULT:    -3.467      2.336      3.226
REMARK INTER + INTRA:          -4.188
REMARK INTER:                  -4.070
REMARK INTRA:                  -0.118
REMARK UNBOUND:                -0.113
REMARK SMILES O=C([O-])CCC(=O)[O-]
REMARK SMILES IDX 4 1 2 2 1 3 3 4 5 5 6 6 7 7 8 8
REMARK H PARENT
REMARK Flexibility Score: inf
ROOT
ATOM      1  C   UNL     1       5.073  26.040 111.487  1.00  0.00     0.059 C 
ENDROOT
BRANCH   1   2
ATOM      2  C   UNL     1       4.108  26.300 110.371  1.00  0.00     0.042 C 
ATOM      3  O   UNL     1       2.983  25.733 110.360  1.00  0.00    -0.550 OA
ATOM      4  O   UNL     1       4.465  27.137 109.320  1.00  0.00    -0.550 OA
ENDBRANCH   1   2
BRANCH   1   5
ATOM      5  C   UNL     1       6.340  25.339 110.987  1.00  0.00     0.059 C 
BRANCH   5   6
ATOM      6  C   UNL     1       7.559  26.184 111.199  1.00  0.00     0.042 C 
ATOM      7  O   UNL     1       8.669  25.644 111.447  1.00  0.00    -0.550 OA
ATOM      8  O   UNL     1       7.461  27.570 111.161  1.00  0.00    -0.550 OA
ENDBRANCH   5   6
ENDBRANCH   1   5
TORSDOF 3
ENDMDL
MODEL 8
REMARK VINA RESULT:    -3.399      2.475      4.218
REMARK INTER + INTRA:          -4.108
REMARK INTER:                  -4.072
REMARK INTRA:                  -0.036
REMARK UNBOUND:                -0.113
REMARK SMILES O=C([O-])CCC(=O)[O-]
REMARK SMILES IDX 4 1 2 2 1 3 3 4 5 5 6 6 7 7 8 8
REMARK H PARENT
REMARK Flexibility Score: inf
ROOT
ATOM      1  C   UNL     1       6.612  25.884 110.719  1.00  0.00     0.059 C 
ENDROOT
BRANCH   1   2
ATOM      2  C   UNL     1       7.651  25.124 111.486  1.00  0.00     0.042 C 
ATOM      3  O   UNL     1       8.854  25.497 111.463  1.00  0.00    -0.550 OA
ATOM      4  O   UNL     1       7.299  23.981 112.194  1.00  0.00    -0.550 OA
ENDBRANCH   1   2
BRANCH   1   5
ATOM      5  C   UNL     1       5.194  25.505 111.160  1.00  0.00     0.059 C 
BRANCH   5   6
ATOM      6  C   UNL     1       4.155  26.171 110.311  1.00  0.00     0.042 C 
ATOM      7  O   UNL     1       4.483  27.084 109.508  1.00  0.00    -0.550 OA
ATOM      8  O   UNL     1       2.819  25.812 110.436  1.00  0.00    -0.550 OA
ENDBRANCH   5   6
ENDBRANCH   1   5
TORSDOF 3
ENDMDL
MODEL 9
REMARK VINA RESULT:    -3.309      9.224     11.454
REMARK INTER + INTRA:          -4.002
REMARK INTER:                  -3.913
REMARK INTRA:                  -0.089
REMARK UNBOUND:                -0.113
REMARK SMILES O=C([O-])CCC(=O)[O-]
REMARK SMILES IDX 4 1 2 2 1 3 3 4 5 5 6 6 7 7 8 8
REMARK H PARENT
REMARK Flexibility Score: inf
ROOT
ATOM      1  C   UNL     1      12.444  26.284 120.055  1.00  0.00     0.059 C 
ENDROOT
BRANCH   1   2
ATOM      2  C   UNL     1      13.894  26.598 119.843  1.00  0.00     0.042 C 
ATOM      3  O   UNL     1      14.362  27.709 120.208  1.00  0.00    -0.550 OA
ATOM      4  O   UNL     1      14.720  25.680 119.205  1.00  0.00    -0.550 OA
ENDBRANCH   1   2
BRANCH   1   5
ATOM      5  C   UNL     1      11.982  25.123 119.168  1.00  0.00     0.059 C 
BRANCH   5   6
ATOM      6  C   UNL     1      11.250  25.611 117.955  1.00  0.00     0.042 C 
ATOM      7  O   UNL     1      10.654  26.720 117.979  1.00  0.00    -0.550 OA
ATOM      8  O   UNL     1      11.193  24.823 116.812  1.00  0.00    -0.550 OA
ENDBRANCH   5   6
ENDBRANCH   1   5
TORSDOF 3
ENDMDL
