MODEL 1
REMARK VINA RESULT:    -5.337      0.000      0.000
REMARK INTER + INTRA:          -5.746
REMARK INTER:                  -5.649
REMARK INTRA:                  -0.098
REMARK UNBOUND:                -0.098
REMARK SMILES C=C(C)[C@H]1CC=C(C)C(=O)C1
REMARK SMILES IDX 8 1 7 2 6 3 5 4 4 5 11 6 9 7 10 8 2 9 1 10 3 11
REMARK H PARENT
REMARK Flexibility Score: inf
ROOT
ATOM      1  C   UNL     1      51.183   3.973  13.528  1.00  0.00     0.048 C 
ATOM      2  C   UNL     1      50.322   3.575  14.696  1.00  0.00    -0.012 C 
ATOM      3  C   UNL     1      49.096   3.068  14.481  1.00  0.00    -0.019 C 
ATOM      4  C   UNL     1      48.186   2.672  15.613  1.00  0.00     0.036 C 
ATOM      5  C   UNL     1      48.995   2.155  16.818  1.00  0.00     0.025 C 
ATOM      6  C   UNL     1      50.041   3.199  17.249  1.00  0.00     0.089 C 
ATOM      7  C   UNL     1      50.874   3.629  16.072  1.00  0.00     0.158 C 
ATOM      8  O   UNL     1      52.037   4.071  16.272  1.00  0.00    -0.295 OA
ENDROOT
BRANCH   5   9
ATOM      9  C   UNL     1      48.091   1.754  17.974  1.00  0.00    -0.077 C 
ATOM     10  C   UNL     1      48.525   0.943  18.957  1.00  0.00     0.008 C 
ATOM     11  C   UNL     1      46.682   2.286  18.006  1.00  0.00     0.039 C 
ENDBRANCH   5   9
TORSDOF 1
ENDMDL
MODEL 2
REMARK VINA RESULT:    -5.214      3.320      4.661
REMARK INTER + INTRA:          -5.616
REMARK INTER:                  -5.518
REMARK INTRA:                  -0.098
REMARK UNBOUND:                -0.098
REMARK SMILES C=C(C)[C@H]1CC=C(C)C(=O)C1
REMARK SMILES IDX 8 1 7 2 6 3 5 4 4 5 11 6 9 7 10 8 2 9 1 10 3 11
REMARK H PARENT
REMARK Flexibility Score: inf
ROOT
ATOM      1  C   UNL     1      45.878   2.756  18.022  1.00  0.00     0.048 C 
ATOM      2  C   UNL     1      47.302   2.764  18.507  1.00  0.00    -0.012 C 
ATOM      3  C   UNL     1      48.099   1.711  18.257  1.00  0.00    -0.019 C 
ATOM      4  C   UNL     1      49.526   1.659  18.735  1.00  0.00     0.036 C 
ATOM      5  C   UNL     1      50.153   3.066  18.761  1.00  0.00     0.025 C 
ATOM      6  C   UNL     1      49.290   4.021  19.605  1.00  0.00     0.089 C 
ATOM      7  C   UNL     1      47.857   3.982  19.149  1.00  0.00     0.158 C 
ATOM      8  O   UNL     1      47.120   4.984  19.352  1.00  0.00    -0.295 OA
ENDROOT
BRANCH   5   9
ATOM      9  C   UNL     1      51.594   3.032  19.246  1.00  0.00    -0.077 C 
ATOM     10  C   UNL     1      52.447   2.070  18.847  1.00  0.00     0.008 C 
ATOM     11  C   UNL     1      52.063   4.107  20.191  1.00  0.00     0.039 C 
ENDBRANCH   5   9
TORSDOF 1
ENDMDL
MODEL 3
REMARK VINA RESULT:    -5.000      1.381      4.318
REMARK INTER + INTRA:          -5.390
REMARK INTER:                  -5.297
REMARK INTRA:                  -0.094
REMARK UNBOUND:                -0.098
REMARK SMILES C=C(C)[C@H]1CC=C(C)C(=O)C1
REMARK SMILES IDX 8 1 7 2 6 3 5 4 4 5 11 6 9 7 10 8 2 9 1 10 3 11
REMARK H PARENT
REMARK Flexibility Score: inf
ROOT
ATOM      1  C   UNL     1      48.313   1.215  18.671  1.00  0.00     0.048 C 
ATOM      2  C   UNL     1      49.033   1.896  17.539  1.00  0.00    -0.012 C 
ATOM      3  C   UNL     1      48.551   1.805  16.288  1.00  0.00    -0.019 C 
ATOM      4  C   UNL     1      49.241   2.451  15.117  1.00  0.00     0.036 C 
ATOM      5  C   UNL     1      49.946   3.754  15.539  1.00  0.00     0.025 C 
ATOM      6  C   UNL     1      50.911   3.486  16.709  1.00  0.00     0.089 C 
ATOM      7  C   UNL     1      50.202   2.766  17.824  1.00  0.00     0.158 C 
ATOM      8  O   UNL     1      50.634   2.881  19.002  1.00  0.00    -0.295 OA
ENDROOT
BRANCH   5   9
ATOM      9  C   UNL     1      50.653   4.418  14.368  1.00  0.00    -0.077 C 
ATOM     10  C   UNL     1      50.572   5.745  14.159  1.00  0.00     0.008 C 
ATOM     11  C   UNL     1      51.461   3.557  13.431  1.00  0.00     0.039 C 
ENDBRANCH   5   9
TORSDOF 1
ENDMDL
MODEL 4
REMARK VINA RESULT:    -4.903      2.926      4.026
REMARK INTER + INTRA:          -5.287
REMARK INTER:                  -5.189
REMARK INTRA:                  -0.099
REMARK UNBOUND:                -0.098
REMARK SMILES C=C(C)[C@H]1CC=C(C)C(=O)C1
REMARK SMILES IDX 8 1 7 2 6 3 5 4 4 5 11 6 9 7 10 8 2 9 1 10 3 11
REMARK H PARENT
REMARK Flexibility Score: inf
ROOT
ATOM      1  C   UNL     1      51.400   5.445  20.989  1.00  0.00     0.048 C 
ATOM      2  C   UNL     1      50.448   4.490  20.322  1.00  0.00    -0.012 C 
ATOM      3  C   UNL     1      49.122   4.655  20.470  1.00  0.00    -0.019 C 
ATOM      4  C   UNL     1      48.126   3.718  19.841  1.00  0.00     0.036 C 
ATOM      5  C   UNL     1      48.653   3.166  18.503  1.00  0.00     0.025 C 
ATOM      6  C   UNL     1      50.030   2.506  18.701  1.00  0.00     0.089 C 
ATOM      7  C   UNL     1      50.970   3.446  19.406  1.00  0.00     0.158 C 
ATOM      8  O   UNL     1      52.212   3.313  19.238  1.00  0.00    -0.295 OA
ENDROOT
BRANCH   5   9
ATOM      9  C   UNL     1      47.660   2.214  17.855  1.00  0.00    -0.077 C 
ATOM     10  C   UNL     1      48.031   0.990  17.436  1.00  0.00     0.008 C 
ATOM     11  C   UNL     1      46.232   2.664  17.689  1.00  0.00     0.039 C 
ENDBRANCH   5   9
TORSDOF 1
ENDMDL
MODEL 5
REMARK VINA RESULT:    -4.871      3.164      4.204
REMARK INTER + INTRA:          -5.254
REMARK INTER:                  -5.156
REMARK INTRA:                  -0.098
REMARK UNBOUND:                -0.098
REMARK SMILES C=C(C)[C@H]1CC=C(C)C(=O)C1
REMARK SMILES IDX 8 1 7 2 6 3 5 4 4 5 11 6 9 7 10 8 2 9 1 10 3 11
REMARK H PARENT
REMARK Flexibility Score: inf
ROOT
ATOM      1  C   UNL     1      52.262   4.716  20.744  1.00  0.00     0.048 C 
ATOM      2  C   UNL     1      51.046   4.212  20.016  1.00  0.00    -0.012 C 
ATOM      3  C   UNL     1      51.174   3.254  19.083  1.00  0.00    -0.019 C 
ATOM      4  C   UNL     1      49.994   2.727  18.312  1.00  0.00     0.036 C 
ATOM      5  C   UNL     1      48.715   2.749  19.172  1.00  0.00     0.025 C 
ATOM      6  C   UNL     1      48.467   4.165  19.725  1.00  0.00     0.089 C 
ATOM      7  C   UNL     1      49.697   4.686  20.416  1.00  0.00     0.158 C 
ATOM      8  O   UNL     1      49.573   5.559  21.316  1.00  0.00    -0.295 OA
ENDROOT
BRANCH   5   9
ATOM      9  C   UNL     1      47.511   2.224  18.406  1.00  0.00    -0.077 C 
ATOM     10  C   UNL     1      47.626   1.216  17.522  1.00  0.00     0.008 C 
ATOM     11  C   UNL     1      46.166   2.856  18.655  1.00  0.00     0.039 C 
ENDBRANCH   5   9
TORSDOF 1
ENDMDL
MODEL 6
REMARK VINA RESULT:    -4.606      1.365      2.104
REMARK INTER + INTRA:          -4.973
REMARK INTER:                  -4.878
REMARK INTRA:                  -0.095
REMARK UNBOUND:                -0.098
REMARK SMILES C=C(C)[C@H]1CC=C(C)C(=O)C1
REMARK SMILES IDX 8 1 7 2 6 3 5 4 4 5 11 6 9 7 10 8 2 9 1 10 3 11
REMARK H PARENT
REMARK Flexibility Score: inf
ROOT
ATOM      1  C   UNL     1      52.180   4.751  15.271  1.00  0.00     0.048 C 
ATOM      2  C   UNL     1      51.204   3.887  16.022  1.00  0.00    -0.012 C 
ATOM      3  C   UNL     1      51.434   3.584  17.312  1.00  0.00    -0.019 C 
ATOM      4  C   UNL     1      50.501   2.709  18.105  1.00  0.00     0.036 C 
ATOM      5  C   UNL     1      49.043   2.890  17.641  1.00  0.00     0.025 C 
ATOM      6  C   UNL     1      48.929   2.641  16.126  1.00  0.00     0.089 C 
ATOM      7  C   UNL     1      49.934   3.473  15.376  1.00  0.00     0.158 C 
ATOM      8  O   UNL     1      49.701   3.786  14.178  1.00  0.00    -0.295 OA
ENDROOT
BRANCH   5   9
ATOM      9  C   UNL     1      48.087   2.009  18.430  1.00  0.00    -0.077 C 
ATOM     10  C   UNL     1      48.479   0.825  18.936  1.00  0.00     0.008 C 
ATOM     11  C   UNL     1      46.674   2.487  18.643  1.00  0.00     0.039 C 
ENDBRANCH   5   9
TORSDOF 1
ENDMDL
MODEL 7
REMARK VINA RESULT:    -4.595      3.881      4.858
REMARK INTER + INTRA:          -4.961
REMARK INTER:                  -4.863
REMARK INTRA:                  -0.098
REMARK UNBOUND:                -0.098
REMARK SMILES C=C(C)[C@H]1CC=C(C)C(=O)C1
REMARK SMILES IDX 8 1 7 2 6 3 5 4 4 5 11 6 9 7 10 8 2 9 1 10 3 11
REMARK H PARENT
REMARK Flexibility Score: inf
ROOT
ATOM      1  C   UNL     1      50.192   7.642  20.494  1.00  0.00     0.048 C 
ATOM      2  C   UNL     1      49.479   6.435  19.949  1.00  0.00    -0.012 C 
ATOM      3  C   UNL     1      50.155   5.290  19.755  1.00  0.00    -0.019 C 
ATOM      4  C   UNL     1      49.496   4.058  19.195  1.00  0.00     0.036 C 
ATOM      5  C   UNL     1      48.019   3.976  19.626  1.00  0.00     0.025 C 
ATOM      6  C   UNL     1      47.274   5.265  19.234  1.00  0.00     0.089 C 
ATOM      7  C   UNL     1      48.010   6.475  19.743  1.00  0.00     0.158 C 
ATOM      8  O   UNL     1      47.368   7.538  19.958  1.00  0.00    -0.295 OA
ENDROOT
BRANCH   5   9
ATOM      9  C   UNL     1      47.336   2.738  19.064  1.00  0.00    -0.077 C 
ATOM     10  C   UNL     1      47.952   1.542  19.047  1.00  0.00     0.008 C 
ATOM     11  C   UNL     1      45.937   2.871  18.521  1.00  0.00     0.039 C 
ENDBRANCH   5   9
TORSDOF 1
ENDMDL
MODEL 8
REMARK VINA RESULT:    -4.523      2.874      4.788
REMARK INTER + INTRA:          -4.885
REMARK INTER:                  -4.787
REMARK INTRA:                  -0.098
REMARK UNBOUND:                -0.098
REMARK SMILES C=C(C)[C@H]1CC=C(C)C(=O)C1
REMARK SMILES IDX 8 1 7 2 6 3 5 4 4 5 11 6 9 7 10 8 2 9 1 10 3 11
REMARK H PARENT
REMARK Flexibility Score: inf
ROOT
ATOM      1  C   UNL     1      46.094   2.752  18.623  1.00  0.00     0.048 C 
ATOM      2  C   UNL     1      47.579   2.987  18.648  1.00  0.00    -0.012 C 
ATOM      3  C   UNL     1      48.096   3.915  19.472  1.00  0.00    -0.019 C 
ATOM      4  C   UNL     1      49.573   4.204  19.523  1.00  0.00     0.036 C 
ATOM      5  C   UNL     1      50.396   2.933  19.239  1.00  0.00     0.025 C 
ATOM      6  C   UNL     1      49.970   2.308  17.897  1.00  0.00     0.089 C 
ATOM      7  C   UNL     1      48.479   2.113  17.855  1.00  0.00     0.158 C 
ATOM      8  O   UNL     1      47.998   1.218  17.109  1.00  0.00    -0.295 OA
ENDROOT
BRANCH   5   9
ATOM      9  C   UNL     1      51.891   3.208  19.282  1.00  0.00    -0.077 C 
ATOM     10  C   UNL     1      52.394   4.248  19.973  1.00  0.00     0.008 C 
ATOM     11  C   UNL     1      52.816   2.286  18.533  1.00  0.00     0.039 C 
ENDBRANCH   5   9
TORSDOF 1
ENDMDL
MODEL 9
REMARK VINA RESULT:    -4.361      3.399      4.929
REMARK INTER + INTRA:          -4.714
REMARK INTER:                  -4.620
REMARK INTRA:                  -0.094
REMARK UNBOUND:                -0.098
REMARK SMILES C=C(C)[C@H]1CC=C(C)C(=O)C1
REMARK SMILES IDX 8 1 7 2 6 3 5 4 4 5 11 6 9 7 10 8 2 9 1 10 3 11
REMARK H PARENT
REMARK Flexibility Score: inf
ROOT
ATOM      1  C   UNL     1      48.000   0.878  17.494  1.00  0.00     0.048 C 
ATOM      2  C   UNL     1      48.493   2.006  18.358  1.00  0.00    -0.012 C 
ATOM      3  C   UNL     1      49.814   2.227  18.480  1.00  0.00    -0.019 C 
ATOM      4  C   UNL     1      50.363   3.329  19.346  1.00  0.00     0.036 C 
ATOM      5  C   UNL     1      49.410   4.539  19.373  1.00  0.00     0.025 C 
ATOM      6  C   UNL     1      48.000   4.101  19.810  1.00  0.00     0.089 C 
ATOM      7  C   UNL     1      47.523   2.944  18.975  1.00  0.00     0.158 C 
ATOM      8  O   UNL     1      46.284   2.759  18.833  1.00  0.00    -0.295 OA
ENDROOT
BRANCH   5   9
ATOM      9  C   UNL     1      49.947   5.661  20.247  1.00  0.00    -0.077 C 
ATOM     10  C   UNL     1      50.299   5.446  21.528  1.00  0.00     0.008 C 
ATOM     11  C   UNL     1      50.086   7.038  19.651  1.00  0.00     0.039 C 
ENDBRANCH   5   9
TORSDOF 1
ENDMDL
