MODEL 1
REMARK VINA RESULT:    -4.125      0.000      0.000
REMARK INTER + INTRA:          -5.218
REMARK INTER:                  -5.089
REMARK INTRA:                  -0.129
REMARK UNBOUND:                -0.129
REMARK SMILES CCCCCC(=O)[O-]
REMARK SMILES IDX 4 1 5 2 6 3 7 4 8 5 3 6 2 7 1 8
REMARK H PARENT
REMARK Flexibility Score: inf
ROOT
ATOM      1  C   UNL     1      13.282   0.567  28.101  1.00  0.00     0.006 C 
ENDROOT
BRANCH   1   2
ATOM      2  C   UNL     1      13.459   0.295  29.605  1.00  0.00     0.053 C 
BRANCH   2   3
ATOM      3  C   UNL     1      14.565  -0.673  29.893  1.00  0.00     0.041 C 
ATOM      4  O   UNL     1      14.768  -1.653  29.127  1.00  0.00    -0.550 OA
ATOM      5  O   UNL     1      15.393  -0.478  30.990  1.00  0.00    -0.550 OA
ENDBRANCH   2   3
ENDBRANCH   1   2
BRANCH   1   6
ATOM      6  C   UNL     1      14.413   1.408  27.480  1.00  0.00     0.000 C 
BRANCH   6   7
ATOM      7  C   UNL     1      15.027   0.760  26.231  1.00  0.00    -0.003 C 
ATOM      8  C   UNL     1      15.562   1.818  25.269  1.00  0.00     0.004 C 
ENDBRANCH   6   7
ENDBRANCH   1   6
TORSDOF 4
ENDMDL
MODEL 2
REMARK VINA RESULT:    -4.124      2.212      2.770
REMARK INTER + INTRA:          -5.218
REMARK INTER:                  -4.992
REMARK INTRA:                  -0.225
REMARK UNBOUND:                -0.129
REMARK SMILES CCCCCC(=O)[O-]
REMARK SMILES IDX 4 1 5 2 6 3 7 4 8 5 3 6 2 7 1 8
REMARK H PARENT
REMARK Flexibility Score: inf
ROOT
ATOM      1  C   UNL     1      12.691  -0.294  26.917  1.00  0.00     0.006 C 
ENDROOT
BRANCH   1   2
ATOM      2  C   UNL     1      13.589   0.667  27.716  1.00  0.00     0.053 C 
BRANCH   2   3
ATOM      3  C   UNL     1      13.527   0.424  29.193  1.00  0.00     0.041 C 
ATOM      4  O   UNL     1      12.753   1.103  29.918  1.00  0.00    -0.550 OA
ATOM      5  O   UNL     1      14.304  -0.574  29.766  1.00  0.00    -0.550 OA
ENDBRANCH   2   3
ENDBRANCH   1   2
BRANCH   1   6
ATOM      6  C   UNL     1      13.407  -1.575  26.449  1.00  0.00     0.000 C 
BRANCH   6   7
ATOM      7  C   UNL     1      14.922  -1.391  26.283  1.00  0.00    -0.003 C 
ATOM      8  C   UNL     1      15.690  -2.545  26.922  1.00  0.00     0.004 C 
ENDBRANCH   6   7
ENDBRANCH   1   6
TORSDOF 4
ENDMDL
MODEL 3
REMARK VINA RESULT:    -4.079      3.389      3.911
REMARK INTER + INTRA:          -5.162
REMARK INTER:                  -4.961
REMARK INTRA:                  -0.201
REMARK UNBOUND:                -0.129
REMARK SMILES CCCCCC(=O)[O-]
REMARK SMILES IDX 4 1 5 2 6 3 7 4 8 5 3 6 2 7 1 8
REMARK H PARENT
REMARK Flexibility Score: inf
ROOT
ATOM      1  C   UNL     1      13.071   0.376  27.806  1.00  0.00     0.006 C 
ENDROOT
BRANCH   1   2
ATOM      2  C   UNL     1      12.579  -0.504  26.643  1.00  0.00     0.053 C 
BRANCH   2   3
ATOM      3  C   UNL     1      11.474   0.136  25.859  1.00  0.00     0.041 C 
ATOM      4  O   UNL     1      10.276   0.001  26.221  1.00  0.00    -0.550 OA
ATOM      5  O   UNL     1      11.771   0.909  24.744  1.00  0.00    -0.550 OA
ENDBRANCH   2   3
ENDBRANCH   1   2
BRANCH   1   6
ATOM      6  C   UNL     1      14.378   1.133  27.508  1.00  0.00     0.000 C 
BRANCH   6   7
ATOM      7  C   UNL     1      15.069   0.658  26.222  1.00  0.00    -0.003 C 
ATOM      8  C   UNL     1      15.448   1.839  25.333  1.00  0.00     0.004 C 
ENDBRANCH   6   7
ENDBRANCH   1   6
TORSDOF 4
ENDMDL
MODEL 4
REMARK VINA RESULT:    -4.074      2.134      3.774
REMARK INTER + INTRA:          -5.156
REMARK INTER:                  -4.923
REMARK INTRA:                  -0.233
REMARK UNBOUND:                -0.129
REMARK SMILES CCCCCC(=O)[O-]
REMARK SMILES IDX 4 1 5 2 6 3 7 4 8 5 3 6 2 7 1 8
REMARK H PARENT
REMARK Flexibility Score: inf
ROOT
ATOM      1  C   UNL     1      14.288   1.119  28.061  1.00  0.00     0.006 C 
ENDROOT
BRANCH   1   2
ATOM      2  C   UNL     1      14.151   0.680  26.592  1.00  0.00     0.053 C 
BRANCH   2   3
ATOM      3  C   UNL     1      14.236  -0.806  26.422  1.00  0.00     0.041 C 
ATOM      4  O   UNL     1      15.351  -1.389  26.473  1.00  0.00    -0.550 OA
ATOM      5  O   UNL     1      13.079  -1.552  26.237  1.00  0.00    -0.550 OA
ENDBRANCH   2   3
ENDBRANCH   1   2
BRANCH   1   6
ATOM      6  C   UNL     1      13.087   0.734  28.944  1.00  0.00     0.000 C 
BRANCH   6   7
ATOM      7  C   UNL     1      13.500   0.078  30.269  1.00  0.00    -0.003 C 
ATOM      8  C   UNL     1      14.741  -0.793  30.088  1.00  0.00     0.004 C 
ENDBRANCH   6   7
ENDBRANCH   1   6
TORSDOF 4
ENDMDL
MODEL 5
REMARK VINA RESULT:    -4.073      2.310      3.085
REMARK INTER + INTRA:          -5.155
REMARK INTER:                  -4.946
REMARK INTRA:                  -0.209
REMARK UNBOUND:                -0.129
REMARK SMILES CCCCCC(=O)[O-]
REMARK SMILES IDX 4 1 5 2 6 3 7 4 8 5 3 6 2 7 1 8
REMARK H PARENT
REMARK Flexibility Score: inf
ROOT
ATOM      1  C   UNL     1      14.209  -0.490  26.648  1.00  0.00     0.006 C 
ENDROOT
BRANCH   1   2
ATOM      2  C   UNL     1      14.217   0.772  27.530  1.00  0.00     0.053 C 
BRANCH   2   3
ATOM      3  C   UNL     1      13.766   0.501  28.932  1.00  0.00     0.041 C 
ATOM      4  O   UNL     1      12.852   1.195  29.452  1.00  0.00    -0.550 OA
ATOM      5  O   UNL     1      14.333  -0.538  29.657  1.00  0.00    -0.550 OA
ENDBRANCH   2   3
ENDBRANCH   1   2
BRANCH   1   6
ATOM      6  C   UNL     1      12.799  -0.993  26.288  1.00  0.00     0.000 C 
BRANCH   6   7
ATOM      7  C   UNL     1      11.944   0.068  25.581  1.00  0.00    -0.003 C 
ATOM      8  C   UNL     1      10.530   0.107  26.154  1.00  0.00     0.004 C 
ENDBRANCH   6   7
ENDBRANCH   1   6
TORSDOF 4
ENDMDL
MODEL 6
REMARK VINA RESULT:    -4.068      1.754      2.312
REMARK INTER + INTRA:          -5.148
REMARK INTER:                  -4.927
REMARK INTRA:                  -0.221
REMARK UNBOUND:                -0.129
REMARK SMILES CCCCCC(=O)[O-]
REMARK SMILES IDX 4 1 5 2 6 3 7 4 8 5 3 6 2 7 1 8
REMARK H PARENT
REMARK Flexibility Score: inf
ROOT
ATOM      1  C   UNL     1      13.424   0.354  27.805  1.00  0.00     0.006 C 
ENDROOT
BRANCH   1   2
ATOM      2  C   UNL     1      13.331  -0.833  26.830  1.00  0.00     0.053 C 
BRANCH   2   3
ATOM      3  C   UNL     1      14.500  -1.764  26.939  1.00  0.00     0.041 C 
ATOM      4  O   UNL     1      15.139  -2.106  25.908  1.00  0.00    -0.550 OA
ATOM      5  O   UNL     1      14.903  -2.232  28.182  1.00  0.00    -0.550 OA
ENDBRANCH   2   3
ENDBRANCH   1   2
BRANCH   1   6
ATOM      6  C   UNL     1      14.411   1.451  27.363  1.00  0.00     0.000 C 
BRANCH   6   7
ATOM      7  C   UNL     1      14.292   1.802  25.873  1.00  0.00    -0.003 C 
ATOM      8  C   UNL     1      15.664   1.839  25.206  1.00  0.00     0.004 C 
ENDBRANCH   6   7
ENDBRANCH   1   6
TORSDOF 4
ENDMDL
MODEL 7
REMARK VINA RESULT:    -4.054      3.191      4.085
REMARK INTER + INTRA:          -5.131
REMARK INTER:                  -4.922
REMARK INTRA:                  -0.209
REMARK UNBOUND:                -0.129
REMARK SMILES CCCCCC(=O)[O-]
REMARK SMILES IDX 4 1 5 2 6 3 7 4 8 5 3 6 2 7 1 8
REMARK H PARENT
REMARK Flexibility Score: inf
ROOT
ATOM      1  C   UNL     1      13.217   0.341  27.360  1.00  0.00     0.006 C 
ENDROOT
BRANCH   1   2
ATOM      2  C   UNL     1      14.385   1.345  27.336  1.00  0.00     0.053 C 
BRANCH   2   3
ATOM      3  C   UNL     1      14.728   1.802  25.952  1.00  0.00     0.041 C 
ATOM      4  O   UNL     1      15.930   1.845  25.576  1.00  0.00    -0.550 OA
ATOM      5  O   UNL     1      13.720   2.151  25.064  1.00  0.00    -0.550 OA
ENDBRANCH   2   3
ENDBRANCH   1   2
BRANCH   1   6
ATOM      6  C   UNL     1      13.549  -1.019  26.719  1.00  0.00     0.000 C 
BRANCH   6   7
ATOM      7  C   UNL     1      14.696  -1.754  27.428  1.00  0.00    -0.003 C 
ATOM      8  C   UNL     1      15.730  -2.258  26.424  1.00  0.00     0.004 C 
ENDBRANCH   6   7
ENDBRANCH   1   6
TORSDOF 4
ENDMDL
MODEL 8
REMARK VINA RESULT:    -4.029      3.455      4.459
REMARK INTER + INTRA:          -5.099
REMARK INTER:                  -4.878
REMARK INTRA:                  -0.221
REMARK UNBOUND:                -0.129
REMARK SMILES CCCCCC(=O)[O-]
REMARK SMILES IDX 4 1 5 2 6 3 7 4 8 5 3 6 2 7 1 8
REMARK H PARENT
REMARK Flexibility Score: inf
ROOT
ATOM      1  C   UNL     1      14.291  -0.447  26.590  1.00  0.00     0.006 C 
ENDROOT
BRANCH   1   2
ATOM      2  C   UNL     1      14.381   1.063  26.872  1.00  0.00     0.053 C 
BRANCH   2   3
ATOM      3  C   UNL     1      14.677   1.866  25.643  1.00  0.00     0.041 C 
ATOM      4  O   UNL     1      13.743   2.416  25.001  1.00  0.00    -0.550 OA
ATOM      5  O   UNL     1      15.990   2.034  25.222  1.00  0.00    -0.550 OA
ENDBRANCH   2   3
ENDBRANCH   1   2
BRANCH   1   6
ATOM      6  C   UNL     1      12.872  -0.936  26.245  1.00  0.00     0.000 C 
BRANCH   6   7
ATOM      7  C   UNL     1      11.770  -0.032  26.815  1.00  0.00    -0.003 C 
ATOM      8  C   UNL     1      10.737   0.316  25.745  1.00  0.00     0.004 C 
ENDBRANCH   6   7
ENDBRANCH   1   6
TORSDOF 4
ENDMDL
MODEL 9
REMARK VINA RESULT:    -3.945      3.445      4.553
REMARK INTER + INTRA:          -4.996
REMARK INTER:                  -4.844
REMARK INTRA:                  -0.152
REMARK UNBOUND:                -0.129
REMARK SMILES CCCCCC(=O)[O-]
REMARK SMILES IDX 4 1 5 2 6 3 7 4 8 5 3 6 2 7 1 8
REMARK H PARENT
REMARK Flexibility Score: inf
ROOT
ATOM      1  C   UNL     1      14.079   0.249  26.647  1.00  0.00     0.006 C 
ENDROOT
BRANCH   1   2
ATOM      2  C   UNL     1      12.720  -0.451  26.469  1.00  0.00     0.053 C 
BRANCH   2   3
ATOM      3  C   UNL     1      11.745   0.370  25.681  1.00  0.00     0.041 C 
ATOM      4  O   UNL     1      12.155   1.183  24.811  1.00  0.00    -0.550 OA
ATOM      5  O   UNL     1      10.381   0.215  25.886  1.00  0.00    -0.550 OA
ENDBRANCH   2   3
ENDBRANCH   1   2
BRANCH   1   6
ATOM      6  C   UNL     1      14.146   1.185  27.868  1.00  0.00     0.000 C 
BRANCH   6   7
ATOM      7  C   UNL     1      13.227   0.744  29.016  1.00  0.00    -0.003 C 
ATOM      8  C   UNL     1      13.971  -0.154  30.001  1.00  0.00     0.004 C 
ENDBRANCH   6   7
ENDBRANCH   1   6
TORSDOF 4
ENDMDL
