MODEL 1
REMARK VINA RESULT:    -4.864      0.000      0.000
REMARK INTER + INTRA:          -8.715
REMARK INTER:                  -7.139
REMARK INTRA:                  -1.576
REMARK UNBOUND:                -1.576
REMARK SMILES O=c1c(O[C@@H]2O[C@H](CO)[C@H](O)[C@H](O)[C@H]2O)c(-c2ccc(O)c(O)c2)oc2cc(O)cc(O)c12
REMARK SMILES IDX 4 1 3 2 16 3 25 4 2 5 26 6 1 7 33 8 27 9 31 10 28 11 30 12
REMARK SMILES IDX 17 13 18 14 19 15 20 16 24 17 22 18 21 19 23 21 32 23 29 25
REMARK SMILES IDX 5 27 14 28 6 29 12 30 7 31 10 32 15 33 13 35 8 37 9 38 11 40
REMARK H PARENT 21 20 23 22 32 24 29 26 15 34 13 36 9 39 11 41
REMARK Flexibility Score: inf
ROOT
ATOM      1  O   UNL     1       7.198  10.191  10.173  1.00  0.00    -0.454 OA
ENDROOT
BRANCH   1   2
ATOM      2  C   UNL     1       7.923   9.940   8.989  1.00  0.00     0.214 A 
ATOM      3  C   UNL     1       7.639  10.721   7.851  1.00  0.00     0.180 A 
ATOM      4  O   UNL     1       8.349  10.573   6.738  1.00  0.00    -0.452 OA
ATOM      5  C   UNL     1       8.941   8.965   8.889  1.00  0.00     0.239 A 
ATOM      6  C   UNL     1       9.326   9.685   6.611  1.00  0.00     0.146 A 
ATOM      7  O   UNL     1       9.194   8.209   9.864  1.00  0.00    -0.285 OA
ATOM      8  C   UNL     1       9.666   8.831   7.684  1.00  0.00     0.111 A 
ATOM      9  C   UNL     1      10.015   9.604   5.398  1.00  0.00     0.094 A 
ATOM     10  C   UNL     1      10.709   7.888   7.508  1.00  0.00     0.134 A 
ATOM     11  C   UNL     1      11.045   8.673   5.231  1.00  0.00     0.123 A 
ATOM     12  C   UNL     1      11.386   7.820   6.282  1.00  0.00     0.093 A 
BRANCH   3  13
ATOM     13  C   UNL     1       6.572  11.741   7.862  1.00  0.00     0.025 A 
ATOM     14  C   UNL     1       6.877  13.093   8.065  1.00  0.00     0.016 A 
ATOM     15  C   UNL     1       5.861  14.050   8.081  1.00  0.00     0.051 A 
ATOM     16  C   UNL     1       4.524  13.673   7.910  1.00  0.00     0.157 A 
ATOM     17  C   UNL     1       5.234  11.354   7.716  1.00  0.00     0.062 A 
ATOM     18  C   UNL     1       4.205  12.305   7.731  1.00  0.00     0.158 A 
BRANCH  16  19
ATOM     19  O   UNL     1       3.555  14.678   7.929  1.00  0.00    -0.504 OA
ATOM     20  H   UNL     1       3.662  15.557   8.413  1.00  0.00     0.293 HD
ENDBRANCH  16  19
BRANCH  18  21
ATOM     21  O   UNL     1       2.895  11.852   7.568  1.00  0.00    -0.504 OA
ATOM     22  H   UNL     1       2.523  11.025   8.013  1.00  0.00     0.293 HD
ENDBRANCH  18  21
ENDBRANCH   3  13
BRANCH  10  23
ATOM     23  O   UNL     1      11.078   7.022   8.539  1.00  0.00    -0.507 OA
ATOM     24  H   UNL     1      11.550   6.145   8.355  1.00  0.00     0.293 HD
ENDBRANCH  10  23
BRANCH  11  25
ATOM     25  O   UNL     1      11.735   8.586   4.023  1.00  0.00    -0.508 OA
ATOM     26  H   UNL     1      11.950   7.692   3.599  1.00  0.00     0.293 HD
ENDBRANCH  11  25
ENDBRANCH   1   2
BRANCH   1  27
ATOM     27  C   UNL     1       7.743  10.622  11.422  1.00  0.00     0.339 C 
ATOM     28  C   UNL     1       8.474  11.979  11.242  1.00  0.00     0.214 C 
ATOM     29  O   UNL     1       6.742  10.618  12.437  1.00  0.00    -0.332 OA
ATOM     30  C   UNL     1       8.380  12.803  12.528  1.00  0.00     0.180 C 
ATOM     31  C   UNL     1       6.004  11.826  12.561  1.00  0.00     0.179 C 
ATOM     32  C   UNL     1       6.901  13.069  12.868  1.00  0.00     0.177 C 
BRANCH  28  33
ATOM     33  O   UNL     1       9.815  11.779  10.862  1.00  0.00    -0.384 OA
ATOM     34  H   UNL     1      10.392  12.256  11.514  1.00  0.00     0.211 HD
ENDBRANCH  28  33
BRANCH  30  35
ATOM     35  O   UNL     1       9.083  14.009  12.373  1.00  0.00    -0.387 OA
ATOM     36  H   UNL     1       9.477  13.994  11.461  1.00  0.00     0.211 HD
ENDBRANCH  30  35
BRANCH  31  37
ATOM     37  C   UNL     1       4.960  11.992  11.431  1.00  0.00     0.191 C 
BRANCH  37  38
ATOM     38  O   UNL     1       4.347  10.776  11.104  1.00  0.00    -0.394 OA
ATOM     39  H   UNL     1       5.074  10.103  11.065  1.00  0.00     0.210 HD
ENDBRANCH  37  38
ENDBRANCH  31  37
BRANCH  32  40
ATOM     40  O   UNL     1       6.449  14.215  12.186  1.00  0.00    -0.387 OA
ATOM     41  H   UNL     1       6.803  15.000  12.679  1.00  0.00     0.211 HD
ENDBRANCH  32  40
ENDBRANCH   1  27
TORSDOF 12
ENDMDL
MODEL 2
REMARK VINA RESULT:    -4.706      8.312     11.587
REMARK INTER + INTRA:          -8.483
REMARK INTER:                  -6.879
REMARK INTRA:                  -1.604
REMARK UNBOUND:                -1.576
REMARK SMILES O=c1c(O[C@@H]2O[C@H](CO)[C@H](O)[C@H](O)[C@H]2O)c(-c2ccc(O)c(O)c2)oc2cc(O)cc(O)c12
REMARK SMILES IDX 4 1 3 2 16 3 25 4 2 5 26 6 1 7 33 8 27 9 31 10 28 11 30 12
REMARK SMILES IDX 17 13 18 14 19 15 20 16 24 17 22 18 21 19 23 21 32 23 29 25
REMARK SMILES IDX 5 27 14 28 6 29 12 30 7 31 10 32 15 33 13 35 8 37 9 38 11 40
REMARK H PARENT 21 20 23 22 32 24 29 26 15 34 13 36 9 39 11 41
REMARK Flexibility Score: inf
ROOT
ATOM      1  O   UNL     1      14.732   8.296   0.654  1.00  0.00    -0.454 OA
ENDROOT
BRANCH   1   2
ATOM      2  C   UNL     1      15.247   9.524   0.190  1.00  0.00     0.214 A 
ATOM      3  C   UNL     1      14.436  10.319  -0.644  1.00  0.00     0.180 A 
ATOM      4  O   UNL     1      14.849  11.517  -1.042  1.00  0.00    -0.452 OA
ATOM      5  C   UNL     1      16.525  10.016   0.538  1.00  0.00     0.239 A 
ATOM      6  C   UNL     1      16.031  12.024  -0.719  1.00  0.00     0.146 A 
ATOM      7  O   UNL     1      17.305   9.317   1.238  1.00  0.00    -0.285 OA
ATOM      8  C   UNL     1      16.932  11.290   0.086  1.00  0.00     0.111 A 
ATOM      9  C   UNL     1      16.376  13.294  -1.188  1.00  0.00     0.094 A 
ATOM     10  C   UNL     1      18.191  11.860   0.401  1.00  0.00     0.134 A 
ATOM     11  C   UNL     1      17.618  13.852  -0.871  1.00  0.00     0.123 A 
ATOM     12  C   UNL     1      18.519  13.134  -0.081  1.00  0.00     0.093 A 
BRANCH   3  13
ATOM     13  C   UNL     1      13.099   9.867  -1.078  1.00  0.00     0.025 A 
ATOM     14  C   UNL     1      12.935   9.172  -2.283  1.00  0.00     0.016 A 
ATOM     15  C   UNL     1      11.666   8.755  -2.689  1.00  0.00     0.051 A 
ATOM     16  C   UNL     1      10.539   9.038  -1.908  1.00  0.00     0.157 A 
ATOM     17  C   UNL     1      11.972  10.176  -0.305  1.00  0.00     0.062 A 
ATOM     18  C   UNL     1      10.694   9.764  -0.702  1.00  0.00     0.158 A 
BRANCH  16  19
ATOM     19  O   UNL     1       9.298   8.589  -2.364  1.00  0.00    -0.504 OA
ATOM     20  H   UNL     1       8.421   8.791  -1.907  1.00  0.00     0.293 HD
ENDBRANCH  16  19
BRANCH  18  21
ATOM     21  O   UNL     1       9.616  10.094   0.122  1.00  0.00    -0.504 OA
ATOM     22  H   UNL     1       8.828   9.486   0.294  1.00  0.00     0.293 HD
ENDBRANCH  18  21
ENDBRANCH   3  13
BRANCH  10  23
ATOM     23  O   UNL     1      19.113  11.172   1.191  1.00  0.00    -0.507 OA
ATOM     24  H   UNL     1      18.931  10.963   2.165  1.00  0.00     0.293 HD
ENDBRANCH  10  23
BRANCH  11  25
ATOM     25  O   UNL     1      17.968  15.117  -1.337  1.00  0.00    -0.508 OA
ATOM     26  H   UNL     1      17.894  15.938  -0.748  1.00  0.00     0.293 HD
ENDBRANCH  11  25
ENDBRANCH   1   2
BRANCH   1  27
ATOM     27  C   UNL     1      14.530   7.926   2.020  1.00  0.00     0.339 C 
ATOM     28  C   UNL     1      13.674   9.000   2.739  1.00  0.00     0.214 C 
ATOM     29  O   UNL     1      14.018   6.599   2.113  1.00  0.00    -0.332 OA
ATOM     30  C   UNL     1      12.829   8.352   3.838  1.00  0.00     0.180 C 
ATOM     31  C   UNL     1      12.602   6.495   2.076  1.00  0.00     0.179 C 
ATOM     32  C   UNL     1      11.894   7.294   3.219  1.00  0.00     0.177 C 
BRANCH  28  33
ATOM     33  O   UNL     1      14.487  10.024   3.260  1.00  0.00    -0.384 OA
ATOM     34  H   UNL     1      15.101   9.618   3.927  1.00  0.00     0.211 HD
ENDBRANCH  28  33
BRANCH  30  35
ATOM     35  O   UNL     1      12.090   9.336   4.515  1.00  0.00    -0.387 OA
ATOM     36  H   UNL     1      12.675   9.683   5.240  1.00  0.00     0.211 HD
ENDBRANCH  30  35
BRANCH  31  37
ATOM     37  C   UNL     1      12.038   6.690   0.649  1.00  0.00     0.191 C 
BRANCH  37  38
ATOM     38  O   UNL     1      12.890   6.156  -0.326  1.00  0.00    -0.394 OA
ATOM     39  H   UNL     1      12.346   6.070  -1.150  1.00  0.00     0.210 HD
ENDBRANCH  37  38
ENDBRANCH  31  37
BRANCH  32  40
ATOM     40  O   UNL     1      10.709   7.903   2.768  1.00  0.00    -0.387 OA
ATOM     41  H   UNL     1      10.602   8.742   3.288  1.00  0.00     0.211 HD
ENDBRANCH  32  40
ENDBRANCH   1  27
TORSDOF 12
ENDMDL
MODEL 3
REMARK VINA RESULT:    -4.642      4.334      8.646
REMARK INTER + INTRA:          -8.389
REMARK INTER:                  -6.955
REMARK INTRA:                  -1.434
REMARK UNBOUND:                -1.576
REMARK SMILES O=c1c(O[C@@H]2O[C@H](CO)[C@H](O)[C@H](O)[C@H]2O)c(-c2ccc(O)c(O)c2)oc2cc(O)cc(O)c12
REMARK SMILES IDX 4 1 3 2 16 3 25 4 2 5 26 6 1 7 33 8 27 9 31 10 28 11 30 12
REMARK SMILES IDX 17 13 18 14 19 15 20 16 24 17 22 18 21 19 23 21 32 23 29 25
REMARK SMILES IDX 5 27 14 28 6 29 12 30 7 31 10 32 15 33 13 35 8 37 9 38 11 40
REMARK H PARENT 21 20 23 22 32 24 29 26 15 34 13 36 9 39 11 41
REMARK Flexibility Score: inf
ROOT
ATOM      1  O   UNL     1       9.988   7.507   3.151  1.00  0.00    -0.454 OA
ENDROOT
BRANCH   1   2
ATOM      2  C   UNL     1      11.288   8.055   3.191  1.00  0.00     0.214 A 
ATOM      3  C   UNL     1      11.744   8.609   4.404  1.00  0.00     0.180 A 
ATOM      4  O   UNL     1      12.988   9.065   4.510  1.00  0.00    -0.452 OA
ATOM      5  C   UNL     1      12.170   8.053   2.087  1.00  0.00     0.239 A 
ATOM      6  C   UNL     1      13.852   9.060   3.504  1.00  0.00     0.146 A 
ATOM      7  O   UNL     1      11.787   7.616   0.970  1.00  0.00    -0.285 OA
ATOM      8  C   UNL     1      13.480   8.557   2.237  1.00  0.00     0.111 A 
ATOM      9  C   UNL     1      15.139   9.565   3.714  1.00  0.00     0.094 A 
ATOM     10  C   UNL     1      14.427   8.579   1.184  1.00  0.00     0.134 A 
ATOM     11  C   UNL     1      16.070   9.581   2.671  1.00  0.00     0.123 A 
ATOM     12  C   UNL     1      15.712   9.091   1.414  1.00  0.00     0.093 A 
BRANCH   3  13
ATOM     13  C   UNL     1      10.877   8.675   5.597  1.00  0.00     0.025 A 
ATOM     14  C   UNL     1      10.039   9.776   5.811  1.00  0.00     0.016 A 
ATOM     15  C   UNL     1       9.228   9.834   6.946  1.00  0.00     0.051 A 
ATOM     16  C   UNL     1       9.252   8.802   7.892  1.00  0.00     0.157 A 
ATOM     17  C   UNL     1      10.925   7.652   6.552  1.00  0.00     0.062 A 
ATOM     18  C   UNL     1      10.117   7.699   7.696  1.00  0.00     0.158 A 
BRANCH  16  19
ATOM     19  O   UNL     1       8.413   8.915   9.003  1.00  0.00    -0.504 OA
ATOM     20  H   UNL     1       8.676   9.367   9.866  1.00  0.00     0.293 HD
ENDBRANCH  16  19
BRANCH  18  21
ATOM     21  O   UNL     1      10.205   6.640   8.601  1.00  0.00    -0.504 OA
ATOM     22  H   UNL     1      10.420   6.751   9.582  1.00  0.00     0.293 HD
ENDBRANCH  18  21
ENDBRANCH   3  13
BRANCH  10  23
ATOM     23  O   UNL     1      14.105   8.095  -0.084  1.00  0.00    -0.507 OA
ATOM     24  H   UNL     1      14.251   7.126  -0.338  1.00  0.00     0.293 HD
ENDBRANCH  10  23
BRANCH  11  25
ATOM     25  O   UNL     1      17.354  10.083   2.874  1.00  0.00    -0.508 OA
ATOM     26  H   UNL     1      17.526  10.861   3.501  1.00  0.00     0.293 HD
ENDBRANCH  11  25
ENDBRANCH   1   2
BRANCH   1  27
ATOM     27  C   UNL     1       8.772   8.231   2.955  1.00  0.00     0.339 C 
ATOM     28  C   UNL     1       8.466   8.354   1.439  1.00  0.00     0.214 C 
ATOM     29  O   UNL     1       7.717   7.665   3.729  1.00  0.00    -0.332 OA
ATOM     30  C   UNL     1       6.954   8.389   1.208  1.00  0.00     0.180 C 
ATOM     31  C   UNL     1       6.982   6.634   3.084  1.00  0.00     0.179 C 
ATOM     32  C   UNL     1       6.315   7.095   1.747  1.00  0.00     0.177 C 
BRANCH  28  33
ATOM     33  O   UNL     1       9.092   9.490   0.892  1.00  0.00    -0.384 OA
ATOM     34  H   UNL     1       8.602   9.740   0.065  1.00  0.00     0.211 HD
ENDBRANCH  28  33
BRANCH  30  35
ATOM     35  O   UNL     1       6.685   8.546  -0.162  1.00  0.00    -0.387 OA
ATOM     36  H   UNL     1       7.187   7.831  -0.635  1.00  0.00     0.211 HD
ENDBRANCH  30  35
BRANCH  31  37
ATOM     37  C   UNL     1       7.764   5.299   3.039  1.00  0.00     0.191 C 
BRANCH  37  38
ATOM     38  O   UNL     1       8.523   5.101   4.199  1.00  0.00    -0.394 OA
ATOM     39  H   UNL     1       9.326   4.591   3.919  1.00  0.00     0.210 HD
ENDBRANCH  37  38
ENDBRANCH  31  37
BRANCH  32  40
ATOM     40  O   UNL     1       6.369   6.086   0.767  1.00  0.00    -0.387 OA
ATOM     41  H   UNL     1       7.325   5.970   0.528  1.00  0.00     0.211 HD
ENDBRANCH  32  40
ENDBRANCH   1  27
TORSDOF 12
ENDMDL
MODEL 4
REMARK VINA RESULT:    -4.568      2.619      7.213
REMARK INTER + INTRA:          -8.281
REMARK INTER:                  -6.584
REMARK INTRA:                  -1.696
REMARK UNBOUND:                -1.576
REMARK SMILES O=c1c(O[C@@H]2O[C@H](CO)[C@H](O)[C@H](O)[C@H]2O)c(-c2ccc(O)c(O)c2)oc2cc(O)cc(O)c12
REMARK SMILES IDX 4 1 3 2 16 3 25 4 2 5 26 6 1 7 33 8 27 9 31 10 28 11 30 12
REMARK SMILES IDX 17 13 18 14 19 15 20 16 24 17 22 18 21 19 23 21 32 23 29 25
REMARK SMILES IDX 5 27 14 28 6 29 12 30 7 31 10 32 15 33 13 35 8 37 9 38 11 40
REMARK H PARENT 21 20 23 22 32 24 29 26 15 34 13 36 9 39 11 41
REMARK Flexibility Score: inf
ROOT
ATOM      1  O   UNL     1       6.228  14.870   9.889  1.00  0.00    -0.454 OA
ENDROOT
BRANCH   1   2
ATOM      2  C   UNL     1       5.337  15.096   8.819  1.00  0.00     0.214 A 
ATOM      3  C   UNL     1       5.340  14.187   7.741  1.00  0.00     0.180 A 
ATOM      4  O   UNL     1       4.465  14.316   6.750  1.00  0.00    -0.452 OA
ATOM      5  C   UNL     1       4.420  16.170   8.780  1.00  0.00     0.239 A 
ATOM      6  C   UNL     1       3.575  15.297   6.688  1.00  0.00     0.146 A 
ATOM      7  O   UNL     1       4.418  17.036   9.695  1.00  0.00    -0.285 OA
ATOM      8  C   UNL     1       3.514  16.278   7.702  1.00  0.00     0.111 A 
ATOM      9  C   UNL     1       2.697  15.348   5.601  1.00  0.00     0.094 A 
ATOM     10  C   UNL     1       2.556  17.317   7.597  1.00  0.00     0.134 A 
ATOM     11  C   UNL     1       1.753  16.375   5.504  1.00  0.00     0.123 A 
ATOM     12  C   UNL     1       1.686  17.353   6.498  1.00  0.00     0.093 A 
BRANCH   3  13
ATOM     13  C   UNL     1       6.285  13.054   7.690  1.00  0.00     0.025 A 
ATOM     14  C   UNL     1       5.842  11.743   7.903  1.00  0.00     0.016 A 
ATOM     15  C   UNL     1       6.744  10.679   7.859  1.00  0.00     0.051 A 
ATOM     16  C   UNL     1       8.104  10.906   7.617  1.00  0.00     0.157 A 
ATOM     17  C   UNL     1       7.649  13.292   7.472  1.00  0.00     0.062 A 
ATOM     18  C   UNL     1       8.564  12.232   7.427  1.00  0.00     0.158 A 
BRANCH  16  19
ATOM     19  O   UNL     1       8.955   9.800   7.579  1.00  0.00    -0.504 OA
ATOM     20  H   UNL     1       9.578   9.593   6.812  1.00  0.00     0.293 HD
ENDBRANCH  16  19
BRANCH  18  21
ATOM     21  O   UNL     1       9.906  12.538   7.195  1.00  0.00    -0.504 OA
ATOM     22  H   UNL     1      10.267  12.860   6.308  1.00  0.00     0.293 HD
ENDBRANCH  18  21
ENDBRANCH   3  13
BRANCH  10  23
ATOM     23  O   UNL     1       2.461  18.310   8.573  1.00  0.00    -0.507 OA
ATOM     24  H   UNL     1       1.607  18.837   8.716  1.00  0.00     0.293 HD
ENDBRANCH  10  23
BRANCH  11  25
ATOM     25  O   UNL     1       0.876  16.432   4.423  1.00  0.00    -0.508 OA
ATOM     26  H   UNL     1       0.734  17.288   3.900  1.00  0.00     0.293 HD
ENDBRANCH  11  25
ENDBRANCH   1   2
BRANCH   1  27
ATOM     27  C   UNL     1       5.949  14.131  11.080  1.00  0.00     0.339 C 
ATOM     28  C   UNL     1       7.240  13.439  11.590  1.00  0.00     0.214 C 
ATOM     29  O   UNL     1       5.296  14.955  12.043  1.00  0.00    -0.332 OA
ATOM     30  C   UNL     1       7.209  13.325  13.116  1.00  0.00     0.180 C 
ATOM     31  C   UNL     1       6.164  15.664  12.916  1.00  0.00     0.179 C 
ATOM     32  C   UNL     1       7.109  14.730  13.741  1.00  0.00     0.177 C 
BRANCH  28  33
ATOM     33  O   UNL     1       7.405  12.178  10.988  1.00  0.00    -0.384 OA
ATOM     34  H   UNL     1       6.520  11.727  10.975  1.00  0.00     0.211 HD
ENDBRANCH  28  33
BRANCH  30  35
ATOM     35  O   UNL     1       8.359  12.657  13.567  1.00  0.00    -0.387 OA
ATOM     36  H   UNL     1       8.627  12.031  12.844  1.00  0.00     0.211 HD
ENDBRANCH  30  35
BRANCH  31  37
ATOM     37  C   UNL     1       6.828  16.877  12.223  1.00  0.00     0.191 C 
BRANCH  37  38
ATOM     38  O   UNL     1       5.898  17.876  11.917  1.00  0.00    -0.394 OA
ATOM     39  H   UNL     1       5.901  18.502  12.686  1.00  0.00     0.210 HD
ENDBRANCH  37  38
ENDBRANCH  31  37
BRANCH  32  40
ATOM     40  O   UNL     1       8.394  15.287  13.881  1.00  0.00    -0.387 OA
ATOM     41  H   UNL     1       8.591  15.768  13.036  1.00  0.00     0.211 HD
ENDBRANCH  32  40
ENDBRANCH   1  27
TORSDOF 12
ENDMDL
MODEL 5
REMARK VINA RESULT:    -4.563      1.144      1.801
REMARK INTER + INTRA:          -8.273
REMARK INTER:                  -6.559
REMARK INTRA:                  -1.715
REMARK UNBOUND:                -1.576
REMARK SMILES O=c1c(O[C@@H]2O[C@H](CO)[C@H](O)[C@H](O)[C@H]2O)c(-c2ccc(O)c(O)c2)oc2cc(O)cc(O)c12
REMARK SMILES IDX 4 1 3 2 16 3 25 4 2 5 26 6 1 7 33 8 27 9 31 10 28 11 30 12
REMARK SMILES IDX 17 13 18 14 19 15 20 16 24 17 22 18 21 19 23 21 32 23 29 25
REMARK SMILES IDX 5 27 14 28 6 29 12 30 7 31 10 32 15 33 13 35 8 37 9 38 11 40
REMARK H PARENT 21 20 23 22 32 24 29 26 15 34 13 36 9 39 11 41
REMARK Flexibility Score: inf
ROOT
ATOM      1  O   UNL     1       7.540  10.241  10.115  1.00  0.00    -0.454 OA
ENDROOT
BRANCH   1   2
ATOM      2  C   UNL     1       8.157   9.890   8.896  1.00  0.00     0.214 A 
ATOM      3  C   UNL     1       7.761  10.569   7.726  1.00  0.00     0.180 A 
ATOM      4  O   UNL     1       8.369  10.327   6.569  1.00  0.00    -0.452 OA
ATOM      5  C   UNL     1       9.173   8.914   8.787  1.00  0.00     0.239 A 
ATOM      6  C   UNL     1       9.341   9.436   6.430  1.00  0.00     0.146 A 
ATOM      7  O   UNL     1       9.522   8.246   9.796  1.00  0.00    -0.285 OA
ATOM      8  C   UNL     1       9.786   8.679   7.537  1.00  0.00     0.111 A 
ATOM      9  C   UNL     1       9.917   9.251   5.170  1.00  0.00     0.094 A 
ATOM     10  C   UNL     1      10.819   7.727   7.347  1.00  0.00     0.134 A 
ATOM     11  C   UNL     1      10.937   8.313   4.990  1.00  0.00     0.123 A 
ATOM     12  C   UNL     1      11.383   7.555   6.075  1.00  0.00     0.093 A 
BRANCH   3  13
ATOM     13  C   UNL     1       6.689  11.583   7.747  1.00  0.00     0.025 A 
ATOM     14  C   UNL     1       6.996  12.948   7.799  1.00  0.00     0.016 A 
ATOM     15  C   UNL     1       5.975  13.900   7.825  1.00  0.00     0.051 A 
ATOM     16  C   UNL     1       4.632  13.504   7.816  1.00  0.00     0.157 A 
ATOM     17  C   UNL     1       5.347  11.180   7.763  1.00  0.00     0.062 A 
ATOM     18  C   UNL     1       4.313  12.125   7.791  1.00  0.00     0.158 A 
BRANCH  16  19
ATOM     19  O   UNL     1       3.657  14.504   7.837  1.00  0.00    -0.504 OA
ATOM     20  H   UNL     1       3.657  15.279   8.484  1.00  0.00     0.293 HD
ENDBRANCH  16  19
BRANCH  18  21
ATOM     21  O   UNL     1       2.999  11.655   7.794  1.00  0.00    -0.504 OA
ATOM     22  H   UNL     1       2.746  10.682   7.699  1.00  0.00     0.293 HD
ENDBRANCH  18  21
ENDBRANCH   3  13
BRANCH  10  23
ATOM     23  O   UNL     1      11.290   6.956   8.410  1.00  0.00    -0.507 OA
ATOM     24  H   UNL     1      10.662   6.536   9.085  1.00  0.00     0.293 HD
ENDBRANCH  10  23
BRANCH  11  25
ATOM     25  O   UNL     1      11.515   8.124   3.736  1.00  0.00    -0.508 OA
ATOM     26  H   UNL     1      11.552   7.210   3.302  1.00  0.00     0.293 HD
ENDBRANCH  11  25
ENDBRANCH   1   2
BRANCH   1  27
ATOM     27  C   UNL     1       8.114  11.038  11.154  1.00  0.00     0.339 C 
ATOM     28  C   UNL     1       7.026  11.944  11.788  1.00  0.00     0.214 C 
ATOM     29  O   UNL     1       8.822  10.221  12.083  1.00  0.00    -0.332 OA
ATOM     30  C   UNL     1       7.341  12.189  13.266  1.00  0.00     0.180 C 
ATOM     31  C   UNL     1       8.044   9.720  13.160  1.00  0.00     0.179 C 
ATOM     32  C   UNL     1       7.379  10.845  14.019  1.00  0.00     0.177 C 
BRANCH  28  33
ATOM     33  O   UNL     1       6.911  13.157  11.084  1.00  0.00    -0.384 OA
ATOM     34  H   UNL     1       5.996  13.513  11.236  1.00  0.00     0.211 HD
ENDBRANCH  28  33
BRANCH  30  35
ATOM     35  O   UNL     1       6.378  13.047  13.822  1.00  0.00    -0.387 OA
ATOM     36  H   UNL     1       6.543  13.065  14.801  1.00  0.00     0.211 HD
ENDBRANCH  30  35
BRANCH  31  37
ATOM     37  C   UNL     1       7.125   8.553  12.725  1.00  0.00     0.191 C 
BRANCH  37  38
ATOM     38  O   UNL     1       7.779   7.672  11.855  1.00  0.00    -0.394 OA
ATOM     39  H   UNL     1       8.657   7.474  12.271  1.00  0.00     0.210 HD
ENDBRANCH  37  38
ENDBRANCH  31  37
BRANCH  32  40
ATOM     40  O   UNL     1       6.082  10.485  14.429  1.00  0.00    -0.387 OA
ATOM     41  H   UNL     1       5.876   9.614  14.000  1.00  0.00     0.211 HD
ENDBRANCH  32  40
ENDBRANCH   1  27
TORSDOF 12
ENDMDL
MODEL 6
REMARK VINA RESULT:    -4.546      2.449      7.368
REMARK INTER + INTRA:          -8.249
REMARK INTER:                  -6.687
REMARK INTRA:                  -1.562
REMARK UNBOUND:                -1.576
REMARK SMILES O=c1c(O[C@@H]2O[C@H](CO)[C@H](O)[C@H](O)[C@H]2O)c(-c2ccc(O)c(O)c2)oc2cc(O)cc(O)c12
REMARK SMILES IDX 4 1 3 2 16 3 25 4 2 5 26 6 1 7 33 8 27 9 31 10 28 11 30 12
REMARK SMILES IDX 17 13 18 14 19 15 20 16 24 17 22 18 21 19 23 21 32 23 29 25
REMARK SMILES IDX 5 27 14 28 6 29 12 30 7 31 10 32 15 33 13 35 8 37 9 38 11 40
REMARK H PARENT 21 20 23 22 32 24 29 26 15 34 13 36 9 39 11 41
REMARK Flexibility Score: inf
ROOT
ATOM      1  O   UNL     1       5.915  14.900   9.973  1.00  0.00    -0.454 OA
ENDROOT
BRANCH   1   2
ATOM      2  C   UNL     1       5.092  15.160   8.857  1.00  0.00     0.214 A 
ATOM      3  C   UNL     1       5.265  14.375   7.700  1.00  0.00     0.180 A 
ATOM      4  O   UNL     1       4.461  14.532   6.654  1.00  0.00    -0.452 OA
ATOM      5  C   UNL     1       4.081  16.148   8.846  1.00  0.00     0.239 A 
ATOM      6  C   UNL     1       3.488  15.431   6.612  1.00  0.00     0.146 A 
ATOM      7  O   UNL     1       3.925  16.907   9.838  1.00  0.00    -0.285 OA
ATOM      8  C   UNL     1       3.255  16.290   7.709  1.00  0.00     0.111 A 
ATOM      9  C   UNL     1       2.696  15.521   5.463  1.00  0.00     0.094 A 
ATOM     10  C   UNL     1       2.213  17.246   7.624  1.00  0.00     0.134 A 
ATOM     11  C   UNL     1       1.668  16.465   5.386  1.00  0.00     0.123 A 
ATOM     12  C   UNL     1       1.431  17.322   6.463  1.00  0.00     0.093 A 
BRANCH   3  13
ATOM     13  C   UNL     1       6.316  13.341   7.619  1.00  0.00     0.025 A 
ATOM     14  C   UNL     1       6.036  12.009   7.947  1.00  0.00     0.016 A 
ATOM     15  C   UNL     1       7.037  11.040   7.874  1.00  0.00     0.051 A 
ATOM     16  C   UNL     1       8.338  11.386   7.488  1.00  0.00     0.157 A 
ATOM     17  C   UNL     1       7.621  13.699   7.256  1.00  0.00     0.062 A 
ATOM     18  C   UNL     1       8.635  12.735   7.180  1.00  0.00     0.158 A 
BRANCH  16  19
ATOM     19  O   UNL     1       9.293  10.370   7.427  1.00  0.00    -0.504 OA
ATOM     20  H   UNL     1       9.311   9.574   8.048  1.00  0.00     0.293 HD
ENDBRANCH  16  19
BRANCH  18  21
ATOM     21  O   UNL     1       9.910  13.158   6.801  1.00  0.00    -0.504 OA
ATOM     22  H   UNL     1      10.515  12.641   6.179  1.00  0.00     0.293 HD
ENDBRANCH  18  21
ENDBRANCH   3  13
BRANCH  10  23
ATOM     23  O   UNL     1       1.947  18.117   8.682  1.00  0.00    -0.507 OA
ATOM     24  H   UNL     1       1.347  18.925   8.569  1.00  0.00     0.293 HD
ENDBRANCH  10  23
BRANCH  11  25
ATOM     25  O   UNL     1       0.875  16.559   4.244  1.00  0.00    -0.508 OA
ATOM     26  H   UNL     1       0.682  15.751   3.665  1.00  0.00     0.293 HD
ENDBRANCH  11  25
ENDBRANCH   1   2
BRANCH   1  27
ATOM     27  C   UNL     1       5.486  14.404  11.243  1.00  0.00     0.339 C 
ATOM     28  C   UNL     1       4.679  13.092  11.055  1.00  0.00     0.214 C 
ATOM     29  O   UNL     1       6.587  14.300  12.142  1.00  0.00    -0.332 OA
ATOM     30  C   UNL     1       4.871  12.178  12.267  1.00  0.00     0.180 C 
ATOM     31  C   UNL     1       7.279  13.060  12.107  1.00  0.00     0.179 C 
ATOM     32  C   UNL     1       6.364  11.833  12.427  1.00  0.00     0.177 C 
BRANCH  28  33
ATOM     33  O   UNL     1       3.317  13.368  10.835  1.00  0.00    -0.384 OA
ATOM     34  H   UNL     1       2.788  12.619  11.215  1.00  0.00     0.211 HD
ENDBRANCH  28  33
BRANCH  30  35
ATOM     35  O   UNL     1       4.102  11.013  12.110  1.00  0.00    -0.387 OA
ATOM     36  H   UNL     1       3.289  11.273  11.602  1.00  0.00     0.211 HD
ENDBRANCH  30  35
BRANCH  31  37
ATOM     37  C   UNL     1       8.190  12.934  10.863  1.00  0.00     0.191 C 
BRANCH  37  38
ATOM     38  O   UNL     1       9.271  12.075  11.094  1.00  0.00    -0.394 OA
ATOM     39  H   UNL     1       9.931  12.263  10.379  1.00  0.00     0.210 HD
ENDBRANCH  37  38
ENDBRANCH  31  37
BRANCH  32  40
ATOM     40  O   UNL     1       6.690  10.721  11.628  1.00  0.00    -0.387 OA
ATOM     41  H   UNL     1       7.513  10.960  11.127  1.00  0.00     0.211 HD
ENDBRANCH  32  40
ENDBRANCH   1  27
TORSDOF 12
ENDMDL
MODEL 7
REMARK VINA RESULT:    -4.533      2.241      6.755
REMARK INTER + INTRA:          -8.230
REMARK INTER:                  -6.394
REMARK INTRA:                  -1.835
REMARK UNBOUND:                -1.576
REMARK SMILES O=c1c(O[C@@H]2O[C@H](CO)[C@H](O)[C@H](O)[C@H]2O)c(-c2ccc(O)c(O)c2)oc2cc(O)cc(O)c12
REMARK SMILES IDX 4 1 3 2 16 3 25 4 2 5 26 6 1 7 33 8 27 9 31 10 28 11 30 12
REMARK SMILES IDX 17 13 18 14 19 15 20 16 24 17 22 18 21 19 23 21 32 23 29 25
REMARK SMILES IDX 5 27 14 28 6 29 12 30 7 31 10 32 15 33 13 35 8 37 9 38 11 40
REMARK H PARENT 21 20 23 22 32 24 29 26 15 34 13 36 9 39 11 41
REMARK Flexibility Score: inf
ROOT
ATOM      1  O   UNL     1       5.811  13.509  10.418  1.00  0.00    -0.454 OA
ENDROOT
BRANCH   1   2
ATOM      2  C   UNL     1       5.189  14.095   9.295  1.00  0.00     0.214 A 
ATOM      3  C   UNL     1       5.508  13.595   8.017  1.00  0.00     0.180 A 
ATOM      4  O   UNL     1       4.890  14.063   6.938  1.00  0.00    -0.452 OA
ATOM      5  C   UNL     1       4.241  15.139   9.384  1.00  0.00     0.239 A 
ATOM      6  C   UNL     1       3.979  15.025   6.981  1.00  0.00     0.146 A 
ATOM      7  O   UNL     1       3.965  15.652  10.500  1.00  0.00    -0.285 OA
ATOM      8  C   UNL     1       3.615  15.616   8.212  1.00  0.00     0.111 A 
ATOM      9  C   UNL     1       3.385  15.452   5.789  1.00  0.00     0.094 A 
ATOM     10  C   UNL     1       2.645  16.650   8.218  1.00  0.00     0.134 A 
ATOM     11  C   UNL     1       2.428  16.471   5.802  1.00  0.00     0.123 A 
ATOM     12  C   UNL     1       2.063  17.065   7.012  1.00  0.00     0.093 A 
BRANCH   3  13
ATOM     13  C   UNL     1       6.508  12.525   7.833  1.00  0.00     0.025 A 
ATOM     14  C   UNL     1       7.868  12.831   7.700  1.00  0.00     0.016 A 
ATOM     15  C   UNL     1       8.805  11.813   7.520  1.00  0.00     0.051 A 
ATOM     16  C   UNL     1       8.400  10.474   7.453  1.00  0.00     0.157 A 
ATOM     17  C   UNL     1       6.093  11.190   7.742  1.00  0.00     0.062 A 
ATOM     18  C   UNL     1       7.024  10.159   7.560  1.00  0.00     0.158 A 
BRANCH  16  19
ATOM     19  O   UNL     1       9.386   9.501   7.278  1.00  0.00    -0.504 OA
ATOM     20  H   UNL     1       9.950   9.129   8.028  1.00  0.00     0.293 HD
ENDBRANCH  16  19
BRANCH  18  21
ATOM     21  O   UNL     1       6.543   8.850   7.490  1.00  0.00    -0.504 OA
ATOM     22  H   UNL     1       6.914   8.082   8.032  1.00  0.00     0.293 HD
ENDBRANCH  18  21
ENDBRANCH   3  13
BRANCH  10  23
ATOM     23  O   UNL     1       2.255  17.264   9.409  1.00  0.00    -0.507 OA
ATOM     24  H   UNL     1       1.325  17.144   9.791  1.00  0.00     0.293 HD
ENDBRANCH  10  23
BRANCH  11  25
ATOM     25  O   UNL     1       1.833  16.901   4.618  1.00  0.00    -0.508 OA
ATOM     26  H   UNL     1       0.925  16.559   4.326  1.00  0.00     0.293 HD
ENDBRANCH  11  25
ENDBRANCH   1   2
BRANCH   1  27
ATOM     27  C   UNL     1       6.850  14.090  11.208  1.00  0.00     0.339 C 
ATOM     28  C   UNL     1       6.468  14.036  12.710  1.00  0.00     0.214 C 
ATOM     29  O   UNL     1       8.111  13.501  10.895  1.00  0.00    -0.332 OA
ATOM     30  C   UNL     1       7.726  13.903  13.570  1.00  0.00     0.180 C 
ATOM     31  C   UNL     1       8.442  12.347  11.654  1.00  0.00     0.179 C 
ATOM     32  C   UNL     1       8.478  12.611  13.195  1.00  0.00     0.177 C 
BRANCH  28  33
ATOM     33  O   UNL     1       5.717  15.170  13.077  1.00  0.00    -0.384 OA
ATOM     34  H   UNL     1       6.169  15.970  12.701  1.00  0.00     0.211 HD
ENDBRANCH  28  33
BRANCH  30  35
ATOM     35  O   UNL     1       7.376  13.901  14.930  1.00  0.00    -0.387 OA
ATOM     36  H   UNL     1       6.606  13.281  15.026  1.00  0.00     0.211 HD
ENDBRANCH  30  35
BRANCH  31  37
ATOM     37  C   UNL     1       7.661  11.096  11.188  1.00  0.00     0.191 C 
BRANCH  37  38
ATOM     38  O   UNL     1       8.418   9.927  11.328  1.00  0.00    -0.394 OA
ATOM     39  H   UNL     1       8.185   9.352  10.555  1.00  0.00     0.210 HD
ENDBRANCH  37  38
ENDBRANCH  31  37
BRANCH  32  40
ATOM     40  O   UNL     1       7.955  11.523  13.919  1.00  0.00    -0.387 OA
ATOM     41  H   UNL     1       7.989  10.735  13.316  1.00  0.00     0.211 HD
ENDBRANCH  32  40
ENDBRANCH   1  27
TORSDOF 12
ENDMDL
MODEL 8
REMARK VINA RESULT:    -4.492      1.394      1.998
REMARK INTER + INTRA:          -8.169
REMARK INTER:                  -6.468
REMARK INTRA:                  -1.701
REMARK UNBOUND:                -1.576
REMARK SMILES O=c1c(O[C@@H]2O[C@H](CO)[C@H](O)[C@H](O)[C@H]2O)c(-c2ccc(O)c(O)c2)oc2cc(O)cc(O)c12
REMARK SMILES IDX 4 1 3 2 16 3 25 4 2 5 26 6 1 7 33 8 27 9 31 10 28 11 30 12
REMARK SMILES IDX 17 13 18 14 19 15 20 16 24 17 22 18 21 19 23 21 32 23 29 25
REMARK SMILES IDX 5 27 14 28 6 29 12 30 7 31 10 32 15 33 13 35 8 37 9 38 11 40
REMARK H PARENT 21 20 23 22 32 24 29 26 15 34 13 36 9 39 11 41
REMARK Flexibility Score: inf
ROOT
ATOM      1  O   UNL     1       8.444  10.596  10.017  1.00  0.00    -0.454 OA
ENDROOT
BRANCH   1   2
ATOM      2  C   UNL     1       8.628   9.913   8.797  1.00  0.00     0.214 A 
ATOM      3  C   UNL     1       7.998  10.423   7.644  1.00  0.00     0.180 A 
ATOM      4  O   UNL     1       8.206   9.859   6.458  1.00  0.00    -0.452 OA
ATOM      5  C   UNL     1       9.432   8.760   8.660  1.00  0.00     0.239 A 
ATOM      6  C   UNL     1       8.971   8.790   6.285  1.00  0.00     0.146 A 
ATOM      7  O   UNL     1       9.971   8.239   9.672  1.00  0.00    -0.285 OA
ATOM      8  C   UNL     1       9.618   8.183   7.385  1.00  0.00     0.111 A 
ATOM      9  C   UNL     1       9.125   8.268   4.998  1.00  0.00     0.094 A 
ATOM     10  C   UNL     1      10.419   7.035   7.162  1.00  0.00     0.134 A 
ATOM     11  C   UNL     1       9.919   7.137   4.784  1.00  0.00     0.123 A 
ATOM     12  C   UNL     1      10.560   6.525   5.864  1.00  0.00     0.093 A 
BRANCH   3  13
ATOM     13  C   UNL     1       7.119  11.607   7.703  1.00  0.00     0.025 A 
ATOM     14  C   UNL     1       7.660  12.896   7.787  1.00  0.00     0.016 A 
ATOM     15  C   UNL     1       6.820  14.010   7.850  1.00  0.00     0.051 A 
ATOM     16  C   UNL     1       5.429  13.854   7.847  1.00  0.00     0.157 A 
ATOM     17  C   UNL     1       5.728  11.443   7.726  1.00  0.00     0.062 A 
ATOM     18  C   UNL     1       4.875  12.553   7.790  1.00  0.00     0.158 A 
BRANCH  16  19
ATOM     19  O   UNL     1       4.643  15.007   7.905  1.00  0.00    -0.504 OA
ATOM     20  H   UNL     1       3.634  15.003   7.896  1.00  0.00     0.293 HD
ENDBRANCH  16  19
BRANCH  18  21
ATOM     21  O   UNL     1       3.499  12.319   7.796  1.00  0.00    -0.504 OA
ATOM     22  H   UNL     1       2.804  13.025   7.599  1.00  0.00     0.293 HD
ENDBRANCH  18  21
ENDBRANCH   3  13
BRANCH  10  23
ATOM     23  O   UNL     1      11.076   6.401   8.218  1.00  0.00    -0.507 OA
ATOM     24  H   UNL     1      12.021   6.650   8.484  1.00  0.00     0.293 HD
ENDBRANCH  10  23
BRANCH  11  25
ATOM     25  O   UNL     1      10.076   6.611   3.504  1.00  0.00    -0.508 OA
ATOM     26  H   UNL     1       9.405   5.962   3.111  1.00  0.00     0.293 HD
ENDBRANCH  11  25
ENDBRANCH   1   2
BRANCH   1  27
ATOM     27  C   UNL     1       7.515  10.251  11.047  1.00  0.00     0.339 C 
ATOM     28  C   UNL     1       8.275   9.936  12.363  1.00  0.00     0.214 C 
ATOM     29  O   UNL     1       6.505  11.249  11.170  1.00  0.00    -0.332 OA
ATOM     30  C   UNL     1       7.416  10.316  13.571  1.00  0.00     0.180 C 
ATOM     31  C   UNL     1       6.809  12.309  12.066  1.00  0.00     0.179 C 
ATOM     32  C   UNL     1       7.092  11.822  13.525  1.00  0.00     0.177 C 
BRANCH  28  33
ATOM     33  O   UNL     1       8.651   8.580  12.412  1.00  0.00    -0.384 OA
ATOM     34  H   UNL     1       9.626   8.540  12.599  1.00  0.00     0.211 HD
ENDBRANCH  28  33
BRANCH  30  35
ATOM     35  O   UNL     1       8.091   9.986  14.758  1.00  0.00    -0.387 OA
ATOM     36  H   UNL     1       9.011   9.717  14.498  1.00  0.00     0.211 HD
ENDBRANCH  30  35
BRANCH  31  37
ATOM     37  C   UNL     1       7.825  13.309  11.464  1.00  0.00     0.191 C 
BRANCH  37  38
ATOM     38  O   UNL     1       9.146  12.878  11.639  1.00  0.00    -0.394 OA
ATOM     39  H   UNL     1       9.114  12.159  12.321  1.00  0.00     0.210 HD
ENDBRANCH  37  38
ENDBRANCH  31  37
BRANCH  32  40
ATOM     40  O   UNL     1       8.132  12.558  14.123  1.00  0.00    -0.387 OA
ATOM     41  H   UNL     1       7.719  13.366  14.524  1.00  0.00     0.211 HD
ENDBRANCH  32  40
ENDBRANCH   1  27
TORSDOF 12
ENDMDL
MODEL 9
REMARK VINA RESULT:    -4.474      1.880      6.595
REMARK INTER + INTRA:          -8.142
REMARK INTER:                  -6.597
REMARK INTRA:                  -1.545
REMARK UNBOUND:                -1.576
REMARK SMILES O=c1c(O[C@@H]2O[C@H](CO)[C@H](O)[C@H](O)[C@H]2O)c(-c2ccc(O)c(O)c2)oc2cc(O)cc(O)c12
REMARK SMILES IDX 4 1 3 2 16 3 25 4 2 5 26 6 1 7 33 8 27 9 31 10 28 11 30 12
REMARK SMILES IDX 17 13 18 14 19 15 20 16 24 17 22 18 21 19 23 21 32 23 29 25
REMARK SMILES IDX 5 27 14 28 6 29 12 30 7 31 10 32 15 33 13 35 8 37 9 38 11 40
REMARK H PARENT 21 20 23 22 32 24 29 26 15 34 13 36 9 39 11 41
REMARK Flexibility Score: inf
ROOT
ATOM      1  O   UNL     1       8.990  10.435   9.840  1.00  0.00    -0.454 OA
ENDROOT
BRANCH   1   2
ATOM      2  C   UNL     1       8.130  11.430   9.330  1.00  0.00     0.214 A 
ATOM      3  C   UNL     1       7.697  11.320   7.994  1.00  0.00     0.180 A 
ATOM      4  O   UNL     1       6.825  12.189   7.495  1.00  0.00    -0.452 OA
ATOM      5  C   UNL     1       7.654  12.518  10.096  1.00  0.00     0.239 A 
ATOM      6  C   UNL     1       6.339  13.210   8.187  1.00  0.00     0.146 A 
ATOM      7  O   UNL     1       8.055  12.686  11.278  1.00  0.00    -0.285 OA
ATOM      8  C   UNL     1       6.737  13.427   9.525  1.00  0.00     0.111 A 
ATOM      9  C   UNL     1       5.427  14.073   7.572  1.00  0.00     0.094 A 
ATOM     10  C   UNL     1       6.204  14.536  10.229  1.00  0.00     0.134 A 
ATOM     11  C   UNL     1       4.902  15.163   8.273  1.00  0.00     0.123 A 
ATOM     12  C   UNL     1       5.292  15.391   9.594  1.00  0.00     0.093 A 
BRANCH   3  13
ATOM     13  C   UNL     1       8.168  10.229   7.117  1.00  0.00     0.025 A 
ATOM     14  C   UNL     1       7.419   9.056   6.970  1.00  0.00     0.016 A 
ATOM     15  C   UNL     1       7.876   8.027   6.144  1.00  0.00     0.051 A 
ATOM     16  C   UNL     1       9.094   8.146   5.465  1.00  0.00     0.157 A 
ATOM     17  C   UNL     1       9.400  10.345   6.460  1.00  0.00     0.062 A 
ATOM     18  C   UNL     1       9.870   9.319   5.630  1.00  0.00     0.158 A 
BRANCH  16  19
ATOM     19  O   UNL     1       9.493   7.085   4.649  1.00  0.00    -0.504 OA
ATOM     20  H   UNL     1       9.063   6.172   4.659  1.00  0.00     0.293 HD
ENDBRANCH  16  19
BRANCH  18  21
ATOM     21  O   UNL     1      11.100   9.504   4.996  1.00  0.00    -0.504 OA
ATOM     22  H   UNL     1      11.205   9.677   4.006  1.00  0.00     0.293 HD
ENDBRANCH  18  21
ENDBRANCH   3  13
BRANCH  10  23
ATOM     23  O   UNL     1       6.569  14.791  11.552  1.00  0.00    -0.507 OA
ATOM     24  H   UNL     1       6.689  14.045  12.226  1.00  0.00     0.293 HD
ENDBRANCH  10  23
BRANCH  11  25
ATOM     25  O   UNL     1       3.994  16.027   7.666  1.00  0.00    -0.508 OA
ATOM     26  H   UNL     1       3.636  15.851   6.734  1.00  0.00     0.293 HD
ENDBRANCH  11  25
ENDBRANCH   1   2
BRANCH   1  27
ATOM     27  C   UNL     1       8.707   9.546  10.923  1.00  0.00     0.339 C 
ATOM     28  C   UNL     1       7.365   8.812  10.669  1.00  0.00     0.214 C 
ATOM     29  O   UNL     1       9.816   8.686  11.173  1.00  0.00    -0.332 OA
ATOM     30  C   UNL     1       7.400   7.417  11.297  1.00  0.00     0.180 C 
ATOM     31  C   UNL     1       9.819   7.475  10.432  1.00  0.00     0.179 C 
ATOM     32  C   UNL     1       8.548   6.596  10.679  1.00  0.00     0.177 C 
BRANCH  28  33
ATOM     33  O   UNL     1       6.281   9.564  11.158  1.00  0.00    -0.384 OA
ATOM     34  H   UNL     1       6.538   9.931  12.044  1.00  0.00     0.211 HD
ENDBRANCH  28  33
BRANCH  30  35
ATOM     35  O   UNL     1       6.166   6.775  11.103  1.00  0.00    -0.387 OA
ATOM     36  H   UNL     1       6.364   5.813  10.959  1.00  0.00     0.211 HD
ENDBRANCH  30  35
BRANCH  31  37
ATOM     37  C   UNL     1      10.228   7.693   8.956  1.00  0.00     0.191 C 
BRANCH  37  38
ATOM     38  O   UNL     1      10.708   6.516   8.369  1.00  0.00    -0.394 OA
ATOM     39  H   UNL     1      11.303   6.799   7.628  1.00  0.00     0.210 HD
ENDBRANCH  37  38
ENDBRANCH  31  37
BRANCH  32  40
ATOM     40  O   UNL     1       8.112   5.973   9.495  1.00  0.00    -0.387 OA
ATOM     41  H   UNL     1       8.885   5.966   8.873  1.00  0.00     0.211 HD
ENDBRANCH  32  40
ENDBRANCH   1  27
TORSDOF 12
ENDMDL
