MODEL 1
REMARK VINA RESULT:    -5.136      0.000      0.000
REMARK INTER + INTRA:         -12.263
REMARK INTER:                  -9.941
REMARK INTRA:                  -2.322
REMARK UNBOUND:                -2.322
REMARK SMILES CCCCCCCCCCCCCCCCCC(=O)[O-]
REMARK SMILES IDX 10 1 11 2 12 3 13 4 14 5 15 6 16 7 17 8 18 9 19 10 20 11
REMARK SMILES IDX 9 12 8 13 7 14 6 15 5 16 4 17 3 18 2 19 1 20
REMARK H PARENT
REMARK Flexibility Score: inf
ROOT
ATOM      1  C   UNL     1       9.747  18.261  33.307  1.00  0.00     0.000 C 
ENDROOT
BRANCH   1   2
ATOM      2  C   UNL     1       8.249  18.195  33.641  1.00  0.00     0.000 C 
BRANCH   2   3
ATOM      3  C   UNL     1       7.930  19.013  34.899  1.00  0.00     0.000 C 
BRANCH   3   4
ATOM      4  C   UNL     1       7.875  18.112  36.141  1.00  0.00     0.000 C 
BRANCH   4   5
ATOM      5  C   UNL     1       8.153  18.880  37.444  1.00  0.00     0.000 C 
BRANCH   5   6
ATOM      6  C   UNL     1       9.437  18.412  38.144  1.00  0.00     0.000 C 
BRANCH   6   7
ATOM      7  C   UNL     1      10.205  17.411  37.267  1.00  0.00     0.006 C 
BRANCH   7   8
ATOM      8  C   UNL     1      11.623  17.897  36.938  1.00  0.00     0.053 C 
BRANCH   8   9
ATOM      9  C   UNL     1      12.588  17.588  38.041  1.00  0.00     0.041 C 
ATOM     10  O   UNL     1      13.320  16.565  37.975  1.00  0.00    -0.550 OA
ATOM     11  O   UNL     1      12.655  18.411  39.159  1.00  0.00    -0.550 OA
ENDBRANCH   8   9
ENDBRANCH   7   8
ENDBRANCH   6   7
ENDBRANCH   5   6
ENDBRANCH   4   5
ENDBRANCH   3   4
ENDBRANCH   2   3
ENDBRANCH   1   2
BRANCH   1  12
ATOM     12  C   UNL     1      10.032  19.030  32.007  1.00  0.00     0.000 C 
BRANCH  12  13
ATOM     13  C   UNL     1       9.000  18.731  30.906  1.00  0.00    -0.000 C 
BRANCH  13  14
ATOM     14  C   UNL     1       8.324  20.001  30.357  1.00  0.00    -0.000 C 
BRANCH  14  15
ATOM     15  C   UNL     1       8.004  21.079  31.408  1.00  0.00    -0.000 C 
BRANCH  15  16
ATOM     16  C   UNL     1       8.565  22.461  31.039  1.00  0.00    -0.000 C 
BRANCH  16  17
ATOM     17  C   UNL     1       9.307  23.087  32.225  1.00  0.00    -0.000 C 
BRANCH  17  18
ATOM     18  C   UNL     1       8.995  22.338  33.527  1.00  0.00    -0.000 C 
BRANCH  18  19
ATOM     19  C   UNL     1      10.282  21.865  34.211  1.00  0.00    -0.003 C 
ATOM     20  C   UNL     1      11.515  22.277  33.411  1.00  0.00     0.004 C 
ENDBRANCH  18  19
ENDBRANCH  17  18
ENDBRANCH  16  17
ENDBRANCH  15  16
ENDBRANCH  14  15
ENDBRANCH  13  14
ENDBRANCH  12  13
ENDBRANCH   1  12
TORSDOF 16
ENDMDL
MODEL 2
REMARK VINA RESULT:    -5.072      4.542      7.206
REMARK INTER + INTRA:         -12.139
REMARK INTER:                 -10.911
REMARK INTRA:                  -1.228
REMARK UNBOUND:                -2.322
REMARK SMILES CCCCCCCCCCCCCCCCCC(=O)[O-]
REMARK SMILES IDX 10 1 11 2 12 3 13 4 14 5 15 6 16 7 17 8 18 9 19 10 20 11
REMARK SMILES IDX 9 12 8 13 7 14 6 15 5 16 4 17 3 18 2 19 1 20
REMARK H PARENT
REMARK Flexibility Score: inf
ROOT
ATOM      1  C   UNL     1      13.718  16.028  35.976  1.00  0.00     0.000 C 
ENDROOT
BRANCH   1   2
ATOM      2  C   UNL     1      13.851  15.678  37.467  1.00  0.00     0.000 C 
BRANCH   2   3
ATOM      3  C   UNL     1      15.164  16.222  38.044  1.00  0.00     0.000 C 
BRANCH   3   4
ATOM      4  C   UNL     1      16.270  16.235  36.978  1.00  0.00     0.000 C 
BRANCH   4   5
ATOM      5  C   UNL     1      16.933  17.613  36.828  1.00  0.00     0.000 C 
BRANCH   5   6
ATOM      6  C   UNL     1      16.803  18.181  35.407  1.00  0.00     0.000 C 
BRANCH   6   7
ATOM      7  C   UNL     1      17.962  17.703  34.519  1.00  0.00     0.006 C 
BRANCH   7   8
ATOM      8  C   UNL     1      19.326  18.176  35.039  1.00  0.00     0.053 C 
BRANCH   8   9
ATOM      9  C   UNL     1      20.445  17.320  34.530  1.00  0.00     0.041 C 
ATOM     10  O   UNL     1      21.566  17.335  35.103  1.00  0.00    -0.550 OA
ATOM     11  O   UNL     1      20.260  16.532  33.400  1.00  0.00    -0.550 OA
ENDBRANCH   8   9
ENDBRANCH   7   8
ENDBRANCH   6   7
ENDBRANCH   5   6
ENDBRANCH   4   5
ENDBRANCH   3   4
ENDBRANCH   2   3
ENDBRANCH   1   2
BRANCH   1  12
ATOM     12  C   UNL     1      12.667  17.118  35.715  1.00  0.00     0.000 C 
BRANCH  12  13
ATOM     13  C   UNL     1      11.748  17.354  36.926  1.00  0.00    -0.000 C 
BRANCH  13  14
ATOM     14  C   UNL     1      10.325  16.806  36.714  1.00  0.00    -0.000 C 
BRANCH  14  15
ATOM     15  C   UNL     1       9.760  16.980  35.293  1.00  0.00    -0.000 C 
BRANCH  15  16
ATOM     16  C   UNL     1       8.437  17.761  35.265  1.00  0.00    -0.000 C 
BRANCH  16  17
ATOM     17  C   UNL     1       8.231  18.443  33.908  1.00  0.00    -0.000 C 
BRANCH  17  18
ATOM     18  C   UNL     1       9.364  18.089  32.936  1.00  0.00    -0.000 C 
BRANCH  18  19
ATOM     19  C   UNL     1       8.977  18.434  31.493  1.00  0.00    -0.003 C 
ATOM     20  C   UNL     1       9.899  17.739  30.495  1.00  0.00     0.004 C 
ENDBRANCH  18  19
ENDBRANCH  17  18
ENDBRANCH  16  17
ENDBRANCH  15  16
ENDBRANCH  14  15
ENDBRANCH  13  14
ENDBRANCH  12  13
ENDBRANCH   1  12
TORSDOF 16
ENDMDL
MODEL 3
REMARK VINA RESULT:    -5.051      2.040      4.371
REMARK INTER + INTRA:         -12.098
REMARK INTER:                  -9.769
REMARK INTRA:                  -2.328
REMARK UNBOUND:                -2.322
REMARK SMILES CCCCCCCCCCCCCCCCCC(=O)[O-]
REMARK SMILES IDX 10 1 11 2 12 3 13 4 14 5 15 6 16 7 17 8 18 9 19 10 20 11
REMARK SMILES IDX 9 12 8 13 7 14 6 15 5 16 4 17 3 18 2 19 1 20
REMARK H PARENT
REMARK Flexibility Score: inf
ROOT
ATOM      1  C   UNL     1       7.927  17.692  36.519  1.00  0.00     0.000 C 
ENDROOT
BRANCH   1   2
ATOM      2  C   UNL     1       8.953  16.818  35.780  1.00  0.00     0.000 C 
BRANCH   2   3
ATOM      3  C   UNL     1      10.240  16.670  36.600  1.00  0.00     0.000 C 
BRANCH   3   4
ATOM      4  C   UNL     1      11.472  17.045  35.763  1.00  0.00     0.000 C 
BRANCH   4   5
ATOM      5  C   UNL     1      12.379  18.068  36.466  1.00  0.00     0.000 C 
BRANCH   5   6
ATOM      6  C   UNL     1      12.539  17.782  37.966  1.00  0.00     0.000 C 
BRANCH   6   7
ATOM      7  C   UNL     1      13.697  16.804  38.217  1.00  0.00     0.006 C 
BRANCH   7   8
ATOM      8  C   UNL     1      15.068  17.482  38.092  1.00  0.00     0.053 C 
BRANCH   8   9
ATOM      9  C   UNL     1      15.856  16.937  36.941  1.00  0.00     0.041 C 
ATOM     10  O   UNL     1      15.320  16.139  36.127  1.00  0.00    -0.550 OA
ATOM     11  O   UNL     1      17.193  17.282  36.788  1.00  0.00    -0.550 OA
ENDBRANCH   8   9
ENDBRANCH   7   8
ENDBRANCH   6   7
ENDBRANCH   5   6
ENDBRANCH   4   5
ENDBRANCH   3   4
ENDBRANCH   2   3
ENDBRANCH   1   2
BRANCH   1  12
ATOM     12  C   UNL     1       8.577  18.614  37.564  1.00  0.00     0.000 C 
BRANCH  12  13
ATOM     13  C   UNL     1       8.363  20.105  37.250  1.00  0.00    -0.000 C 
BRANCH  13  14
ATOM     14  C   UNL     1       9.652  20.811  36.789  1.00  0.00    -0.000 C 
BRANCH  14  15
ATOM     15  C   UNL     1      10.064  20.535  35.332  1.00  0.00    -0.000 C 
BRANCH  15  16
ATOM     16  C   UNL     1       8.963  20.885  34.320  1.00  0.00    -0.000 C 
BRANCH  16  17
ATOM     17  C   UNL     1       8.552  19.652  33.507  1.00  0.00    -0.000 C 
BRANCH  17  18
ATOM     18  C   UNL     1       9.654  19.252  32.518  1.00  0.00    -0.000 C 
BRANCH  18  19
ATOM     19  C   UNL     1       9.076  19.012  31.119  1.00  0.00    -0.003 C 
ATOM     20  C   UNL     1       9.665  17.753  30.488  1.00  0.00     0.004 C 
ENDBRANCH  18  19
ENDBRANCH  17  18
ENDBRANCH  16  17
ENDBRANCH  15  16
ENDBRANCH  14  15
ENDBRANCH  13  14
ENDBRANCH  12  13
ENDBRANCH   1  12
TORSDOF 16
ENDMDL
MODEL 4
REMARK VINA RESULT:    -5.050      1.859      2.410
REMARK INTER + INTRA:         -12.096
REMARK INTER:                 -10.191
REMARK INTRA:                  -1.906
REMARK UNBOUND:                -2.322
REMARK SMILES CCCCCCCCCCCCCCCCCC(=O)[O-]
REMARK SMILES IDX 10 1 11 2 12 3 13 4 14 5 15 6 16 7 17 8 18 9 19 10 20 11
REMARK SMILES IDX 9 12 8 13 7 14 6 15 5 16 4 17 3 18 2 19 1 20
REMARK H PARENT
REMARK Flexibility Score: inf
ROOT
ATOM      1  C   UNL     1       9.750  18.561  33.555  1.00  0.00     0.000 C 
ENDROOT
BRANCH   1   2
ATOM      2  C   UNL     1       8.248  18.488  33.873  1.00  0.00     0.000 C 
BRANCH   2   3
ATOM      3  C   UNL     1       7.993  17.648  35.132  1.00  0.00     0.000 C 
BRANCH   3   4
ATOM      4  C   UNL     1       9.307  17.351  35.870  1.00  0.00     0.000 C 
BRANCH   4   5
ATOM      5  C   UNL     1       9.306  17.876  37.315  1.00  0.00     0.000 C 
BRANCH   5   6
ATOM      6  C   UNL     1       8.182  18.889  37.576  1.00  0.00     0.000 C 
BRANCH   6   7
ATOM      7  C   UNL     1       8.750  20.307  37.741  1.00  0.00     0.006 C 
BRANCH   7   8
ATOM      8  C   UNL     1      10.118  20.307  38.437  1.00  0.00     0.053 C 
BRANCH   8   9
ATOM      9  C   UNL     1       9.989  20.495  39.918  1.00  0.00     0.041 C 
ATOM     10  O   UNL     1       9.929  19.495  40.681  1.00  0.00    -0.550 OA
ATOM     11  O   UNL     1       9.899  21.775  40.452  1.00  0.00    -0.550 OA
ENDBRANCH   8   9
ENDBRANCH   7   8
ENDBRANCH   6   7
ENDBRANCH   5   6
ENDBRANCH   4   5
ENDBRANCH   3   4
ENDBRANCH   2   3
ENDBRANCH   1   2
BRANCH   1  12
ATOM     12  C   UNL     1      10.036  19.201  32.188  1.00  0.00     0.000 C 
BRANCH  12  13
ATOM     13  C   UNL     1       8.990  18.817  31.127  1.00  0.00    -0.000 C 
BRANCH  13  14
ATOM     14  C   UNL     1       8.342  20.041  30.453  1.00  0.00    -0.000 C 
BRANCH  14  15
ATOM     15  C   UNL     1       7.904  21.161  31.414  1.00  0.00    -0.000 C 
BRANCH  15  16
ATOM     16  C   UNL     1       8.387  22.551  30.974  1.00  0.00    -0.000 C 
BRANCH  16  17
ATOM     17  C   UNL     1       9.360  23.144  31.999  1.00  0.00    -0.000 C 
BRANCH  17  18
ATOM     18  C   UNL     1       9.089  22.588  33.402  1.00  0.00    -0.000 C 
BRANCH  18  19
ATOM     19  C   UNL     1       8.649  23.702  34.359  1.00  0.00    -0.003 C 
ATOM     20  C   UNL     1       9.344  25.020  34.026  1.00  0.00     0.004 C 
ENDBRANCH  18  19
ENDBRANCH  17  18
ENDBRANCH  16  17
ENDBRANCH  15  16
ENDBRANCH  14  15
ENDBRANCH  13  14
ENDBRANCH  12  13
ENDBRANCH   1  12
TORSDOF 16
ENDMDL
MODEL 5
REMARK VINA RESULT:    -5.029      1.458      2.220
REMARK INTER + INTRA:         -12.055
REMARK INTER:                  -9.455
REMARK INTRA:                  -2.600
REMARK UNBOUND:                -2.322
REMARK SMILES CCCCCCCCCCCCCCCCCC(=O)[O-]
REMARK SMILES IDX 10 1 11 2 12 3 13 4 14 5 15 6 16 7 17 8 18 9 19 10 20 11
REMARK SMILES IDX 9 12 8 13 7 14 6 15 5 16 4 17 3 18 2 19 1 20
REMARK H PARENT
REMARK Flexibility Score: inf
ROOT
ATOM      1  C   UNL     1      10.455  20.513  34.858  1.00  0.00     0.000 C 
ENDROOT
BRANCH   1   2
ATOM      2  C   UNL     1       9.032  20.447  35.434  1.00  0.00     0.000 C 
BRANCH   2   3
ATOM      3  C   UNL     1       8.450  19.034  35.300  1.00  0.00     0.000 C 
BRANCH   3   4
ATOM      4  C   UNL     1       8.058  18.467  36.672  1.00  0.00     0.000 C 
BRANCH   4   5
ATOM      5  C   UNL     1       9.216  18.506  37.683  1.00  0.00     0.000 C 
BRANCH   5   6
ATOM      6  C   UNL     1      10.244  17.390  37.448  1.00  0.00     0.000 C 
BRANCH   6   7
ATOM      7  C   UNL     1      11.663  17.969  37.330  1.00  0.00     0.006 C 
BRANCH   7   8
ATOM      8  C   UNL     1      12.739  16.956  37.744  1.00  0.00     0.053 C 
BRANCH   8   9
ATOM      9  C   UNL     1      13.260  16.186  36.569  1.00  0.00     0.041 C 
ATOM     10  O   UNL     1      13.829  15.076  36.741  1.00  0.00    -0.550 OA
ATOM     11  O   UNL     1      13.147  16.710  35.287  1.00  0.00    -0.550 OA
ENDBRANCH   8   9
ENDBRANCH   7   8
ENDBRANCH   6   7
ENDBRANCH   5   6
ENDBRANCH   4   5
ENDBRANCH   3   4
ENDBRANCH   2   3
ENDBRANCH   1   2
BRANCH   1  12
ATOM     12  C   UNL     1      10.823  19.265  34.041  1.00  0.00     0.000 C 
BRANCH  12  13
ATOM     13  C   UNL     1      11.017  19.574  32.546  1.00  0.00    -0.000 C 
BRANCH  13  14
ATOM     14  C   UNL     1      10.000  18.847  31.647  1.00  0.00    -0.000 C 
BRANCH  14  15
ATOM     15  C   UNL     1       8.583  19.449  31.641  1.00  0.00    -0.000 C 
BRANCH  15  16
ATOM     16  C   UNL     1       8.270  20.231  30.357  1.00  0.00    -0.000 C 
BRANCH  16  17
ATOM     17  C   UNL     1       8.175  21.735  30.639  1.00  0.00    -0.000 C 
BRANCH  17  18
ATOM     18  C   UNL     1       8.227  22.016  32.146  1.00  0.00    -0.000 C 
BRANCH  18  19
ATOM     19  C   UNL     1       8.978  23.321  32.436  1.00  0.00    -0.003 C 
ATOM     20  C   UNL     1      10.466  23.180  32.127  1.00  0.00     0.004 C 
ENDBRANCH  18  19
ENDBRANCH  17  18
ENDBRANCH  16  17
ENDBRANCH  15  16
ENDBRANCH  14  15
ENDBRANCH  13  14
ENDBRANCH  12  13
ENDBRANCH   1  12
TORSDOF 16
ENDMDL
MODEL 6
REMARK VINA RESULT:    -5.000      1.982      3.914
REMARK INTER + INTRA:         -12.000
REMARK INTER:                  -9.084
REMARK INTRA:                  -2.916
REMARK UNBOUND:                -2.322
REMARK SMILES CCCCCCCCCCCCCCCCCC(=O)[O-]
REMARK SMILES IDX 10 1 11 2 12 3 13 4 14 5 15 6 16 7 17 8 18 9 19 10 20 11
REMARK SMILES IDX 9 12 8 13 7 14 6 15 5 16 4 17 3 18 2 19 1 20
REMARK H PARENT
REMARK Flexibility Score: inf
ROOT
ATOM      1  C   UNL     1      10.730  21.063  33.013  1.00  0.00     0.000 C 
ENDROOT
BRANCH   1   2
ATOM      2  C   UNL     1       9.430  21.316  32.234  1.00  0.00     0.000 C 
BRANCH   2   3
ATOM      3  C   UNL     1       8.721  19.997  31.904  1.00  0.00     0.000 C 
BRANCH   3   4
ATOM      4  C   UNL     1       9.706  18.819  31.942  1.00  0.00     0.000 C 
BRANCH   4   5
ATOM      5  C   UNL     1       9.380  17.809  33.054  1.00  0.00     0.000 C 
BRANCH   5   6
ATOM      6  C   UNL     1       8.231  18.277  33.960  1.00  0.00     0.000 C 
BRANCH   6   7
ATOM      7  C   UNL     1       8.729  18.518  35.394  1.00  0.00     0.006 C 
BRANCH   7   8
ATOM      8  C   UNL     1      10.170  18.031  35.598  1.00  0.00     0.053 C 
BRANCH   8   9
ATOM      9  C   UNL     1      10.768  18.572  36.860  1.00  0.00     0.041 C 
ATOM     10  O   UNL     1      10.328  19.640  37.362  1.00  0.00    -0.550 OA
ATOM     11  O   UNL     1      11.833  17.916  37.463  1.00  0.00    -0.550 OA
ENDBRANCH   8   9
ENDBRANCH   7   8
ENDBRANCH   6   7
ENDBRANCH   5   6
ENDBRANCH   4   5
ENDBRANCH   3   4
ENDBRANCH   2   3
ENDBRANCH   1   2
BRANCH   1  12
ATOM     12  C   UNL     1      10.687  21.634  34.439  1.00  0.00     0.000 C 
BRANCH  12  13
ATOM     13  C   UNL     1       9.291  22.151  34.826  1.00  0.00    -0.000 C 
BRANCH  13  14
ATOM     14  C   UNL     1       9.333  23.517  35.536  1.00  0.00    -0.000 C 
BRANCH  14  15
ATOM     15  C   UNL     1      10.290  24.550  34.913  1.00  0.00    -0.000 C 
BRANCH  15  16
ATOM     16  C   UNL     1       9.750  25.157  33.609  1.00  0.00    -0.000 C 
BRANCH  16  17
ATOM     17  C   UNL     1      10.897  25.607  32.698  1.00  0.00    -0.000 C 
BRANCH  17  18
ATOM     18  C   UNL     1      11.417  24.440  31.848  1.00  0.00    -0.000 C 
BRANCH  18  19
ATOM     19  C   UNL     1      12.948  24.379  31.878  1.00  0.00    -0.003 C 
ATOM     20  C   UNL     1      13.449  23.755  33.178  1.00  0.00     0.004 C 
ENDBRANCH  18  19
ENDBRANCH  17  18
ENDBRANCH  16  17
ENDBRANCH  15  16
ENDBRANCH  14  15
ENDBRANCH  13  14
ENDBRANCH  12  13
ENDBRANCH   1  12
TORSDOF 16
ENDMDL
MODEL 7
REMARK VINA RESULT:    -4.993      2.452      5.939
REMARK INTER + INTRA:         -11.986
REMARK INTER:                  -9.532
REMARK INTRA:                  -2.454
REMARK UNBOUND:                -2.322
REMARK SMILES CCCCCCCCCCCCCCCCCC(=O)[O-]
REMARK SMILES IDX 10 1 11 2 12 3 13 4 14 5 15 6 16 7 17 8 18 9 19 10 20 11
REMARK SMILES IDX 9 12 8 13 7 14 6 15 5 16 4 17 3 18 2 19 1 20
REMARK H PARENT
REMARK Flexibility Score: inf
ROOT
ATOM      1  C   UNL     1       9.999  18.868  32.330  1.00  0.00     0.000 C 
ENDROOT
BRANCH   1   2
ATOM      2  C   UNL     1       9.342  18.472  30.998  1.00  0.00     0.000 C 
BRANCH   2   3
ATOM      3  C   UNL     1       8.603  19.662  30.375  1.00  0.00     0.000 C 
BRANCH   3   4
ATOM      4  C   UNL     1       8.182  20.674  31.451  1.00  0.00     0.000 C 
BRANCH   4   5
ATOM      5  C   UNL     1       8.266  22.129  30.962  1.00  0.00     0.000 C 
BRANCH   5   6
ATOM      6  C   UNL     1       9.425  22.904  31.606  1.00  0.00     0.000 C 
BRANCH   6   7
ATOM      7  C   UNL     1       9.615  22.487  33.072  1.00  0.00     0.006 C 
BRANCH   7   8
ATOM      8  C   UNL     1       8.675  23.248  34.018  1.00  0.00     0.053 C 
BRANCH   8   9
ATOM      9  C   UNL     1       9.361  23.634  35.293  1.00  0.00     0.041 C 
ATOM     10  O   UNL     1      10.284  24.490  35.281  1.00  0.00    -0.550 OA
ATOM     11  O   UNL     1       9.004  23.023  36.488  1.00  0.00    -0.550 OA
ENDBRANCH   8   9
ENDBRANCH   7   8
ENDBRANCH   6   7
ENDBRANCH   5   6
ENDBRANCH   4   5
ENDBRANCH   3   4
ENDBRANCH   2   3
ENDBRANCH   1   2
BRANCH   1  12
ATOM     12  C   UNL     1       9.684  17.880  33.464  1.00  0.00     0.000 C 
BRANCH  12  13
ATOM     13  C   UNL     1       8.301  18.124  34.092  1.00  0.00    -0.000 C 
BRANCH  13  14
ATOM     14  C   UNL     1       8.228  19.438  34.890  1.00  0.00    -0.000 C 
BRANCH  14  15
ATOM     15  C   UNL     1       9.267  19.577  36.019  1.00  0.00    -0.000 C 
BRANCH  15  16
ATOM     16  C   UNL     1       8.858  18.841  37.304  1.00  0.00    -0.000 C 
BRANCH  16  17
ATOM     17  C   UNL     1       9.843  17.713  37.627  1.00  0.00    -0.000 C 
BRANCH  17  18
ATOM     18  C   UNL     1      11.282  18.125  37.291  1.00  0.00    -0.000 C 
BRANCH  18  19
ATOM     19  C   UNL     1      11.951  17.090  36.379  1.00  0.00    -0.003 C 
ATOM     20  C   UNL     1      12.922  17.758  35.409  1.00  0.00     0.004 C 
ENDBRANCH  18  19
ENDBRANCH  17  18
ENDBRANCH  16  17
ENDBRANCH  15  16
ENDBRANCH  14  15
ENDBRANCH  13  14
ENDBRANCH  12  13
ENDBRANCH   1  12
TORSDOF 16
ENDMDL
MODEL 8
REMARK VINA RESULT:    -4.977      1.631      3.762
REMARK INTER + INTRA:         -11.954
REMARK INTER:                  -9.359
REMARK INTRA:                  -2.596
REMARK UNBOUND:                -2.322
REMARK SMILES CCCCCCCCCCCCCCCCCC(=O)[O-]
REMARK SMILES IDX 10 1 11 2 12 3 13 4 14 5 15 6 16 7 17 8 18 9 19 10 20 11
REMARK SMILES IDX 9 12 8 13 7 14 6 15 5 16 4 17 3 18 2 19 1 20
REMARK H PARENT
REMARK Flexibility Score: inf
ROOT
ATOM      1  C   UNL     1       9.115  20.663  37.222  1.00  0.00     0.000 C 
ENDROOT
BRANCH   1   2
ATOM      2  C   UNL     1       8.529  19.333  37.722  1.00  0.00     0.000 C 
BRANCH   2   3
ATOM      3  C   UNL     1       9.622  18.444  38.327  1.00  0.00     0.000 C 
BRANCH   3   4
ATOM      4  C   UNL     1       9.930  17.250  37.410  1.00  0.00     0.000 C 
BRANCH   4   5
ATOM      5  C   UNL     1      11.437  17.048  37.185  1.00  0.00     0.000 C 
BRANCH   5   6
ATOM      6  C   UNL     1      12.287  18.124  37.876  1.00  0.00     0.000 C 
BRANCH   6   7
ATOM      7  C   UNL     1      13.753  17.676  37.984  1.00  0.00     0.006 C 
BRANCH   7   8
ATOM      8  C   UNL     1      13.889  16.277  38.600  1.00  0.00     0.053 C 
BRANCH   8   9
ATOM      9  C   UNL     1      14.740  15.378  37.757  1.00  0.00     0.041 C 
ATOM     10  O   UNL     1      14.945  15.652  36.545  1.00  0.00    -0.550 OA
ATOM     11  O   UNL     1      15.278  14.217  38.300  1.00  0.00    -0.550 OA
ENDBRANCH   8   9
ENDBRANCH   7   8
ENDBRANCH   6   7
ENDBRANCH   5   6
ENDBRANCH   4   5
ENDBRANCH   3   4
ENDBRANCH   2   3
ENDBRANCH   1   2
BRANCH   1  12
ATOM     12  C   UNL     1       9.282  20.700  35.694  1.00  0.00     0.000 C 
BRANCH  12  13
ATOM     13  C   UNL     1      10.691  20.275  35.245  1.00  0.00    -0.000 C 
BRANCH  13  14
ATOM     14  C   UNL     1      10.669  19.176  34.167  1.00  0.00    -0.000 C 
BRANCH  14  15
ATOM     15  C   UNL     1       9.382  18.332  34.117  1.00  0.00    -0.000 C 
BRANCH  15  16
ATOM     16  C   UNL     1       8.679  18.390  32.752  1.00  0.00    -0.000 C 
BRANCH  16  17
ATOM     17  C   UNL     1       9.380  19.381  31.816  1.00  0.00    -0.000 C 
BRANCH  17  18
ATOM     18  C   UNL     1       8.372  20.348  31.183  1.00  0.00    -0.000 C 
BRANCH  18  19
ATOM     19  C   UNL     1       8.306  21.663  31.968  1.00  0.00    -0.003 C 
ATOM     20  C   UNL     1       9.701  22.238  32.200  1.00  0.00     0.004 C 
ENDBRANCH  18  19
ENDBRANCH  17  18
ENDBRANCH  16  17
ENDBRANCH  15  16
ENDBRANCH  14  15
ENDBRANCH  13  14
ENDBRANCH  12  13
ENDBRANCH   1  12
TORSDOF 16
ENDMDL
MODEL 9
REMARK VINA RESULT:    -3.308      2.030      3.423
REMARK INTER + INTRA:          -8.725
REMARK INTER:                  -6.012
REMARK INTRA:                  -2.713
REMARK UNBOUND:                -2.322
REMARK SMILES CCCCCCCCCCCCCCCCCC(=O)[O-]
REMARK SMILES IDX 10 1 11 2 12 3 13 4 14 5 15 6 16 7 17 8 18 9 19 10 20 11
REMARK SMILES IDX 9 12 8 13 7 14 6 15 5 16 4 17 3 18 2 19 1 20
REMARK H PARENT
REMARK Flexibility Score: inf
ROOT
ATOM      1  C   UNL     1      10.864  19.728  32.805  1.00  0.00     0.000 C 
ENDROOT
BRANCH   1   2
ATOM      2  C   UNL     1       9.614  18.928  32.406  1.00  0.00     0.000 C 
BRANCH   2   3
ATOM      3  C   UNL     1       9.276  17.872  33.467  1.00  0.00     0.000 C 
BRANCH   3   4
ATOM      4  C   UNL     1       7.890  18.131  34.077  1.00  0.00     0.000 C 
BRANCH   4   5
ATOM      5  C   UNL     1       7.875  17.966  35.605  1.00  0.00     0.000 C 
BRANCH   5   6
ATOM      6  C   UNL     1       9.089  17.183  36.128  1.00  0.00     0.000 C 
BRANCH   6   7
ATOM      7  C   UNL     1       9.707  17.882  37.348  1.00  0.00     0.006 C 
BRANCH   7   8
ATOM      8  C   UNL     1       8.736  18.876  38.001  1.00  0.00     0.053 C 
BRANCH   8   9
ATOM      9  C   UNL     1       9.292  19.446  39.269  1.00  0.00     0.041 C 
ATOM     10  O   UNL     1       9.730  20.627  39.294  1.00  0.00    -0.550 OA
ATOM     11  O   UNL     1       9.360  18.663  40.415  1.00  0.00    -0.550 OA
ENDBRANCH   8   9
ENDBRANCH   7   8
ENDBRANCH   6   7
ENDBRANCH   5   6
ENDBRANCH   4   5
ENDBRANCH   3   4
ENDBRANCH   2   3
ENDBRANCH   1   2
BRANCH   1  12
ATOM     12  C   UNL     1      11.148  19.671  34.315  1.00  0.00     0.000 C 
BRANCH  12  13
ATOM     13  C   UNL     1      10.881  21.014  35.016  1.00  0.00    -0.000 C 
BRANCH  13  14
ATOM     14  C   UNL     1       9.380  21.310  35.192  1.00  0.00    -0.000 C 
BRANCH  14  15
ATOM     15  C   UNL     1       9.052  22.574  36.007  1.00  0.00    -0.000 C 
BRANCH  15  16
ATOM     16  C   UNL     1       9.809  23.817  35.516  1.00  0.00    -0.000 C 
BRANCH  16  17
ATOM     17  C   UNL     1       9.261  24.296  34.167  1.00  0.00    -0.000 C 
BRANCH  17  18
ATOM     18  C   UNL     1      10.392  24.796  33.259  1.00  0.00    -0.000 C 
BRANCH  18  19
ATOM     19  C   UNL     1      10.514  23.926  32.003  1.00  0.00    -0.003 C 
ATOM     20  C   UNL     1       9.318  22.987  31.865  1.00  0.00     0.004 C 
ENDBRANCH  18  19
ENDBRANCH  17  18
ENDBRANCH  16  17
ENDBRANCH  15  16
ENDBRANCH  14  15
ENDBRANCH  13  14
ENDBRANCH  12  13
ENDBRANCH   1  12
TORSDOF 16
ENDMDL
