MODEL 1
REMARK VINA RESULT:    -4.553      0.000      0.000
REMARK INTER + INTRA:          -6.928
REMARK INTER:                  -6.949
REMARK INTRA:                   0.020
REMARK UNBOUND:                 0.020
REMARK SMILES CC1=CCC[C@@H](C)C(=O)C[C@@H](C(C)C)C(=O)C1
REMARK SMILES IDX 8 1 9 2 6 3 7 4 5 5 4 6 3 7 2 8 1 9 10 11 11 12 15 13 16 14
REMARK SMILES IDX 17 15 12 17 13 18 14 19
REMARK H PARENT
REMARK Flexibility Score: 70.00
ROOT
ATOM      1  C   UNL     1      14.371 -32.687  21.219  1.00  0.00     0.136 C 
ATOM      2  O   UNL     1      13.787 -32.681  20.145  1.00  0.00    -0.299 OA
ENDROOT
BRANCH   1   3
ATOM      3  C   UNL     1      15.503 -33.684  21.399  1.00  0.00     0.053 C 
ATOM      4  C   UNL     1      15.386 -34.981  20.581  1.00  0.00     0.016 C 
BRANCH   3   5
ATOM      5  C   UNL     1      15.861 -33.883  22.893  1.00  0.00     0.015 C 
BRANCH   5   6
ATOM      6  C   UNL     1      16.955 -33.007  23.553  1.00  0.00     0.028 C 
BRANCH   6   7
ATOM      7  C   UNL     1      17.734 -32.034  22.699  1.00  0.00    -0.028 C 
ATOM      8  C   UNL     1      17.388 -30.759  22.416  1.00  0.00    -0.070 CG0
ATOM      9  C   UNL     1      18.102 -30.080  21.274  1.00  0.00     0.039 C 
ATOM     10  G   UNL     1      16.264 -30.031  23.120  1.00  0.00     0.000 G0
ENDBRANCH   6   7
ENDBRANCH   5   6
ENDBRANCH   3   5
ENDBRANCH   1   3
BRANCH   1  11
ATOM     11  C   UNL     1      13.874 -31.773  22.317  1.00  0.00     0.087 C 
BRANCH  11  12
ATOM     12  C   UNL     1      13.872 -30.267  21.911  1.00  0.00     0.066 C 
BRANCH  12  13
ATOM     13  C   UNL     1      15.181 -29.519  22.208  1.00  0.00     0.140 C 
ATOM     14  O   UNL     1      15.409 -28.486  21.594  1.00  0.00    -0.299 OA
BRANCH  13  15
ATOM     15  C   UNL     1      16.266 -30.020  23.144  1.00  0.00     0.106 CG0
ATOM     16  G   UNL     1      17.370 -30.749  22.411  1.00  0.00     0.000 G0
ENDBRANCH  13  15
ENDBRANCH  12  13
BRANCH  12  17
ATOM     17  C   UNL     1      12.633 -29.496  22.482  1.00  0.00    -0.006 C 
ATOM     18  C   UNL     1      11.294 -30.126  22.058  1.00  0.00     0.008 C 
ATOM     19  C   UNL     1      12.674 -29.314  24.006  1.00  0.00     0.008 C 
ENDBRANCH  12  17
ENDBRANCH  11  12
ENDBRANCH   1  11
TORSDOF 1
ENDMDL
MODEL 2
REMARK VINA RESULT:    -4.423      2.205      4.932
REMARK INTER + INTRA:          -6.730
REMARK INTER:                  -6.203
REMARK INTRA:                  -0.527
REMARK UNBOUND:                 0.020
REMARK SMILES CC1=CCC[C@@H](C)C(=O)C[C@@H](C(C)C)C(=O)C1
REMARK SMILES IDX 8 1 9 2 6 3 7 4 5 5 4 6 3 7 2 8 1 9 10 11 11 12 15 13 16 14
REMARK SMILES IDX 17 15 12 17 13 18 14 19
REMARK H PARENT
REMARK Flexibility Score: 70.00
ROOT
ATOM      1  C   UNL     1      17.675 -34.319  23.088  1.00  0.00     0.136 C 
ATOM      2  O   UNL     1      17.805 -34.956  24.124  1.00  0.00    -0.299 OA
ENDROOT
BRANCH   1   3
ATOM      3  C   UNL     1      18.535 -33.080  22.911  1.00  0.00     0.053 C 
ATOM      4  C   UNL     1      20.050 -33.326  22.829  1.00  0.00     0.016 C 
BRANCH   3   5
ATOM      5  C   UNL     1      18.108 -31.942  23.872  1.00  0.00     0.015 C 
BRANCH   5   6
ATOM      6  C   UNL     1      17.040 -30.911  23.429  1.00  0.00     0.028 C 
BRANCH   6   7
ATOM      7  C   UNL     1      15.578 -31.221  23.654  1.00  0.00    -0.028 C 
ATOM      8  C   UNL     1      14.643 -31.418  22.700  1.00  0.00    -0.070 CG0
ATOM      9  C   UNL     1      13.195 -31.361  23.118  1.00  0.00     0.039 C 
ATOM     10  G   UNL     1      14.980 -31.592  21.235  1.00  0.00     0.000 G0
ENDBRANCH   6   7
ENDBRANCH   5   6
ENDBRANCH   3   5
ENDBRANCH   1   3
BRANCH   1  11
ATOM     11  C   UNL     1      16.613 -34.754  22.102  1.00  0.00     0.087 C 
BRANCH  11  12
ATOM     12  C   UNL     1      16.483 -33.800  20.876  1.00  0.00     0.066 C 
BRANCH  12  13
ATOM     13  C   UNL     1      15.158 -33.026  20.802  1.00  0.00     0.140 C 
ATOM     14  O   UNL     1      14.192 -33.579  20.293  1.00  0.00    -0.299 OA
BRANCH  13  15
ATOM     15  C   UNL     1      14.979 -31.580  21.228  1.00  0.00     0.106 CG0
ATOM     16  G   UNL     1      14.649 -31.447  22.699  1.00  0.00     0.000 G0
ENDBRANCH  13  15
ENDBRANCH  12  13
BRANCH  12  17
ATOM     17  C   UNL     1      16.797 -34.521  19.521  1.00  0.00    -0.006 C 
ATOM     18  C   UNL     1      18.236 -34.271  19.034  1.00  0.00     0.008 C 
ATOM     19  C   UNL     1      16.501 -36.027  19.545  1.00  0.00     0.008 C 
ENDBRANCH  12  17
ENDBRANCH  11  12
ENDBRANCH   1  11
TORSDOF 1
ENDMDL
MODEL 3
REMARK VINA RESULT:    -4.417      2.156      4.319
REMARK INTER + INTRA:          -6.721
REMARK INTER:                  -6.654
REMARK INTRA:                  -0.067
REMARK UNBOUND:                 0.020
REMARK SMILES CC1=CCC[C@@H](C)C(=O)C[C@@H](C(C)C)C(=O)C1
REMARK SMILES IDX 8 1 9 2 6 3 7 4 5 5 4 6 3 7 2 8 1 9 10 11 11 12 15 13 16 14
REMARK SMILES IDX 17 15 12 17 13 18 14 19
REMARK H PARENT
REMARK Flexibility Score: 70.00
ROOT
ATOM      1  C   UNL     1      17.256 -30.633  22.399  1.00  0.00     0.136 C 
ATOM      2  O   UNL     1      17.095 -30.300  23.565  1.00  0.00    -0.299 OA
ENDROOT
BRANCH   1   3
ATOM      3  C   UNL     1      18.643 -30.463  21.804  1.00  0.00     0.053 C 
ATOM      4  C   UNL     1      18.890 -29.145  21.053  1.00  0.00     0.016 C 
BRANCH   3   5
ATOM      5  C   UNL     1      19.107 -31.739  21.056  1.00  0.00     0.015 C 
BRANCH   5   6
ATOM      6  C   UNL     1      19.037 -33.119  21.757  1.00  0.00     0.028 C 
BRANCH   6   7
ATOM      7  C   UNL     1      18.540 -34.315  20.981  1.00  0.00    -0.028 C 
ATOM      8  C   UNL     1      17.444 -35.054  21.259  1.00  0.00    -0.070 CG0
ATOM      9  C   UNL     1      17.320 -36.399  20.588  1.00  0.00     0.039 C 
ATOM     10  G   UNL     1      16.402 -34.639  22.276  1.00  0.00     0.000 G0
ENDBRANCH   6   7
ENDBRANCH   5   6
ENDBRANCH   3   5
ENDBRANCH   1   3
BRANCH   1  11
ATOM     11  C   UNL     1      16.055 -31.105  21.610  1.00  0.00     0.087 C 
BRANCH  11  12
ATOM     12  C   UNL     1      15.234 -32.212  22.339  1.00  0.00     0.066 C 
BRANCH  12  13
ATOM     13  C   UNL     1      15.410 -33.626  21.765  1.00  0.00     0.140 C 
ATOM     14  O   UNL     1      14.650 -33.989  20.878  1.00  0.00    -0.299 OA
BRANCH  13  15
ATOM     15  C   UNL     1      16.403 -34.650  22.285  1.00  0.00     0.106 CG0
ATOM     16  G   UNL     1      17.431 -35.039  21.245  1.00  0.00     0.000 G0
ENDBRANCH  13  15
ENDBRANCH  12  13
BRANCH  12  17
ATOM     17  C   UNL     1      13.719 -31.839  22.479  1.00  0.00    -0.006 C 
ATOM     18  C   UNL     1      13.399 -31.143  23.814  1.00  0.00     0.008 C 
ATOM     19  C   UNL     1      13.183 -31.006  21.305  1.00  0.00     0.008 C 
ENDBRANCH  12  17
ENDBRANCH  11  12
ENDBRANCH   1  11
TORSDOF 1
ENDMDL
MODEL 4
REMARK VINA RESULT:    -4.385      2.041      3.709
REMARK INTER + INTRA:          -6.672
REMARK INTER:                  -6.425
REMARK INTRA:                  -0.247
REMARK UNBOUND:                 0.020
REMARK SMILES CC1=CCC[C@@H](C)C(=O)C[C@@H](C(C)C)C(=O)C1
REMARK SMILES IDX 8 1 9 2 6 3 7 4 5 5 4 6 3 7 2 8 1 9 10 11 11 12 15 13 16 14
REMARK SMILES IDX 17 15 12 17 13 18 14 19
REMARK H PARENT
REMARK Flexibility Score: 70.00
ROOT
ATOM      1  C   UNL     1      16.944 -30.226  21.691  1.00  0.00     0.136 C 
ATOM      2  O   UNL     1      17.014 -29.015  21.844  1.00  0.00    -0.299 OA
ENDROOT
BRANCH   1   3
ATOM      3  C   UNL     1      18.242 -30.984  21.474  1.00  0.00     0.053 C 
ATOM      4  C   UNL     1      19.494 -30.117  21.263  1.00  0.00     0.016 C 
BRANCH   3   5
ATOM      5  C   UNL     1      18.068 -32.141  20.457  1.00  0.00     0.015 C 
BRANCH   5   6
ATOM      6  C   UNL     1      18.029 -33.609  20.950  1.00  0.00     0.028 C 
BRANCH   6   7
ATOM      7  C   UNL     1      18.060 -33.889  22.435  1.00  0.00    -0.028 C 
ATOM      8  C   UNL     1      17.010 -33.840  23.283  1.00  0.00    -0.070 CG0
ATOM      9  C   UNL     1      17.308 -33.801  24.761  1.00  0.00     0.039 C 
ATOM     10  G   UNL     1      15.575 -33.724  22.817  1.00  0.00     0.000 G0
ENDBRANCH   6   7
ENDBRANCH   5   6
ENDBRANCH   3   5
ENDBRANCH   1   3
BRANCH   1  11
ATOM     11  C   UNL     1      15.576 -30.870  21.640  1.00  0.00     0.087 C 
BRANCH  11  12
ATOM     12  C   UNL     1      14.951 -31.102  23.050  1.00  0.00     0.066 C 
BRANCH  12  13
ATOM     13  C   UNL     1      14.806 -32.578  23.453  1.00  0.00     0.140 C 
ATOM     14  O   UNL     1      14.092 -32.849  24.409  1.00  0.00    -0.299 OA
BRANCH  13  15
ATOM     15  C   UNL     1      15.563 -33.726  22.811  1.00  0.00     0.106 CG0
ATOM     16  G   UNL     1      16.988 -33.828  23.308  1.00  0.00     0.000 G0
ENDBRANCH  13  15
ENDBRANCH  12  13
BRANCH  12  17
ATOM     17  C   UNL     1      13.605 -30.324  23.243  1.00  0.00    -0.006 C 
ATOM     18  C   UNL     1      13.810 -28.803  23.365  1.00  0.00     0.008 C 
ATOM     19  C   UNL     1      12.559 -30.632  22.163  1.00  0.00     0.008 C 
ENDBRANCH  12  17
ENDBRANCH  11  12
ENDBRANCH   1  11
TORSDOF 1
ENDMDL
MODEL 5
REMARK VINA RESULT:    -4.332      3.161      5.635
REMARK INTER + INTRA:          -6.592
REMARK INTER:                  -6.428
REMARK INTRA:                  -0.164
REMARK UNBOUND:                 0.020
REMARK SMILES CC1=CCC[C@@H](C)C(=O)C[C@@H](C(C)C)C(=O)C1
REMARK SMILES IDX 8 1 9 2 6 3 7 4 5 5 4 6 3 7 2 8 1 9 10 11 11 12 15 13 16 14
REMARK SMILES IDX 17 15 12 17 13 18 14 19
REMARK H PARENT
REMARK Flexibility Score: 70.00
ROOT
ATOM      1  C   UNL     1      18.166 -35.830  20.976  1.00  0.00     0.136 C 
ATOM      2  O   UNL     1      17.986 -37.002  20.674  1.00  0.00    -0.299 OA
ENDROOT
BRANCH   1   3
ATOM      3  C   UNL     1      17.899 -34.780  19.912  1.00  0.00     0.053 C 
ATOM      4  C   UNL     1      18.386 -33.359  20.239  1.00  0.00     0.016 C 
BRANCH   3   5
ATOM      5  C   UNL     1      16.450 -34.867  19.370  1.00  0.00     0.015 C 
BRANCH   5   6
ATOM      6  C   UNL     1      15.250 -34.641  20.324  1.00  0.00     0.028 C 
BRANCH   6   7
ATOM      7  C   UNL     1      15.058 -33.283  20.958  1.00  0.00    -0.028 C 
ATOM      8  C   UNL     1      15.007 -33.015  22.281  1.00  0.00    -0.070 CG0
ATOM      9  C   UNL     1      14.459 -31.674  22.700  1.00  0.00     0.039 C 
ATOM     10  G   UNL     1      15.376 -34.025  23.345  1.00  0.00     0.000 G0
ENDBRANCH   6   7
ENDBRANCH   5   6
ENDBRANCH   3   5
ENDBRANCH   1   3
BRANCH   1  11
ATOM     11  C   UNL     1      18.720 -35.514  22.348  1.00  0.00     0.087 C 
BRANCH  11  12
ATOM     12  C   UNL     1      17.629 -35.489  23.462  1.00  0.00     0.066 C 
BRANCH  12  13
ATOM     13  C   UNL     1      16.859 -34.164  23.578  1.00  0.00     0.140 C 
ATOM     14  O   UNL     1      17.469 -33.171  23.951  1.00  0.00    -0.299 OA
BRANCH  13  15
ATOM     15  C   UNL     1      15.365 -34.013  23.355  1.00  0.00     0.106 CG0
ATOM     16  G   UNL     1      15.041 -32.996  22.283  1.00  0.00     0.000 G0
ENDBRANCH  13  15
ENDBRANCH  12  13
BRANCH  12  17
ATOM     17  C   UNL     1      18.185 -35.948  24.853  1.00  0.00    -0.006 C 
ATOM     18  C   UNL     1      17.069 -36.328  25.843  1.00  0.00     0.008 C 
ATOM     19  C   UNL     1      19.217 -37.081  24.758  1.00  0.00     0.008 C 
ENDBRANCH  12  17
ENDBRANCH  11  12
ENDBRANCH   1  11
TORSDOF 1
ENDMDL
MODEL 6
REMARK VINA RESULT:    -4.322      2.067      4.709
REMARK INTER + INTRA:          -6.575
REMARK INTER:                  -6.428
REMARK INTRA:                  -0.147
REMARK UNBOUND:                 0.020
REMARK SMILES CC1=CCC[C@@H](C)C(=O)C[C@@H](C(C)C)C(=O)C1
REMARK SMILES IDX 8 1 9 2 6 3 7 4 5 5 4 6 3 7 2 8 1 9 10 11 11 12 15 13 16 14
REMARK SMILES IDX 17 15 12 17 13 18 14 19
REMARK H PARENT
REMARK Flexibility Score: 70.00
ROOT
ATOM      1  C   UNL     1      17.500 -31.285  23.111  1.00  0.00     0.136 C 
ATOM      2  O   UNL     1      17.938 -30.839  24.162  1.00  0.00    -0.299 OA
ENDROOT
BRANCH   1   3
ATOM      3  C   UNL     1      17.716 -30.461  21.853  1.00  0.00     0.053 C 
ATOM      4  C   UNL     1      19.175 -30.328  21.386  1.00  0.00     0.016 C 
BRANCH   3   5
ATOM      5  C   UNL     1      16.918 -29.134  21.892  1.00  0.00     0.015 C 
BRANCH   5   6
ATOM      6  C   UNL     1      15.397 -29.133  21.595  1.00  0.00     0.028 C 
BRANCH   6   7
ATOM      7  C   UNL     1      14.428 -28.837  22.716  1.00  0.00    -0.028 C 
ATOM      8  C   UNL     1      13.370 -29.593  23.083  1.00  0.00    -0.070 CG0
ATOM      9  C   UNL     1      12.334 -28.957  23.975  1.00  0.00     0.039 C 
ATOM     10  G   UNL     1      13.136 -30.995  22.565  1.00  0.00     0.000 G0
ENDBRANCH   6   7
ENDBRANCH   5   6
ENDBRANCH   3   5
ENDBRANCH   1   3
BRANCH   1  11
ATOM     11  C   UNL     1      16.703 -32.570  23.147  1.00  0.00     0.087 C 
BRANCH  11  12
ATOM     12  C   UNL     1      15.379 -32.498  22.326  1.00  0.00     0.066 C 
BRANCH  12  13
ATOM     13  C   UNL     1      14.160 -31.996  23.114  1.00  0.00     0.140 C 
ATOM     14  O   UNL     1      13.944 -32.481  24.217  1.00  0.00    -0.299 OA
BRANCH  13  15
ATOM     15  C   UNL     1      13.139 -31.006  22.584  1.00  0.00     0.106 CG0
ATOM     16  G   UNL     1      13.383 -29.599  23.085  1.00  0.00     0.000 G0
ENDBRANCH  13  15
ENDBRANCH  12  13
BRANCH  12  17
ATOM     17  C   UNL     1      15.064 -33.841  21.583  1.00  0.00    -0.006 C 
ATOM     18  C   UNL     1      14.498 -33.619  20.169  1.00  0.00     0.008 C 
ATOM     19  C   UNL     1      16.255 -34.808  21.531  1.00  0.00     0.008 C 
ENDBRANCH  12  17
ENDBRANCH  11  12
ENDBRANCH   1  11
TORSDOF 1
ENDMDL
MODEL 7
REMARK VINA RESULT:    -4.148      2.802      5.385
REMARK INTER + INTRA:          -6.309
REMARK INTER:                  -5.971
REMARK INTRA:                  -0.338
REMARK UNBOUND:                 0.020
REMARK SMILES CC1=CCC[C@@H](C)C(=O)C[C@@H](C(C)C)C(=O)C1
REMARK SMILES IDX 8 1 9 2 6 3 7 4 5 5 4 6 3 7 2 8 1 9 10 11 11 12 15 13 16 14
REMARK SMILES IDX 17 15 12 17 13 18 14 19
REMARK H PARENT
REMARK Flexibility Score: 70.00
ROOT
ATOM      1  C   UNL     1      15.494 -32.802  21.414  1.00  0.00     0.136 C 
ATOM      2  O   UNL     1      14.618 -33.299  20.719  1.00  0.00    -0.299 OA
ENDROOT
BRANCH   1   3
ATOM      3  C   UNL     1      15.068 -31.792  22.465  1.00  0.00     0.053 C 
ATOM      4  C   UNL     1      16.065 -30.654  22.739  1.00  0.00     0.016 C 
BRANCH   3   5
ATOM      5  C   UNL     1      14.502 -32.485  23.730  1.00  0.00     0.015 C 
BRANCH   5   6
ATOM      6  C   UNL     1      15.262 -33.673  24.371  1.00  0.00     0.028 C 
BRANCH   6   7
ATOM      7  C   UNL     1      16.671 -33.461  24.874  1.00  0.00    -0.028 C 
ATOM      8  C   UNL     1      17.721 -34.290  24.692  1.00  0.00    -0.070 CG0
ATOM      9  C   UNL     1      18.935 -34.081  25.562  1.00  0.00     0.039 C 
ATOM     10  G   UNL     1      17.694 -35.463  23.736  1.00  0.00     0.000 G0
ENDBRANCH   6   7
ENDBRANCH   5   6
ENDBRANCH   3   5
ENDBRANCH   1   3
BRANCH   1  11
ATOM     11  C   UNL     1      16.935 -33.156  21.123  1.00  0.00     0.087 C 
BRANCH  11  12
ATOM     12  C   UNL     1      17.222 -34.686  21.202  1.00  0.00     0.066 C 
BRANCH  12  13
ATOM     13  C   UNL     1      18.163 -35.106  22.342  1.00  0.00     0.140 C 
ATOM     14  O   UNL     1      19.355 -35.228  22.093  1.00  0.00    -0.299 OA
BRANCH  13  15
ATOM     15  C   UNL     1      17.709 -35.478  23.742  1.00  0.00     0.106 CG0
ATOM     16  G   UNL     1      17.711 -34.293  24.683  1.00  0.00     0.000 G0
ENDBRANCH  13  15
ENDBRANCH  12  13
BRANCH  12  17
ATOM     17  C   UNL     1      17.691 -35.278  19.829  1.00  0.00    -0.006 C 
ATOM     18  C   UNL     1      16.860 -36.498  19.392  1.00  0.00     0.008 C 
ATOM     19  C   UNL     1      17.742 -34.240  18.699  1.00  0.00     0.008 C 
ENDBRANCH  12  17
ENDBRANCH  11  12
ENDBRANCH   1  11
TORSDOF 1
ENDMDL
MODEL 8
REMARK VINA RESULT:    -4.129      2.270      3.302
REMARK INTER + INTRA:          -6.281
REMARK INTER:                  -6.230
REMARK INTRA:                  -0.051
REMARK UNBOUND:                 0.020
REMARK SMILES CC1=CCC[C@@H](C)C(=O)C[C@@H](C(C)C)C(=O)C1
REMARK SMILES IDX 8 1 9 2 6 3 7 4 5 5 4 6 3 7 2 8 1 9 10 11 11 12 15 13 16 14
REMARK SMILES IDX 17 15 12 17 13 18 14 19
REMARK H PARENT
REMARK Flexibility Score: 70.00
ROOT
ATOM      1  C   UNL     1      15.362 -34.228  20.682  1.00  0.00     0.136 C 
ATOM      2  O   UNL     1      14.395 -33.716  20.136  1.00  0.00    -0.299 OA
ENDROOT
BRANCH   1   3
ATOM      3  C   UNL     1      16.268 -35.103  19.833  1.00  0.00     0.053 C 
ATOM      4  C   UNL     1      16.883 -36.317  20.548  1.00  0.00     0.016 C 
BRANCH   3   5
ATOM      5  C   UNL     1      17.266 -34.258  19.002  1.00  0.00     0.015 C 
BRANCH   5   6
ATOM      6  C   UNL     1      18.345 -33.405  19.716  1.00  0.00     0.028 C 
BRANCH   6   7
ATOM      7  C   UNL     1      19.046 -33.969  20.929  1.00  0.00    -0.028 C 
ATOM      8  C   UNL     1      19.209 -33.355  22.121  1.00  0.00    -0.070 CG0
ATOM      9  C   UNL     1      20.231 -33.930  23.069  1.00  0.00     0.039 C 
ATOM     10  G   UNL     1      18.492 -32.077  22.497  1.00  0.00     0.000 G0
ENDBRANCH   6   7
ENDBRANCH   5   6
ENDBRANCH   3   5
ENDBRANCH   1   3
BRANCH   1  11
ATOM     11  C   UNL     1      15.539 -34.030  22.171  1.00  0.00     0.087 C 
BRANCH  11  12
ATOM     12  C   UNL     1      15.825 -32.549  22.566  1.00  0.00     0.066 C 
BRANCH  12  13
ATOM     13  C   UNL     1      17.186 -32.315  23.240  1.00  0.00     0.140 C 
ATOM     14  O   UNL     1      17.222 -32.237  24.460  1.00  0.00    -0.299 OA
BRANCH  13  15
ATOM     15  C   UNL     1      18.487 -32.075  22.494  1.00  0.00     0.106 CG0
ATOM     16  G   UNL     1      19.194 -33.364  22.137  1.00  0.00     0.000 G0
ENDBRANCH  13  15
ENDBRANCH  12  13
BRANCH  12  17
ATOM     17  C   UNL     1      14.660 -31.918  23.402  1.00  0.00    -0.006 C 
ATOM     18  C   UNL     1      13.666 -31.127  22.533  1.00  0.00     0.008 C 
ATOM     19  C   UNL     1      13.909 -32.935  24.273  1.00  0.00     0.008 C 
ENDBRANCH  12  17
ENDBRANCH  11  12
ENDBRANCH   1  11
TORSDOF 1
ENDMDL
MODEL 9
REMARK VINA RESULT:    -4.100      2.685      3.894
REMARK INTER + INTRA:          -6.236
REMARK INTER:                  -6.127
REMARK INTRA:                  -0.110
REMARK UNBOUND:                 0.020
REMARK SMILES CC1=CCC[C@@H](C)C(=O)C[C@@H](C(C)C)C(=O)C1
REMARK SMILES IDX 8 1 9 2 6 3 7 4 5 5 4 6 3 7 2 8 1 9 10 11 11 12 15 13 16 14
REMARK SMILES IDX 17 15 12 17 13 18 14 19
REMARK H PARENT
REMARK Flexibility Score: 70.00
ROOT
ATOM      1  C   UNL     1      17.229 -32.632  20.703  1.00  0.00     0.136 C 
ATOM      2  O   UNL     1      17.777 -31.545  20.825  1.00  0.00    -0.299 OA
ENDROOT
BRANCH   1   3
ATOM      3  C   UNL     1      17.974 -33.714  19.941  1.00  0.00     0.053 C 
ATOM      4  C   UNL     1      17.184 -34.401  18.815  1.00  0.00     0.016 C 
BRANCH   3   5
ATOM      5  C   UNL     1      18.723 -34.676  20.897  1.00  0.00     0.015 C 
BRANCH   5   6
ATOM      6  C   UNL     1      18.802 -34.361  22.412  1.00  0.00     0.028 C 
BRANCH   6   7
ATOM      7  C   UNL     1      18.097 -35.270  23.392  1.00  0.00    -0.028 C 
ATOM      8  C   UNL     1      17.333 -34.885  24.437  1.00  0.00    -0.070 CG0
ATOM      9  C   UNL     1      17.018 -35.919  25.489  1.00  0.00     0.039 C 
ATOM     10  G   UNL     1      16.870 -33.459  24.643  1.00  0.00     0.000 G0
ENDBRANCH   6   7
ENDBRANCH   5   6
ENDBRANCH   3   5
ENDBRANCH   1   3
BRANCH   1  11
ATOM     11  C   UNL     1      15.823 -32.796  21.237  1.00  0.00     0.087 C 
BRANCH  11  12
ATOM     12  C   UNL     1      15.616 -32.142  22.638  1.00  0.00     0.066 C 
BRANCH  12  13
ATOM     13  C   UNL     1      15.629 -33.128  23.816  1.00  0.00     0.140 C 
ATOM     14  O   UNL     1      14.568 -33.627  24.165  1.00  0.00    -0.299 OA
BRANCH  13  15
ATOM     15  C   UNL     1      16.855 -33.460  24.649  1.00  0.00     0.106 CG0
ATOM     16  G   UNL     1      17.340 -34.875  24.424  1.00  0.00     0.000 G0
ENDBRANCH  13  15
ENDBRANCH  12  13
BRANCH  12  17
ATOM     17  C   UNL     1      14.352 -31.217  22.684  1.00  0.00    -0.006 C 
ATOM     18  C   UNL     1      14.700 -29.751  22.998  1.00  0.00     0.008 C 
ATOM     19  C   UNL     1      13.488 -31.296  21.418  1.00  0.00     0.008 C 
ENDBRANCH  12  17
ENDBRANCH  11  12
ENDBRANCH   1  11
TORSDOF 1
ENDMDL
