MODEL 1
REMARK VINA RESULT:    -4.682      0.000      0.000
REMARK INTER + INTRA:          -5.872
REMARK INTER:                  -5.777
REMARK INTRA:                  -0.096
REMARK UNBOUND:                -0.096
REMARK SMILES CCCCCC(=O)[O-]
REMARK SMILES IDX 4 1 5 2 6 3 7 4 8 5 3 6 2 7 1 8
REMARK H PARENT
REMARK Flexibility Score: inf
ROOT
ATOM      1  C   UNL     1      29.215  -6.260 -13.214  1.00  0.00     0.006 C 
ENDROOT
BRANCH   1   2
ATOM      2  C   UNL     1      29.605  -7.700 -13.576  1.00  0.00     0.053 C 
BRANCH   2   3
ATOM      3  C   UNL     1      29.783  -7.872 -15.054  1.00  0.00     0.041 C 
ATOM      4  O   UNL     1      29.853  -6.864 -15.805  1.00  0.00    -0.550 OA
ATOM      5  O   UNL     1      29.836  -9.145 -15.606  1.00  0.00    -0.550 OA
ENDBRANCH   2   3
ENDBRANCH   1   2
BRANCH   1   6
ATOM      6  C   UNL     1      30.429  -5.424 -12.773  1.00  0.00     0.000 C 
BRANCH   6   7
ATOM      7  C   UNL     1      31.658  -6.292 -12.459  1.00  0.00    -0.003 C 
ATOM      8  C   UNL     1      32.240  -6.012 -11.073  1.00  0.00     0.004 C 
ENDBRANCH   6   7
ENDBRANCH   1   6
TORSDOF 4
ENDMDL
MODEL 2
REMARK VINA RESULT:    -4.618      0.120      1.146
REMARK INTER + INTRA:          -5.794
REMARK INTER:                  -5.666
REMARK INTRA:                  -0.128
REMARK UNBOUND:                -0.096
REMARK SMILES CCCCCC(=O)[O-]
REMARK SMILES IDX 4 1 5 2 6 3 7 4 8 5 3 6 2 7 1 8
REMARK H PARENT
REMARK Flexibility Score: inf
ROOT
ATOM      1  C   UNL     1      29.212  -6.279 -13.314  1.00  0.00     0.006 C 
ENDROOT
BRANCH   1   2
ATOM      2  C   UNL     1      29.651  -7.719 -13.612  1.00  0.00     0.053 C 
BRANCH   2   3
ATOM      3  C   UNL     1      29.828  -7.953 -15.082  1.00  0.00     0.041 C 
ATOM      4  O   UNL     1      29.798  -9.123 -15.546  1.00  0.00    -0.550 OA
ATOM      5  O   UNL     1      30.060  -6.881 -15.934  1.00  0.00    -0.550 OA
ENDBRANCH   2   3
ENDBRANCH   1   2
BRANCH   1   6
ATOM      6  C   UNL     1      30.380  -5.408 -12.818  1.00  0.00     0.000 C 
BRANCH   6   7
ATOM      7  C   UNL     1      31.622  -6.239 -12.459  1.00  0.00    -0.003 C 
ATOM      8  C   UNL     1      32.187  -5.891 -11.082  1.00  0.00     0.004 C 
ENDBRANCH   6   7
ENDBRANCH   1   6
TORSDOF 4
ENDMDL
MODEL 3
REMARK VINA RESULT:    -4.596      2.588      4.152
REMARK INTER + INTRA:          -5.766
REMARK INTER:                  -5.650
REMARK INTRA:                  -0.116
REMARK UNBOUND:                -0.096
REMARK SMILES CCCCCC(=O)[O-]
REMARK SMILES IDX 4 1 5 2 6 3 7 4 8 5 3 6 2 7 1 8
REMARK H PARENT
REMARK Flexibility Score: inf
ROOT
ATOM      1  C   UNL     1      29.507  -6.766 -13.102  1.00  0.00     0.006 C 
ENDROOT
BRANCH   1   2
ATOM      2  C   UNL     1      30.743  -5.871 -13.273  1.00  0.00     0.053 C 
BRANCH   2   3
ATOM      3  C   UNL     1      31.681  -5.993 -12.110  1.00  0.00     0.041 C 
ATOM      4  O   UNL     1      31.631  -5.161 -11.166  1.00  0.00    -0.550 OA
ATOM      5  O   UNL     1      32.631  -7.005 -12.086  1.00  0.00    -0.550 OA
ENDBRANCH   2   3
ENDBRANCH   1   2
BRANCH   1   6
ATOM      6  C   UNL     1      29.630  -8.081 -13.892  1.00  0.00     0.000 C 
BRANCH   6   7
ATOM      7  C   UNL     1      29.865  -7.847 -15.392  1.00  0.00    -0.003 C 
ATOM      8  C   UNL     1      29.916  -9.149 -16.192  1.00  0.00     0.004 C 
ENDBRANCH   6   7
ENDBRANCH   1   6
TORSDOF 4
ENDMDL
MODEL 4
REMARK VINA RESULT:    -4.160      2.793      3.803
REMARK INTER + INTRA:          -5.228
REMARK INTER:                  -5.138
REMARK INTRA:                  -0.090
REMARK UNBOUND:                -0.096
REMARK SMILES CCCCCC(=O)[O-]
REMARK SMILES IDX 4 1 5 2 6 3 7 4 8 5 3 6 2 7 1 8
REMARK H PARENT
REMARK Flexibility Score: inf
ROOT
ATOM      1  C   UNL     1      29.356  -6.892 -12.968  1.00  0.00     0.006 C 
ENDROOT
BRANCH   1   2
ATOM      2  C   UNL     1      30.818  -7.342 -12.833  1.00  0.00     0.053 C 
BRANCH   2   3
ATOM      3  C   UNL     1      31.617  -6.389 -11.996  1.00  0.00     0.041 C 
ATOM      4  O   UNL     1      32.664  -6.781 -11.417  1.00  0.00    -0.550 OA
ATOM      5  O   UNL     1      31.187  -5.080 -11.829  1.00  0.00    -0.550 OA
ENDBRANCH   2   3
ENDBRANCH   1   2
BRANCH   1   6
ATOM      6  C   UNL     1      29.100  -6.138 -14.285  1.00  0.00     0.000 C 
BRANCH   6   7
ATOM      7  C   UNL     1      30.129  -6.488 -15.372  1.00  0.00    -0.003 C 
ATOM      8  C   UNL     1      31.085  -5.333 -15.674  1.00  0.00     0.004 C 
ENDBRANCH   6   7
ENDBRANCH   1   6
TORSDOF 4
ENDMDL
MODEL 5
REMARK VINA RESULT:    -3.869      0.993      1.872
REMARK INTER + INTRA:          -4.870
REMARK INTER:                  -4.678
REMARK INTRA:                  -0.192
REMARK UNBOUND:                -0.096
REMARK SMILES CCCCCC(=O)[O-]
REMARK SMILES IDX 4 1 5 2 6 3 7 4 8 5 3 6 2 7 1 8
REMARK H PARENT
REMARK Flexibility Score: inf
ROOT
ATOM      1  C   UNL     1      29.564  -7.496 -13.101  1.00  0.00     0.006 C 
ENDROOT
BRANCH   1   2
ATOM      2  C   UNL     1      29.635  -8.673 -14.084  1.00  0.00     0.053 C 
BRANCH   2   3
ATOM      3  C   UNL     1      29.838  -8.207 -15.494  1.00  0.00     0.041 C 
ATOM      4  O   UNL     1      30.152  -9.030 -16.393  1.00  0.00    -0.550 OA
ATOM      5  O   UNL     1      29.714  -6.860 -15.806  1.00  0.00    -0.550 OA
ENDBRANCH   2   3
ENDBRANCH   1   2
BRANCH   1   6
ATOM      6  C   UNL     1      30.956  -7.088 -12.585  1.00  0.00     0.000 C 
BRANCH   6   7
ATOM      7  C   UNL     1      31.134  -5.563 -12.517  1.00  0.00    -0.003 C 
ATOM      8  C   UNL     1      29.880  -4.802 -12.949  1.00  0.00     0.004 C 
ENDBRANCH   6   7
ENDBRANCH   1   6
TORSDOF 4
ENDMDL
MODEL 6
REMARK VINA RESULT:    -3.763      2.536      4.238
REMARK INTER + INTRA:          -4.739
REMARK INTER:                  -4.670
REMARK INTRA:                  -0.069
REMARK UNBOUND:                -0.096
REMARK SMILES CCCCCC(=O)[O-]
REMARK SMILES IDX 4 1 5 2 6 3 7 4 8 5 3 6 2 7 1 8
REMARK H PARENT
REMARK Flexibility Score: inf
ROOT
ATOM      1  C   UNL     1      29.619  -7.963 -13.986  1.00  0.00     0.006 C 
ENDROOT
BRANCH   1   2
ATOM      2  C   UNL     1      29.470  -6.642 -14.753  1.00  0.00     0.053 C 
BRANCH   2   3
ATOM      3  C   UNL     1      30.661  -5.752 -14.563  1.00  0.00     0.041 C 
ATOM      4  O   UNL     1      31.170  -5.611 -13.421  1.00  0.00    -0.550 OA
ATOM      5  O   UNL     1      31.187  -5.054 -15.642  1.00  0.00    -0.550 OA
ENDBRANCH   2   3
ENDBRANCH   1   2
BRANCH   1   6
ATOM      6  C   UNL     1      29.659  -9.180 -14.928  1.00  0.00     0.000 C 
BRANCH   6   7
ATOM      7  C   UNL     1      29.902  -8.781 -16.392  1.00  0.00    -0.003 C 
ATOM      8  C   UNL     1      28.686  -9.035 -17.283  1.00  0.00     0.004 C 
ENDBRANCH   6   7
ENDBRANCH   1   6
TORSDOF 4
ENDMDL
MODEL 7
REMARK VINA RESULT:    -3.607      3.461      4.705
REMARK INTER + INTRA:          -4.546
REMARK INTER:                  -4.423
REMARK INTRA:                  -0.123
REMARK UNBOUND:                -0.096
REMARK SMILES CCCCCC(=O)[O-]
REMARK SMILES IDX 4 1 5 2 6 3 7 4 8 5 3 6 2 7 1 8
REMARK H PARENT
REMARK Flexibility Score: inf
ROOT
ATOM      1  C   UNL     1      31.077  -6.819 -12.481  1.00  0.00     0.006 C 
ENDROOT
BRANCH   1   2
ATOM      2  C   UNL     1      32.515  -6.484 -12.061  1.00  0.00     0.053 C 
BRANCH   2   3
ATOM      3  C   UNL     1      32.614  -6.207 -10.591  1.00  0.00     0.041 C 
ATOM      4  O   UNL     1      33.389  -6.888  -9.869  1.00  0.00    -0.550 OA
ATOM      5  O   UNL     1      31.824  -5.222 -10.014  1.00  0.00    -0.550 OA
ENDBRANCH   2   3
ENDBRANCH   1   2
BRANCH   1   6
ATOM      6  C   UNL     1      30.520  -5.806 -13.498  1.00  0.00     0.000 C 
BRANCH   6   7
ATOM      7  C   UNL     1      29.676  -6.477 -14.592  1.00  0.00    -0.003 C 
ATOM      8  C   UNL     1      29.821  -7.999 -14.601  1.00  0.00     0.004 C 
ENDBRANCH   6   7
ENDBRANCH   1   6
TORSDOF 4
ENDMDL
MODEL 8
REMARK VINA RESULT:    -3.378     13.773     15.350
REMARK INTER + INTRA:          -4.264
REMARK INTER:                  -4.132
REMARK INTRA:                  -0.133
REMARK UNBOUND:                -0.096
REMARK SMILES CCCCCC(=O)[O-]
REMARK SMILES IDX 4 1 5 2 6 3 7 4 8 5 3 6 2 7 1 8
REMARK H PARENT
REMARK Flexibility Score: inf
ROOT
ATOM      1  C   UNL     1      42.097 -13.271  -6.217  1.00  0.00     0.006 C 
ENDROOT
BRANCH   1   2
ATOM      2  C   UNL     1      41.386 -12.212  -5.363  1.00  0.00     0.053 C 
BRANCH   2   3
ATOM      3  C   UNL     1      41.510 -12.506  -3.898  1.00  0.00     0.041 C 
ATOM      4  O   UNL     1      40.828 -11.858  -3.062  1.00  0.00    -0.550 OA
ATOM      5  O   UNL     1      42.403 -13.473  -3.455  1.00  0.00    -0.550 OA
ENDBRANCH   2   3
ENDBRANCH   1   2
BRANCH   1   6
ATOM      6  C   UNL     1      41.116 -14.049  -7.112  1.00  0.00     0.000 C 
BRANCH   6   7
ATOM      7  C   UNL     1      39.850 -13.240  -7.437  1.00  0.00    -0.003 C 
ATOM      8  C   UNL     1      38.679 -14.125  -7.866  1.00  0.00     0.004 C 
ENDBRANCH   6   7
ENDBRANCH   1   6
TORSDOF 4
ENDMDL
