MODEL 1
REMARK VINA RESULT:    -6.827      0.000      0.000
REMARK INTER + INTRA:          -7.261
REMARK INTER:                  -7.226
REMARK INTRA:                  -0.035
REMARK UNBOUND:                -0.035
REMARK SMILES COc1ccc2ccc(=O)oc2c1
REMARK SMILES IDX 3 1 13 2 12 3 6 4 5 5 4 6 7 7 8 8 9 9 10 10 11 11 2 12 1 13
REMARK H PARENT
REMARK Flexibility Score: inf
ROOT
ATOM      1  C   UNL     1       7.383   6.578  10.893  1.00  0.00     0.122 A 
ATOM      2  C   UNL     1       8.098   5.502  11.435  1.00  0.00     0.094 A 
ATOM      3  C   UNL     1       7.863   4.197  10.990  1.00  0.00     0.142 A 
ATOM      4  C   UNL     1       6.897   3.960   9.988  1.00  0.00     0.018 A 
ATOM      5  C   UNL     1       6.179   5.032   9.444  1.00  0.00     0.016 A 
ATOM      6  C   UNL     1       6.419   6.335   9.893  1.00  0.00     0.047 A 
ATOM      7  C   UNL     1       6.683   2.645   9.564  1.00  0.00     0.019 A 
ATOM      8  C   UNL     1       7.425   1.612  10.139  1.00  0.00     0.094 A 
ATOM      9  C   UNL     1       8.365   1.922  11.127  1.00  0.00     0.336 A 
ATOM     10  O   UNL     1       9.044   1.004  11.658  1.00  0.00    -0.246 OA
ATOM     11  O   UNL     1       8.549   3.182  11.512  1.00  0.00    -0.423 OA
ENDROOT
BRANCH   1  12
ATOM     12  O   UNL     1       7.657   7.867  11.374  1.00  0.00    -0.497 OA
ATOM     13  C   UNL     1       7.339   9.069  10.680  1.00  0.00     0.278 C 
ENDBRANCH   1  12
TORSDOF 1
ENDMDL
MODEL 2
REMARK VINA RESULT:    -6.090      0.940      4.775
REMARK INTER + INTRA:          -6.481
REMARK INTER:                  -6.447
REMARK INTRA:                  -0.033
REMARK UNBOUND:                -0.035
REMARK SMILES COc1ccc2ccc(=O)oc2c1
REMARK SMILES IDX 3 1 13 2 12 3 6 4 5 5 4 6 7 7 8 8 9 9 10 10 11 11 2 12 1 13
REMARK H PARENT
REMARK Flexibility Score: inf
ROOT
ATOM      1  C   UNL     1       8.217   2.194  11.204  1.00  0.00     0.122 A 
ATOM      2  C   UNL     1       8.399   3.519  11.621  1.00  0.00     0.094 A 
ATOM      3  C   UNL     1       7.706   4.562  10.998  1.00  0.00     0.142 A 
ATOM      4  C   UNL     1       6.817   4.279   9.939  1.00  0.00     0.018 A 
ATOM      5  C   UNL     1       6.632   2.956   9.518  1.00  0.00     0.016 A 
ATOM      6  C   UNL     1       7.328   1.918  10.146  1.00  0.00     0.047 A 
ATOM      7  C   UNL     1       6.139   5.342   9.335  1.00  0.00     0.019 A 
ATOM      8  C   UNL     1       6.358   6.641   9.792  1.00  0.00     0.094 A 
ATOM      9  C   UNL     1       7.255   6.846  10.846  1.00  0.00     0.336 A 
ATOM     10  O   UNL     1       7.467   8.012  11.272  1.00  0.00    -0.246 OA
ATOM     11  O   UNL     1       7.887   5.817  11.403  1.00  0.00    -0.423 OA
ENDROOT
BRANCH   1  12
ATOM     12  O   UNL     1       8.936   1.186  11.863  1.00  0.00    -0.497 OA
ATOM     13  C   UNL     1      10.011   0.454  11.284  1.00  0.00     0.278 C 
ENDBRANCH   1  12
TORSDOF 1
ENDMDL
MODEL 3
REMARK VINA RESULT:    -5.985      1.650      2.295
REMARK INTER + INTRA:          -6.369
REMARK INTER:                  -6.336
REMARK INTRA:                  -0.033
REMARK UNBOUND:                -0.035
REMARK SMILES COc1ccc2ccc(=O)oc2c1
REMARK SMILES IDX 3 1 13 2 12 3 6 4 5 5 4 6 7 7 8 8 9 9 10 10 11 11 2 12 1 13
REMARK H PARENT
REMARK Flexibility Score: inf
ROOT
ATOM      1  C   UNL     1       6.537   6.910  10.170  1.00  0.00     0.122 A 
ATOM      2  C   UNL     1       6.136   5.674   9.646  1.00  0.00     0.094 A 
ATOM      3  C   UNL     1       6.763   4.492  10.053  1.00  0.00     0.142 A 
ATOM      4  C   UNL     1       7.809   4.543  11.000  1.00  0.00     0.018 A 
ATOM      5  C   UNL     1       8.214   5.775  11.527  1.00  0.00     0.016 A 
ATOM      6  C   UNL     1       7.582   6.954  11.115  1.00  0.00     0.047 A 
ATOM      7  C   UNL     1       8.417   3.345  11.387  1.00  0.00     0.019 A 
ATOM      8  C   UNL     1       7.976   2.143  10.832  1.00  0.00     0.094 A 
ATOM      9  C   UNL     1       6.935   2.170   9.899  1.00  0.00     0.336 A 
ATOM     10  O   UNL     1       6.523   1.096   9.386  1.00  0.00    -0.246 OA
ATOM     11  O   UNL     1       6.373   3.324   9.548  1.00  0.00    -0.423 OA
ENDROOT
BRANCH   1  12
ATOM     12  O   UNL     1       5.875   8.065   9.729  1.00  0.00    -0.497 OA
ATOM     13  C   UNL     1       6.222   8.792   8.555  1.00  0.00     0.278 C 
ENDBRANCH   1  12
TORSDOF 1
ENDMDL
MODEL 4
REMARK VINA RESULT:    -5.154      1.657      5.428
REMARK INTER + INTRA:          -5.491
REMARK INTER:                  -5.455
REMARK INTRA:                  -0.036
REMARK UNBOUND:                -0.035
REMARK SMILES COc1ccc2ccc(=O)oc2c1
REMARK SMILES IDX 3 1 13 2 12 3 6 4 5 5 4 6 7 7 8 8 9 9 10 10 11 11 2 12 1 13
REMARK H PARENT
REMARK Flexibility Score: inf
ROOT
ATOM      1  C   UNL     1       7.197   3.618  10.014  1.00  0.00     0.122 A 
ATOM      2  C   UNL     1       6.642   4.652   9.250  1.00  0.00     0.094 A 
ATOM      3  C   UNL     1       6.808   5.987   9.633  1.00  0.00     0.142 A 
ATOM      4  C   UNL     1       7.538   6.296  10.801  1.00  0.00     0.018 A 
ATOM      5  C   UNL     1       8.094   5.266  11.569  1.00  0.00     0.016 A 
ATOM      6  C   UNL     1       7.926   3.933  11.179  1.00  0.00     0.047 A 
ATOM      7  C   UNL     1       7.686   7.639  11.160  1.00  0.00     0.019 A 
ATOM      8  C   UNL     1       7.112   8.627  10.360  1.00  0.00     0.094 A 
ATOM      9  C   UNL     1       6.401   8.247   9.217  1.00  0.00     0.336 A 
ATOM     10  O   UNL     1       5.876   9.124   8.482  1.00  0.00    -0.246 OA
ATOM     11  O   UNL     1       6.276   6.961   8.898  1.00  0.00    -0.423 OA
ENDROOT
BRANCH   1  12
ATOM     12  O   UNL     1       7.003   2.296   9.585  1.00  0.00    -0.497 OA
ATOM     13  C   UNL     1       7.637   1.160  10.164  1.00  0.00     0.278 C 
ENDBRANCH   1  12
TORSDOF 1
ENDMDL
MODEL 5
REMARK VINA RESULT:    -4.597     11.913     13.251
REMARK INTER + INTRA:          -4.900
REMARK INTER:                  -4.868
REMARK INTRA:                  -0.032
REMARK UNBOUND:                -0.035
REMARK SMILES COc1ccc2ccc(=O)oc2c1
REMARK SMILES IDX 3 1 13 2 12 3 6 4 5 5 4 6 7 7 8 8 9 9 10 10 11 11 2 12 1 13
REMARK H PARENT
REMARK Flexibility Score: inf
ROOT
ATOM      1  C   UNL     1      11.824  -2.920  19.688  1.00  0.00     0.122 A 
ATOM      2  C   UNL     1      11.901  -4.291  19.966  1.00  0.00     0.094 A 
ATOM      3  C   UNL     1      10.795  -5.122  19.758  1.00  0.00     0.142 A 
ATOM      4  C   UNL     1       9.591  -4.576  19.265  1.00  0.00     0.018 A 
ATOM      5  C   UNL     1       9.508  -3.206  18.987  1.00  0.00     0.016 A 
ATOM      6  C   UNL     1      10.618  -2.381  19.197  1.00  0.00     0.047 A 
ATOM      7  C   UNL     1       8.502  -5.430  19.068  1.00  0.00     0.019 A 
ATOM      8  C   UNL     1       8.636  -6.787  19.361  1.00  0.00     0.094 A 
ATOM      9  C   UNL     1       9.861  -7.258  19.847  1.00  0.00     0.336 A 
ATOM     10  O   UNL     1      10.002  -8.480  20.117  1.00  0.00    -0.246 OA
ATOM     11  O   UNL     1      10.881  -6.423  20.025  1.00  0.00    -0.423 OA
ENDROOT
BRANCH   1  12
ATOM     12  O   UNL     1      12.962  -2.132  19.914  1.00  0.00    -0.497 OA
ATOM     13  C   UNL     1      13.462  -1.160  19.002  1.00  0.00     0.278 C 
ENDBRANCH   1  12
TORSDOF 1
ENDMDL
MODEL 6
REMARK VINA RESULT:    -4.553     12.570     13.830
REMARK INTER + INTRA:          -4.855
REMARK INTER:                  -4.812
REMARK INTRA:                  -0.043
REMARK UNBOUND:                -0.035
REMARK SMILES COc1ccc2ccc(=O)oc2c1
REMARK SMILES IDX 3 1 13 2 12 3 6 4 5 5 4 6 7 7 8 8 9 9 10 10 11 11 2 12 1 13
REMARK H PARENT
REMARK Flexibility Score: inf
ROOT
ATOM      1  C   UNL     1      13.068  -4.550  19.766  1.00  0.00     0.122 A 
ATOM      2  C   UNL     1      11.874  -3.904  19.419  1.00  0.00     0.094 A 
ATOM      3  C   UNL     1      10.662  -4.601  19.422  1.00  0.00     0.142 A 
ATOM      4  C   UNL     1      10.639  -5.967  19.778  1.00  0.00     0.018 A 
ATOM      5  C   UNL     1      11.830  -6.618  20.125  1.00  0.00     0.016 A 
ATOM      6  C   UNL     1      13.039  -5.914  20.120  1.00  0.00     0.047 A 
ATOM      7  C   UNL     1       9.412  -6.638  19.771  1.00  0.00     0.019 A 
ATOM      8  C   UNL     1       8.255  -5.944  19.417  1.00  0.00     0.094 A 
ATOM      9  C   UNL     1       8.354  -4.590  19.076  1.00  0.00     0.336 A 
ATOM     10  O   UNL     1       7.321  -3.947  18.754  1.00  0.00    -0.246 OA
ATOM     11  O   UNL     1       9.534  -3.976  19.090  1.00  0.00    -0.423 OA
ENDROOT
BRANCH   1  12
ATOM     12  O   UNL     1      14.256  -3.805  19.747  1.00  0.00    -0.497 OA
ATOM     13  C   UNL     1      14.406  -2.545  19.100  1.00  0.00     0.278 C 
ENDBRANCH   1  12
TORSDOF 1
ENDMDL
MODEL 7
REMARK VINA RESULT:    -4.480     10.926     13.441
REMARK INTER + INTRA:          -4.776
REMARK INTER:                  -4.735
REMARK INTRA:                  -0.041
REMARK UNBOUND:                -0.035
REMARK SMILES COc1ccc2ccc(=O)oc2c1
REMARK SMILES IDX 3 1 13 2 12 3 6 4 5 5 4 6 7 7 8 8 9 9 10 10 11 11 2 12 1 13
REMARK H PARENT
REMARK Flexibility Score: inf
ROOT
ATOM      1  C   UNL     1       8.348  -4.354  19.098  1.00  0.00     0.122 A 
ATOM      2  C   UNL     1       9.627  -3.781  19.088  1.00  0.00     0.094 A 
ATOM      3  C   UNL     1      10.750  -4.541  19.429  1.00  0.00     0.142 A 
ATOM      4  C   UNL     1      10.596  -5.898  19.788  1.00  0.00     0.018 A 
ATOM      5  C   UNL     1       9.320  -6.476  19.801  1.00  0.00     0.016 A 
ATOM      6  C   UNL     1       8.201  -5.709  19.458  1.00  0.00     0.047 A 
ATOM      7  C   UNL     1      11.736  -6.633  20.125  1.00  0.00     0.019 A 
ATOM      8  C   UNL     1      12.984  -6.010  20.097  1.00  0.00     0.094 A 
ATOM      9  C   UNL     1      13.060  -4.661  19.731  1.00  0.00     0.336 A 
ATOM     10  O   UNL     1      14.177  -4.082  19.700  1.00  0.00    -0.246 OA
ATOM     11  O   UNL     1      11.959  -3.985  19.415  1.00  0.00    -0.423 OA
ENDROOT
BRANCH   1  12
ATOM     12  O   UNL     1       7.256  -3.547  18.748  1.00  0.00    -0.497 OA
ATOM     13  C   UNL     1       7.330  -2.428  17.871  1.00  0.00     0.278 C 
ENDBRANCH   1  12
TORSDOF 1
ENDMDL
MODEL 8
REMARK VINA RESULT:    -4.419     10.747     13.146
REMARK INTER + INTRA:          -4.713
REMARK INTER:                  -4.672
REMARK INTRA:                  -0.041
REMARK UNBOUND:                -0.035
REMARK SMILES COc1ccc2ccc(=O)oc2c1
REMARK SMILES IDX 3 1 13 2 12 3 6 4 5 5 4 6 7 7 8 8 9 9 10 10 11 11 2 12 1 13
REMARK H PARENT
REMARK Flexibility Score: inf
ROOT
ATOM      1  C   UNL     1      11.764  -2.653  18.892  1.00  0.00     0.122 A 
ATOM      2  C   UNL     1      10.503  -3.263  18.911  1.00  0.00     0.094 A 
ATOM      3  C   UNL     1      10.364  -4.593  19.322  1.00  0.00     0.142 A 
ATOM      4  C   UNL     1      11.502  -5.327  19.720  1.00  0.00     0.018 A 
ATOM      5  C   UNL     1      12.765  -4.722  19.702  1.00  0.00     0.016 A 
ATOM      6  C   UNL     1      12.897  -3.391  19.290  1.00  0.00     0.047 A 
ATOM      7  C   UNL     1      11.332  -6.655  20.125  1.00  0.00     0.019 A 
ATOM      8  C   UNL     1      10.053  -7.211  20.125  1.00  0.00     0.094 A 
ATOM      9  C   UNL     1       8.971  -6.423  19.717  1.00  0.00     0.336 A 
ATOM     10  O   UNL     1       7.809  -6.907  19.709  1.00  0.00    -0.246 OA
ATOM     11  O   UNL     1       9.161  -5.162  19.336  1.00  0.00    -0.423 OA
ENDROOT
BRANCH   1  12
ATOM     12  O   UNL     1      11.849  -1.317  18.472  1.00  0.00    -0.497 OA
ATOM     13  C   UNL     1      10.996  -0.724  17.498  1.00  0.00     0.278 C 
ENDBRANCH   1  12
TORSDOF 1
ENDMDL
MODEL 9
REMARK VINA RESULT:    -4.392     10.699     12.931
REMARK INTER + INTRA:          -4.684
REMARK INTER:                  -4.645
REMARK INTRA:                  -0.039
REMARK UNBOUND:                -0.035
REMARK SMILES COc1ccc2ccc(=O)oc2c1
REMARK SMILES IDX 3 1 13 2 12 3 6 4 5 5 4 6 7 7 8 8 9 9 10 10 11 11 2 12 1 13
REMARK H PARENT
REMARK Flexibility Score: inf
ROOT
ATOM      1  C   UNL     1       9.464  -5.400  19.462  1.00  0.00     0.122 A 
ATOM      2  C   UNL     1      10.738  -4.858  19.683  1.00  0.00     0.094 A 
ATOM      3  C   UNL     1      11.105  -3.645  19.092  1.00  0.00     0.142 A 
ATOM      4  C   UNL     1      10.188  -2.959  18.267  1.00  0.00     0.018 A 
ATOM      5  C   UNL     1       8.914  -3.497  18.043  1.00  0.00     0.016 A 
ATOM      6  C   UNL     1       8.553  -4.710  18.637  1.00  0.00     0.047 A 
ATOM      7  C   UNL     1      10.585  -1.749  17.690  1.00  0.00     0.019 A 
ATOM      8  C   UNL     1      11.865  -1.257  17.945  1.00  0.00     0.094 A 
ATOM      9  C   UNL     1      12.721  -1.991  18.773  1.00  0.00     0.336 A 
ATOM     10  O   UNL     1      13.880  -1.564  19.015  1.00  0.00    -0.246 OA
ATOM     11  O   UNL     1      12.318  -3.140  19.309  1.00  0.00    -0.423 OA
ENDROOT
BRANCH   1  12
ATOM     12  O   UNL     1       9.145  -6.619  20.078  1.00  0.00    -0.497 OA
ATOM     13  C   UNL     1      10.012  -7.748  20.125  1.00  0.00     0.278 C 
ENDBRANCH   1  12
TORSDOF 1
ENDMDL
