MODEL 1
REMARK VINA RESULT:    -3.257      0.000      0.000
REMARK INTER + INTRA:          -4.251
REMARK INTER:                  -4.114
REMARK INTRA:                  -0.137
REMARK UNBOUND:                -0.137
REMARK SMILES CSCC[C@H]([NH3+])C(=O)[O-]
REMARK SMILES IDX 4 1 5 2 6 3 7 7 8 8 9 9 3 10 2 11 1 12
REMARK H PARENT 6 4 6 5 6 6
REMARK Flexibility Score: inf
ROOT
ATOM      1  C   UNL     1      14.508  25.878  25.932  1.00  0.00     0.082 C 
ENDROOT
BRANCH   1   2
ATOM      2  C   UNL     1      15.268  25.969  24.587  1.00  0.00     0.228 C 
BRANCH   2   3
ATOM      3  N   UNL     1      16.687  25.614  24.734  1.00  0.00    -0.350 N 
ATOM      4  H   UNL     1      16.814  24.584  24.601  1.00  0.00     0.345 HD
ATOM      5  H   UNL     1      17.273  26.123  24.033  1.00  0.00     0.345 HD
ATOM      6  H   UNL     1      17.017  25.848  25.698  1.00  0.00     0.345 HD
ENDBRANCH   2   3
BRANCH   2   7
ATOM      7  C   UNL     1      15.137  27.363  24.031  1.00  0.00     0.099 C 
ATOM      8  O   UNL     1      14.000  27.874  23.850  1.00  0.00    -0.544 OA
ATOM      9  O   UNL     1      16.275  28.083  23.687  1.00  0.00    -0.544 OA
ENDBRANCH   2   7
ENDBRANCH   1   2
BRANCH   1  10
ATOM     10  C   UNL     1      13.472  24.743  25.996  1.00  0.00     0.076 C 
BRANCH  10  11
ATOM     11  S   UNL     1      12.521  24.571  24.440  1.00  0.00    -0.165 SA
ATOM     12  C   UNL     1      11.518  23.148  24.977  1.00  0.00     0.085 C 
ENDBRANCH  10  11
ENDBRANCH   1  10
TORSDOF 5
ENDMDL
MODEL 2
REMARK VINA RESULT:    -3.159      3.733      4.237
REMARK INTER + INTRA:          -4.127
REMARK INTER:                  -4.042
REMARK INTRA:                  -0.084
REMARK UNBOUND:                -0.137
REMARK SMILES CSCC[C@H]([NH3+])C(=O)[O-]
REMARK SMILES IDX 4 1 5 2 6 3 7 7 8 8 9 9 3 10 2 11 1 12
REMARK H PARENT 6 4 6 5 6 6
REMARK Flexibility Score: inf
ROOT
ATOM      1  C   UNL     1      13.525  24.897  26.955  1.00  0.00     0.082 C 
ENDROOT
BRANCH   1   2
ATOM      2  C   UNL     1      13.317  25.298  28.436  1.00  0.00     0.228 C 
BRANCH   2   3
ATOM      3  N   UNL     1      12.277  26.325  28.585  1.00  0.00    -0.350 N 
ATOM      4  H   UNL     1      12.695  27.277  28.464  1.00  0.00     0.345 HD
ATOM      5  H   UNL     1      11.519  26.193  27.877  1.00  0.00     0.345 HD
ATOM      6  H   UNL     1      11.867  26.284  29.545  1.00  0.00     0.345 HD
ENDBRANCH   2   3
BRANCH   2   7
ATOM      7  C   UNL     1      14.620  25.791  29.007  1.00  0.00     0.099 C 
ATOM      8  O   UNL     1      15.276  26.693  28.420  1.00  0.00    -0.544 OA
ATOM      9  O   UNL     1      15.122  25.231  30.176  1.00  0.00    -0.544 OA
ENDBRANCH   2   7
ENDBRANCH   1   2
BRANCH   1  10
ATOM     10  C   UNL     1      12.666  25.692  25.958  1.00  0.00     0.076 C 
BRANCH  10  11
ATOM     11  S   UNL     1      12.516  24.855  24.336  1.00  0.00    -0.165 SA
ATOM     12  C   UNL     1      11.720  23.342  24.967  1.00  0.00     0.085 C 
ENDBRANCH  10  11
ENDBRANCH   1  10
TORSDOF 5
ENDMDL
MODEL 3
REMARK VINA RESULT:    -3.109      2.263      2.522
REMARK INTER + INTRA:          -4.064
REMARK INTER:                  -3.863
REMARK INTRA:                  -0.200
REMARK UNBOUND:                -0.137
REMARK SMILES CSCC[C@H]([NH3+])C(=O)[O-]
REMARK SMILES IDX 4 1 5 2 6 3 7 7 8 8 9 9 3 10 2 11 1 12
REMARK H PARENT 6 4 6 5 6 6
REMARK Flexibility Score: inf
ROOT
ATOM      1  C   UNL     1      15.498  26.805  26.543  1.00  0.00     0.082 C 
ENDROOT
BRANCH   1   2
ATOM      2  C   UNL     1      15.444  25.754  25.407  1.00  0.00     0.228 C 
BRANCH   2   3
ATOM      3  N   UNL     1      16.689  25.726  24.627  1.00  0.00    -0.350 N 
ATOM      4  H   UNL     1      17.508  25.907  25.253  1.00  0.00     0.345 HD
ATOM      5  H   UNL     1      16.815  24.798  24.160  1.00  0.00     0.345 HD
ATOM      6  H   UNL     1      16.676  26.479  23.903  1.00  0.00     0.345 HD
ENDBRANCH   2   3
BRANCH   2   7
ATOM      7  C   UNL     1      14.274  26.050  24.507  1.00  0.00     0.099 C 
ATOM      8  O   UNL     1      13.416  25.161  24.260  1.00  0.00    -0.544 OA
ATOM      9  O   UNL     1      14.150  27.304  23.919  1.00  0.00    -0.544 OA
ENDBRANCH   2   7
ENDBRANCH   1   2
BRANCH   1  10
ATOM     10  C   UNL     1      14.190  26.943  27.339  1.00  0.00     0.076 C 
BRANCH  10  11
ATOM     11  S   UNL     1      13.912  25.538  28.481  1.00  0.00    -0.165 SA
ATOM     12  C   UNL     1      12.296  25.045  27.796  1.00  0.00     0.085 C 
ENDBRANCH  10  11
ENDBRANCH   1  10
TORSDOF 5
ENDMDL
MODEL 4
REMARK VINA RESULT:    -3.104      2.533      3.107
REMARK INTER + INTRA:          -4.058
REMARK INTER:                  -3.904
REMARK INTRA:                  -0.154
REMARK UNBOUND:                -0.137
REMARK SMILES CSCC[C@H]([NH3+])C(=O)[O-]
REMARK SMILES IDX 4 1 5 2 6 3 7 7 8 8 9 9 3 10 2 11 1 12
REMARK H PARENT 6 4 6 5 6 6
REMARK Flexibility Score: inf
ROOT
ATOM      1  C   UNL     1      15.021  28.492  24.544  1.00  0.00     0.082 C 
ENDROOT
BRANCH   1   2
ATOM      2  C   UNL     1      15.958  28.921  23.389  1.00  0.00     0.228 C 
BRANCH   2   3
ATOM      3  N   UNL     1      15.534  28.355  22.100  1.00  0.00    -0.350 N 
ATOM      4  H   UNL     1      15.204  27.370  22.234  1.00  0.00     0.345 HD
ATOM      5  H   UNL     1      14.760  28.920  21.682  1.00  0.00     0.345 HD
ATOM      6  H   UNL     1      16.342  28.327  21.438  1.00  0.00     0.345 HD
ENDBRANCH   2   3
BRANCH   2   7
ATOM      7  C   UNL     1      17.367  28.496  23.704  1.00  0.00     0.099 C 
ATOM      8  O   UNL     1      18.347  29.108  23.200  1.00  0.00    -0.544 OA
ATOM      9  O   UNL     1      17.594  27.404  24.533  1.00  0.00    -0.544 OA
ENDBRANCH   2   7
ENDBRANCH   1   2
BRANCH   1  10
ATOM     10  C   UNL     1      13.939  27.478  24.137  1.00  0.00     0.076 C 
BRANCH  10  11
ATOM     11  S   UNL     1      14.303  25.785  24.734  1.00  0.00    -0.165 SA
ATOM     12  C   UNL     1      12.662  25.086  24.359  1.00  0.00     0.085 C 
ENDBRANCH  10  11
ENDBRANCH   1  10
TORSDOF 5
ENDMDL
MODEL 5
REMARK VINA RESULT:    -3.077      2.090      2.322
REMARK INTER + INTRA:          -4.023
REMARK INTER:                  -3.823
REMARK INTRA:                  -0.200
REMARK UNBOUND:                -0.137
REMARK SMILES CSCC[C@H]([NH3+])C(=O)[O-]
REMARK SMILES IDX 4 1 5 2 6 3 7 7 8 8 9 9 3 10 2 11 1 12
REMARK H PARENT 6 4 6 5 6 6
REMARK Flexibility Score: inf
ROOT
ATOM      1  C   UNL     1      13.690  27.211  25.104  1.00  0.00     0.082 C 
ENDROOT
BRANCH   1   2
ATOM      2  C   UNL     1      14.561  28.062  24.149  1.00  0.00     0.228 C 
BRANCH   2   3
ATOM      3  N   UNL     1      13.885  28.315  22.868  1.00  0.00    -0.350 N 
ATOM      4  H   UNL     1      14.423  27.874  22.087  1.00  0.00     0.345 HD
ATOM      5  H   UNL     1      12.914  27.926  22.877  1.00  0.00     0.345 HD
ATOM      6  H   UNL     1      13.846  29.342  22.680  1.00  0.00     0.345 HD
ENDBRANCH   2   3
BRANCH   2   7
ATOM      7  C   UNL     1      15.875  27.364  23.913  1.00  0.00     0.099 C 
ATOM      8  O   UNL     1      16.023  26.155  24.237  1.00  0.00    -0.544 OA
ATOM      9  O   UNL     1      16.942  28.062  23.361  1.00  0.00    -0.544 OA
ENDBRANCH   2   7
ENDBRANCH   1   2
BRANCH   1  10
ATOM     10  C   UNL     1      12.444  26.597  24.445  1.00  0.00     0.076 C 
BRANCH  10  11
ATOM     11  S   UNL     1      12.488  24.766  24.429  1.00  0.00    -0.165 SA
ATOM     12  C   UNL     1      13.343  24.575  26.027  1.00  0.00     0.085 C 
ENDBRANCH  10  11
ENDBRANCH   1  10
TORSDOF 5
ENDMDL
MODEL 6
REMARK VINA RESULT:    -3.058      8.049      8.727
REMARK INTER + INTRA:          -4.000
REMARK INTER:                  -3.845
REMARK INTRA:                  -0.155
REMARK UNBOUND:                -0.137
REMARK SMILES CSCC[C@H]([NH3+])C(=O)[O-]
REMARK SMILES IDX 4 1 5 2 6 3 7 7 8 8 9 9 3 10 2 11 1 12
REMARK H PARENT 6 4 6 5 6 6
REMARK Flexibility Score: inf
ROOT
ATOM      1  C   UNL     1      19.221  27.751  30.860  1.00  0.00     0.082 C 
ENDROOT
BRANCH   1   2
ATOM      2  C   UNL     1      19.514  28.904  31.851  1.00  0.00     0.228 C 
BRANCH   2   3
ATOM      3  N   UNL     1      20.721  28.648  32.650  1.00  0.00    -0.350 N 
ATOM      4  H   UNL     1      21.112  27.706  32.414  1.00  0.00     0.345 HD
ATOM      5  H   UNL     1      21.450  29.375  32.467  1.00  0.00     0.345 HD
ATOM      6  H   UNL     1      20.483  28.642  33.667  1.00  0.00     0.345 HD
ENDBRANCH   2   3
BRANCH   2   7
ATOM      7  C   UNL     1      18.326  29.101  32.755  1.00  0.00     0.099 C 
ATOM      8  O   UNL     1      18.452  29.011  34.005  1.00  0.00    -0.544 OA
ATOM      9  O   UNL     1      17.073  29.354  32.209  1.00  0.00    -0.544 OA
ENDBRANCH   2   7
ENDBRANCH   1   2
BRANCH   1  10
ATOM     10  C   UNL     1      19.394  28.130  29.380  1.00  0.00     0.076 C 
BRANCH  10  11
ATOM     11  S   UNL     1      17.877  27.833  28.398  1.00  0.00    -0.165 SA
ATOM     12  C   UNL     1      16.967  26.944  29.703  1.00  0.00     0.085 C 
ENDBRANCH  10  11
ENDBRANCH   1  10
TORSDOF 5
ENDMDL
MODEL 7
REMARK VINA RESULT:    -3.052      1.898      2.208
REMARK INTER + INTRA:          -3.991
REMARK INTER:                  -3.870
REMARK INTRA:                  -0.122
REMARK UNBOUND:                -0.137
REMARK SMILES CSCC[C@H]([NH3+])C(=O)[O-]
REMARK SMILES IDX 4 1 5 2 6 3 7 7 8 8 9 9 3 10 2 11 1 12
REMARK H PARENT 6 4 6 5 6 6
REMARK Flexibility Score: inf
ROOT
ATOM      1  C   UNL     1      15.192  26.474  25.979  1.00  0.00     0.082 C 
ENDROOT
BRANCH   1   2
ATOM      2  C   UNL     1      15.877  26.965  24.680  1.00  0.00     0.228 C 
BRANCH   2   3
ATOM      3  N   UNL     1      15.868  25.935  23.632  1.00  0.00    -0.350 N 
ATOM      4  H   UNL     1      15.426  25.059  23.996  1.00  0.00     0.345 HD
ATOM      5  H   UNL     1      15.338  26.262  22.793  1.00  0.00     0.345 HD
ATOM      6  H   UNL     1      16.847  25.697  23.355  1.00  0.00     0.345 HD
ENDBRANCH   2   3
BRANCH   2   7
ATOM      7  C   UNL     1      17.291  27.381  24.988  1.00  0.00     0.099 C 
ATOM      8  O   UNL     1      17.934  28.105  24.182  1.00  0.00    -0.544 OA
ATOM      9  O   UNL     1      17.906  26.940  26.154  1.00  0.00    -0.544 OA
ENDBRANCH   2   7
ENDBRANCH   1   2
BRANCH   1  10
ATOM     10  C   UNL     1      13.663  26.341  25.875  1.00  0.00     0.076 C 
BRANCH  10  11
ATOM     11  S   UNL     1      13.105  24.597  25.932  1.00  0.00    -0.165 SA
ATOM     12  C   UNL     1      12.395  24.562  24.254  1.00  0.00     0.085 C 
ENDBRANCH  10  11
ENDBRANCH   1  10
TORSDOF 5
ENDMDL
MODEL 8
REMARK VINA RESULT:    -3.024      3.475      4.590
REMARK INTER + INTRA:          -3.956
REMARK INTER:                  -3.876
REMARK INTRA:                  -0.080
REMARK UNBOUND:                -0.137
REMARK SMILES CSCC[C@H]([NH3+])C(=O)[O-]
REMARK SMILES IDX 4 1 5 2 6 3 7 7 8 8 9 9 3 10 2 11 1 12
REMARK H PARENT 6 4 6 5 6 6
REMARK Flexibility Score: inf
ROOT
ATOM      1  C   UNL     1      14.391  26.306  25.117  1.00  0.00     0.082 C 
ENDROOT
BRANCH   1   2
ATOM      2  C   UNL     1      13.275  25.444  24.478  1.00  0.00     0.228 C 
BRANCH   2   3
ATOM      3  N   UNL     1      12.087  26.243  24.146  1.00  0.00    -0.350 N 
ATOM      4  H   UNL     1      11.282  25.612  23.925  1.00  0.00     0.345 HD
ATOM      5  H   UNL     1      11.823  26.867  24.943  1.00  0.00     0.345 HD
ATOM      6  H   UNL     1      12.271  26.824  23.297  1.00  0.00     0.345 HD
ENDBRANCH   2   3
BRANCH   2   7
ATOM      7  C   UNL     1      12.904  24.329  25.420  1.00  0.00     0.099 C 
ATOM      8  O   UNL     1      13.303  24.342  26.615  1.00  0.00    -0.544 OA
ATOM      9  O   UNL     1      12.140  23.261  24.964  1.00  0.00    -0.544 OA
ENDBRANCH   2   7
ENDBRANCH   1   2
BRANCH   1  10
ATOM     10  C   UNL     1      15.818  25.858  24.761  1.00  0.00     0.076 C 
BRANCH  10  11
ATOM     11  S   UNL     1      16.978  27.267  24.609  1.00  0.00    -0.165 SA
ATOM     12  C   UNL     1      16.085  28.115  23.266  1.00  0.00     0.085 C 
ENDBRANCH  10  11
ENDBRANCH   1  10
TORSDOF 5
ENDMDL
MODEL 9
REMARK VINA RESULT:    -3.013      3.525      4.575
REMARK INTER + INTRA:          -3.942
REMARK INTER:                  -3.871
REMARK INTRA:                  -0.072
REMARK UNBOUND:                -0.137
REMARK SMILES CSCC[C@H]([NH3+])C(=O)[O-]
REMARK SMILES IDX 4 1 5 2 6 3 7 7 8 8 9 9 3 10 2 11 1 12
REMARK H PARENT 6 4 6 5 6 6
REMARK Flexibility Score: inf
ROOT
ATOM      1  C   UNL     1      16.370  26.995  25.963  1.00  0.00     0.082 C 
ENDROOT
BRANCH   1   2
ATOM      2  C   UNL     1      15.925  25.864  25.004  1.00  0.00     0.228 C 
BRANCH   2   3
ATOM      3  N   UNL     1      16.047  26.261  23.594  1.00  0.00    -0.350 N 
ATOM      4  H   UNL     1      16.396  25.455  23.025  1.00  0.00     0.345 HD
ATOM      5  H   UNL     1      15.124  26.573  23.215  1.00  0.00     0.345 HD
ATOM      6  H   UNL     1      16.743  27.035  23.499  1.00  0.00     0.345 HD
ENDBRANCH   2   3
BRANCH   2   7
ATOM      7  C   UNL     1      14.504  25.476  25.314  1.00  0.00     0.099 C 
ATOM      8  O   UNL     1      14.121  25.349  26.507  1.00  0.00    -0.544 OA
ATOM      9  O   UNL     1      13.611  25.226  24.278  1.00  0.00    -0.544 OA
ENDBRANCH   2   7
ENDBRANCH   1   2
BRANCH   1  10
ATOM     10  C   UNL     1      17.865  27.345  25.878  1.00  0.00     0.076 C 
BRANCH  10  11
ATOM     11  S   UNL     1      18.498  28.097  27.423  1.00  0.00    -0.165 SA
ATOM     12  C   UNL     1      17.149  27.509  28.498  1.00  0.00     0.085 C 
ENDBRANCH  10  11
ENDBRANCH   1  10
TORSDOF 5
ENDMDL
