MODEL 1
REMARK VINA RESULT:    -5.197      0.000      0.000
REMARK INTER + INTRA:          -8.787
REMARK INTER:                  -7.324
REMARK INTRA:                  -1.462
REMARK UNBOUND:                -1.462
REMARK SMILES OCC1=C[C@@H](O)[C@@H]2C=CO[C@H](O[C@H]3O[C@@H](CO)[C@@H](O)[C@@H](O)[C@@H]3O)[C@H]12
REMARK SMILES IDX 12 1 11 2 8 3 9 4 7 5 10 6 24 7 5 8 3 9 4 10 6 11 2 13 1 14
REMARK SMILES IDX 13 16 22 17 14 18 20 19 15 20 18 21 23 22 21 24 16 26 17 27
REMARK SMILES IDX 19 29
REMARK H PARENT 6 12 1 15 23 23 21 25 17 28 19 30
REMARK Flexibility Score: inf
ROOT
ATOM      1  O   UNL     1     -13.780 -20.490  12.448  1.00  0.00    -0.310 OA
ENDROOT
BRANCH   1   2
ATOM      2  C   UNL     1     -14.360 -19.551  11.551  1.00  0.00     0.316 C 
ATOM      3  C   UNL     1     -15.969 -21.425  10.124  1.00  0.00     0.018 C 
ATOM      4  C   UNL     1     -14.817 -20.997   9.609  1.00  0.00     0.186 C 
ATOM      5  C   UNL     1     -16.650 -20.692  11.255  1.00  0.00     0.061 C 
ATOM      6  O   UNL     1     -14.134 -19.926  10.189  1.00  0.00    -0.472 OA
ATOM      7  C   UNL     1     -15.885 -19.457  11.798  1.00  0.00     0.096 C 
ATOM      8  C   UNL     1     -16.887 -21.584  12.488  1.00  0.00     0.145 C 
ATOM      9  C   UNL     1     -16.212 -19.481  13.261  1.00  0.00    -0.036 C 
ATOM     10  C   UNL     1     -16.748 -20.638  13.636  1.00  0.00     0.007 C 
BRANCH   8  11
ATOM     11  O   UNL     1     -18.153 -22.197  12.466  1.00  0.00    -0.388 OA
ATOM     12  H   UNL     1     -18.454 -22.249  11.519  1.00  0.00     0.211 HD
ENDBRANCH   8  11
BRANCH   9  13
ATOM     13  C   UNL     1     -15.915 -18.360  14.214  1.00  0.00     0.187 C 
BRANCH  13  14
ATOM     14  O   UNL     1     -15.044 -18.812  15.213  1.00  0.00    -0.392 OA
ATOM     15  H   UNL     1     -14.687 -18.004  15.668  1.00  0.00     0.211 HD
ENDBRANCH  13  14
ENDBRANCH   9  13
ENDBRANCH   1   2
BRANCH   1  16
ATOM     16  C   UNL     1     -12.617 -19.981  13.084  1.00  0.00     0.286 C 
ATOM     17  C   UNL     1     -12.401 -20.749  14.403  1.00  0.00     0.202 C 
ATOM     18  O   UNL     1     -12.756 -18.592  13.354  1.00  0.00    -0.341 OA
ATOM     19  C   UNL     1     -11.140 -20.213  15.101  1.00  0.00     0.179 C 
ATOM     20  C   UNL     1     -11.527 -18.055  13.820  1.00  0.00     0.178 C 
ATOM     21  C   UNL     1     -11.166 -18.661  15.202  1.00  0.00     0.177 C 
BRANCH  17  22
ATOM     22  O   UNL     1     -12.233 -22.118  14.124  1.00  0.00    -0.385 OA
ATOM     23  H   UNL     1     -12.817 -22.623  14.750  1.00  0.00     0.211 HD
ENDBRANCH  17  22
BRANCH  19  24
ATOM     24  O   UNL     1     -10.952 -20.862  16.338  1.00  0.00    -0.387 OA
ATOM     25  H   UNL     1     -10.925 -20.188  17.071  1.00  0.00     0.211 HD
ENDBRANCH  19  24
BRANCH  20  26
ATOM     26  C   UNL     1     -11.647 -16.526  13.875  1.00  0.00     0.191 C 
BRANCH  26  27
ATOM     27  O   UNL     1     -12.984 -16.152  14.096  1.00  0.00    -0.394 OA
ATOM     28  H   UNL     1     -12.982 -15.192  14.352  1.00  0.00     0.210 HD
ENDBRANCH  26  27
ENDBRANCH  20  26
BRANCH  21  29
ATOM     29  O   UNL     1     -12.054 -18.210  16.200  1.00  0.00    -0.387 OA
ATOM     30  H   UNL     1     -12.782 -18.876  16.290  1.00  0.00     0.211 HD
ENDBRANCH  21  29
ENDBRANCH   1  16
TORSDOF 10
ENDMDL
MODEL 2
REMARK VINA RESULT:    -5.179      1.774      2.528
REMARK INTER + INTRA:          -8.761
REMARK INTER:                  -7.788
REMARK INTRA:                  -0.973
REMARK UNBOUND:                -1.462
REMARK SMILES OCC1=C[C@@H](O)[C@@H]2C=CO[C@H](O[C@H]3O[C@@H](CO)[C@@H](O)[C@@H](O)[C@@H]3O)[C@H]12
REMARK SMILES IDX 12 1 11 2 8 3 9 4 7 5 10 6 24 7 5 8 3 9 4 10 6 11 2 13 1 14
REMARK SMILES IDX 13 16 22 17 14 18 20 19 15 20 18 21 23 22 21 24 16 26 17 27
REMARK SMILES IDX 19 29
REMARK H PARENT 6 12 1 15 23 23 21 25 17 28 19 30
REMARK Flexibility Score: inf
ROOT
ATOM      1  O   UNL     1     -13.409 -20.641  14.009  1.00  0.00    -0.310 OA
ENDROOT
BRANCH   1   2
ATOM      2  C   UNL     1     -13.295 -20.241  12.648  1.00  0.00     0.316 C 
ATOM      3  C   UNL     1     -14.666 -22.486  11.541  1.00  0.00     0.018 C 
ATOM      4  C   UNL     1     -13.334 -22.434  11.524  1.00  0.00     0.186 C 
ATOM      5  C   UNL     1     -15.502 -21.252  11.783  1.00  0.00     0.061 C 
ATOM      6  O   UNL     1     -12.664 -21.255  11.860  1.00  0.00    -0.472 OA
ATOM      7  C   UNL     1     -14.700 -19.954  12.063  1.00  0.00     0.096 C 
ATOM      8  C   UNL     1     -16.449 -21.399  12.989  1.00  0.00     0.145 C 
ATOM      9  C   UNL     1     -15.572 -19.229  13.045  1.00  0.00    -0.036 C 
ATOM     10  C   UNL     1     -16.515 -20.016  13.553  1.00  0.00     0.007 C 
BRANCH   8  11
ATOM     11  O   UNL     1     -17.719 -21.871  12.612  1.00  0.00    -0.388 OA
ATOM     12  H   UNL     1     -17.637 -22.839  12.398  1.00  0.00     0.211 HD
ENDBRANCH   8  11
BRANCH   9  13
ATOM     13  C   UNL     1     -15.373 -17.801  13.462  1.00  0.00     0.187 C 
BRANCH  13  14
ATOM     14  O   UNL     1     -15.550 -17.689  14.846  1.00  0.00    -0.392 OA
ATOM     15  H   UNL     1     -15.969 -18.538  15.150  1.00  0.00     0.211 HD
ENDBRANCH  13  14
ENDBRANCH   9  13
ENDBRANCH   1   2
BRANCH   1  16
ATOM     16  C   UNL     1     -12.236 -20.354  14.755  1.00  0.00     0.286 C 
ATOM     17  C   UNL     1     -12.477 -19.070  15.574  1.00  0.00     0.202 C 
ATOM     18  O   UNL     1     -11.121 -20.171  13.892  1.00  0.00    -0.341 OA
ATOM     19  C   UNL     1     -11.216 -18.748  16.394  1.00  0.00     0.179 C 
ATOM     20  C   UNL     1      -9.925 -20.065  14.649  1.00  0.00     0.178 C 
ATOM     21  C   UNL     1      -9.941 -18.770  15.502  1.00  0.00     0.177 C 
BRANCH  17  22
ATOM     22  O   UNL     1     -13.561 -19.270  16.448  1.00  0.00    -0.385 OA
ATOM     23  H   UNL     1     -13.227 -19.128  17.374  1.00  0.00     0.211 HD
ENDBRANCH  17  22
BRANCH  19  24
ATOM     24  O   UNL     1     -11.391 -17.546  17.109  1.00  0.00    -0.387 OA
ATOM     25  H   UNL     1     -12.102 -16.998  16.678  1.00  0.00     0.211 HD
ENDBRANCH  19  24
BRANCH  20  26
ATOM     26  C   UNL     1      -8.729 -20.106  13.688  1.00  0.00     0.191 C 
BRANCH  26  27
ATOM     27  O   UNL     1      -7.651 -19.380  14.224  1.00  0.00    -0.394 OA
ATOM     28  H   UNL     1      -6.844 -19.622  13.698  1.00  0.00     0.210 HD
ENDBRANCH  26  27
ENDBRANCH  20  26
BRANCH  21  29
ATOM     29  O   UNL     1      -9.846 -17.624  14.686  1.00  0.00    -0.387 OA
ATOM     30  H   UNL     1      -9.235 -17.830  13.934  1.00  0.00     0.211 HD
ENDBRANCH  21  29
ENDBRANCH   1  16
TORSDOF 10
ENDMDL
MODEL 3
REMARK VINA RESULT:    -5.058      0.985      1.019
REMARK INTER + INTRA:          -8.590
REMARK INTER:                  -7.047
REMARK INTRA:                  -1.542
REMARK UNBOUND:                -1.462
REMARK SMILES OCC1=C[C@@H](O)[C@@H]2C=CO[C@H](O[C@H]3O[C@@H](CO)[C@@H](O)[C@@H](O)[C@@H]3O)[C@H]12
REMARK SMILES IDX 12 1 11 2 8 3 9 4 7 5 10 6 24 7 5 8 3 9 4 10 6 11 2 13 1 14
REMARK SMILES IDX 13 16 22 17 14 18 20 19 15 20 18 21 23 22 21 24 16 26 17 27
REMARK SMILES IDX 19 29
REMARK H PARENT 6 12 1 15 23 23 21 25 17 28 19 30
REMARK Flexibility Score: inf
ROOT
ATOM      1  O   UNL     1     -13.701 -20.375  12.520  1.00  0.00    -0.310 OA
ENDROOT
BRANCH   1   2
ATOM      2  C   UNL     1     -14.307 -19.502  11.574  1.00  0.00     0.316 C 
ATOM      3  C   UNL     1     -15.887 -21.490  10.273  1.00  0.00     0.018 C 
ATOM      4  C   UNL     1     -14.748 -21.069   9.724  1.00  0.00     0.186 C 
ATOM      5  C   UNL     1     -16.575 -20.706  11.365  1.00  0.00     0.061 C 
ATOM      6  O   UNL     1     -14.083 -19.952  10.235  1.00  0.00    -0.472 OA
ATOM      7  C   UNL     1     -15.833 -19.426  11.829  1.00  0.00     0.096 C 
ATOM      8  C   UNL     1     -16.784 -21.529  12.651  1.00  0.00     0.145 C 
ATOM      9  C   UNL     1     -16.148 -19.371  13.294  1.00  0.00    -0.036 C 
ATOM     10  C   UNL     1     -16.656 -20.515  13.740  1.00  0.00     0.007 C 
BRANCH   8  11
ATOM     11  O   UNL     1     -18.037 -22.168  12.675  1.00  0.00    -0.388 OA
ATOM     12  H   UNL     1     -18.103 -22.685  13.523  1.00  0.00     0.211 HD
ENDBRANCH   8  11
BRANCH   9  13
ATOM     13  C   UNL     1     -15.868 -18.190  14.177  1.00  0.00     0.187 C 
BRANCH  13  14
ATOM     14  O   UNL     1     -14.626 -18.356  14.802  1.00  0.00    -0.392 OA
ATOM     15  H   UNL     1     -13.995 -17.733  14.352  1.00  0.00     0.211 HD
ENDBRANCH  13  14
ENDBRANCH   9  13
ENDBRANCH   1   2
BRANCH   1  16
ATOM     16  C   UNL     1     -12.337 -20.056  12.750  1.00  0.00     0.286 C 
ATOM     17  C   UNL     1     -11.693 -21.203  13.555  1.00  0.00     0.202 C 
ATOM     18  O   UNL     1     -12.217 -18.837  13.471  1.00  0.00    -0.341 OA
ATOM     19  C   UNL     1     -10.212 -20.875  13.807  1.00  0.00     0.179 C 
ATOM     20  C   UNL     1     -10.858 -18.435  13.537  1.00  0.00     0.178 C 
ATOM     21  C   UNL     1     -10.040 -19.442  14.388  1.00  0.00     0.177 C 
BRANCH  17  22
ATOM     22  O   UNL     1     -11.787 -22.399  12.821  1.00  0.00    -0.385 OA
ATOM     23  H   UNL     1     -12.063 -22.159  11.897  1.00  0.00     0.211 HD
ENDBRANCH  17  22
BRANCH  19  24
ATOM     24  O   UNL     1      -9.614 -21.884  14.591  1.00  0.00    -0.387 OA
ATOM     25  H   UNL     1      -9.694 -21.651  15.556  1.00  0.00     0.211 HD
ENDBRANCH  19  24
BRANCH  20  26
ATOM     26  C   UNL     1     -10.792 -17.012  14.109  1.00  0.00     0.191 C 
BRANCH  26  27
ATOM     27  O   UNL     1     -11.813 -16.822  15.056  1.00  0.00    -0.394 OA
ATOM     28  H   UNL     1     -11.807 -17.614  15.656  1.00  0.00     0.210 HD
ENDBRANCH  26  27
ENDBRANCH  20  26
BRANCH  21  29
ATOM     29  O   UNL     1     -10.408 -19.373  15.747  1.00  0.00    -0.387 OA
ATOM     30  H   UNL     1     -10.393 -18.422  16.023  1.00  0.00     0.211 HD
ENDBRANCH  21  29
ENDBRANCH   1  16
TORSDOF 10
ENDMDL
MODEL 4
REMARK VINA RESULT:    -4.987      1.822      5.919
REMARK INTER + INTRA:          -8.490
REMARK INTER:                  -7.363
REMARK INTRA:                  -1.127
REMARK UNBOUND:                -1.462
REMARK SMILES OCC1=C[C@@H](O)[C@@H]2C=CO[C@H](O[C@H]3O[C@@H](CO)[C@@H](O)[C@@H](O)[C@@H]3O)[C@H]12
REMARK SMILES IDX 12 1 11 2 8 3 9 4 7 5 10 6 24 7 5 8 3 9 4 10 6 11 2 13 1 14
REMARK SMILES IDX 13 16 22 17 14 18 20 19 15 20 18 21 23 22 21 24 16 26 17 27
REMARK SMILES IDX 19 29
REMARK H PARENT 6 12 1 15 23 23 21 25 17 28 19 30
REMARK Flexibility Score: inf
ROOT
ATOM      1  O   UNL     1     -12.798 -19.705  13.287  1.00  0.00    -0.310 OA
ENDROOT
BRANCH   1   2
ATOM      2  C   UNL     1     -12.519 -20.965  13.888  1.00  0.00     0.316 C 
ATOM      3  C   UNL     1      -9.710 -20.940  13.388  1.00  0.00     0.018 C 
ATOM      4  C   UNL     1     -10.526 -21.648  12.609  1.00  0.00     0.186 C 
ATOM      5  C   UNL     1     -10.146 -20.445  14.746  1.00  0.00     0.061 C 
ATOM      6  O   UNL     1     -11.861 -21.843  12.969  1.00  0.00    -0.472 OA
ATOM      7  C   UNL     1     -11.613 -20.769  15.128  1.00  0.00     0.096 C 
ATOM      8  C   UNL     1     -10.029 -18.915  14.889  1.00  0.00     0.145 C 
ATOM      9  C   UNL     1     -12.022 -19.568  15.929  1.00  0.00    -0.036 C 
ATOM     10  C   UNL     1     -11.166 -18.560  15.792  1.00  0.00     0.007 C 
BRANCH   8  11
ATOM     11  O   UNL     1      -8.791 -18.525  15.430  1.00  0.00    -0.388 OA
ATOM     12  H   UNL     1      -8.763 -18.819  16.380  1.00  0.00     0.211 HD
ENDBRANCH   8  11
BRANCH   9  13
ATOM     13  C   UNL     1     -13.281 -19.480  16.742  1.00  0.00     0.187 C 
BRANCH  13  14
ATOM     14  O   UNL     1     -14.295 -18.896  15.973  1.00  0.00    -0.392 OA
ATOM     15  H   UNL     1     -13.864 -18.559  15.143  1.00  0.00     0.211 HD
ENDBRANCH  13  14
ENDBRANCH   9  13
ENDBRANCH   1   2
BRANCH   1  16
ATOM     16  C   UNL     1     -13.977 -19.734  12.497  1.00  0.00     0.286 C 
ATOM     17  C   UNL     1     -14.642 -18.345  12.556  1.00  0.00     0.202 C 
ATOM     18  O   UNL     1     -14.881 -20.722  12.976  1.00  0.00    -0.341 OA
ATOM     19  C   UNL     1     -15.919 -18.359  11.698  1.00  0.00     0.179 C 
ATOM     20  C   UNL     1     -15.970 -20.869  12.077  1.00  0.00     0.178 C 
ATOM     21  C   UNL     1     -16.824 -19.574  12.051  1.00  0.00     0.177 C 
BRANCH  17  22
ATOM     22  O   UNL     1     -13.753 -17.379  12.051  1.00  0.00    -0.385 OA
ATOM     23  H   UNL     1     -13.729 -17.486  11.062  1.00  0.00     0.211 HD
ENDBRANCH  17  22
BRANCH  19  24
ATOM     24  O   UNL     1     -16.577 -17.114  11.781  1.00  0.00    -0.387 OA
ATOM     25  H   UNL     1     -15.907 -16.378  11.767  1.00  0.00     0.211 HD
ENDBRANCH  19  24
BRANCH  20  26
ATOM     26  C   UNL     1     -16.794 -22.093  12.498  1.00  0.00     0.191 C 
BRANCH  26  27
ATOM     27  O   UNL     1     -18.045 -22.080  11.856  1.00  0.00    -0.394 OA
ATOM     28  H   UNL     1     -18.233 -21.139  11.600  1.00  0.00     0.210 HD
ENDBRANCH  26  27
ENDBRANCH  20  26
BRANCH  21  29
ATOM     29  O   UNL     1     -17.505 -19.391  13.272  1.00  0.00    -0.387 OA
ATOM     30  H   UNL     1     -18.177 -18.674  13.146  1.00  0.00     0.211 HD
ENDBRANCH  21  29
ENDBRANCH   1  16
TORSDOF 10
ENDMDL
MODEL 5
REMARK VINA RESULT:    -4.818     12.325     14.752
REMARK INTER + INTRA:          -8.252
REMARK INTER:                  -6.674
REMARK INTRA:                  -1.577
REMARK UNBOUND:                -1.462
REMARK SMILES OCC1=C[C@@H](O)[C@@H]2C=CO[C@H](O[C@H]3O[C@@H](CO)[C@@H](O)[C@@H](O)[C@@H]3O)[C@H]12
REMARK SMILES IDX 12 1 11 2 8 3 9 4 7 5 10 6 24 7 5 8 3 9 4 10 6 11 2 13 1 14
REMARK SMILES IDX 13 16 22 17 14 18 20 19 15 20 18 21 23 22 21 24 16 26 17 27
REMARK SMILES IDX 19 29
REMARK H PARENT 6 12 1 15 23 23 21 25 17 28 19 30
REMARK Flexibility Score: inf
ROOT
ATOM      1  O   UNL     1     -18.662 -11.560   2.800  1.00  0.00    -0.310 OA
ENDROOT
BRANCH   1   2
ATOM      2  C   UNL     1     -19.888 -10.851   2.943  1.00  0.00     0.316 C 
ATOM      3  C   UNL     1     -18.725  -8.261   3.232  1.00  0.00     0.018 C 
ATOM      4  C   UNL     1     -19.149  -8.933   4.302  1.00  0.00     0.186 C 
ATOM      5  C   UNL     1     -19.162  -8.640   1.837  1.00  0.00     0.061 C 
ATOM      6  O   UNL     1     -19.911 -10.094   4.157  1.00  0.00    -0.472 OA
ATOM      7  C   UNL     1     -20.081  -9.886   1.747  1.00  0.00     0.096 C 
ATOM      8  C   UNL     1     -17.977  -8.954   0.904  1.00  0.00     0.145 C 
ATOM      9  C   UNL     1     -19.661 -10.516   0.453  1.00  0.00    -0.036 C 
ATOM     10  C   UNL     1     -18.516 -10.016   0.000  1.00  0.00     0.007 C 
BRANCH   8  11
ATOM     11  O   UNL     1     -17.552  -7.823   0.185  1.00  0.00    -0.388 OA
ATOM     12  H   UNL     1     -18.285  -7.151   0.205  1.00  0.00     0.211 HD
ENDBRANCH   8  11
BRANCH   9  13
ATOM     13  C   UNL     1     -20.405 -11.628  -0.229  1.00  0.00     0.187 C 
BRANCH  13  14
ATOM     14  O   UNL     1     -19.828 -12.857   0.115  1.00  0.00    -0.392 OA
ATOM     15  H   UNL     1     -20.553 -13.535   0.067  1.00  0.00     0.211 HD
ENDBRANCH  13  14
ENDBRANCH   9  13
ENDBRANCH   1   2
BRANCH   1  16
ATOM     16  C   UNL     1     -18.659 -12.780   3.526  1.00  0.00     0.286 C 
ATOM     17  C   UNL     1     -17.376 -12.840   4.380  1.00  0.00     0.202 C 
ATOM     18  O   UNL     1     -18.699 -13.894   2.643  1.00  0.00    -0.341 OA
ATOM     19  C   UNL     1     -17.360 -14.154   5.179  1.00  0.00     0.179 C 
ATOM     20  C   UNL     1     -18.879 -15.096   3.375  1.00  0.00     0.178 C 
ATOM     21  C   UNL     1     -17.635 -15.378   4.258  1.00  0.00     0.177 C 
BRANCH  17  22
ATOM     22  O   UNL     1     -17.359 -11.753   5.273  1.00  0.00    -0.385 OA
ATOM     23  H   UNL     1     -18.278 -11.658   5.643  1.00  0.00     0.211 HD
ENDBRANCH  17  22
BRANCH  19  24
ATOM     24  O   UNL     1     -16.169 -14.258   5.926  1.00  0.00    -0.387 OA
ATOM     25  H   UNL     1     -15.805 -13.349   6.107  1.00  0.00     0.211 HD
ENDBRANCH  19  24
BRANCH  20  26
ATOM     26  C   UNL     1     -19.153 -16.238   2.387  1.00  0.00     0.191 C 
BRANCH  26  27
ATOM     27  O   UNL     1     -19.522 -15.718   1.134  1.00  0.00    -0.394 OA
ATOM     28  H   UNL     1     -20.511 -15.625   1.134  1.00  0.00     0.210 HD
ENDBRANCH  26  27
ENDBRANCH  20  26
BRANCH  21  29
ATOM     29  O   UNL     1     -16.515 -15.708   3.467  1.00  0.00    -0.387 OA
ATOM     30  H   UNL     1     -16.573 -15.195   2.622  1.00  0.00     0.211 HD
ENDBRANCH  21  29
ENDBRANCH   1  16
TORSDOF 10
ENDMDL
MODEL 6
REMARK VINA RESULT:    -4.805      2.144      4.515
REMARK INTER + INTRA:          -8.234
REMARK INTER:                  -7.182
REMARK INTRA:                  -1.052
REMARK UNBOUND:                -1.462
REMARK SMILES OCC1=C[C@@H](O)[C@@H]2C=CO[C@H](O[C@H]3O[C@@H](CO)[C@@H](O)[C@@H](O)[C@@H]3O)[C@H]12
REMARK SMILES IDX 12 1 11 2 8 3 9 4 7 5 10 6 24 7 5 8 3 9 4 10 6 11 2 13 1 14
REMARK SMILES IDX 13 16 22 17 14 18 20 19 15 20 18 21 23 22 21 24 16 26 17 27
REMARK SMILES IDX 19 29
REMARK H PARENT 6 12 1 15 23 23 21 25 17 28 19 30
REMARK Flexibility Score: inf
ROOT
ATOM      1  O   UNL     1     -14.047 -18.410  12.105  1.00  0.00    -0.310 OA
ENDROOT
BRANCH   1   2
ATOM      2  C   UNL     1     -14.068 -18.049  13.481  1.00  0.00     0.316 C 
ATOM      3  C   UNL     1     -14.715 -15.299  13.078  1.00  0.00     0.018 C 
ATOM      4  C   UNL     1     -13.460 -15.665  13.336  1.00  0.00     0.186 C 
ATOM      5  C   UNL     1     -15.879 -16.220  13.352  1.00  0.00     0.061 C 
ATOM      6  O   UNL     1     -13.170 -16.967  13.748  1.00  0.00    -0.472 OA
ATOM      7  C   UNL     1     -15.499 -17.623  13.892  1.00  0.00     0.096 C 
ATOM      8  C   UNL     1     -16.729 -16.498  12.097  1.00  0.00     0.145 C 
ATOM      9  C   UNL     1     -16.540 -18.510  13.276  1.00  0.00    -0.036 C 
ATOM     10  C   UNL     1     -17.201 -17.902  12.297  1.00  0.00     0.007 C 
BRANCH   8  11
ATOM     11  O   UNL     1     -17.804 -15.598  11.974  1.00  0.00    -0.388 OA
ATOM     12  H   UNL     1     -17.675 -14.870  12.640  1.00  0.00     0.211 HD
ENDBRANCH   8  11
BRANCH   9  13
ATOM     13  C   UNL     1     -16.773 -19.941  13.667  1.00  0.00     0.187 C 
BRANCH  13  14
ATOM     14  O   UNL     1     -17.509 -20.586  12.666  1.00  0.00    -0.392 OA
ATOM     15  H   UNL     1     -18.374 -20.101  12.591  1.00  0.00     0.211 HD
ENDBRANCH  13  14
ENDBRANCH   9  13
ENDBRANCH   1   2
BRANCH   1  16
ATOM     16  C   UNL     1     -13.268 -19.573  11.865  1.00  0.00     0.286 C 
ATOM     17  C   UNL     1     -14.194 -20.681  11.325  1.00  0.00     0.202 C 
ATOM     18  O   UNL     1     -12.638 -20.014  13.062  1.00  0.00    -0.341 OA
ATOM     19  C   UNL     1     -13.364 -21.947  11.054  1.00  0.00     0.179 C 
ATOM     20  C   UNL     1     -11.724 -21.062  12.779  1.00  0.00     0.178 C 
ATOM     21  C   UNL     1     -12.484 -22.320  12.282  1.00  0.00     0.177 C 
BRANCH  17  22
ATOM     22  O   UNL     1     -14.788 -20.249  10.125  1.00  0.00    -0.385 OA
ATOM     23  H   UNL     1     -15.349 -19.456  10.340  1.00  0.00     0.211 HD
ENDBRANCH  17  22
BRANCH  19  24
ATOM     24  O   UNL     1     -14.198 -22.994  10.611  1.00  0.00    -0.387 OA
ATOM     25  H   UNL     1     -14.084 -23.122   9.630  1.00  0.00     0.211 HD
ENDBRANCH  19  24
BRANCH  20  26
ATOM     26  C   UNL     1     -10.899 -21.349  14.040  1.00  0.00     0.191 C 
BRANCH  26  27
ATOM     27  O   UNL     1     -11.666 -21.093  15.191  1.00  0.00    -0.394 OA
ATOM     28  H   UNL     1     -12.130 -21.939  15.428  1.00  0.00     0.210 HD
ENDBRANCH  26  27
ENDBRANCH  20  26
BRANCH  21  29
ATOM     29  O   UNL     1     -13.243 -22.896  13.321  1.00  0.00    -0.387 OA
ATOM     30  H   UNL     1     -13.095 -23.876  13.304  1.00  0.00     0.211 HD
ENDBRANCH  21  29
ENDBRANCH   1  16
TORSDOF 10
ENDMDL
MODEL 7
REMARK VINA RESULT:    -4.776      1.982      5.908
REMARK INTER + INTRA:          -8.192
REMARK INTER:                  -6.799
REMARK INTRA:                  -1.393
REMARK UNBOUND:                -1.462
REMARK SMILES OCC1=C[C@@H](O)[C@@H]2C=CO[C@H](O[C@H]3O[C@@H](CO)[C@@H](O)[C@@H](O)[C@@H]3O)[C@H]12
REMARK SMILES IDX 12 1 11 2 8 3 9 4 7 5 10 6 24 7 5 8 3 9 4 10 6 11 2 13 1 14
REMARK SMILES IDX 13 16 22 17 14 18 20 19 15 20 18 21 23 22 21 24 16 26 17 27
REMARK SMILES IDX 19 29
REMARK H PARENT 6 12 1 15 23 23 21 25 17 28 19 30
REMARK Flexibility Score: inf
ROOT
ATOM      1  O   UNL     1     -11.837 -20.490  13.304  1.00  0.00    -0.310 OA
ENDROOT
BRANCH   1   2
ATOM      2  C   UNL     1     -11.088 -21.172  14.304  1.00  0.00     0.316 C 
ATOM      3  C   UNL     1      -8.604 -19.865  13.786  1.00  0.00     0.018 C 
ATOM      4  C   UNL     1      -8.831 -21.091  13.316  1.00  0.00     0.186 C 
ATOM      5  C   UNL     1      -9.447 -19.273  14.890  1.00  0.00     0.061 C 
ATOM      6  O   UNL     1      -9.943 -21.821  13.743  1.00  0.00    -0.472 OA
ATOM      7  C   UNL     1     -10.614 -20.168  15.384  1.00  0.00     0.096 C 
ATOM      8  C   UNL     1     -10.113 -17.944  14.486  1.00  0.00     0.145 C 
ATOM      9  C   UNL     1     -11.681 -19.169  15.718  1.00  0.00    -0.036 C 
ATOM     10  C   UNL     1     -11.413 -17.965  15.224  1.00  0.00     0.007 C 
BRANCH   8  11
ATOM     11  O   UNL     1      -9.331 -16.829  14.837  1.00  0.00    -0.388 OA
ATOM     12  H   UNL     1      -8.805 -16.557  14.038  1.00  0.00     0.211 HD
ENDBRANCH   8  11
BRANCH   9  13
ATOM     13  C   UNL     1     -12.941 -19.493  16.468  1.00  0.00     0.187 C 
BRANCH  13  14
ATOM     14  O   UNL     1     -14.041 -18.961  15.785  1.00  0.00    -0.392 OA
ATOM     15  H   UNL     1     -14.410 -18.238  16.359  1.00  0.00     0.211 HD
ENDBRANCH  13  14
ENDBRANCH   9  13
ENDBRANCH   1   2
BRANCH   1  16
ATOM     16  C   UNL     1     -13.091 -21.109  13.056  1.00  0.00     0.286 C 
ATOM     17  C   UNL     1     -13.044 -21.772  11.665  1.00  0.00     0.202 C 
ATOM     18  O   UNL     1     -14.143 -20.153  13.098  1.00  0.00    -0.341 OA
ATOM     19  C   UNL     1     -14.394 -22.453  11.384  1.00  0.00     0.179 C 
ATOM     20  C   UNL     1     -15.402 -20.804  13.031  1.00  0.00     0.178 C 
ATOM     21  C   UNL     1     -15.582 -21.484  11.648  1.00  0.00     0.177 C 
BRANCH  17  22
ATOM     22  O   UNL     1     -12.022 -22.738  11.643  1.00  0.00    -0.385 OA
ATOM     23  H   UNL     1     -11.429 -22.526  10.873  1.00  0.00     0.211 HD
ENDBRANCH  17  22
BRANCH  19  24
ATOM     24  O   UNL     1     -14.397 -23.020  10.093  1.00  0.00    -0.387 OA
ATOM     25  H   UNL     1     -13.475 -23.312   9.852  1.00  0.00     0.211 HD
ENDBRANCH  19  24
BRANCH  20  26
ATOM     26  C   UNL     1     -16.504 -19.774  13.314  1.00  0.00     0.191 C 
BRANCH  26  27
ATOM     27  O   UNL     1     -17.660 -20.086  12.575  1.00  0.00    -0.394 OA
ATOM     28  H   UNL     1     -17.967 -20.981  12.875  1.00  0.00     0.210 HD
ENDBRANCH  26  27
ENDBRANCH  20  26
BRANCH  21  29
ATOM     29  O   UNL     1     -15.720 -20.523  10.625  1.00  0.00    -0.387 OA
ATOM     30  H   UNL     1     -16.046 -19.682  11.033  1.00  0.00     0.211 HD
ENDBRANCH  21  29
ENDBRANCH   1  16
TORSDOF 10
ENDMDL
MODEL 8
REMARK VINA RESULT:    -4.772      2.413      4.669
REMARK INTER + INTRA:          -8.187
REMARK INTER:                  -6.794
REMARK INTRA:                  -1.393
REMARK UNBOUND:                -1.462
REMARK SMILES OCC1=C[C@@H](O)[C@@H]2C=CO[C@H](O[C@H]3O[C@@H](CO)[C@@H](O)[C@@H](O)[C@@H]3O)[C@H]12
REMARK SMILES IDX 12 1 11 2 8 3 9 4 7 5 10 6 24 7 5 8 3 9 4 10 6 11 2 13 1 14
REMARK SMILES IDX 13 16 22 17 14 18 20 19 15 20 18 21 23 22 21 24 16 26 17 27
REMARK SMILES IDX 19 29
REMARK H PARENT 6 12 1 15 23 23 21 25 17 28 19 30
REMARK Flexibility Score: inf
ROOT
ATOM      1  O   UNL     1     -14.171 -20.733  12.533  1.00  0.00    -0.310 OA
ENDROOT
BRANCH   1   2
ATOM      2  C   UNL     1     -14.907 -19.617  12.045  1.00  0.00     0.316 C 
ATOM      3  C   UNL     1     -16.923 -19.658  14.064  1.00  0.00     0.018 C 
ATOM      4  C   UNL     1     -17.167 -20.170  12.859  1.00  0.00     0.186 C 
ATOM      5  C   UNL     1     -15.761 -18.725  14.306  1.00  0.00     0.061 C 
ATOM      6  O   UNL     1     -16.275 -19.962  11.804  1.00  0.00    -0.472 OA
ATOM      7  C   UNL     1     -14.857 -18.461  13.074  1.00  0.00     0.096 C 
ATOM      8  C   UNL     1     -14.802 -19.235  15.398  1.00  0.00     0.145 C 
ATOM      9  C   UNL     1     -13.494 -18.323  13.685  1.00  0.00    -0.036 C 
ATOM     10  C   UNL     1     -13.463 -18.750  14.943  1.00  0.00     0.007 C 
BRANCH   8  11
ATOM     11  O   UNL     1     -15.133 -18.737  16.672  1.00  0.00    -0.388 OA
ATOM     12  H   UNL     1     -16.036 -18.324  16.616  1.00  0.00     0.211 HD
ENDBRANCH   8  11
BRANCH   9  13
ATOM     13  C   UNL     1     -12.283 -17.821  12.952  1.00  0.00     0.187 C 
BRANCH  13  14
ATOM     14  O   UNL     1     -11.182 -18.629  13.260  1.00  0.00    -0.392 OA
ATOM     15  H   UNL     1     -10.440 -18.016  13.507  1.00  0.00     0.211 HD
ENDBRANCH  13  14
ENDBRANCH   9  13
ENDBRANCH   1   2
BRANCH   1  16
ATOM     16  C   UNL     1     -13.185 -21.172  11.611  1.00  0.00     0.286 C 
ATOM     17  C   UNL     1     -13.634 -22.521  11.016  1.00  0.00     0.202 C 
ATOM     18  O   UNL     1     -11.925 -21.325  12.253  1.00  0.00    -0.341 OA
ATOM     19  C   UNL     1     -12.577 -23.007  10.009  1.00  0.00     0.179 C 
ATOM     20  C   UNL     1     -10.912 -21.585  11.295  1.00  0.00     0.178 C 
ATOM     21  C   UNL     1     -11.148 -22.964  10.624  1.00  0.00     0.177 C 
BRANCH  17  22
ATOM     22  O   UNL     1     -14.864 -22.354  10.355  1.00  0.00    -0.385 OA
ATOM     23  H   UNL     1     -14.702 -21.761   9.573  1.00  0.00     0.211 HD
ENDBRANCH  17  22
BRANCH  19  24
ATOM     24  O   UNL     1     -12.938 -24.268   9.492  1.00  0.00    -0.387 OA
ATOM     25  H   UNL     1     -12.158 -24.676   9.025  1.00  0.00     0.211 HD
ENDBRANCH  19  24
BRANCH  20  26
ATOM     26  C   UNL     1      -9.546 -21.511  11.990  1.00  0.00     0.191 C 
BRANCH  26  27
ATOM     27  O   UNL     1      -9.599 -22.159  13.237  1.00  0.00    -0.394 OA
ATOM     28  H   UNL     1     -10.446 -22.678  13.261  1.00  0.00     0.210 HD
ENDBRANCH  26  27
ENDBRANCH  20  26
BRANCH  21  29
ATOM     29  O   UNL     1     -10.933 -24.016  11.538  1.00  0.00    -0.387 OA
ATOM     30  H   UNL     1     -10.026 -24.383  11.378  1.00  0.00     0.211 HD
ENDBRANCH  21  29
ENDBRANCH   1  16
TORSDOF 10
ENDMDL
MODEL 9
REMARK VINA RESULT:    -2.534      2.104      3.387
REMARK INTER + INTRA:          -5.033
REMARK INTER:                  -3.756
REMARK INTRA:                  -1.277
REMARK UNBOUND:                -1.462
REMARK SMILES OCC1=C[C@@H](O)[C@@H]2C=CO[C@H](O[C@H]3O[C@@H](CO)[C@@H](O)[C@@H](O)[C@@H]3O)[C@H]12
REMARK SMILES IDX 12 1 11 2 8 3 9 4 7 5 10 6 24 7 5 8 3 9 4 10 6 11 2 13 1 14
REMARK SMILES IDX 13 16 22 17 14 18 20 19 15 20 18 21 23 22 21 24 16 26 17 27
REMARK SMILES IDX 19 29
REMARK H PARENT 6 12 1 15 23 23 21 25 17 28 19 30
REMARK Flexibility Score: inf
ROOT
ATOM      1  O   UNL     1     -13.579 -17.769  12.749  1.00  0.00    -0.310 OA
ENDROOT
BRANCH   1   2
ATOM      2  C   UNL     1     -13.977 -16.741  13.649  1.00  0.00     0.316 C 
ATOM      3  C   UNL     1     -15.652 -15.340  11.813  1.00  0.00     0.018 C 
ATOM      4  C   UNL     1     -14.421 -14.900  12.073  1.00  0.00     0.186 C 
ATOM      5  C   UNL     1     -16.344 -16.333  12.717  1.00  0.00     0.061 C 
ATOM      6  O   UNL     1     -13.678 -15.445  13.122  1.00  0.00    -0.472 OA
ATOM      7  C   UNL     1     -15.499 -16.835  13.917  1.00  0.00     0.096 C 
ATOM      8  C   UNL     1     -16.778 -17.612  11.977  1.00  0.00     0.145 C 
ATOM      9  C   UNL     1     -15.949 -18.257  14.069  1.00  0.00    -0.036 C 
ATOM     10  C   UNL     1     -16.635 -18.681  13.012  1.00  0.00     0.007 C 
BRANCH   8  11
ATOM     11  O   UNL     1     -18.096 -17.525  11.494  1.00  0.00    -0.388 OA
ATOM     12  H   UNL     1     -18.057 -17.456  10.502  1.00  0.00     0.211 HD
ENDBRANCH   8  11
BRANCH   9  13
ATOM     13  C   UNL     1     -15.614 -19.132  15.242  1.00  0.00     0.187 C 
BRANCH  13  14
ATOM     14  O   UNL     1     -14.397 -18.722  15.799  1.00  0.00    -0.392 OA
ATOM     15  H   UNL     1     -14.372 -17.731  15.732  1.00  0.00     0.211 HD
ENDBRANCH  13  14
ENDBRANCH   9  13
ENDBRANCH   1   2
BRANCH   1  16
ATOM     16  C   UNL     1     -12.421 -18.458  13.196  1.00  0.00     0.286 C 
ATOM     17  C   UNL     1     -12.695 -19.974  13.127  1.00  0.00     0.202 C 
ATOM     18  O   UNL     1     -12.097 -18.089  14.530  1.00  0.00    -0.341 OA
ATOM     19  C   UNL     1     -11.447 -20.736  13.603  1.00  0.00     0.179 C 
ATOM     20  C   UNL     1     -10.844 -18.640  14.903  1.00  0.00     0.178 C 
ATOM     21  C   UNL     1     -10.935 -20.188  14.966  1.00  0.00     0.177 C 
BRANCH  17  22
ATOM     22  O   UNL     1     -12.983 -20.336  11.799  1.00  0.00    -0.385 OA
ATOM     23  H   UNL     1     -13.344 -21.263  11.815  1.00  0.00     0.211 HD
ENDBRANCH  17  22
BRANCH  19  24
ATOM     24  O   UNL     1     -11.692 -22.125  13.602  1.00  0.00    -0.387 OA
ATOM     25  H   UNL     1     -11.939 -22.423  14.519  1.00  0.00     0.211 HD
ENDBRANCH  19  24
BRANCH  20  26
ATOM     26  C   UNL     1     -10.419 -18.034  16.248  1.00  0.00     0.191 C 
BRANCH  26  27
ATOM     27  O   UNL     1     -11.517 -17.983  17.125  1.00  0.00    -0.394 OA
ATOM     28  H   UNL     1     -11.819 -18.918  17.271  1.00  0.00     0.210 HD
ENDBRANCH  26  27
ENDBRANCH  20  26
BRANCH  21  29
ATOM     29  O   UNL     1     -11.744 -20.605  16.042  1.00  0.00    -0.387 OA
ATOM     30  H   UNL     1     -12.608 -20.123  15.984  1.00  0.00     0.211 HD
ENDBRANCH  21  29
ENDBRANCH   1  16
TORSDOF 10
ENDMDL
