MODEL 1
REMARK VINA RESULT:    -3.655      0.000      0.000
REMARK INTER + INTRA:          -4.326
REMARK INTER:                  -5.150
REMARK INTRA:                   0.824
REMARK UNBOUND:                 0.824
REMARK SMILES CC1=CCC(=C(C)C)C(=O)CC(C)=CCC1
REMARK SMILES IDX 12 1 14 2 13 3 15 4 16 5 2 6 1 7 3 8 11 10 9 11 10 12 5 13
REMARK SMILES IDX 6 14 7 15 8 16 4 17
REMARK H PARENT
REMARK Flexibility Score: 60.00
ROOT
ATOM      1  C   UNL     1     165.462 200.305 304.459  1.00  0.00    -0.070 C 
ATOM      2  C   UNL     1     164.632 201.225 305.015  1.00  0.00    -0.027 C 
ATOM      3  C   UNL     1     166.591 199.785 305.316  1.00  0.00     0.039 C 
ENDROOT
BRANCH   2   4
ATOM      4  C   UNL     1     163.508 201.950 304.314  1.00  0.00     0.032 C 
BRANCH   4   5
ATOM      5  C   UNL     1     163.991 203.107 303.429  1.00  0.00     0.034 C 
BRANCH   5   6
ATOM      6  C   UNL     1     163.768 202.776 301.966  1.00  0.00    -0.077 C 
ATOM      7  C   UNL     1     162.373 202.899 301.410  1.00  0.00     0.039 C 
ATOM      8  C   UNL     1     164.769 202.451 301.114  1.00  0.00    -0.023 CG0
ATOM      9  G   UNL     1     166.221 202.266 301.489  1.00  0.00     0.000 G0
ENDBRANCH   5   6
ENDBRANCH   4   5
ENDBRANCH   2   4
BRANCH   1  10
ATOM     10  C   UNL     1     165.282 199.710 303.065  1.00  0.00     0.111 C 
BRANCH  10  11
ATOM     11  C   UNL     1     166.516 199.784 302.203  1.00  0.00     0.163 C 
ATOM     12  O   UNL     1     167.373 198.865 302.330  1.00  0.00    -0.294 OA
BRANCH  11  13
ATOM     13  C   UNL     1     166.727 200.859 301.177  1.00  0.00    -0.002 C 
ATOM     14  C   UNL     1     167.404 200.594 300.016  1.00  0.00    -0.069 C 
ATOM     15  C   UNL     1     167.714 201.682 299.010  1.00  0.00     0.039 C 
ATOM     16  C   UNL     1     167.835 199.192 299.647  1.00  0.00     0.039 C 
BRANCH  13  17
ATOM     17  C   UNL     1     166.222 202.269 301.477  1.00  0.00     0.066 CG0
ATOM     18  G   UNL     1     164.764 202.440 301.121  1.00  0.00     0.000 G0
ENDBRANCH  13  17
ENDBRANCH  11  13
ENDBRANCH  10  11
ENDBRANCH   1  10
TORSDOF 0
ENDMDL
MODEL 2
REMARK VINA RESULT:    -3.474      1.783      4.228
REMARK INTER + INTRA:          -4.072
REMARK INTER:                  -4.581
REMARK INTRA:                   0.509
REMARK UNBOUND:                 0.824
REMARK SMILES CC1=CCC(=C(C)C)C(=O)CC(C)=CCC1
REMARK SMILES IDX 12 1 14 2 13 3 15 4 16 5 2 6 1 7 3 8 11 10 9 11 10 12 5 13
REMARK SMILES IDX 6 14 7 15 8 16 4 17
REMARK H PARENT
REMARK Flexibility Score: 60.00
ROOT
ATOM      1  C   UNL     1     165.981 199.961 301.545  1.00  0.00    -0.070 C 
ATOM      2  C   UNL     1     165.483 201.090 300.978  1.00  0.00    -0.027 C 
ATOM      3  C   UNL     1     167.305 199.454 301.026  1.00  0.00     0.039 C 
ENDROOT
BRANCH   2   4
ATOM      4  C   UNL     1     164.139 201.714 301.267  1.00  0.00     0.032 C 
BRANCH   4   5
ATOM      5  C   UNL     1     164.214 202.888 302.253  1.00  0.00     0.034 C 
BRANCH   5   6
ATOM      6  C   UNL     1     163.390 202.586 303.490  1.00  0.00    -0.077 C 
ATOM      7  C   UNL     1     161.903 202.829 303.435  1.00  0.00     0.039 C 
ATOM      8  C   UNL     1     163.907 202.038 304.615  1.00  0.00    -0.023 CG0
ATOM      9  G   UNL     1     165.367 201.740 304.859  1.00  0.00     0.000 G0
ENDBRANCH   5   6
ENDBRANCH   4   5
ENDBRANCH   2   4
BRANCH   1  10
ATOM     10  C   UNL     1     165.335 199.225 302.715  1.00  0.00     0.111 C 
BRANCH  10  11
ATOM     11  C   UNL     1     166.085 199.361 304.015  1.00  0.00     0.163 C 
ATOM     12  O   UNL     1     167.183 198.747 304.123  1.00  0.00    -0.294 OA
BRANCH  11  13
ATOM     13  C   UNL     1     165.609 200.233 305.140  1.00  0.00    -0.002 C 
ATOM     14  C   UNL     1     165.350 199.701 306.375  1.00  0.00    -0.069 C 
ATOM     15  C   UNL     1     164.778 200.540 307.498  1.00  0.00     0.039 C 
ATOM     16  C   UNL     1     165.669 198.260 306.705  1.00  0.00     0.039 C 
BRANCH  13  17
ATOM     17  C   UNL     1     165.364 201.716 304.866  1.00  0.00     0.066 CG0
ATOM     18  G   UNL     1     163.903 202.019 304.632  1.00  0.00     0.000 G0
ENDBRANCH  13  17
ENDBRANCH  11  13
ENDBRANCH  10  11
ENDBRANCH   1  10
TORSDOF 0
ENDMDL
MODEL 3
REMARK VINA RESULT:    -3.308      1.583      3.690
REMARK INTER + INTRA:          -3.838
REMARK INTER:                  -4.597
REMARK INTRA:                   0.759
REMARK UNBOUND:                 0.824
REMARK SMILES CC1=CCC(=C(C)C)C(=O)CC(C)=CCC1
REMARK SMILES IDX 12 1 14 2 13 3 15 4 16 5 2 6 1 7 3 8 11 10 9 11 10 12 5 13
REMARK SMILES IDX 6 14 7 15 8 16 4 17
REMARK H PARENT
REMARK Flexibility Score: 60.00
ROOT
ATOM      1  C   UNL     1     164.103 202.484 300.873  1.00  0.00    -0.070 C 
ATOM      2  C   UNL     1     163.671 202.069 302.091  1.00  0.00    -0.027 C 
ATOM      3  C   UNL     1     163.113 202.430 299.734  1.00  0.00     0.039 C 
ENDROOT
BRANCH   2   4
ATOM      4  C   UNL     1     164.512 201.942 303.339  1.00  0.00     0.032 C 
BRANCH   4   5
ATOM      5  C   UNL     1     164.548 200.515 303.904  1.00  0.00     0.034 C 
BRANCH   5   6
ATOM      6  C   UNL     1     165.979 200.019 303.983  1.00  0.00    -0.077 C 
ATOM      7  C   UNL     1     166.616 199.889 305.343  1.00  0.00     0.039 C 
ATOM      8  C   UNL     1     166.689 199.614 302.903  1.00  0.00    -0.023 CG0
ATOM      9  G   UNL     1     166.226 199.683 301.467  1.00  0.00     0.000 G0
ENDBRANCH   5   6
ENDBRANCH   4   5
ENDBRANCH   2   4
BRANCH   1  10
ATOM     10  C   UNL     1     165.486 203.067 300.599  1.00  0.00     0.111 C 
BRANCH  10  11
ATOM     11  C   UNL     1     166.621 202.241 301.150  1.00  0.00     0.163 C 
ATOM     12  O   UNL     1     167.330 202.755 302.059  1.00  0.00    -0.294 OA
BRANCH  11  13
ATOM     13  C   UNL     1     166.892 200.834 300.704  1.00  0.00    -0.002 C 
ATOM     14  C   UNL     1     167.671 200.587 299.605  1.00  0.00    -0.069 C 
ATOM     15  C   UNL     1     167.881 199.184 299.078  1.00  0.00     0.039 C 
ATOM     16  C   UNL     1     168.408 201.695 298.885  1.00  0.00     0.039 C 
BRANCH  13  17
ATOM     17  C   UNL     1     166.236 199.683 301.466  1.00  0.00     0.066 CG0
ATOM     18  G   UNL     1     166.708 199.606 302.899  1.00  0.00     0.000 G0
ENDBRANCH  13  17
ENDBRANCH  11  13
ENDBRANCH  10  11
ENDBRANCH   1  10
TORSDOF 0
ENDMDL
MODEL 4
REMARK VINA RESULT:    -3.173      1.587      3.786
REMARK INTER + INTRA:          -3.648
REMARK INTER:                  -4.456
REMARK INTRA:                   0.808
REMARK UNBOUND:                 0.824
REMARK SMILES CC1=CCC(=C(C)C)C(=O)CC(C)=CCC1
REMARK SMILES IDX 12 1 14 2 13 3 15 4 16 5 2 6 1 7 3 8 11 10 9 11 10 12 5 13
REMARK SMILES IDX 6 14 7 15 8 16 4 17
REMARK H PARENT
REMARK Flexibility Score: 60.00
ROOT
ATOM      1  C   UNL     1     165.788 199.743 304.258  1.00  0.00    -0.070 C 
ATOM      2  C   UNL     1     166.707 199.008 303.582  1.00  0.00    -0.027 C 
ATOM      3  C   UNL     1     165.826 199.678 305.766  1.00  0.00     0.039 C 
ENDROOT
BRANCH   2   4
ATOM      4  C   UNL     1     166.789 198.843 302.083  1.00  0.00     0.032 C 
BRANCH   4   5
ATOM      5  C   UNL     1     168.009 199.536 301.461  1.00  0.00     0.034 C 
BRANCH   5   6
ATOM      6  C   UNL     1     167.676 200.035 300.069  1.00  0.00    -0.077 C 
ATOM      7  C   UNL     1     167.909 199.109 298.903  1.00  0.00     0.039 C 
ATOM      8  C   UNL     1     167.108 201.240 299.825  1.00  0.00    -0.023 CG0
ATOM      9  G   UNL     1     166.816 202.303 300.858  1.00  0.00     0.000 G0
ENDBRANCH   5   6
ENDBRANCH   4   5
ENDBRANCH   2   4
BRANCH   1  10
ATOM     10  C   UNL     1     164.780 200.681 303.602  1.00  0.00     0.111 C 
BRANCH  10  11
ATOM     11  C   UNL     1     165.395 201.924 303.009  1.00  0.00     0.163 C 
ATOM     12  O   UNL     1     165.914 202.755 303.804  1.00  0.00    -0.294 OA
BRANCH  11  13
ATOM     13  C   UNL     1     165.461 202.171 301.530  1.00  0.00    -0.002 C 
ATOM     14  C   UNL     1     164.318 202.210 300.776  1.00  0.00    -0.069 C 
ATOM     15  C   UNL     1     164.364 202.362 299.271  1.00  0.00     0.039 C 
ATOM     16  C   UNL     1     162.945 202.157 301.407  1.00  0.00     0.039 C 
BRANCH  13  17
ATOM     17  C   UNL     1     166.832 202.322 300.872  1.00  0.00     0.066 CG0
ATOM     18  G   UNL     1     167.088 201.250 299.838  1.00  0.00     0.000 G0
ENDBRANCH  13  17
ENDBRANCH  11  13
ENDBRANCH  10  11
ENDBRANCH   1  10
TORSDOF 0
ENDMDL
MODEL 5
REMARK VINA RESULT:    -2.849      1.963      4.868
REMARK INTER + INTRA:          -3.192
REMARK INTER:                  -3.707
REMARK INTRA:                   0.515
REMARK UNBOUND:                 0.824
REMARK SMILES CC1=CCC(=C(C)C)C(=O)CC(C)=CCC1
REMARK SMILES IDX 12 1 14 2 13 3 15 4 16 5 2 6 1 7 3 8 11 10 9 11 10 12 5 13
REMARK SMILES IDX 6 14 7 15 8 16 4 17
REMARK H PARENT
REMARK Flexibility Score: 60.00
ROOT
ATOM      1  C   UNL     1     166.783 202.690 301.735  1.00  0.00    -0.070 C 
ATOM      2  C   UNL     1     167.580 202.153 300.775  1.00  0.00    -0.027 C 
ATOM      3  C   UNL     1     167.428 203.034 303.056  1.00  0.00     0.039 C 
ENDROOT
BRANCH   2   4
ATOM      4  C   UNL     1     167.131 201.642 299.427  1.00  0.00     0.032 C 
BRANCH   4   5
ATOM      5  C   UNL     1     166.802 200.143 299.424  1.00  0.00     0.034 C 
BRANCH   5   6
ATOM      6  C   UNL     1     167.366 199.480 300.665  1.00  0.00    -0.077 C 
ATOM      7  C   UNL     1     168.843 199.183 300.710  1.00  0.00     0.039 C 
ATOM      8  C   UNL     1     166.626 199.211 301.768  1.00  0.00    -0.023 CG0
ATOM      9  G   UNL     1     165.137 199.424 301.904  1.00  0.00     0.000 G0
ENDBRANCH   5   6
ENDBRANCH   4   5
ENDBRANCH   2   4
BRANCH   1  10
ATOM     10  C   UNL     1     165.310 203.036 301.539  1.00  0.00     0.111 C 
BRANCH  10  11
ATOM     11  C   UNL     1     164.367 201.895 301.826  1.00  0.00     0.163 C 
ATOM     12  O   UNL     1     163.219 201.941 301.305  1.00  0.00    -0.294 OA
BRANCH  11  13
ATOM     13  C   UNL     1     164.763 200.702 302.646  1.00  0.00    -0.002 C 
ATOM     14  C   UNL     1     164.853 200.790 304.010  1.00  0.00    -0.069 C 
ATOM     15  C   UNL     1     165.342 199.631 304.852  1.00  0.00     0.039 C 
ATOM     16  C   UNL     1     164.419 202.031 304.759  1.00  0.00     0.039 C 
BRANCH  13  17
ATOM     17  C   UNL     1     165.119 199.402 301.927  1.00  0.00     0.066 CG0
ATOM     18  G   UNL     1     166.612 199.220 301.785  1.00  0.00     0.000 G0
ENDBRANCH  13  17
ENDBRANCH  11  13
ENDBRANCH  10  11
ENDBRANCH   1  10
TORSDOF 0
ENDMDL
MODEL 6
REMARK VINA RESULT:    -2.658      1.327      3.983
REMARK INTER + INTRA:          -2.922
REMARK INTER:                  -4.519
REMARK INTRA:                   1.598
REMARK UNBOUND:                 0.824
REMARK SMILES CC1=CCC(=C(C)C)C(=O)CC(C)=CCC1
REMARK SMILES IDX 12 1 14 2 13 3 15 4 16 5 2 6 1 7 3 8 11 10 9 11 10 12 5 13
REMARK SMILES IDX 6 14 7 15 8 16 4 17
REMARK H PARENT
REMARK Flexibility Score: 60.00
ROOT
ATOM      1  C   UNL     1     167.455 200.164 300.240  1.00  0.00    -0.070 C 
ATOM      2  C   UNL     1     167.073 201.252 299.523  1.00  0.00    -0.027 C 
ATOM      3  C   UNL     1     168.206 199.081 299.503  1.00  0.00     0.039 C 
ENDROOT
BRANCH   2   4
ATOM      4  C   UNL     1     166.230 202.399 300.026  1.00  0.00     0.032 C 
BRANCH   4   5
ATOM      5  C   UNL     1     165.008 202.688 299.143  1.00  0.00     0.034 C 
BRANCH   5   6
ATOM      6  C   UNL     1     163.733 202.326 299.879  1.00  0.00    -0.077 C 
ATOM      7  C   UNL     1     162.493 202.051 299.068  1.00  0.00     0.039 C 
ATOM      8  C   UNL     1     163.668 202.162 301.222  1.00  0.00    -0.023 CG0
ATOM      9  G   UNL     1     164.796 202.407 302.196  1.00  0.00     0.000 G0
ENDBRANCH   5   6
ENDBRANCH   4   5
ENDBRANCH   2   4
BRANCH   1  10
ATOM     10  C   UNL     1     167.246 200.003 301.742  1.00  0.00     0.111 C 
BRANCH  10  11
ATOM     11  C   UNL     1     165.799 200.005 302.164  1.00  0.00     0.163 C 
ATOM     12  O   UNL     1     165.105 198.991 301.875  1.00  0.00    -0.294 OA
BRANCH  11  13
ATOM     13  C   UNL     1     165.184 201.125 302.951  1.00  0.00    -0.002 C 
ATOM     14  C   UNL     1     164.935 200.983 304.290  1.00  0.00    -0.069 C 
ATOM     15  C   UNL     1     164.229 202.060 305.086  1.00  0.00     0.039 C 
ATOM     16  C   UNL     1     165.396 199.767 305.063  1.00  0.00     0.039 C 
BRANCH  13  17
ATOM     17  C   UNL     1     164.789 202.407 302.219  1.00  0.00     0.066 CG0
ATOM     18  G   UNL     1     163.665 202.178 301.236  1.00  0.00     0.000 G0
ENDBRANCH  13  17
ENDBRANCH  11  13
ENDBRANCH  10  11
ENDBRANCH   1  10
TORSDOF 0
ENDMDL
MODEL 7
REMARK VINA RESULT:    -2.595      1.816      4.468
REMARK INTER + INTRA:          -2.834
REMARK INTER:                  -3.488
REMARK INTRA:                   0.655
REMARK UNBOUND:                 0.824
REMARK SMILES CC1=CCC(=C(C)C)C(=O)CC(C)=CCC1
REMARK SMILES IDX 12 1 14 2 13 3 15 4 16 5 2 6 1 7 3 8 11 10 9 11 10 12 5 13
REMARK SMILES IDX 6 14 7 15 8 16 4 17
REMARK H PARENT
REMARK Flexibility Score: 60.00
ROOT
ATOM      1  C   UNL     1     165.923 199.361 302.625  1.00  0.00    -0.070 C 
ATOM      2  C   UNL     1     165.556 200.004 301.486  1.00  0.00    -0.027 C 
ATOM      3  C   UNL     1     167.246 198.633 302.611  1.00  0.00     0.039 C 
ENDROOT
BRANCH   2   4
ATOM      4  C   UNL     1     164.240 200.704 301.243  1.00  0.00     0.032 C 
BRANCH   4   5
ATOM      5  C   UNL     1     164.381 202.225 301.092  1.00  0.00     0.034 C 
BRANCH   5   6
ATOM      6  C   UNL     1     165.555 202.727 301.910  1.00  0.00    -0.077 C 
ATOM      7  C   UNL     1     166.850 203.021 301.196  1.00  0.00     0.039 C 
ATOM      8  C   UNL     1     165.480 202.998 303.234  1.00  0.00    -0.023 CG0
ATOM      9  G   UNL     1     164.279 202.755 304.117  1.00  0.00     0.000 G0
ENDBRANCH   5   6
ENDBRANCH   4   5
ENDBRANCH   2   4
BRANCH   1  10
ATOM     10  C   UNL     1     165.131 199.393 303.928  1.00  0.00     0.111 C 
BRANCH  10  11
ATOM     11  C   UNL     1     165.488 200.544 304.835  1.00  0.00     0.163 C 
ATOM     12  O   UNL     1     166.666 200.587 305.287  1.00  0.00    -0.294 OA
BRANCH  11  13
ATOM     13  C   UNL     1     164.526 201.648 305.163  1.00  0.00    -0.002 C 
ATOM     14  C   UNL     1     163.839 201.648 306.348  1.00  0.00    -0.069 C 
ATOM     15  C   UNL     1     162.794 202.696 306.661  1.00  0.00     0.039 C 
ATOM     16  C   UNL     1     164.122 200.632 307.433  1.00  0.00     0.039 C 
BRANCH  13  17
ATOM     17  C   UNL     1     164.284 202.743 304.125  1.00  0.00     0.066 CG0
ATOM     18  G   UNL     1     165.496 202.982 303.256  1.00  0.00     0.000 G0
ENDBRANCH  13  17
ENDBRANCH  11  13
ENDBRANCH  10  11
ENDBRANCH   1  10
TORSDOF 0
ENDMDL
MODEL 8
REMARK VINA RESULT:    -2.584      2.079      4.081
REMARK INTER + INTRA:          -2.817
REMARK INTER:                  -3.197
REMARK INTRA:                   0.380
REMARK UNBOUND:                 0.824
REMARK SMILES CC1=CCC(=C(C)C)C(=O)CC(C)=CCC1
REMARK SMILES IDX 12 1 14 2 13 3 15 4 16 5 2 6 1 7 3 8 11 10 9 11 10 12 5 13
REMARK SMILES IDX 6 14 7 15 8 16 4 17
REMARK H PARENT
REMARK Flexibility Score: 60.00
ROOT
ATOM      1  C   UNL     1     164.415 202.096 304.336  1.00  0.00    -0.070 C 
ATOM      2  C   UNL     1     165.067 201.079 304.958  1.00  0.00    -0.027 C 
ATOM      3  C   UNL     1     162.994 202.370 304.766  1.00  0.00     0.039 C 
ENDROOT
BRANCH   2   4
ATOM      4  C   UNL     1     166.446 200.567 304.620  1.00  0.00     0.032 C 
BRANCH   4   5
ATOM      5  C   UNL     1     166.448 199.121 304.104  1.00  0.00     0.034 C 
BRANCH   5   6
ATOM      6  C   UNL     1     166.819 199.090 302.635  1.00  0.00    -0.077 C 
ATOM      7  C   UNL     1     168.202 198.626 302.256  1.00  0.00     0.039 C 
ATOM      8  C   UNL     1     165.948 199.383 301.639  1.00  0.00    -0.023 CG0
ATOM      9  G   UNL     1     164.533 199.878 301.824  1.00  0.00     0.000 G0
ENDBRANCH   5   6
ENDBRANCH   4   5
ENDBRANCH   2   4
BRANCH   1  10
ATOM     10  C   UNL     1     165.046 203.019 303.299  1.00  0.00     0.111 C 
BRANCH  10  11
ATOM     11  C   UNL     1     165.298 202.363 301.965  1.00  0.00     0.163 C 
ATOM     12  O   UNL     1     166.360 202.668 301.355  1.00  0.00    -0.294 OA
BRANCH  11  13
ATOM     13  C   UNL     1     164.374 201.336 301.379  1.00  0.00    -0.002 C 
ATOM     14  C   UNL     1     163.369 201.705 300.525  1.00  0.00    -0.069 C 
ATOM     15  C   UNL     1     162.366 200.703 299.996  1.00  0.00     0.039 C 
ATOM     16  C   UNL     1     163.235 203.125 300.019  1.00  0.00     0.039 C 
BRANCH  13  17
ATOM     17  C   UNL     1     164.540 199.875 301.797  1.00  0.00     0.066 CG0
ATOM     18  G   UNL     1     165.965 199.397 301.644  1.00  0.00     0.000 G0
ENDBRANCH  13  17
ENDBRANCH  11  13
ENDBRANCH  10  11
ENDBRANCH   1  10
TORSDOF 0
ENDMDL
MODEL 9
REMARK VINA RESULT:    -2.552      1.808      2.664
REMARK INTER + INTRA:          -2.773
REMARK INTER:                  -3.072
REMARK INTRA:                   0.299
REMARK UNBOUND:                 0.824
REMARK SMILES CC1=CCC(=C(C)C)C(=O)CC(C)=CCC1
REMARK SMILES IDX 12 1 14 2 13 3 15 4 16 5 2 6 1 7 3 8 11 10 9 11 10 12 5 13
REMARK SMILES IDX 6 14 7 15 8 16 4 17
REMARK H PARENT
REMARK Flexibility Score: 60.00
ROOT
ATOM      1  C   UNL     1     166.311 199.139 302.395  1.00  0.00    -0.070 C 
ATOM      2  C   UNL     1     166.500 199.226 303.736  1.00  0.00    -0.027 C 
ATOM      3  C   UNL     1     167.475 198.659 301.562  1.00  0.00     0.039 C 
ENDROOT
BRANCH   2   4
ATOM      4  C   UNL     1     165.515 199.774 304.742  1.00  0.00     0.032 C 
BRANCH   4   5
ATOM      5  C   UNL     1     165.786 201.235 305.123  1.00  0.00     0.034 C 
BRANCH   5   6
ATOM      6  C   UNL     1     164.742 202.142 304.502  1.00  0.00    -0.077 C 
ATOM      7  C   UNL     1     163.445 202.349 305.241  1.00  0.00     0.039 C 
ATOM      8  C   UNL     1     164.943 202.835 303.356  1.00  0.00    -0.023 CG0
ATOM      9  G   UNL     1     166.166 202.745 302.474  1.00  0.00     0.000 G0
ENDBRANCH   5   6
ENDBRANCH   4   5
ENDBRANCH   2   4
BRANCH   1  10
ATOM     10  C   UNL     1     164.987 199.418 301.689  1.00  0.00     0.111 C 
BRANCH  10  11
ATOM     11  C   UNL     1     164.801 200.857 301.280  1.00  0.00     0.163 C 
ATOM     12  O   UNL     1     163.630 201.238 301.000  1.00  0.00    -0.294 OA
BRANCH  11  13
ATOM     13  C   UNL     1     165.929 201.846 301.252  1.00  0.00    -0.002 C 
ATOM     14  C   UNL     1     166.771 201.916 300.173  1.00  0.00    -0.069 C 
ATOM     15  C   UNL     1     167.973 202.836 300.160  1.00  0.00     0.039 C 
ATOM     16  C   UNL     1     166.519 201.118 298.913  1.00  0.00     0.039 C 
BRANCH  13  17
ATOM     17  C   UNL     1     166.158 202.735 302.473  1.00  0.00     0.066 CG0
ATOM     18  G   UNL     1     164.929 202.830 303.346  1.00  0.00     0.000 G0
ENDBRANCH  13  17
ENDBRANCH  11  13
ENDBRANCH  10  11
ENDBRANCH   1  10
TORSDOF 0
ENDMDL
