MODEL 1
REMARK VINA RESULT:    -3.657      0.000      0.000
REMARK INTER + INTRA:          -6.240
REMARK INTER:                  -5.582
REMARK INTRA:                  -0.658
REMARK UNBOUND:                -0.658
REMARK SMILES O=C([O-])CCCCCCCCC(=O)[O-]
REMARK SMILES IDX 7 1 6 2 5 3 4 4 2 5 1 6 3 7 8 8 9 9 10 10 11 11 12 12 13 13
REMARK SMILES IDX 14 14
REMARK H PARENT
REMARK Flexibility Score: inf
ROOT
ATOM      1  C   UNL     1       4.852  -4.717   1.600  1.00  0.00     0.000 C 
ENDROOT
BRANCH   1   2
ATOM      2  C   UNL     1       3.810  -5.189   2.627  1.00  0.00     0.000 C 
BRANCH   2   3
ATOM      3  C   UNL     1       2.572  -4.282   2.675  1.00  0.00     0.006 C 
BRANCH   3   4
ATOM      4  C   UNL     1       1.294  -5.088   2.428  1.00  0.00     0.053 C 
BRANCH   4   5
ATOM      5  C   UNL     1       1.300  -5.674   1.051  1.00  0.00     0.041 C 
ATOM      6  O   UNL     1       1.195  -6.918   0.890  1.00  0.00    -0.550 OA
ATOM      7  O   UNL     1       1.470  -4.848  -0.053  1.00  0.00    -0.550 OA
ENDBRANCH   4   5
ENDBRANCH   3   4
ENDBRANCH   2   3
ENDBRANCH   1   2
BRANCH   1   8
ATOM      8  C   UNL     1       4.559  -3.307   1.065  1.00  0.00     0.000 C 
BRANCH   8   9
ATOM      9  C   UNL     1       4.590  -3.285  -0.469  1.00  0.00     0.000 C 
BRANCH   9  10
ATOM     10  C   UNL     1       6.006  -2.991  -0.987  1.00  0.00     0.006 C 
BRANCH  10  11
ATOM     11  C   UNL     1       5.992  -2.148  -2.268  1.00  0.00     0.053 C 
BRANCH  11  12
ATOM     12  C   UNL     1       5.816  -0.690  -1.969  1.00  0.00     0.041 C 
ATOM     13  O   UNL     1       4.919  -0.027  -2.552  1.00  0.00    -0.550 OA
ATOM     14  O   UNL     1       6.666  -0.058  -1.070  1.00  0.00    -0.550 OA
ENDBRANCH  11  12
ENDBRANCH  10  11
ENDBRANCH   9  10
ENDBRANCH   8   9
ENDBRANCH   1   8
TORSDOF 9
ENDMDL
MODEL 2
REMARK VINA RESULT:    -3.626      1.526      6.957
REMARK INTER + INTRA:          -6.193
REMARK INTER:                  -5.760
REMARK INTRA:                  -0.433
REMARK UNBOUND:                -0.658
REMARK SMILES O=C([O-])CCCCCCCCC(=O)[O-]
REMARK SMILES IDX 7 1 6 2 5 3 4 4 2 5 1 6 3 7 8 8 9 9 10 10 11 11 12 12 13 13
REMARK SMILES IDX 14 14
REMARK H PARENT
REMARK Flexibility Score: inf
ROOT
ATOM      1  C   UNL     1       4.369  -3.902  -0.047  1.00  0.00     0.000 C 
ENDROOT
BRANCH   1   2
ATOM      2  C   UNL     1       4.978  -2.863   0.909  1.00  0.00     0.000 C 
BRANCH   2   3
ATOM      3  C   UNL     1       5.134  -1.480   0.259  1.00  0.00     0.006 C 
BRANCH   3   4
ATOM      4  C   UNL     1       5.373  -1.607  -1.248  1.00  0.00     0.053 C 
BRANCH   4   5
ATOM      5  C   UNL     1       5.737  -0.280  -1.835  1.00  0.00     0.041 C 
ATOM      6  O   UNL     1       5.011   0.242  -2.722  1.00  0.00    -0.550 OA
ATOM      7  O   UNL     1       6.904   0.359  -1.437  1.00  0.00    -0.550 OA
ENDBRANCH   4   5
ENDBRANCH   3   4
ENDBRANCH   2   3
ENDBRANCH   1   2
BRANCH   1   8
ATOM      8  C   UNL     1       3.009  -4.426   0.438  1.00  0.00     0.000 C 
BRANCH   8   9
ATOM      9  C   UNL     1       2.701  -3.923   1.854  1.00  0.00     0.000 C 
BRANCH   9  10
ATOM     10  C   UNL     1       1.793  -4.909   2.603  1.00  0.00     0.006 C 
BRANCH  10  11
ATOM     11  C   UNL     1       1.030  -5.837   1.649  1.00  0.00     0.053 C 
BRANCH  11  12
ATOM     12  C   UNL     1       0.629  -7.115   2.321  1.00  0.00     0.041 C 
ATOM     13  O   UNL     1       1.116  -8.212   1.941  1.00  0.00    -0.550 OA
ATOM     14  O   UNL     1      -0.306  -7.096   3.349  1.00  0.00    -0.550 OA
ENDBRANCH  11  12
ENDBRANCH  10  11
ENDBRANCH   9  10
ENDBRANCH   8   9
ENDBRANCH   1   8
TORSDOF 9
ENDMDL
MODEL 3
REMARK VINA RESULT:    -3.592      1.629      6.671
REMARK INTER + INTRA:          -6.140
REMARK INTER:                  -5.582
REMARK INTRA:                  -0.558
REMARK UNBOUND:                -0.658
REMARK SMILES O=C([O-])CCCCCCCCC(=O)[O-]
REMARK SMILES IDX 7 1 6 2 5 3 4 4 2 5 1 6 3 7 8 8 9 9 10 10 11 11 12 12 13 13
REMARK SMILES IDX 14 14
REMARK H PARENT
REMARK Flexibility Score: inf
ROOT
ATOM      1  C   UNL     1       4.195  -4.192   1.143  1.00  0.00     0.000 C 
ENDROOT
BRANCH   1   2
ATOM      2  C   UNL     1       5.391  -3.355   0.660  1.00  0.00     0.000 C 
BRANCH   2   3
ATOM      3  C   UNL     1       5.080  -2.558  -0.615  1.00  0.00     0.006 C 
BRANCH   3   4
ATOM      4  C   UNL     1       5.222  -1.053  -0.367  1.00  0.00     0.053 C 
BRANCH   4   5
ATOM      5  C   UNL     1       5.730  -0.366  -1.595  1.00  0.00     0.041 C 
ATOM      6  O   UNL     1       4.965  -0.170  -2.576  1.00  0.00    -0.550 OA
ATOM      7  O   UNL     1       7.063   0.017  -1.675  1.00  0.00    -0.550 OA
ENDBRANCH   4   5
ENDBRANCH   3   4
ENDBRANCH   2   3
ENDBRANCH   1   2
BRANCH   1   8
ATOM      8  C   UNL     1       3.212  -4.527   0.011  1.00  0.00     0.000 C 
BRANCH   8   9
ATOM      9  C   UNL     1       1.791  -4.717   0.557  1.00  0.00     0.000 C 
BRANCH   9  10
ATOM     10  C   UNL     1       1.764  -4.568   2.085  1.00  0.00     0.006 C 
BRANCH  10  11
ATOM     11  C   UNL     1       1.132  -5.784   2.776  1.00  0.00     0.053 C 
BRANCH  11  12
ATOM     12  C   UNL     1       2.173  -6.734   3.286  1.00  0.00     0.041 C 
ATOM     13  O   UNL     1       2.353  -6.872   4.524  1.00  0.00    -0.550 OA
ATOM     14  O   UNL     1       2.963  -7.444   2.391  1.00  0.00    -0.550 OA
ENDBRANCH  11  12
ENDBRANCH  10  11
ENDBRANCH   9  10
ENDBRANCH   8   9
ENDBRANCH   1   8
TORSDOF 9
ENDMDL
MODEL 4
REMARK VINA RESULT:    -3.553      1.691      2.153
REMARK INTER + INTRA:          -6.081
REMARK INTER:                  -5.522
REMARK INTRA:                  -0.559
REMARK UNBOUND:                -0.658
REMARK SMILES O=C([O-])CCCCCCCCC(=O)[O-]
REMARK SMILES IDX 7 1 6 2 5 3 4 4 2 5 1 6 3 7 8 8 9 9 10 10 11 11 12 12 13 13
REMARK SMILES IDX 14 14
REMARK H PARENT
REMARK Flexibility Score: inf
ROOT
ATOM      1  C   UNL     1       3.251  -4.460   0.040  1.00  0.00     0.000 C 
ENDROOT
BRANCH   1   2
ATOM      2  C   UNL     1       1.855  -4.677   0.648  1.00  0.00     0.000 C 
BRANCH   2   3
ATOM      3  C   UNL     1       1.837  -4.486   2.171  1.00  0.00     0.006 C 
BRANCH   3   4
ATOM      4  C   UNL     1       1.188  -5.687   2.865  1.00  0.00     0.053 C 
BRANCH   4   5
ATOM      5  C   UNL     1       2.234  -6.588   3.442  1.00  0.00     0.041 C 
ATOM      6  O   UNL     1       2.281  -7.801   3.109  1.00  0.00    -0.550 OA
ATOM      7  O   UNL     1       3.129  -6.098   4.385  1.00  0.00    -0.550 OA
ENDBRANCH   4   5
ENDBRANCH   3   4
ENDBRANCH   2   3
ENDBRANCH   1   2
BRANCH   1   8
ATOM      8  C   UNL     1       4.370  -4.523   1.090  1.00  0.00     0.000 C 
BRANCH   8   9
ATOM      9  C   UNL     1       5.327  -3.334   0.944  1.00  0.00     0.000 C 
BRANCH   9  10
ATOM     10  C   UNL     1       5.089  -2.595  -0.382  1.00  0.00     0.006 C 
BRANCH  10  11
ATOM     11  C   UNL     1       5.208  -1.073  -0.228  1.00  0.00     0.053 C 
BRANCH  11  12
ATOM     12  C   UNL     1       5.721  -0.429  -1.480  1.00  0.00     0.041 C 
ATOM     13  O   UNL     1       4.974  -0.316  -2.487  1.00  0.00    -0.550 OA
ATOM     14  O   UNL     1       7.035   0.020  -1.542  1.00  0.00    -0.550 OA
ENDBRANCH  11  12
ENDBRANCH  10  11
ENDBRANCH   9  10
ENDBRANCH   8   9
ENDBRANCH   1   8
TORSDOF 9
ENDMDL
MODEL 5
REMARK VINA RESULT:    -3.553      1.444      2.010
REMARK INTER + INTRA:          -6.081
REMARK INTER:                  -5.346
REMARK INTRA:                  -0.734
REMARK UNBOUND:                -0.658
REMARK SMILES O=C([O-])CCCCCCCCC(=O)[O-]
REMARK SMILES IDX 7 1 6 2 5 3 4 4 2 5 1 6 3 7 8 8 9 9 10 10 11 11 12 12 13 13
REMARK SMILES IDX 14 14
REMARK H PARENT
REMARK Flexibility Score: inf
ROOT
ATOM      1  C   UNL     1       2.998  -3.889   1.830  1.00  0.00     0.000 C 
ENDROOT
BRANCH   1   2
ATOM      2  C   UNL     1       1.921  -4.709   2.559  1.00  0.00     0.000 C 
BRANCH   2   3
ATOM      3  C   UNL     1       1.178  -5.675   1.625  1.00  0.00     0.006 C 
BRANCH   3   4
ATOM      4  C   UNL     1       1.474  -5.354   0.157  1.00  0.00     0.053 C 
BRANCH   4   5
ATOM      5  C   UNL     1       2.045  -6.551  -0.536  1.00  0.00     0.041 C 
ATOM      6  O   UNL     1       3.291  -6.719  -0.587  1.00  0.00    -0.550 OA
ATOM      7  O   UNL     1       1.201  -7.455  -1.168  1.00  0.00    -0.550 OA
ENDBRANCH   4   5
ENDBRANCH   3   4
ENDBRANCH   2   3
ENDBRANCH   1   2
BRANCH   1   8
ATOM      8  C   UNL     1       4.399  -4.504   1.961  1.00  0.00     0.000 C 
BRANCH   8   9
ATOM      9  C   UNL     1       5.315  -4.033   0.825  1.00  0.00     0.000 C 
BRANCH   9  10
ATOM     10  C   UNL     1       4.550  -3.139  -0.164  1.00  0.00     0.006 C 
BRANCH  10  11
ATOM     11  C   UNL     1       5.133  -1.722  -0.236  1.00  0.00     0.053 C 
BRANCH  11  12
ATOM     12  C   UNL     1       5.525  -1.356  -1.635  1.00  0.00     0.041 C 
ATOM     13  O   UNL     1       5.012  -0.352  -2.196  1.00  0.00    -0.550 OA
ATOM     14  O   UNL     1       6.436  -2.142  -2.330  1.00  0.00    -0.550 OA
ENDBRANCH  11  12
ENDBRANCH  10  11
ENDBRANCH   9  10
ENDBRANCH   8   9
ENDBRANCH   1   8
TORSDOF 9
ENDMDL
MODEL 6
REMARK VINA RESULT:    -3.549      1.675      2.443
REMARK INTER + INTRA:          -6.075
REMARK INTER:                  -5.464
REMARK INTRA:                  -0.611
REMARK UNBOUND:                -0.658
REMARK SMILES O=C([O-])CCCCCCCCC(=O)[O-]
REMARK SMILES IDX 7 1 6 2 5 3 4 4 2 5 1 6 3 7 8 8 9 9 10 10 11 11 12 12 13 13
REMARK SMILES IDX 14 14
REMARK H PARENT
REMARK Flexibility Score: inf
ROOT
ATOM      1  C   UNL     1       5.267  -2.664   0.283  1.00  0.00     0.000 C 
ENDROOT
BRANCH   1   2
ATOM      2  C   UNL     1       4.063  -3.357   0.942  1.00  0.00     0.000 C 
BRANCH   2   3
ATOM      3  C   UNL     1       3.497  -4.501   0.088  1.00  0.00     0.006 C 
BRANCH   3   4
ATOM      4  C   UNL     1       1.993  -4.667   0.322  1.00  0.00     0.053 C 
BRANCH   4   5
ATOM      5  C   UNL     1       1.739  -5.381   1.613  1.00  0.00     0.041 C 
ATOM      6  O   UNL     1       1.218  -4.771   2.583  1.00  0.00    -0.550 OA
ATOM      7  O   UNL     1       2.120  -6.708   1.757  1.00  0.00    -0.550 OA
ENDBRANCH   4   5
ENDBRANCH   3   4
ENDBRANCH   2   3
ENDBRANCH   1   2
BRANCH   1   8
ATOM      8  C   UNL     1       5.591  -3.236  -1.105  1.00  0.00     0.000 C 
BRANCH   8   9
ATOM      9  C   UNL     1       5.724  -2.115  -2.144  1.00  0.00     0.000 C 
BRANCH   9  10
ATOM     10  C   UNL     1       5.299  -0.763  -1.552  1.00  0.00     0.006 C 
BRANCH  10  11
ATOM     11  C   UNL     1       6.121   0.402  -2.118  1.00  0.00     0.053 C 
BRANCH  11  12
ATOM     12  C   UNL     1       7.490   0.461  -1.511  1.00  0.00     0.041 C 
ATOM     13  O   UNL     1       8.505   0.577  -2.247  1.00  0.00    -0.550 OA
ATOM     14  O   UNL     1       7.645   0.355  -0.134  1.00  0.00    -0.550 OA
ENDBRANCH  11  12
ENDBRANCH  10  11
ENDBRANCH   9  10
ENDBRANCH   8   9
ENDBRANCH   1   8
TORSDOF 9
ENDMDL
MODEL 7
REMARK VINA RESULT:    -3.505      2.015      2.303
REMARK INTER + INTRA:          -6.008
REMARK INTER:                  -5.454
REMARK INTRA:                  -0.554
REMARK UNBOUND:                -0.658
REMARK SMILES O=C([O-])CCCCCCCCC(=O)[O-]
REMARK SMILES IDX 7 1 6 2 5 3 4 4 2 5 1 6 3 7 8 8 9 9 10 10 11 11 12 12 13 13
REMARK SMILES IDX 14 14
REMARK H PARENT
REMARK Flexibility Score: inf
ROOT
ATOM      1  C   UNL     1       3.947  -4.044  -0.106  1.00  0.00     0.000 C 
ENDROOT
BRANCH   1   2
ATOM      2  C   UNL     1       2.569  -4.529   0.374  1.00  0.00     0.000 C 
BRANCH   2   3
ATOM      3  C   UNL     1       2.238  -4.059   1.798  1.00  0.00     0.006 C 
BRANCH   3   4
ATOM      4  C   UNL     1       1.407  -5.109   2.541  1.00  0.00     0.053 C 
BRANCH   4   5
ATOM      5  C   UNL     1       2.286  -5.961   3.401  1.00  0.00     0.041 C 
ATOM      6  O   UNL     1       1.808  -6.958   4.004  1.00  0.00    -0.550 OA
ATOM      7  O   UNL     1       3.622  -5.626   3.575  1.00  0.00    -0.550 OA
ENDBRANCH   4   5
ENDBRANCH   3   4
ENDBRANCH   2   3
ENDBRANCH   1   2
BRANCH   1   8
ATOM      8  C   UNL     1       4.706  -3.258   0.974  1.00  0.00     0.000 C 
BRANCH   8   9
ATOM      9  C   UNL     1       5.055  -1.848   0.481  1.00  0.00     0.000 C 
BRANCH   9  10
ATOM     10  C   UNL     1       5.176  -1.813  -1.049  1.00  0.00     0.006 C 
BRANCH  10  11
ATOM     11  C   UNL     1       5.713  -0.470  -1.559  1.00  0.00     0.053 C 
BRANCH  11  12
ATOM     12  C   UNL     1       7.184  -0.330  -1.308  1.00  0.00     0.041 C 
ATOM     13  O   UNL     1       7.608   0.517  -0.478  1.00  0.00    -0.550 OA
ATOM     14  O   UNL     1       8.087  -1.114  -2.015  1.00  0.00    -0.550 OA
ENDBRANCH  11  12
ENDBRANCH  10  11
ENDBRANCH   9  10
ENDBRANCH   8   9
ENDBRANCH   1   8
TORSDOF 9
ENDMDL
MODEL 8
REMARK VINA RESULT:    -3.477      1.904      5.814
REMARK INTER + INTRA:          -5.965
REMARK INTER:                  -5.004
REMARK INTRA:                  -0.961
REMARK UNBOUND:                -0.658
REMARK SMILES O=C([O-])CCCCCCCCC(=O)[O-]
REMARK SMILES IDX 7 1 6 2 5 3 4 4 2 5 1 6 3 7 8 8 9 9 10 10 11 11 12 12 13 13
REMARK SMILES IDX 14 14
REMARK H PARENT
REMARK Flexibility Score: inf
ROOT
ATOM      1  C   UNL     1       6.942  -3.631   0.771  1.00  0.00     0.000 C 
ENDROOT
BRANCH   1   2
ATOM      2  C   UNL     1       6.713  -2.246   1.397  1.00  0.00     0.000 C 
BRANCH   2   3
ATOM      3  C   UNL     1       6.610  -1.131   0.346  1.00  0.00     0.006 C 
BRANCH   3   4
ATOM      4  C   UNL     1       5.235  -1.140  -0.328  1.00  0.00     0.053 C 
BRANCH   4   5
ATOM      5  C   UNL     1       5.381  -1.097  -1.817  1.00  0.00     0.041 C 
ATOM      6  O   UNL     1       5.057  -0.062  -2.456  1.00  0.00    -0.550 OA
ATOM      7  O   UNL     1       5.830  -2.218  -2.503  1.00  0.00    -0.550 OA
ENDBRANCH   4   5
ENDBRANCH   3   4
ENDBRANCH   2   3
ENDBRANCH   1   2
BRANCH   1   8
ATOM      8  C   UNL     1       5.822  -4.626   1.113  1.00  0.00     0.000 C 
BRANCH   8   9
ATOM      9  C   UNL     1       4.868  -4.807  -0.074  1.00  0.00     0.000 C 
BRANCH   9  10
ATOM     10  C   UNL     1       3.445  -4.358   0.290  1.00  0.00     0.006 C 
BRANCH  10  11
ATOM     11  C   UNL     1       3.332  -3.918   1.755  1.00  0.00     0.053 C 
BRANCH  11  12
ATOM     12  C   UNL     1       2.505  -4.877   2.558  1.00  0.00     0.041 C 
ATOM     13  O   UNL     1       3.046  -5.867   3.116  1.00  0.00    -0.550 OA
ATOM     14  O   UNL     1       1.133  -4.691   2.664  1.00  0.00    -0.550 OA
ENDBRANCH  11  12
ENDBRANCH  10  11
ENDBRANCH   9  10
ENDBRANCH   8   9
ENDBRANCH   1   8
TORSDOF 9
ENDMDL
MODEL 9
REMARK VINA RESULT:    -3.413      1.330      5.671
REMARK INTER + INTRA:          -5.867
REMARK INTER:                  -5.182
REMARK INTRA:                  -0.685
REMARK UNBOUND:                -0.658
REMARK SMILES O=C([O-])CCCCCCCCC(=O)[O-]
REMARK SMILES IDX 7 1 6 2 5 3 4 4 2 5 1 6 3 7 8 8 9 9 10 10 11 11 12 12 13 13
REMARK SMILES IDX 14 14
REMARK H PARENT
REMARK Flexibility Score: inf
ROOT
ATOM      1  C   UNL     1       6.181  -5.022   1.682  1.00  0.00     0.000 C 
ENDROOT
BRANCH   1   2
ATOM      2  C   UNL     1       6.274  -3.535   1.303  1.00  0.00     0.000 C 
BRANCH   2   3
ATOM      3  C   UNL     1       4.983  -3.005   0.663  1.00  0.00     0.006 C 
BRANCH   3   4
ATOM      4  C   UNL     1       5.135  -1.535   0.262  1.00  0.00     0.053 C 
BRANCH   4   5
ATOM      5  C   UNL     1       5.294  -1.410  -1.221  1.00  0.00     0.041 C 
ATOM      6  O   UNL     1       5.576  -2.421  -1.916  1.00  0.00    -0.550 OA
ATOM      7  O   UNL     1       5.177  -0.167  -1.829  1.00  0.00    -0.550 OA
ENDBRANCH   4   5
ENDBRANCH   3   4
ENDBRANCH   2   3
ENDBRANCH   1   2
BRANCH   1   8
ATOM      8  C   UNL     1       5.417  -5.251   2.996  1.00  0.00     0.000 C 
BRANCH   8   9
ATOM      9  C   UNL     1       4.109  -6.012   2.745  1.00  0.00     0.000 C 
BRANCH   9  10
ATOM     10  C   UNL     1       2.934  -5.344   3.474  1.00  0.00     0.006 C 
BRANCH  10  11
ATOM     11  C   UNL     1       2.155  -4.387   2.563  1.00  0.00     0.053 C 
BRANCH  11  12
ATOM     12  C   UNL     1       1.571  -5.100   1.381  1.00  0.00     0.041 C 
ATOM     13  O   UNL     1       0.832  -6.105   1.548  1.00  0.00    -0.550 OA
ATOM     14  O   UNL     1       1.870  -4.671   0.094  1.00  0.00    -0.550 OA
ENDBRANCH  11  12
ENDBRANCH  10  11
ENDBRANCH   9  10
ENDBRANCH   8   9
ENDBRANCH   1   8
TORSDOF 9
ENDMDL
