MODEL 1
REMARK VINA RESULT:    -5.356      0.000      0.000
REMARK INTER + INTRA:         -18.342
REMARK INTER:                 -13.496
REMARK INTRA:                  -4.846
REMARK UNBOUND:                -4.846
REMARK SMILES CCCCCCCCCCCCCCCCCCCCCCCCCCCC(=O)[O-]
REMARK SMILES IDX 15 1 16 2 17 3 18 4 19 5 20 6 21 7 22 8 23 9 24 10 25 11
REMARK SMILES IDX 26 12 27 13 28 14 29 15 30 16 14 17 13 18 12 19 11 20 10 21
REMARK SMILES IDX 9 22 8 23 7 24 6 25 5 26 4 27 3 28 2 29 1 30
REMARK H PARENT
REMARK Flexibility Score: inf
ROOT
ATOM      1  C   UNL     1      20.339  14.112  36.755  1.00  0.00     0.000 C 
ENDROOT
BRANCH   1   2
ATOM      2  C   UNL     1      20.882  12.841  37.421  1.00  0.00     0.000 C 
BRANCH   2   3
ATOM      3  C   UNL     1      21.862  12.108  36.492  1.00  0.00     0.000 C 
BRANCH   3   4
ATOM      4  C   UNL     1      21.393  10.689  36.132  1.00  0.00     0.000 C 
BRANCH   4   5
ATOM      5  C   UNL     1      20.048  10.683  35.387  1.00  0.00     0.000 C 
BRANCH   5   6
ATOM      6  C   UNL     1      20.200  10.388  33.884  1.00  0.00     0.000 C 
BRANCH   6   7
ATOM      7  C   UNL     1      19.688  11.498  32.944  1.00  0.00     0.000 C 
BRANCH   7   8
ATOM      8  C   UNL     1      20.236  12.911  33.231  1.00  0.00     0.000 C 
BRANCH   8   9
ATOM      9  C   UNL     1      21.589  13.228  32.568  1.00  0.00     0.000 C 
BRANCH   9  10
ATOM     10  C   UNL     1      21.834  14.738  32.408  1.00  0.00     0.000 C 
BRANCH  10  11
ATOM     11  C   UNL     1      20.546  15.564  32.563  1.00  0.00     0.000 C 
BRANCH  11  12
ATOM     12  C   UNL     1      20.764  16.840  33.393  1.00  0.00     0.006 C 
BRANCH  12  13
ATOM     13  C   UNL     1      19.447  17.572  33.687  1.00  0.00     0.053 C 
BRANCH  13  14
ATOM     14  C   UNL     1      19.469  18.982  33.182  1.00  0.00     0.041 C 
ATOM     15  O   UNL     1      18.698  19.848  33.677  1.00  0.00    -0.550 OA
ATOM     16  O   UNL     1      20.342  19.342  32.163  1.00  0.00    -0.550 OA
ENDBRANCH  13  14
ENDBRANCH  12  13
ENDBRANCH  11  12
ENDBRANCH  10  11
ENDBRANCH   9  10
ENDBRANCH   8   9
ENDBRANCH   7   8
ENDBRANCH   6   7
ENDBRANCH   5   6
ENDBRANCH   4   5
ENDBRANCH   3   4
ENDBRANCH   2   3
ENDBRANCH   1   2
BRANCH   1  17
ATOM     17  C   UNL     1      18.803  14.126  36.766  1.00  0.00     0.000 C 
BRANCH  17  18
ATOM     18  C   UNL     1      18.209  14.482  35.394  1.00  0.00     0.000 C 
BRANCH  18  19
ATOM     19  C   UNL     1      17.027  13.576  35.006  1.00  0.00     0.000 C 
BRANCH  19  20
ATOM     20  C   UNL     1      16.784  12.428  36.001  1.00  0.00     0.000 C 
BRANCH  20  21
ATOM     21  C   UNL     1      16.283  11.115  35.359  1.00  0.00     0.000 C 
BRANCH  21  22
ATOM     22  C   UNL     1      15.859  11.207  33.878  1.00  0.00    -0.000 C 
BRANCH  22  23
ATOM     23  C   UNL     1      14.551  10.482  33.512  1.00  0.00    -0.000 C 
BRANCH  23  24
ATOM     24  C   UNL     1      13.506  11.414  32.872  1.00  0.00    -0.000 C 
BRANCH  24  25
ATOM     25  C   UNL     1      13.704  12.886  33.266  1.00  0.00    -0.000 C 
BRANCH  25  26
ATOM     26  C   UNL     1      12.679  13.361  34.310  1.00  0.00    -0.000 C 
BRANCH  26  27
ATOM     27  C   UNL     1      13.344  13.959  35.561  1.00  0.00    -0.000 C 
BRANCH  27  28
ATOM     28  C   UNL     1      13.302  13.005  36.767  1.00  0.00    -0.000 C 
BRANCH  28  29
ATOM     29  C   UNL     1      12.127  12.018  36.695  1.00  0.00    -0.003 C 
ATOM     30  C   UNL     1      11.236  12.063  37.936  1.00  0.00     0.004 C 
ENDBRANCH  28  29
ENDBRANCH  27  28
ENDBRANCH  26  27
ENDBRANCH  25  26
ENDBRANCH  24  25
ENDBRANCH  23  24
ENDBRANCH  22  23
ENDBRANCH  21  22
ENDBRANCH  20  21
ENDBRANCH  19  20
ENDBRANCH  18  19
ENDBRANCH  17  18
ENDBRANCH   1  17
TORSDOF 26
ENDMDL
MODEL 2
REMARK VINA RESULT:    -5.085      1.216      2.463
REMARK INTER + INTRA:         -17.660
REMARK INTER:                 -12.882
REMARK INTRA:                  -4.778
REMARK UNBOUND:                -4.846
REMARK SMILES CCCCCCCCCCCCCCCCCCCCCCCCCCCC(=O)[O-]
REMARK SMILES IDX 15 1 16 2 17 3 18 4 19 5 20 6 21 7 22 8 23 9 24 10 25 11
REMARK SMILES IDX 26 12 27 13 28 14 29 15 30 16 14 17 13 18 12 19 11 20 10 21
REMARK SMILES IDX 9 22 8 23 7 24 6 25 5 26 4 27 3 28 2 29 1 30
REMARK H PARENT
REMARK Flexibility Score: inf
ROOT
ATOM      1  C   UNL     1      21.094  11.664  35.971  1.00  0.00     0.000 C 
ENDROOT
BRANCH   1   2
ATOM      2  C   UNL     1      20.135  10.827  35.115  1.00  0.00     0.000 C 
BRANCH   2   3
ATOM      3  C   UNL     1      20.437  11.004  33.619  1.00  0.00     0.000 C 
BRANCH   3   4
ATOM      4  C   UNL     1      19.580  12.100  32.964  1.00  0.00     0.000 C 
BRANCH   4   5
ATOM      5  C   UNL     1      20.412  13.318  32.530  1.00  0.00     0.000 C 
BRANCH   5   6
ATOM      6  C   UNL     1      21.922  13.022  32.482  1.00  0.00     0.000 C 
BRANCH   6   7
ATOM      7  C   UNL     1      22.774  13.794  33.510  1.00  0.00     0.000 C 
BRANCH   7   8
ATOM      8  C   UNL     1      23.557  14.998  32.948  1.00  0.00     0.000 C 
BRANCH   8   9
ATOM      9  C   UNL     1      23.831  16.123  33.962  1.00  0.00     0.000 C 
BRANCH   9  10
ATOM     10  C   UNL     1      22.916  16.047  35.197  1.00  0.00     0.000 C 
BRANCH  10  11
ATOM     11  C   UNL     1      21.794  17.097  35.164  1.00  0.00     0.000 C 
BRANCH  11  12
ATOM     12  C   UNL     1      21.200  17.277  33.756  1.00  0.00     0.006 C 
BRANCH  12  13
ATOM     13  C   UNL     1      19.742  17.756  33.800  1.00  0.00     0.053 C 
BRANCH  13  14
ATOM     14  C   UNL     1      19.568  19.073  33.107  1.00  0.00     0.041 C 
ATOM     15  O   UNL     1      20.455  19.499  32.319  1.00  0.00    -0.550 OA
ATOM     16  O   UNL     1      18.426  19.830  33.331  1.00  0.00    -0.550 OA
ENDBRANCH  13  14
ENDBRANCH  12  13
ENDBRANCH  11  12
ENDBRANCH  10  11
ENDBRANCH   9  10
ENDBRANCH   8   9
ENDBRANCH   7   8
ENDBRANCH   6   7
ENDBRANCH   5   6
ENDBRANCH   4   5
ENDBRANCH   3   4
ENDBRANCH   2   3
ENDBRANCH   1   2
BRANCH   1  17
ATOM     17  C   UNL     1      20.322  12.665  36.843  1.00  0.00     0.000 C 
BRANCH  17  18
ATOM     18  C   UNL     1      19.996  13.968  36.097  1.00  0.00     0.000 C 
BRANCH  18  19
ATOM     19  C   UNL     1      18.487  14.164  35.874  1.00  0.00     0.000 C 
BRANCH  19  20
ATOM     20  C   UNL     1      17.615  13.242  36.745  1.00  0.00     0.000 C 
BRANCH  20  21
ATOM     21  C   UNL     1      16.759  12.229  35.953  1.00  0.00     0.000 C 
BRANCH  21  22
ATOM     22  C   UNL     1      16.373  12.647  34.518  1.00  0.00    -0.000 C 
BRANCH  22  23
ATOM     23  C   UNL     1      15.948  11.502  33.581  1.00  0.00    -0.000 C 
BRANCH  23  24
ATOM     24  C   UNL     1      14.429  11.459  33.336  1.00  0.00    -0.000 C 
BRANCH  24  25
ATOM     25  C   UNL     1      13.782  12.852  33.380  1.00  0.00    -0.000 C 
BRANCH  25  26
ATOM     26  C   UNL     1      12.663  12.950  34.432  1.00  0.00    -0.000 C 
BRANCH  26  27
ATOM     27  C   UNL     1      13.072  13.792  35.652  1.00  0.00    -0.000 C 
BRANCH  27  28
ATOM     28  C   UNL     1      13.138  12.966  36.947  1.00  0.00    -0.000 C 
BRANCH  28  29
ATOM     29  C   UNL     1      12.962  11.461  36.694  1.00  0.00    -0.003 C 
ATOM     30  C   UNL     1      13.852  10.599  37.591  1.00  0.00     0.004 C 
ENDBRANCH  28  29
ENDBRANCH  27  28
ENDBRANCH  26  27
ENDBRANCH  25  26
ENDBRANCH  24  25
ENDBRANCH  23  24
ENDBRANCH  22  23
ENDBRANCH  21  22
ENDBRANCH  20  21
ENDBRANCH  19  20
ENDBRANCH  18  19
ENDBRANCH  17  18
ENDBRANCH   1  17
TORSDOF 26
ENDMDL
MODEL 3
REMARK VINA RESULT:    -5.026      1.617      3.327
REMARK INTER + INTRA:         -17.510
REMARK INTER:                 -13.294
REMARK INTRA:                  -4.216
REMARK UNBOUND:                -4.846
REMARK SMILES CCCCCCCCCCCCCCCCCCCCCCCCCCCC(=O)[O-]
REMARK SMILES IDX 15 1 16 2 17 3 18 4 19 5 20 6 21 7 22 8 23 9 24 10 25 11
REMARK SMILES IDX 26 12 27 13 28 14 29 15 30 16 14 17 13 18 12 19 11 20 10 21
REMARK SMILES IDX 9 22 8 23 7 24 6 25 5 26 4 27 3 28 2 29 1 30
REMARK H PARENT
REMARK Flexibility Score: inf
ROOT
ATOM      1  C   UNL     1      16.391  13.378  35.719  1.00  0.00     0.000 C 
ENDROOT
BRANCH   1   2
ATOM      2  C   UNL     1      17.094  13.369  34.356  1.00  0.00     0.000 C 
BRANCH   2   3
ATOM      3  C   UNL     1      17.955  14.628  34.173  1.00  0.00     0.000 C 
BRANCH   3   4
ATOM      4  C   UNL     1      19.430  14.399  34.538  1.00  0.00     0.000 C 
BRANCH   4   5
ATOM      5  C   UNL     1      19.936  13.013  34.104  1.00  0.00     0.000 C 
BRANCH   5   6
ATOM      6  C   UNL     1      20.317  12.956  32.614  1.00  0.00     0.000 C 
BRANCH   6   7
ATOM      7  C   UNL     1      21.298  14.050  32.147  1.00  0.00     0.000 C 
BRANCH   7   8
ATOM      8  C   UNL     1      22.658  14.071  32.876  1.00  0.00     0.000 C 
BRANCH   8   9
ATOM      9  C   UNL     1      23.166  15.473  33.257  1.00  0.00     0.000 C 
BRANCH   9  10
ATOM     10  C   UNL     1      22.794  15.870  34.697  1.00  0.00     0.000 C 
BRANCH  10  11
ATOM     11  C   UNL     1      21.803  17.044  34.747  1.00  0.00     0.000 C 
BRANCH  11  12
ATOM     12  C   UNL     1      21.610  17.707  33.372  1.00  0.00     0.006 C 
BRANCH  12  13
ATOM     13  C   UNL     1      20.174  17.552  32.852  1.00  0.00     0.053 C 
BRANCH  13  14
ATOM     14  C   UNL     1      19.539  18.879  32.567  1.00  0.00     0.041 C 
ATOM     15  O   UNL     1      19.333  19.244  31.378  1.00  0.00    -0.550 OA
ATOM     16  O   UNL     1      19.173  19.713  33.616  1.00  0.00    -0.550 OA
ENDBRANCH  13  14
ENDBRANCH  12  13
ENDBRANCH  11  12
ENDBRANCH  10  11
ENDBRANCH   9  10
ENDBRANCH   8   9
ENDBRANCH   7   8
ENDBRANCH   6   7
ENDBRANCH   5   6
ENDBRANCH   4   5
ENDBRANCH   3   4
ENDBRANCH   2   3
ENDBRANCH   1   2
BRANCH   1  17
ATOM     17  C   UNL     1      16.362  11.970  36.333  1.00  0.00     0.000 C 
BRANCH  17  18
ATOM     18  C   UNL     1      16.405  10.863  35.268  1.00  0.00     0.000 C 
BRANCH  18  19
ATOM     19  C   UNL     1      15.004  10.437  34.797  1.00  0.00     0.000 C 
BRANCH  19  20
ATOM     20  C   UNL     1      14.799  10.581  33.278  1.00  0.00     0.000 C 
BRANCH  20  21
ATOM     21  C   UNL     1      13.536  11.371  32.871  1.00  0.00     0.000 C 
BRANCH  21  22
ATOM     22  C   UNL     1      13.525  12.868  33.250  1.00  0.00    -0.000 C 
BRANCH  22  23
ATOM     23  C   UNL     1      12.410  13.304  34.218  1.00  0.00    -0.000 C 
BRANCH  23  24
ATOM     24  C   UNL     1      12.930  14.157  35.389  1.00  0.00    -0.000 C 
BRANCH  24  25
ATOM     25  C   UNL     1      13.072  13.353  36.690  1.00  0.00    -0.000 C 
BRANCH  25  26
ATOM     26  C   UNL     1      11.932  12.338  36.886  1.00  0.00    -0.000 C 
BRANCH  26  27
ATOM     27  C   UNL     1      12.208  11.356  38.037  1.00  0.00    -0.000 C 
BRANCH  27  28
ATOM     28  C   UNL     1      12.500   9.930  37.542  1.00  0.00    -0.000 C 
BRANCH  28  29
ATOM     29  C   UNL     1      11.844   9.632  36.185  1.00  0.00    -0.003 C 
ATOM     30  C   UNL     1      11.120   8.286  36.158  1.00  0.00     0.004 C 
ENDBRANCH  28  29
ENDBRANCH  27  28
ENDBRANCH  26  27
ENDBRANCH  25  26
ENDBRANCH  24  25
ENDBRANCH  23  24
ENDBRANCH  22  23
ENDBRANCH  21  22
ENDBRANCH  20  21
ENDBRANCH  19  20
ENDBRANCH  18  19
ENDBRANCH  17  18
ENDBRANCH   1  17
TORSDOF 26
ENDMDL
MODEL 4
REMARK VINA RESULT:    -5.010      3.077      5.001
REMARK INTER + INTRA:         -17.471
REMARK INTER:                 -12.894
REMARK INTRA:                  -4.578
REMARK UNBOUND:                -4.846
REMARK SMILES CCCCCCCCCCCCCCCCCCCCCCCCCCCC(=O)[O-]
REMARK SMILES IDX 15 1 16 2 17 3 18 4 19 5 20 6 21 7 22 8 23 9 24 10 25 11
REMARK SMILES IDX 26 12 27 13 28 14 29 15 30 16 14 17 13 18 12 19 11 20 10 21
REMARK SMILES IDX 9 22 8 23 7 24 6 25 5 26 4 27 3 28 2 29 1 30
REMARK H PARENT
REMARK Flexibility Score: inf
ROOT
ATOM      1  C   UNL     1      19.323  17.097  34.078  1.00  0.00     0.000 C 
ENDROOT
BRANCH   1   2
ATOM      2  C   UNL     1      20.394  17.359  33.012  1.00  0.00     0.000 C 
BRANCH   2   3
ATOM      3  C   UNL     1      21.748  17.684  33.660  1.00  0.00     0.000 C 
BRANCH   3   4
ATOM      4  C   UNL     1      22.037  16.822  34.900  1.00  0.00     0.000 C 
BRANCH   4   5
ATOM      5  C   UNL     1      23.152  15.792  34.655  1.00  0.00     0.000 C 
BRANCH   5   6
ATOM      6  C   UNL     1      23.288  15.401  33.172  1.00  0.00     0.000 C 
BRANCH   6   7
ATOM      7  C   UNL     1      22.762  13.997  32.815  1.00  0.00     0.000 C 
BRANCH   7   8
ATOM      8  C   UNL     1      21.489  13.971  31.944  1.00  0.00     0.000 C 
BRANCH   8   9
ATOM      9  C   UNL     1      20.410  12.975  32.404  1.00  0.00     0.000 C 
BRANCH   9  10
ATOM     10  C   UNL     1      20.994  11.779  33.177  1.00  0.00     0.000 C 
BRANCH  10  11
ATOM     11  C   UNL     1      19.934  11.043  34.011  1.00  0.00     0.000 C 
BRANCH  11  12
ATOM     12  C   UNL     1      20.126  11.255  35.523  1.00  0.00     0.006 C 
BRANCH  12  13
ATOM     13  C   UNL     1      20.354   9.934  36.270  1.00  0.00     0.053 C 
BRANCH  13  14
ATOM     14  C   UNL     1      19.440   9.795  37.448  1.00  0.00     0.041 C 
ATOM     15  O   UNL     1      19.821   9.182  38.482  1.00  0.00    -0.550 OA
ATOM     16  O   UNL     1      18.164  10.344  37.406  1.00  0.00    -0.550 OA
ENDBRANCH  13  14
ENDBRANCH  12  13
ENDBRANCH  11  12
ENDBRANCH  10  11
ENDBRANCH   9  10
ENDBRANCH   8   9
ENDBRANCH   7   8
ENDBRANCH   6   7
ENDBRANCH   5   6
ENDBRANCH   4   5
ENDBRANCH   3   4
ENDBRANCH   2   3
ENDBRANCH   1   2
BRANCH   1  17
ATOM     17  C   UNL     1      18.769  15.669  33.963  1.00  0.00     0.000 C 
BRANCH  17  18
ATOM     18  C   UNL     1      18.913  14.874  35.270  1.00  0.00     0.000 C 
BRANCH  18  19
ATOM     19  C   UNL     1      17.733  13.919  35.517  1.00  0.00     0.000 C 
BRANCH  19  20
ATOM     20  C   UNL     1      16.808  13.759  34.298  1.00  0.00     0.000 C 
BRANCH  20  21
ATOM     21  C   UNL     1      16.690  12.314  33.764  1.00  0.00     0.000 C 
BRANCH  21  22
ATOM     22  C   UNL     1      16.159  11.266  34.765  1.00  0.00    -0.000 C 
BRANCH  22  23
ATOM     23  C   UNL     1      14.935  10.457  34.297  1.00  0.00    -0.000 C 
BRANCH  23  24
ATOM     24  C   UNL     1      14.420  10.892  32.914  1.00  0.00    -0.000 C 
BRANCH  24  25
ATOM     25  C   UNL     1      13.061  11.605  32.985  1.00  0.00    -0.000 C 
BRANCH  25  26
ATOM     26  C   UNL     1      13.191  13.085  33.386  1.00  0.00    -0.000 C 
BRANCH  26  27
ATOM     27  C   UNL     1      12.489  13.398  34.719  1.00  0.00    -0.000 C 
BRANCH  27  28
ATOM     28  C   UNL     1      13.483  13.654  35.865  1.00  0.00    -0.000 C 
BRANCH  28  29
ATOM     29  C   UNL     1      13.405  12.580  36.961  1.00  0.00    -0.003 C 
ATOM     30  C   UNL     1      11.977  12.332  37.450  1.00  0.00     0.004 C 
ENDBRANCH  28  29
ENDBRANCH  27  28
ENDBRANCH  26  27
ENDBRANCH  25  26
ENDBRANCH  24  25
ENDBRANCH  23  24
ENDBRANCH  22  23
ENDBRANCH  21  22
ENDBRANCH  20  21
ENDBRANCH  19  20
ENDBRANCH  18  19
ENDBRANCH  17  18
ENDBRANCH   1  17
TORSDOF 26
ENDMDL
MODEL 5
REMARK VINA RESULT:    -5.005      1.545      3.708
REMARK INTER + INTRA:         -17.457
REMARK INTER:                 -13.223
REMARK INTRA:                  -4.234
REMARK UNBOUND:                -4.846
REMARK SMILES CCCCCCCCCCCCCCCCCCCCCCCCCCCC(=O)[O-]
REMARK SMILES IDX 15 1 16 2 17 3 18 4 19 5 20 6 21 7 22 8 23 9 24 10 25 11
REMARK SMILES IDX 26 12 27 13 28 14 29 15 30 16 14 17 13 18 12 19 11 20 10 21
REMARK SMILES IDX 9 22 8 23 7 24 6 25 5 26 4 27 3 28 2 29 1 30
REMARK H PARENT
REMARK Flexibility Score: inf
ROOT
ATOM      1  C   UNL     1      19.938  11.131  34.644  1.00  0.00     0.000 C 
ENDROOT
BRANCH   1   2
ATOM      2  C   UNL     1      20.558  11.658  33.344  1.00  0.00     0.000 C 
BRANCH   2   3
ATOM      3  C   UNL     1      20.122  13.107  33.074  1.00  0.00     0.000 C 
BRANCH   3   4
ATOM      4  C   UNL     1      20.932  13.773  31.950  1.00  0.00     0.000 C 
BRANCH   4   5
ATOM      5  C   UNL     1      22.447  13.569  32.114  1.00  0.00     0.000 C 
BRANCH   5   6
ATOM      6  C   UNL     1      23.155  14.805  32.699  1.00  0.00     0.000 C 
BRANCH   6   7
ATOM      7  C   UNL     1      23.345  14.787  34.229  1.00  0.00     0.000 C 
BRANCH   7   8
ATOM      8  C   UNL     1      22.794  16.019  34.976  1.00  0.00     0.000 C 
BRANCH   8   9
ATOM      9  C   UNL     1      21.784  16.863  34.177  1.00  0.00     0.000 C 
BRANCH   9  10
ATOM     10  C   UNL     1      20.323  16.519  34.514  1.00  0.00     0.000 C 
BRANCH  10  11
ATOM     11  C   UNL     1      19.319  17.341  33.689  1.00  0.00     0.000 C 
BRANCH  11  12
ATOM     12  C   UNL     1      19.959  17.958  32.433  1.00  0.00     0.006 C 
BRANCH  12  13
ATOM     13  C   UNL     1      19.193  19.193  31.940  1.00  0.00     0.053 C 
BRANCH  13  14
ATOM     14  C   UNL     1      18.877  19.106  30.478  1.00  0.00     0.041 C 
ATOM     15  O   UNL     1      18.286  18.094  30.014  1.00  0.00    -0.550 OA
ATOM     16  O   UNL     1      19.236  20.143  29.626  1.00  0.00    -0.550 OA
ENDBRANCH  13  14
ENDBRANCH  12  13
ENDBRANCH  11  12
ENDBRANCH  10  11
ENDBRANCH   9  10
ENDBRANCH   8   9
ENDBRANCH   7   8
ENDBRANCH   6   7
ENDBRANCH   5   6
ENDBRANCH   4   5
ENDBRANCH   3   4
ENDBRANCH   2   3
ENDBRANCH   1   2
BRANCH   1  17
ATOM     17  C   UNL     1      21.027  10.761  35.663  1.00  0.00     0.000 C 
BRANCH  17  18
ATOM     18  C   UNL     1      20.962  11.622  36.934  1.00  0.00     0.000 C 
BRANCH  18  19
ATOM     19  C   UNL     1      21.430  13.068  36.695  1.00  0.00     0.000 C 
BRANCH  19  20
ATOM     20  C   UNL     1      20.578  14.117  37.431  1.00  0.00     0.000 C 
BRANCH  20  21
ATOM     21  C   UNL     1      19.082  13.755  37.561  1.00  0.00     0.000 C 
BRANCH  21  22
ATOM     22  C   UNL     1      18.244  13.877  36.270  1.00  0.00    -0.000 C 
BRANCH  22  23
ATOM     23  C   UNL     1      16.928  13.078  36.251  1.00  0.00    -0.000 C 
BRANCH  23  24
ATOM     24  C   UNL     1      16.431  12.771  34.826  1.00  0.00    -0.000 C 
BRANCH  24  25
ATOM     25  C   UNL     1      15.450  13.831  34.300  1.00  0.00    -0.000 C 
BRANCH  25  26
ATOM     26  C   UNL     1      14.078  13.236  33.937  1.00  0.00    -0.000 C 
BRANCH  26  27
ATOM     27  C   UNL     1      12.940  13.810  34.799  1.00  0.00    -0.000 C 
BRANCH  27  28
ATOM     28  C   UNL     1      12.372  12.780  35.790  1.00  0.00    -0.000 C 
BRANCH  28  29
ATOM     29  C   UNL     1      13.313  12.526  36.978  1.00  0.00    -0.003 C 
ATOM     30  C   UNL     1      13.089  11.162  37.632  1.00  0.00     0.004 C 
ENDBRANCH  28  29
ENDBRANCH  27  28
ENDBRANCH  26  27
ENDBRANCH  25  26
ENDBRANCH  24  25
ENDBRANCH  23  24
ENDBRANCH  22  23
ENDBRANCH  21  22
ENDBRANCH  20  21
ENDBRANCH  19  20
ENDBRANCH  18  19
ENDBRANCH  17  18
ENDBRANCH   1  17
TORSDOF 26
ENDMDL
MODEL 6
REMARK VINA RESULT:    -4.974      1.196      5.666
REMARK INTER + INTRA:         -17.380
REMARK INTER:                 -13.059
REMARK INTRA:                  -4.322
REMARK UNBOUND:                -4.846
REMARK SMILES CCCCCCCCCCCCCCCCCCCCCCCCCCCC(=O)[O-]
REMARK SMILES IDX 15 1 16 2 17 3 18 4 19 5 20 6 21 7 22 8 23 9 24 10 25 11
REMARK SMILES IDX 26 12 27 13 28 14 29 15 30 16 14 17 13 18 12 19 11 20 10 21
REMARK SMILES IDX 9 22 8 23 7 24 6 25 5 26 4 27 3 28 2 29 1 30
REMARK H PARENT
REMARK Flexibility Score: inf
ROOT
ATOM      1  C   UNL     1      12.452  13.369  34.087  1.00  0.00     0.000 C 
ENDROOT
BRANCH   1   2
ATOM      2  C   UNL     1      13.785  12.969  33.442  1.00  0.00     0.000 C 
BRANCH   2   3
ATOM      3  C   UNL     1      13.852  11.452  33.213  1.00  0.00     0.000 C 
BRANCH   3   4
ATOM      4  C   UNL     1      15.281  10.953  32.945  1.00  0.00     0.000 C 
BRANCH   4   5
ATOM      5  C   UNL     1      16.345  12.021  33.247  1.00  0.00     0.000 C 
BRANCH   5   6
ATOM      6  C   UNL     1      17.782  11.496  33.077  1.00  0.00     0.000 C 
BRANCH   6   7
ATOM      7  C   UNL     1      18.892  12.541  33.311  1.00  0.00     0.000 C 
BRANCH   7   8
ATOM      8  C   UNL     1      20.235  12.245  32.613  1.00  0.00     0.000 C 
BRANCH   8   9
ATOM      9  C   UNL     1      21.034  13.492  32.192  1.00  0.00     0.000 C 
BRANCH   9  10
ATOM     10  C   UNL     1      22.181  13.820  33.165  1.00  0.00     0.000 C 
BRANCH  10  11
ATOM     11  C   UNL     1      22.394  15.333  33.334  1.00  0.00     0.000 C 
BRANCH  11  12
ATOM     12  C   UNL     1      21.200  16.021  34.016  1.00  0.00     0.006 C 
BRANCH  12  13
ATOM     13  C   UNL     1      21.126  17.518  33.683  1.00  0.00     0.053 C 
BRANCH  13  14
ATOM     14  C   UNL     1      19.935  17.841  32.833  1.00  0.00     0.041 C 
ATOM     15  O   UNL     1      19.392  18.977  32.903  1.00  0.00    -0.550 OA
ATOM     16  O   UNL     1      19.423  16.887  31.963  1.00  0.00    -0.550 OA
ENDBRANCH  13  14
ENDBRANCH  12  13
ENDBRANCH  11  12
ENDBRANCH  10  11
ENDBRANCH   9  10
ENDBRANCH   8   9
ENDBRANCH   7   8
ENDBRANCH   6   7
ENDBRANCH   5   6
ENDBRANCH   4   5
ENDBRANCH   3   4
ENDBRANCH   2   3
ENDBRANCH   1   2
BRANCH   1  17
ATOM     17  C   UNL     1      12.631  13.661  35.585  1.00  0.00     0.000 C 
BRANCH  17  18
ATOM     18  C   UNL     1      12.055  12.548  36.474  1.00  0.00     0.000 C 
BRANCH  18  19
ATOM     19  C   UNL     1      13.148  11.702  37.150  1.00  0.00     0.000 C 
BRANCH  19  20
ATOM     20  C   UNL     1      14.577  12.143  36.784  1.00  0.00     0.000 C 
BRANCH  20  21
ATOM     21  C   UNL     1      15.606  10.993  36.711  1.00  0.00     0.000 C 
BRANCH  21  22
ATOM     22  C   UNL     1      17.087  11.418  36.610  1.00  0.00    -0.000 C 
BRANCH  22  23
ATOM     23  C   UNL     1      17.344  12.936  36.564  1.00  0.00    -0.000 C 
BRANCH  23  24
ATOM     24  C   UNL     1      18.536  13.369  37.436  1.00  0.00    -0.000 C 
BRANCH  24  25
ATOM     25  C   UNL     1      19.609  14.127  36.638  1.00  0.00    -0.000 C 
BRANCH  25  26
ATOM     26  C   UNL     1      21.003  13.490  36.771  1.00  0.00    -0.000 C 
BRANCH  26  27
ATOM     27  C   UNL     1      20.938  11.982  37.063  1.00  0.00    -0.000 C 
BRANCH  27  28
ATOM     28  C   UNL     1      21.114  11.125  35.798  1.00  0.00    -0.000 C 
BRANCH  28  29
ATOM     29  C   UNL     1      20.915   9.626  36.071  1.00  0.00    -0.003 C 
ATOM     30  C   UNL     1      21.294   8.750  34.876  1.00  0.00     0.004 C 
ENDBRANCH  28  29
ENDBRANCH  27  28
ENDBRANCH  26  27
ENDBRANCH  25  26
ENDBRANCH  24  25
ENDBRANCH  23  24
ENDBRANCH  22  23
ENDBRANCH  21  22
ENDBRANCH  20  21
ENDBRANCH  19  20
ENDBRANCH  18  19
ENDBRANCH  17  18
ENDBRANCH   1  17
TORSDOF 26
ENDMDL
MODEL 7
REMARK VINA RESULT:    -4.959      1.462      2.476
REMARK INTER + INTRA:         -17.343
REMARK INTER:                 -13.355
REMARK INTRA:                  -3.988
REMARK UNBOUND:                -4.846
REMARK SMILES CCCCCCCCCCCCCCCCCCCCCCCCCCCC(=O)[O-]
REMARK SMILES IDX 15 1 16 2 17 3 18 4 19 5 20 6 21 7 22 8 23 9 24 10 25 11
REMARK SMILES IDX 26 12 27 13 28 14 29 15 30 16 14 17 13 18 12 19 11 20 10 21
REMARK SMILES IDX 9 22 8 23 7 24 6 25 5 26 4 27 3 28 2 29 1 30
REMARK H PARENT
REMARK Flexibility Score: inf
ROOT
ATOM      1  C   UNL     1      20.084  14.063  37.472  1.00  0.00     0.000 C 
ENDROOT
BRANCH   1   2
ATOM      2  C   UNL     1      20.329  14.625  36.066  1.00  0.00     0.000 C 
BRANCH   2   3
ATOM      3  C   UNL     1      19.002  14.877  35.336  1.00  0.00     0.000 C 
BRANCH   3   4
ATOM      4  C   UNL     1      19.025  14.399  33.875  1.00  0.00     0.000 C 
BRANCH   4   5
ATOM      5  C   UNL     1      19.269  12.885  33.755  1.00  0.00     0.000 C 
BRANCH   5   6
ATOM      6  C   UNL     1      20.555  12.548  32.980  1.00  0.00     0.000 C 
BRANCH   6   7
ATOM      7  C   UNL     1      20.960  13.576  31.905  1.00  0.00     0.000 C 
BRANCH   7   8
ATOM      8  C   UNL     1      22.416  14.079  31.986  1.00  0.00     0.000 C 
BRANCH   8   9
ATOM      9  C   UNL     1      22.866  14.536  33.386  1.00  0.00     0.000 C 
BRANCH   9  10
ATOM     10  C   UNL     1      23.381  15.985  33.401  1.00  0.00     0.000 C 
BRANCH  10  11
ATOM     11  C   UNL     1      22.402  16.951  34.088  1.00  0.00     0.000 C 
BRANCH  11  12
ATOM     12  C   UNL     1      21.193  17.290  33.199  1.00  0.00     0.006 C 
BRANCH  12  13
ATOM     13  C   UNL     1      21.006  18.804  33.027  1.00  0.00     0.053 C 
BRANCH  13  14
ATOM     14  C   UNL     1      19.584  19.158  32.717  1.00  0.00     0.041 C 
ATOM     15  O   UNL     1      19.123  18.982  31.556  1.00  0.00    -0.550 OA
ATOM     16  O   UNL     1      18.766  19.682  33.709  1.00  0.00    -0.550 OA
ENDBRANCH  13  14
ENDBRANCH  12  13
ENDBRANCH  11  12
ENDBRANCH  10  11
ENDBRANCH   9  10
ENDBRANCH   8   9
ENDBRANCH   7   8
ENDBRANCH   6   7
ENDBRANCH   5   6
ENDBRANCH   4   5
ENDBRANCH   3   4
ENDBRANCH   2   3
ENDBRANCH   1   2
BRANCH   1  17
ATOM     17  C   UNL     1      18.753  13.300  37.536  1.00  0.00     0.000 C 
BRANCH  17  18
ATOM     18  C   UNL     1      18.941  11.778  37.427  1.00  0.00     0.000 C 
BRANCH  18  19
ATOM     19  C   UNL     1      17.798  11.092  36.660  1.00  0.00     0.000 C 
BRANCH  19  20
ATOM     20  C   UNL     1      16.664  12.054  36.262  1.00  0.00     0.000 C 
BRANCH  20  21
ATOM     21  C   UNL     1      15.929  11.678  34.956  1.00  0.00     0.000 C 
BRANCH  21  22
ATOM     22  C   UNL     1      15.264  12.846  34.196  1.00  0.00    -0.000 C 
BRANCH  22  23
ATOM     23  C   UNL     1      13.916  12.524  33.526  1.00  0.00    -0.000 C 
BRANCH  23  24
ATOM     24  C   UNL     1      12.755  13.374  34.072  1.00  0.00    -0.000 C 
BRANCH  24  25
ATOM     25  C   UNL     1      12.988  13.834  35.519  1.00  0.00    -0.000 C 
BRANCH  25  26
ATOM     26  C   UNL     1      12.029  13.159  36.515  1.00  0.00    -0.000 C 
BRANCH  26  27
ATOM     27  C   UNL     1      12.673  11.964  37.238  1.00  0.00    -0.000 C 
BRANCH  27  28
ATOM     28  C   UNL     1      11.898  11.546  38.499  1.00  0.00    -0.000 C 
BRANCH  28  29
ATOM     29  C   UNL     1      10.642  10.726  38.171  1.00  0.00    -0.003 C 
ATOM     30  C   UNL     1      10.874   9.699  37.062  1.00  0.00     0.004 C 
ENDBRANCH  28  29
ENDBRANCH  27  28
ENDBRANCH  26  27
ENDBRANCH  25  26
ENDBRANCH  24  25
ENDBRANCH  23  24
ENDBRANCH  22  23
ENDBRANCH  21  22
ENDBRANCH  20  21
ENDBRANCH  19  20
ENDBRANCH  18  19
ENDBRANCH  17  18
ENDBRANCH   1  17
TORSDOF 26
ENDMDL
MODEL 8
REMARK VINA RESULT:    -4.930      1.508      3.637
REMARK INTER + INTRA:         -17.268
REMARK INTER:                 -12.830
REMARK INTRA:                  -4.438
REMARK UNBOUND:                -4.846
REMARK SMILES CCCCCCCCCCCCCCCCCCCCCCCCCCCC(=O)[O-]
REMARK SMILES IDX 15 1 16 2 17 3 18 4 19 5 20 6 21 7 22 8 23 9 24 10 25 11
REMARK SMILES IDX 26 12 27 13 28 14 29 15 30 16 14 17 13 18 12 19 11 20 10 21
REMARK SMILES IDX 9 22 8 23 7 24 6 25 5 26 4 27 3 28 2 29 1 30
REMARK H PARENT
REMARK Flexibility Score: inf
ROOT
ATOM      1  C   UNL     1      16.703  11.798  35.279  1.00  0.00     0.000 C 
ENDROOT
BRANCH   1   2
ATOM      2  C   UNL     1      16.494  13.289  35.574  1.00  0.00     0.000 C 
BRANCH   2   3
ATOM      3  C   UNL     1      17.747  14.102  35.215  1.00  0.00     0.000 C 
BRANCH   3   4
ATOM      4  C   UNL     1      18.775  14.147  36.357  1.00  0.00     0.000 C 
BRANCH   4   5
ATOM      5  C   UNL     1      20.221  14.006  35.853  1.00  0.00     0.000 C 
BRANCH   5   6
ATOM      6  C   UNL     1      20.647  12.539  35.663  1.00  0.00     0.000 C 
BRANCH   6   7
ATOM      7  C   UNL     1      21.132  12.177  34.244  1.00  0.00     0.000 C 
BRANCH   7   8
ATOM      8  C   UNL     1      20.141  12.496  33.106  1.00  0.00     0.000 C 
BRANCH   8   9
ATOM      9  C   UNL     1      20.651  13.514  32.070  1.00  0.00     0.000 C 
BRANCH   9  10
ATOM     10  C   UNL     1      21.934  14.232  32.522  1.00  0.00     0.000 C 
BRANCH  10  11
ATOM     11  C   UNL     1      21.662  15.654  33.038  1.00  0.00     0.000 C 
BRANCH  11  12
ATOM     12  C   UNL     1      20.228  16.123  32.738  1.00  0.00     0.006 C 
BRANCH  12  13
ATOM     13  C   UNL     1      19.874  17.418  33.482  1.00  0.00     0.053 C 
BRANCH  13  14
ATOM     14  C   UNL     1      20.139  18.631  32.644  1.00  0.00     0.041 C 
ATOM     15  O   UNL     1      19.231  19.109  31.911  1.00  0.00    -0.550 OA
ATOM     16  O   UNL     1      21.389  19.236  32.673  1.00  0.00    -0.550 OA
ENDBRANCH  13  14
ENDBRANCH  12  13
ENDBRANCH  11  12
ENDBRANCH  10  11
ENDBRANCH   9  10
ENDBRANCH   8   9
ENDBRANCH   7   8
ENDBRANCH   6   7
ENDBRANCH   5   6
ENDBRANCH   4   5
ENDBRANCH   3   4
ENDBRANCH   2   3
ENDBRANCH   1   2
BRANCH   1  17
ATOM     17  C   UNL     1      15.535  10.960  35.822  1.00  0.00     0.000 C 
BRANCH  17  18
ATOM     18  C   UNL     1      14.908  10.059  34.746  1.00  0.00     0.000 C 
BRANCH  18  19
ATOM     19  C   UNL     1      13.508  10.530  34.319  1.00  0.00     0.000 C 
BRANCH  19  20
ATOM     20  C   UNL     1      13.512  11.385  33.040  1.00  0.00     0.000 C 
BRANCH  20  21
ATOM     21  C   UNL     1      13.539  12.909  33.284  1.00  0.00     0.000 C 
BRANCH  21  22
ATOM     22  C   UNL     1      12.504  13.450  34.294  1.00  0.00    -0.000 C 
BRANCH  22  23
ATOM     23  C   UNL     1      13.085  14.127  35.548  1.00  0.00    -0.000 C 
BRANCH  23  24
ATOM     24  C   UNL     1      13.028  13.229  36.797  1.00  0.00    -0.000 C 
BRANCH  24  25
ATOM     25  C   UNL     1      11.651  12.576  36.994  1.00  0.00    -0.000 C 
BRANCH  25  26
ATOM     26  C   UNL     1      11.559  11.777  38.306  1.00  0.00    -0.000 C 
BRANCH  26  27
ATOM     27  C   UNL     1      12.683  10.736  38.443  1.00  0.00    -0.000 C 
BRANCH  27  28
ATOM     28  C   UNL     1      12.258   9.338  37.963  1.00  0.00    -0.000 C 
BRANCH  28  29
ATOM     29  C   UNL     1      13.449   8.380  37.814  1.00  0.00    -0.003 C 
ATOM     30  C   UNL     1      14.645   8.780  38.677  1.00  0.00     0.004 C 
ENDBRANCH  28  29
ENDBRANCH  27  28
ENDBRANCH  26  27
ENDBRANCH  25  26
ENDBRANCH  24  25
ENDBRANCH  23  24
ENDBRANCH  22  23
ENDBRANCH  21  22
ENDBRANCH  20  21
ENDBRANCH  19  20
ENDBRANCH  18  19
ENDBRANCH  17  18
ENDBRANCH   1  17
TORSDOF 26
ENDMDL
MODEL 9
REMARK VINA RESULT:    -4.867      2.488      3.328
REMARK INTER + INTRA:         -17.111
REMARK INTER:                 -12.177
REMARK INTRA:                  -4.934
REMARK UNBOUND:                -4.846
REMARK SMILES CCCCCCCCCCCCCCCCCCCCCCCCCCCC(=O)[O-]
REMARK SMILES IDX 15 1 16 2 17 3 18 4 19 5 20 6 21 7 22 8 23 9 24 10 25 11
REMARK SMILES IDX 26 12 27 13 28 14 29 15 30 16 14 17 13 18 12 19 11 20 10 21
REMARK SMILES IDX 9 22 8 23 7 24 6 25 5 26 4 27 3 28 2 29 1 30
REMARK H PARENT
REMARK Flexibility Score: inf
ROOT
ATOM      1  C   UNL     1      18.499  14.713  35.033  1.00  0.00     0.000 C 
ENDROOT
BRANCH   1   2
ATOM      2  C   UNL     1      18.711  14.114  36.429  1.00  0.00     0.000 C 
BRANCH   2   3
ATOM      3  C   UNL     1      19.947  13.202  36.455  1.00  0.00     0.000 C 
BRANCH   3   4
ATOM      4  C   UNL     1      19.585  11.710  36.517  1.00  0.00     0.000 C 
BRANCH   4   5
ATOM      5  C   UNL     1      20.078  10.932  35.285  1.00  0.00     0.000 C 
BRANCH   5   6
ATOM      6  C   UNL     1      20.857  11.816  34.294  1.00  0.00     0.000 C 
BRANCH   6   7
ATOM      7  C   UNL     1      20.103  12.163  32.995  1.00  0.00     0.000 C 
BRANCH   7   8
ATOM      8  C   UNL     1      20.633  13.395  32.232  1.00  0.00     0.000 C 
BRANCH   8   9
ATOM      9  C   UNL     1      22.162  13.442  32.063  1.00  0.00     0.000 C 
BRANCH   9  10
ATOM     10  C   UNL     1      22.783  14.735  32.621  1.00  0.00     0.000 C 
BRANCH  10  11
ATOM     11  C   UNL     1      21.874  15.429  33.648  1.00  0.00     0.000 C 
BRANCH  11  12
ATOM     12  C   UNL     1      22.582  15.664  34.994  1.00  0.00     0.006 C 
BRANCH  12  13
ATOM     13  C   UNL     1      23.299  14.404  35.499  1.00  0.00     0.053 C 
BRANCH  13  14
ATOM     14  C   UNL     1      24.494  14.742  36.336  1.00  0.00     0.041 C 
ATOM     15  O   UNL     1      25.041  13.859  37.050  1.00  0.00    -0.550 OA
ATOM     16  O   UNL     1      25.006  16.033  36.326  1.00  0.00    -0.550 OA
ENDBRANCH  13  14
ENDBRANCH  12  13
ENDBRANCH  11  12
ENDBRANCH  10  11
ENDBRANCH   9  10
ENDBRANCH   8   9
ENDBRANCH   7   8
ENDBRANCH   6   7
ENDBRANCH   5   6
ENDBRANCH   4   5
ENDBRANCH   3   4
ENDBRANCH   2   3
ENDBRANCH   1   2
BRANCH   1  17
ATOM     17  C   UNL     1      17.234  14.142  34.375  1.00  0.00     0.000 C 
BRANCH  17  18
ATOM     18  C   UNL     1      16.539  13.089  35.253  1.00  0.00     0.000 C 
BRANCH  18  19
ATOM     19  C   UNL     1      16.483  11.704  34.586  1.00  0.00     0.000 C 
BRANCH  19  20
ATOM     20  C   UNL     1      15.476  10.746  35.246  1.00  0.00     0.000 C 
BRANCH  20  21
ATOM     21  C   UNL     1      14.238  10.418  34.382  1.00  0.00     0.000 C 
BRANCH  21  22
ATOM     22  C   UNL     1      14.154  11.141  33.021  1.00  0.00    -0.000 C 
BRANCH  22  23
ATOM     23  C   UNL     1      13.483  12.527  33.041  1.00  0.00    -0.000 C 
BRANCH  23  24
ATOM     24  C   UNL     1      12.551  12.725  34.250  1.00  0.00    -0.000 C 
BRANCH  24  25
ATOM     25  C   UNL     1      13.020  13.855  35.180  1.00  0.00    -0.000 C 
BRANCH  25  26
ATOM     26  C   UNL     1      13.175  13.393  36.640  1.00  0.00    -0.000 C 
BRANCH  26  27
ATOM     27  C   UNL     1      12.053  12.437  37.078  1.00  0.00    -0.000 C 
BRANCH  27  28
ATOM     28  C   UNL     1      12.591  11.120  37.663  1.00  0.00    -0.000 C 
BRANCH  28  29
ATOM     29  C   UNL     1      11.756   9.903  37.238  1.00  0.00    -0.003 C 
ATOM     30  C   UNL     1      10.355   9.901  37.849  1.00  0.00     0.004 C 
ENDBRANCH  28  29
ENDBRANCH  27  28
ENDBRANCH  26  27
ENDBRANCH  25  26
ENDBRANCH  24  25
ENDBRANCH  23  24
ENDBRANCH  22  23
ENDBRANCH  21  22
ENDBRANCH  20  21
ENDBRANCH  19  20
ENDBRANCH  18  19
ENDBRANCH  17  18
ENDBRANCH   1  17
TORSDOF 26
ENDMDL
