MODEL 1
REMARK VINA RESULT:    -5.131      0.000      0.000
REMARK INTER + INTRA:          -5.131
REMARK INTER:                  -5.131
REMARK INTRA:                   0.000
REMARK UNBOUND:                 0.000
REMARK SMILES CC(C)=C1CC[C@H](C)CC1=O
REMARK SMILES IDX 8 1 7 2 6 3 5 4 4 5 2 6 1 7 3 8 10 9 11 10 9 11
REMARK H PARENT
REMARK Flexibility Score: inf
ROOT
ATOM      1  C   UNL     1      -1.305 -16.234  -5.352  1.00  0.00     0.008 C 
ATOM      2  C   UNL     1      -2.288 -15.128  -5.752  1.00  0.00    -0.006 C 
ATOM      3  C   UNL     1      -1.699 -14.259  -6.874  1.00  0.00     0.008 C 
ATOM      4  C   UNL     1      -2.626 -13.086  -7.218  1.00  0.00     0.039 C 
ATOM      5  C   UNL     1      -4.050 -13.535  -7.513  1.00  0.00    -0.006 C 
ATOM      6  C   UNL     1      -4.835 -12.862  -8.405  1.00  0.00    -0.070 C 
ATOM      7  C   UNL     1      -6.230 -13.331  -8.750  1.00  0.00     0.039 C 
ATOM      8  C   UNL     1      -4.329 -11.633  -9.125  1.00  0.00     0.039 C 
ATOM      9  C   UNL     1      -4.565 -14.669  -6.690  1.00  0.00     0.159 C 
ATOM     10  O   UNL     1      -5.783 -14.753  -6.381  1.00  0.00    -0.295 OA
ATOM     11  C   UNL     1      -3.624 -15.735  -6.206  1.00  0.00     0.084 C 
ENDROOT
TORSDOF 0
ENDMDL
MODEL 2
REMARK VINA RESULT:    -4.881      1.183      4.069
REMARK INTER + INTRA:          -4.881
REMARK INTER:                  -4.881
REMARK INTRA:                   0.000
REMARK UNBOUND:                 0.000
REMARK SMILES CC(C)=C1CC[C@H](C)CC1=O
REMARK SMILES IDX 8 1 7 2 6 3 5 4 4 5 2 6 1 7 3 8 10 9 11 10 9 11
REMARK H PARENT
REMARK Flexibility Score: inf
ROOT
ATOM      1  C   UNL     1      -4.702 -11.376  -9.125  1.00  0.00     0.008 C 
ATOM      2  C   UNL     1      -3.994 -12.679  -8.738  1.00  0.00    -0.006 C 
ATOM      3  C   UNL     1      -3.009 -12.438  -7.583  1.00  0.00     0.008 C 
ATOM      4  C   UNL     1      -2.217 -13.710  -7.250  1.00  0.00     0.039 C 
ATOM      5  C   UNL     1      -3.118 -14.912  -7.009  1.00  0.00    -0.006 C 
ATOM      6  C   UNL     1      -2.766 -15.897  -6.131  1.00  0.00    -0.070 C 
ATOM      7  C   UNL     1      -3.678 -17.067  -5.840  1.00  0.00     0.039 C 
ATOM      8  C   UNL     1      -1.458 -15.844  -5.376  1.00  0.00     0.039 C 
ATOM      9  C   UNL     1      -4.337 -15.002  -7.866  1.00  0.00     0.159 C 
ATOM     10  O   UNL     1      -4.811 -16.116  -8.216  1.00  0.00    -0.295 OA
ATOM     11  C   UNL     1      -5.020 -13.750  -8.337  1.00  0.00     0.084 C 
ENDROOT
TORSDOF 0
ENDMDL
MODEL 3
REMARK VINA RESULT:    -4.879      1.562      2.298
REMARK INTER + INTRA:          -4.879
REMARK INTER:                  -4.879
REMARK INTRA:                   0.000
REMARK UNBOUND:                 0.000
REMARK SMILES CC(C)=C1CC[C@H](C)CC1=O
REMARK SMILES IDX 8 1 7 2 6 3 5 4 4 5 2 6 1 7 3 8 10 9 11 10 9 11
REMARK H PARENT
REMARK Flexibility Score: inf
ROOT
ATOM      1  C   UNL     1      -1.235 -15.722  -5.330  1.00  0.00     0.008 C 
ATOM      2  C   UNL     1      -2.022 -15.112  -6.496  1.00  0.00    -0.006 C 
ATOM      3  C   UNL     1      -3.354 -15.854  -6.696  1.00  0.00     0.008 C 
ATOM      4  C   UNL     1      -4.110 -15.323  -7.921  1.00  0.00     0.039 C 
ATOM      5  C   UNL     1      -4.282 -13.811  -7.891  1.00  0.00    -0.006 C 
ATOM      6  C   UNL     1      -5.377 -13.211  -8.443  1.00  0.00    -0.070 C 
ATOM      7  C   UNL     1      -5.588 -11.717  -8.370  1.00  0.00     0.039 C 
ATOM      8  C   UNL     1      -6.456 -14.022  -9.125  1.00  0.00     0.039 C 
ATOM      9  C   UNL     1      -3.139 -13.031  -7.331  1.00  0.00     0.159 C 
ATOM     10  O   UNL     1      -2.861 -11.878  -7.757  1.00  0.00    -0.295 OA
ATOM     11  C   UNL     1      -2.287 -13.620  -6.243  1.00  0.00     0.084 C 
ENDROOT
TORSDOF 0
ENDMDL
MODEL 4
REMARK VINA RESULT:    -4.822      1.251      1.688
REMARK INTER + INTRA:          -4.822
REMARK INTER:                  -4.822
REMARK INTRA:                   0.000
REMARK UNBOUND:                 0.000
REMARK SMILES CC(C)=C1CC[C@H](C)CC1=O
REMARK SMILES IDX 8 1 7 2 6 3 5 4 4 5 2 6 1 7 3 8 10 9 11 10 9 11
REMARK H PARENT
REMARK Flexibility Score: inf
ROOT
ATOM      1  C   UNL     1      -3.377 -17.405  -5.750  1.00  0.00     0.008 C 
ATOM      2  C   UNL     1      -3.732 -15.929  -5.962  1.00  0.00    -0.006 C 
ATOM      3  C   UNL     1      -2.461 -15.066  -5.995  1.00  0.00     0.008 C 
ATOM      4  C   UNL     1      -2.801 -13.574  -6.105  1.00  0.00     0.039 C 
ATOM      5  C   UNL     1      -3.742 -13.274  -7.264  1.00  0.00    -0.006 C 
ATOM      6  C   UNL     1      -3.682 -12.088  -7.937  1.00  0.00    -0.070 C 
ATOM      7  C   UNL     1      -4.570 -11.800  -9.125  1.00  0.00     0.039 C 
ATOM      8  C   UNL     1      -2.690 -11.015  -7.549  1.00  0.00     0.039 C 
ATOM      9  C   UNL     1      -4.795 -14.296  -7.536  1.00  0.00     0.159 C 
ATOM     10  O   UNL     1      -5.926 -13.968  -7.985  1.00  0.00    -0.295 OA
ATOM     11  C   UNL     1      -4.522 -15.749  -7.267  1.00  0.00     0.084 C 
ENDROOT
TORSDOF 0
ENDMDL
MODEL 5
REMARK VINA RESULT:    -4.510      1.523      4.567
REMARK INTER + INTRA:          -4.510
REMARK INTER:                  -4.510
REMARK INTRA:                   0.000
REMARK UNBOUND:                 0.000
REMARK SMILES CC(C)=C1CC[C@H](C)CC1=O
REMARK SMILES IDX 8 1 7 2 6 3 5 4 4 5 2 6 1 7 3 8 10 9 11 10 9 11
REMARK H PARENT
REMARK Flexibility Score: inf
ROOT
ATOM      1  C   UNL     1      -5.220 -11.813  -9.091  1.00  0.00     0.008 C 
ATOM      2  C   UNL     1      -4.884 -12.725  -7.905  1.00  0.00    -0.006 C 
ATOM      3  C   UNL     1      -5.329 -14.168  -8.189  1.00  0.00     0.008 C 
ATOM      4  C   UNL     1      -5.092 -15.075  -6.974  1.00  0.00     0.039 C 
ATOM      5  C   UNL     1      -3.663 -14.996  -6.456  1.00  0.00    -0.006 C 
ATOM      6  C   UNL     1      -3.057 -16.074  -5.878  1.00  0.00    -0.070 C 
ATOM      7  C   UNL     1      -1.621 -16.025  -5.412  1.00  0.00     0.039 C 
ATOM      8  C   UNL     1      -3.787 -17.388  -5.712  1.00  0.00     0.039 C 
ATOM      9  C   UNL     1      -3.018 -13.650  -6.513  1.00  0.00     0.159 C 
ATOM     10  O   UNL     1      -2.174 -13.292  -5.649  1.00  0.00    -0.295 OA
ATOM     11  C   UNL     1      -3.376 -12.690  -7.611  1.00  0.00     0.084 C 
ENDROOT
TORSDOF 0
ENDMDL
MODEL 6
REMARK VINA RESULT:    -4.484      0.973      1.050
REMARK INTER + INTRA:          -4.484
REMARK INTER:                  -4.484
REMARK INTRA:                   0.000
REMARK UNBOUND:                 0.000
REMARK SMILES CC(C)=C1CC[C@H](C)CC1=O
REMARK SMILES IDX 8 1 7 2 6 3 5 4 4 5 2 6 1 7 3 8 10 9 11 10 9 11
REMARK H PARENT
REMARK Flexibility Score: inf
ROOT
ATOM      1  C   UNL     1      -0.411 -16.241  -4.809  1.00  0.00     0.008 C 
ATOM      2  C   UNL     1      -1.541 -15.346  -5.330  1.00  0.00    -0.006 C 
ATOM      3  C   UNL     1      -1.110 -14.625  -6.618  1.00  0.00     0.008 C 
ATOM      4  C   UNL     1      -2.190 -13.648  -7.099  1.00  0.00     0.039 C 
ATOM      5  C   UNL     1      -3.557 -14.305  -7.227  1.00  0.00    -0.006 C 
ATOM      6  C   UNL     1      -4.455 -13.897  -8.171  1.00  0.00    -0.070 C 
ATOM      7  C   UNL     1      -5.792 -14.579  -8.346  1.00  0.00     0.039 C 
ATOM      8  C   UNL     1      -4.136 -12.762  -9.118  1.00  0.00     0.039 C 
ATOM      9  C   UNL     1      -3.892 -15.330  -6.194  1.00  0.00     0.159 C 
ATOM     10  O   UNL     1      -5.077 -15.501  -5.801  1.00  0.00    -0.295 OA
ATOM     11  C   UNL     1      -2.806 -16.176  -5.594  1.00  0.00     0.084 C 
ENDROOT
TORSDOF 0
ENDMDL
MODEL 7
REMARK VINA RESULT:    -4.341      1.244      4.085
REMARK INTER + INTRA:          -4.341
REMARK INTER:                  -4.341
REMARK INTRA:                   0.000
REMARK UNBOUND:                 0.000
REMARK SMILES CC(C)=C1CC[C@H](C)CC1=O
REMARK SMILES IDX 8 1 7 2 6 3 5 4 4 5 2 6 1 7 3 8 10 9 11 10 9 11
REMARK H PARENT
REMARK Flexibility Score: inf
ROOT
ATOM      1  C   UNL     1      -6.376 -13.158  -9.114  1.00  0.00     0.008 C 
ATOM      2  C   UNL     1      -5.110 -13.938  -8.743  1.00  0.00    -0.006 C 
ATOM      3  C   UNL     1      -3.940 -12.977  -8.478  1.00  0.00     0.008 C 
ATOM      4  C   UNL     1      -2.639 -13.742  -8.204  1.00  0.00     0.039 C 
ATOM      5  C   UNL     1      -2.797 -14.787  -7.108  1.00  0.00    -0.006 C 
ATOM      6  C   UNL     1      -1.759 -15.109  -6.281  1.00  0.00    -0.070 C 
ATOM      7  C   UNL     1      -1.919 -16.101  -5.152  1.00  0.00     0.039 C 
ATOM      8  C   UNL     1      -0.405 -14.454  -6.430  1.00  0.00     0.039 C 
ATOM      9  C   UNL     1      -4.103 -15.509  -7.072  1.00  0.00     0.159 C 
ATOM     10  O   UNL     1      -4.179 -16.707  -6.689  1.00  0.00    -0.295 OA
ATOM     11  C   UNL     1      -5.361 -14.811  -7.503  1.00  0.00     0.084 C 
ENDROOT
TORSDOF 0
ENDMDL
MODEL 8
REMARK VINA RESULT:    -4.294      1.765      2.669
REMARK INTER + INTRA:          -4.294
REMARK INTER:                  -4.294
REMARK INTRA:                   0.000
REMARK UNBOUND:                 0.000
REMARK SMILES CC(C)=C1CC[C@H](C)CC1=O
REMARK SMILES IDX 8 1 7 2 6 3 5 4 4 5 2 6 1 7 3 8 10 9 11 10 9 11
REMARK H PARENT
REMARK Flexibility Score: inf
ROOT
ATOM      1  C   UNL     1      -3.750 -17.515  -5.380  1.00  0.00     0.008 C 
ATOM      2  C   UNL     1      -3.774 -16.399  -6.431  1.00  0.00    -0.006 C 
ATOM      3  C   UNL     1      -5.093 -15.614  -6.356  1.00  0.00     0.008 C 
ATOM      4  C   UNL     1      -5.178 -14.558  -7.467  1.00  0.00     0.039 C 
ATOM      5  C   UNL     1      -3.958 -13.648  -7.501  1.00  0.00    -0.006 C 
ATOM      6  C   UNL     1      -4.056 -12.345  -7.896  1.00  0.00    -0.070 C 
ATOM      7  C   UNL     1      -2.865 -11.416  -7.880  1.00  0.00     0.039 C 
ATOM      8  C   UNL     1      -5.378 -11.756  -8.334  1.00  0.00     0.039 C 
ATOM      9  C   UNL     1      -2.648 -14.295  -7.192  1.00  0.00     0.159 C 
ATOM     10  O   UNL     1      -1.580 -13.899  -7.729  1.00  0.00    -0.295 OA
ATOM     11  C   UNL     1      -2.586 -15.446  -6.229  1.00  0.00     0.084 C 
ENDROOT
TORSDOF 0
ENDMDL
MODEL 9
REMARK VINA RESULT:    -3.123      2.080      4.596
REMARK INTER + INTRA:          -3.123
REMARK INTER:                  -3.123
REMARK INTRA:                   0.000
REMARK UNBOUND:                 0.000
REMARK SMILES CC(C)=C1CC[C@H](C)CC1=O
REMARK SMILES IDX 8 1 7 2 6 3 5 4 4 5 2 6 1 7 3 8 10 9 11 10 9 11
REMARK H PARENT
REMARK Flexibility Score: inf
ROOT
ATOM      1  C   UNL     1      -5.694 -14.473  -6.944  1.00  0.00     0.008 C 
ATOM      2  C   UNL     1      -4.240 -14.958  -6.918  1.00  0.00    -0.006 C 
ATOM      3  C   UNL     1      -3.279 -13.777  -6.707  1.00  0.00     0.008 C 
ATOM      4  C   UNL     1      -1.814 -14.229  -6.780  1.00  0.00     0.039 C 
ATOM      5  C   UNL     1      -1.517 -15.397  -5.851  1.00  0.00    -0.006 C 
ATOM      6  C   UNL     1      -0.290 -15.549  -5.271  1.00  0.00    -0.070 C 
ATOM      7  C   UNL     1       0.000 -16.671  -4.302  1.00  0.00     0.039 C 
ATOM      8  C   UNL     1       0.831 -14.572  -5.543  1.00  0.00     0.039 C 
ATOM      9  C   UNL     1      -2.600 -16.415  -5.708  1.00  0.00     0.159 C 
ATOM     10  O   UNL     1      -2.335 -17.631  -5.512  1.00  0.00    -0.295 OA
ATOM     11  C   UNL     1      -4.040 -16.000  -5.807  1.00  0.00     0.084 C 
ENDROOT
TORSDOF 0
ENDMDL
