MODEL 1
REMARK VINA RESULT:    27.437      0.000      0.000
REMARK INTER + INTRA:          32.648
REMARK INTER:                  33.051
REMARK INTRA:                  -0.403
REMARK UNBOUND:                -0.403
REMARK SMILES O=c1c(O)c(-c2ccc(O)cc2O)oc2cc(O)cc(O)c12
REMARK SMILES IDX 5 1 3 2 2 3 1 4 22 5 20 6 19 7 17 8 16 9 15 10 14 11 6 12
REMARK SMILES IDX 8 13 7 14 9 15 11 16 12 17 10 18 13 20 4 22 21 24 18 26
REMARK H PARENT 10 19 13 21 4 23 21 25 18 27
REMARK Flexibility Score: inf
ROOT
ATOM      1  C   UNL     1      15.339   4.316  15.149  1.00  0.00     0.184 A 
ATOM      2  C   UNL     1      14.247   4.095  14.293  1.00  0.00     0.208 A 
ATOM      3  C   UNL     1      13.373   5.158  14.017  1.00  0.00     0.238 A 
ATOM      4  O   UNL     1      12.429   4.969  13.206  1.00  0.00    -0.285 OA
ATOM      5  C   UNL     1      13.590   6.423  14.616  1.00  0.00     0.111 A 
ATOM      6  C   UNL     1      12.745   7.559  14.438  1.00  0.00     0.134 A 
ATOM      7  C   UNL     1      13.128   8.795  14.976  1.00  0.00     0.093 A 
ATOM      8  C   UNL     1      14.291   8.919  15.740  1.00  0.00     0.123 A 
ATOM      9  C   UNL     1      15.091   7.802  15.968  1.00  0.00     0.094 A 
ATOM     10  C   UNL     1      14.755   6.564  15.413  1.00  0.00     0.146 A 
ATOM     11  O   UNL     1      15.552   5.528  15.647  1.00  0.00    -0.451 OA
ENDROOT
BRANCH   1  12
ATOM     12  C   UNL     1      16.287   3.233  15.502  1.00  0.00     0.063 A 
ATOM     13  C   UNL     1      18.281   1.929  15.001  1.00  0.00     0.047 A 
ATOM     14  C   UNL     1      17.402   2.968  14.685  1.00  0.00     0.020 A 
ATOM     15  C   UNL     1      18.055   1.136  16.131  1.00  0.00     0.119 A 
ATOM     16  C   UNL     1      16.943   1.383  16.942  1.00  0.00     0.093 A 
ATOM     17  C   UNL     1      16.056   2.425  16.633  1.00  0.00     0.130 A 
BRANCH  15  18
ATOM     18  O   UNL     1      18.925   0.098  16.456  1.00  0.00    -0.508 OA
ATOM     19  H   UNL     1      19.716   0.244  17.073  1.00  0.00     0.293 HD
ENDBRANCH  15  18
BRANCH  17  20
ATOM     20  O   UNL     1      14.955   2.664  17.455  1.00  0.00    -0.507 OA
ATOM     21  H   UNL     1      14.166   3.217  17.141  1.00  0.00     0.293 HD
ENDBRANCH  17  20
ENDBRANCH   1  12
BRANCH   2  22
ATOM     22  O   UNL     1      14.061   2.842  13.703  1.00  0.00    -0.502 OA
ATOM     23  H   UNL     1      14.673   2.056  13.890  1.00  0.00     0.293 HD
ENDBRANCH   2  22
BRANCH   6  24
ATOM     24  O   UNL     1      11.518   7.523  13.770  1.00  0.00    -0.507 OA
ATOM     25  H   UNL     1      10.781   6.860  13.957  1.00  0.00     0.293 HD
ENDBRANCH   6  24
BRANCH   8  26
ATOM     26  O   UNL     1      14.656  10.148  16.285  1.00  0.00    -0.508 OA
ATOM     27  H   UNL     1      15.176  10.832  15.748  1.00  0.00     0.293 HD
ENDBRANCH   8  26
TORSDOF 6
ENDMDL
MODEL 2
REMARK VINA RESULT:    28.992      1.527      6.792
REMARK INTER + INTRA:          34.522
REMARK INTER:                  34.926
REMARK INTRA:                  -0.405
REMARK UNBOUND:                -0.403
REMARK SMILES O=c1c(O)c(-c2ccc(O)cc2O)oc2cc(O)cc(O)c12
REMARK SMILES IDX 5 1 3 2 2 3 1 4 22 5 20 6 19 7 17 8 16 9 15 10 14 11 6 12
REMARK SMILES IDX 8 13 7 14 9 15 11 16 12 17 10 18 13 20 4 22 21 24 18 26
REMARK H PARENT 10 19 13 21 4 23 21 25 18 27
REMARK Flexibility Score: inf
ROOT
ATOM      1  C   UNL     1      14.842   5.384  15.438  1.00  0.00     0.184 A 
ATOM      2  C   UNL     1      14.691   4.826  16.719  1.00  0.00     0.208 A 
ATOM      3  C   UNL     1      15.404   3.661  17.043  1.00  0.00     0.238 A 
ATOM      4  O   UNL     1      15.307   3.198  18.209  1.00  0.00    -0.285 OA
ATOM      5  C   UNL     1      16.243   3.056  16.075  1.00  0.00     0.111 A 
ATOM      6  C   UNL     1      16.980   1.852  16.281  1.00  0.00     0.134 A 
ATOM      7  C   UNL     1      17.877   1.415  15.298  1.00  0.00     0.093 A 
ATOM      8  C   UNL     1      18.014   2.104  14.090  1.00  0.00     0.123 A 
ATOM      9  C   UNL     1      17.255   3.248  13.856  1.00  0.00     0.094 A 
ATOM     10  C   UNL     1      16.379   3.728  14.833  1.00  0.00     0.146 A 
ATOM     11  O   UNL     1      15.683   4.829  14.573  1.00  0.00    -0.451 OA
ENDROOT
BRANCH   1  12
ATOM     12  C   UNL     1      14.103   6.598  15.022  1.00  0.00     0.063 A 
ATOM     13  C   UNL     1      13.935   9.023  14.890  1.00  0.00     0.047 A 
ATOM     14  C   UNL     1      14.643   7.876  15.256  1.00  0.00     0.020 A 
ATOM     15  C   UNL     1      12.674   8.912  14.294  1.00  0.00     0.119 A 
ATOM     16  C   UNL     1      12.123   7.646  14.069  1.00  0.00     0.093 A 
ATOM     17  C   UNL     1      12.828   6.489  14.432  1.00  0.00     0.130 A 
BRANCH  15  18
ATOM     18  O   UNL     1      11.959  10.048  13.924  1.00  0.00    -0.508 OA
ATOM     19  H   UNL     1      12.422  10.936  13.763  1.00  0.00     0.293 HD
ENDBRANCH  15  18
BRANCH  17  20
ATOM     20  O   UNL     1      12.268   5.234  14.196  1.00  0.00    -0.507 OA
ATOM     21  H   UNL     1      12.336   4.484  14.874  1.00  0.00     0.293 HD
ENDBRANCH  17  20
ENDBRANCH   1  12
BRANCH   2  22
ATOM     22  O   UNL     1      13.868   5.449  17.662  1.00  0.00    -0.502 OA
ATOM     23  H   UNL     1      13.147   6.111  17.402  1.00  0.00     0.293 HD
ENDBRANCH   2  22
BRANCH   6  24
ATOM     24  O   UNL     1      16.849   1.040  17.412  1.00  0.00    -0.507 OA
ATOM     25  H   UNL     1      15.976   0.828  17.869  1.00  0.00     0.293 HD
ENDBRANCH   6  24
BRANCH   8  26
ATOM     26  O   UNL     1      18.897   1.653  13.111  1.00  0.00    -0.508 OA
ATOM     27  H   UNL     1      19.631   2.248  12.746  1.00  0.00     0.293 HD
ENDBRANCH   8  26
TORSDOF 6
ENDMDL
