MODEL 1
REMARK VINA RESULT:    -2.687      0.000      0.000
REMARK INTER + INTRA:          -2.922
REMARK INTER:                  -2.922
REMARK INTRA:                   0.000
REMARK UNBOUND:                 0.000
REMARK SMILES [NH3+]CC(=O)[O-]
REMARK SMILES IDX 2 1 1 2 3 6 4 7 5 8
REMARK H PARENT 1 3 1 4 1 5
REMARK Flexibility Score: inf
ROOT
ATOM      1  C   UNL     1     148.445 139.854 154.444  1.00  0.00     0.312 C 
ENDROOT
BRANCH   1   2
ATOM      2  N   UNL     1     147.299 139.998 153.548  1.00  0.00    -0.353 N 
ATOM      3  H   UNL     1     146.577 140.597 154.010  1.00  0.00     0.344 HD
ATOM      4  H   UNL     1     147.596 140.452 152.655  1.00  0.00     0.344 HD
ATOM      5  H   UNL     1     146.880 139.060 153.347  1.00  0.00     0.344 HD
ENDBRANCH   1   2
BRANCH   1   6
ATOM      6  C   UNL     1     149.684 139.529 153.667  1.00  0.00     0.096 C 
ATOM      7  O   UNL     1     149.658 139.522 152.409  1.00  0.00    -0.544 OA
ATOM      8  O   UNL     1     150.853 139.186 154.334  1.00  0.00    -0.544 OA
ENDBRANCH   1   6
TORSDOF 2
ENDMDL
MODEL 2
REMARK VINA RESULT:    -2.615      2.275      2.730
REMARK INTER + INTRA:          -2.844
REMARK INTER:                  -2.844
REMARK INTRA:                   0.000
REMARK UNBOUND:                 0.000
REMARK SMILES [NH3+]CC(=O)[O-]
REMARK SMILES IDX 2 1 1 2 3 6 4 7 5 8
REMARK H PARENT 1 3 1 4 1 5
REMARK Flexibility Score: inf
ROOT
ATOM      1  C   UNL     1     150.345 139.172 154.067  1.00  0.00     0.312 C 
ENDROOT
BRANCH   1   2
ATOM      2  N   UNL     1     150.334 137.948 154.864  1.00  0.00    -0.353 N 
ATOM      3  H   UNL     1     149.344 137.660 155.036  1.00  0.00     0.344 HD
ATOM      4  H   UNL     1     150.826 137.181 154.351  1.00  0.00     0.344 HD
ATOM      5  H   UNL     1     150.802 138.114 155.785  1.00  0.00     0.344 HD
ENDBRANCH   1   2
BRANCH   1   6
ATOM      6  C   UNL     1     148.949 139.662 153.834  1.00  0.00     0.096 C 
ATOM      7  O   UNL     1     148.276 140.133 154.787  1.00  0.00    -0.544 OA
ATOM      8  O   UNL     1     148.374 139.552 152.574  1.00  0.00    -0.544 OA
ENDBRANCH   1   6
TORSDOF 2
ENDMDL
MODEL 3
REMARK VINA RESULT:    -2.551      1.718      2.045
REMARK INTER + INTRA:          -2.774
REMARK INTER:                  -2.774
REMARK INTRA:                   0.000
REMARK UNBOUND:                 0.000
REMARK SMILES [NH3+]CC(=O)[O-]
REMARK SMILES IDX 2 1 1 2 3 6 4 7 5 8
REMARK H PARENT 1 3 1 4 1 5
REMARK Flexibility Score: inf
ROOT
ATOM      1  C   UNL     1     147.048 138.874 153.027  1.00  0.00     0.312 C 
ENDROOT
BRANCH   1   2
ATOM      2  N   UNL     1     145.998 139.877 152.863  1.00  0.00    -0.353 N 
ATOM      3  H   UNL     1     146.433 140.829 152.854  1.00  0.00     0.344 HD
ATOM      4  H   UNL     1     145.495 139.726 151.959  1.00  0.00     0.344 HD
ATOM      5  H   UNL     1     145.321 139.823 153.659  1.00  0.00     0.344 HD
ENDBRANCH   1   2
BRANCH   1   6
ATOM      6  C   UNL     1     148.335 139.520 153.438  1.00  0.00     0.096 C 
ATOM      7  O   UNL     1     148.445 140.041 154.578  1.00  0.00    -0.544 OA
ATOM      8  O   UNL     1     149.396 139.589 152.543  1.00  0.00    -0.544 OA
ENDBRANCH   1   6
TORSDOF 2
ENDMDL
MODEL 4
REMARK VINA RESULT:    -2.546      1.766      1.798
REMARK INTER + INTRA:          -2.769
REMARK INTER:                  -2.769
REMARK INTRA:                   0.000
REMARK UNBOUND:                 0.000
REMARK SMILES [NH3+]CC(=O)[O-]
REMARK SMILES IDX 2 1 1 2 3 6 4 7 5 8
REMARK H PARENT 1 3 1 4 1 5
REMARK Flexibility Score: inf
ROOT
ATOM      1  C   UNL     1     147.066 138.893 152.885  1.00  0.00     0.312 C 
ENDROOT
BRANCH   1   2
ATOM      2  N   UNL     1     145.968 139.858 152.852  1.00  0.00    -0.353 N 
ATOM      3  H   UNL     1     145.940 140.375 153.760  1.00  0.00     0.344 HD
ATOM      4  H   UNL     1     146.116 140.542 152.076  1.00  0.00     0.344 HD
ATOM      5  H   UNL     1     145.057 139.361 152.717  1.00  0.00     0.344 HD
ENDBRANCH   1   2
BRANCH   1   6
ATOM      6  C   UNL     1     148.337 139.555 153.319  1.00  0.00     0.096 C 
ATOM      7  O   UNL     1     149.313 139.629 152.529  1.00  0.00    -0.544 OA
ATOM      8  O   UNL     1     148.459 140.045 154.613  1.00  0.00    -0.544 OA
ENDBRANCH   1   6
TORSDOF 2
ENDMDL
MODEL 5
REMARK VINA RESULT:    -2.471      2.536      2.722
REMARK INTER + INTRA:          -2.688
REMARK INTER:                  -2.688
REMARK INTRA:                   0.000
REMARK UNBOUND:                 0.000
REMARK SMILES [NH3+]CC(=O)[O-]
REMARK SMILES IDX 2 1 1 2 3 6 4 7 5 8
REMARK H PARENT 1 3 1 4 1 5
REMARK Flexibility Score: inf
ROOT
ATOM      1  C   UNL     1     148.728 139.535 153.460  1.00  0.00     0.312 C 
ENDROOT
BRANCH   1   2
ATOM      2  N   UNL     1     148.610 140.350 154.667  1.00  0.00    -0.353 N 
ATOM      3  H   UNL     1     149.477 140.238 155.241  1.00  0.00     0.344 HD
ATOM      4  H   UNL     1     148.501 141.358 154.411  1.00  0.00     0.344 HD
ATOM      5  H   UNL     1     147.787 140.038 155.233  1.00  0.00     0.344 HD
ENDBRANCH   1   2
BRANCH   1   6
ATOM      6  C   UNL     1     147.412 138.908 153.116  1.00  0.00     0.096 C 
ATOM      7  O   UNL     1     146.499 139.600 152.596  1.00  0.00    -0.544 OA
ATOM      8  O   UNL     1     147.179 137.572 153.415  1.00  0.00    -0.544 OA
ENDBRANCH   1   6
TORSDOF 2
ENDMDL
MODEL 6
REMARK VINA RESULT:    -2.294      2.326      2.764
REMARK INTER + INTRA:          -2.495
REMARK INTER:                  -2.495
REMARK INTRA:                   0.000
REMARK UNBOUND:                 0.000
REMARK SMILES [NH3+]CC(=O)[O-]
REMARK SMILES IDX 2 1 1 2 3 6 4 7 5 8
REMARK H PARENT 1 3 1 4 1 5
REMARK Flexibility Score: inf
ROOT
ATOM      1  C   UNL     1     148.893 139.622 153.818  1.00  0.00     0.312 C 
ENDROOT
BRANCH   1   2
ATOM      2  N   UNL     1     149.502 139.678 152.490  1.00  0.00    -0.353 N 
ATOM      3  H   UNL     1     149.502 140.668 152.156  1.00  0.00     0.344 HD
ATOM      4  H   UNL     1     150.488 139.334 152.533  1.00  0.00     0.344 HD
ATOM      5  H   UNL     1     148.952 139.094 151.818  1.00  0.00     0.344 HD
ENDBRANCH   1   2
BRANCH   1   6
ATOM      6  C   UNL     1     148.222 138.301 154.035  1.00  0.00     0.096 C 
ATOM      7  O   UNL     1     148.736 137.449 154.806  1.00  0.00    -0.544 OA
ATOM      8  O   UNL     1     147.055 137.992 153.348  1.00  0.00    -0.544 OA
ENDBRANCH   1   6
TORSDOF 2
ENDMDL
MODEL 7
REMARK VINA RESULT:    -2.265     10.697     11.125
REMARK INTER + INTRA:          -2.464
REMARK INTER:                  -2.464
REMARK INTRA:                   0.000
REMARK UNBOUND:                 0.000
REMARK SMILES [NH3+]CC(=O)[O-]
REMARK SMILES IDX 2 1 1 2 3 6 4 7 5 8
REMARK H PARENT 1 3 1 4 1 5
REMARK Flexibility Score: inf
ROOT
ATOM      1  C   UNL     1     137.617 141.285 155.143  1.00  0.00     0.312 C 
ENDROOT
BRANCH   1   2
ATOM      2  N   UNL     1     137.951 142.282 154.128  1.00  0.00    -0.353 N 
ATOM      3  H   UNL     1     138.922 142.631 154.298  1.00  0.00     0.344 HD
ATOM      4  H   UNL     1     137.906 141.854 153.176  1.00  0.00     0.344 HD
ATOM      5  H   UNL     1     137.287 143.089 154.185  1.00  0.00     0.344 HD
ENDBRANCH   1   2
BRANCH   1   6
ATOM      6  C   UNL     1     138.300 139.985 154.850  1.00  0.00     0.096 C 
ATOM      7  O   UNL     1     137.663 139.043 154.311  1.00  0.00    -0.544 OA
ATOM      8  O   UNL     1     139.627 139.798 155.217  1.00  0.00    -0.544 OA
ENDBRANCH   1   6
TORSDOF 2
ENDMDL
MODEL 8
REMARK VINA RESULT:    -2.186     10.706     11.099
REMARK INTER + INTRA:          -2.377
REMARK INTER:                  -2.377
REMARK INTRA:                   0.000
REMARK UNBOUND:                 0.000
REMARK SMILES [NH3+]CC(=O)[O-]
REMARK SMILES IDX 2 1 1 2 3 6 4 7 5 8
REMARK H PARENT 1 3 1 4 1 5
REMARK Flexibility Score: inf
ROOT
ATOM      1  C   UNL     1     138.777 140.574 153.319  1.00  0.00     0.312 C 
ENDROOT
BRANCH   1   2
ATOM      2  N   UNL     1     138.397 141.946 152.991  1.00  0.00    -0.353 N 
ATOM      3  H   UNL     1     137.826 141.942 152.115  1.00  0.00     0.344 HD
ATOM      4  H   UNL     1     137.828 142.356 153.765  1.00  0.00     0.344 HD
ATOM      5  H   UNL     1     139.253 142.528 152.833  1.00  0.00     0.344 HD
ENDBRANCH   1   2
BRANCH   1   6
ATOM      6  C   UNL     1     138.389 140.242 154.727  1.00  0.00     0.096 C 
ATOM      7  O   UNL     1     138.754 139.154 155.244  1.00  0.00    -0.544 OA
ATOM      8  O   UNL     1     137.582 141.112 155.450  1.00  0.00    -0.544 OA
ENDBRANCH   1   6
TORSDOF 2
ENDMDL
MODEL 9
REMARK VINA RESULT:    -2.175      8.382      8.779
REMARK INTER + INTRA:          -2.366
REMARK INTER:                  -2.366
REMARK INTRA:                   0.000
REMARK UNBOUND:                 0.000
REMARK SMILES [NH3+]CC(=O)[O-]
REMARK SMILES IDX 2 1 1 2 3 6 4 7 5 8
REMARK H PARENT 1 3 1 4 1 5
REMARK Flexibility Score: inf
ROOT
ATOM      1  C   UNL     1     141.314 137.522 155.042  1.00  0.00     0.312 C 
ENDROOT
BRANCH   1   2
ATOM      2  N   UNL     1     140.992 136.739 156.233  1.00  0.00    -0.353 N 
ATOM      3  H   UNL     1     141.053 137.356 157.075  1.00  0.00     0.344 HD
ATOM      4  H   UNL     1     140.021 136.359 156.161  1.00  0.00     0.344 HD
ATOM      5  H   UNL     1     141.673 135.952 156.341  1.00  0.00     0.344 HD
ENDBRANCH   1   2
BRANCH   1   6
ATOM      6  C   UNL     1     141.060 138.978 155.283  1.00  0.00     0.096 C 
ATOM      7  O   UNL     1     141.769 139.616 156.103  1.00  0.00    -0.544 OA
ATOM      8  O   UNL     1     140.008 139.616 154.638  1.00  0.00    -0.544 OA
ENDBRANCH   1   6
TORSDOF 2
ENDMDL
