MODEL 1
REMARK VINA RESULT:    -3.500      0.000      0.000
REMARK INTER + INTRA:          -5.599
REMARK INTER:                  -4.932
REMARK INTRA:                  -0.667
REMARK UNBOUND:                -0.667
REMARK SMILES CCCCCCCCC(=O)[O-]
REMARK SMILES IDX 6 1 7 2 8 3 9 4 10 5 11 6 5 7 4 8 3 9 2 10 1 11
REMARK H PARENT
REMARK Flexibility Score: inf
ROOT
ATOM      1  C   UNL     1       6.961 124.882 111.869  1.00  0.00     0.000 C 
ENDROOT
BRANCH   1   2
ATOM      2  C   UNL     1       7.548 125.592 110.639  1.00  0.00     0.006 C 
BRANCH   2   3
ATOM      3  C   UNL     1       8.104 124.602 109.607  1.00  0.00     0.053 C 
BRANCH   3   4
ATOM      4  C   UNL     1       7.632 124.918 108.222  1.00  0.00     0.041 C 
ATOM      5  O   UNL     1       8.380 124.702 107.233  1.00  0.00    -0.550 OA
ATOM      6  O   UNL     1       6.353 125.423 108.020  1.00  0.00    -0.550 OA
ENDBRANCH   3   4
ENDBRANCH   2   3
ENDBRANCH   1   2
BRANCH   1   7
ATOM      7  C   UNL     1       6.628 123.419 111.553  1.00  0.00     0.000 C 
BRANCH   7   8
ATOM      8  C   UNL     1       5.163 123.104 111.877  1.00  0.00    -0.000 C 
BRANCH   8   9
ATOM      9  C   UNL     1       4.344 124.395 112.037  1.00  0.00    -0.000 C 
BRANCH   9  10
ATOM     10  C   UNL     1       3.419 124.659 110.839  1.00  0.00    -0.003 C 
ATOM     11  C   UNL     1       3.674 126.016 110.183  1.00  0.00     0.004 C 
ENDBRANCH   9  10
ENDBRANCH   8   9
ENDBRANCH   7   8
ENDBRANCH   1   7
TORSDOF 7
ENDMDL
MODEL 2
REMARK VINA RESULT:    -3.461      2.677      4.678
REMARK INTER + INTRA:          -5.545
REMARK INTER:                  -5.210
REMARK INTRA:                  -0.336
REMARK UNBOUND:                -0.667
REMARK SMILES CCCCCCCCC(=O)[O-]
REMARK SMILES IDX 6 1 7 2 8 3 9 4 10 5 11 6 5 7 4 8 3 9 2 10 1 11
REMARK H PARENT
REMARK Flexibility Score: inf
ROOT
ATOM      1  C   UNL     1       5.381 124.473 112.091  1.00  0.00     0.000 C 
ENDROOT
BRANCH   1   2
ATOM      2  C   UNL     1       3.871 124.314 111.858  1.00  0.00     0.006 C 
BRANCH   2   3
ATOM      3  C   UNL     1       3.419 124.939 110.532  1.00  0.00     0.053 C 
BRANCH   3   4
ATOM      4  C   UNL     1       2.493 126.096 110.749  1.00  0.00     0.041 C 
ATOM      5  O   UNL     1       2.630 127.151 110.076  1.00  0.00    -0.550 OA
ATOM      6  O   UNL     1       1.460 125.998 111.673  1.00  0.00    -0.550 OA
ENDBRANCH   3   4
ENDBRANCH   2   3
ENDBRANCH   1   2
BRANCH   1   7
ATOM      7  C   UNL     1       6.071 125.057 110.853  1.00  0.00     0.000 C 
BRANCH   7   8
ATOM      8  C   UNL     1       7.187 124.132 110.356  1.00  0.00    -0.000 C 
BRANCH   8   9
ATOM      9  C   UNL     1       8.125 124.872 109.389  1.00  0.00    -0.000 C 
BRANCH   9  10
ATOM     10  C   UNL     1       7.866 124.507 107.919  1.00  0.00    -0.003 C 
ATOM     11  C   UNL     1       6.801 125.390 107.270  1.00  0.00     0.004 C 
ENDBRANCH   9  10
ENDBRANCH   8   9
ENDBRANCH   7   8
ENDBRANCH   1   7
TORSDOF 7
ENDMDL
MODEL 3
REMARK VINA RESULT:    -3.388      2.741      3.628
REMARK INTER + INTRA:          -5.442
REMARK INTER:                  -5.038
REMARK INTRA:                  -0.404
REMARK UNBOUND:                -0.667
REMARK SMILES CCCCCCCCC(=O)[O-]
REMARK SMILES IDX 6 1 7 2 8 3 9 4 10 5 11 6 5 7 4 8 3 9 2 10 1 11
REMARK H PARENT
REMARK Flexibility Score: inf
ROOT
ATOM      1  C   UNL     1       4.497 124.158 112.049  1.00  0.00     0.000 C 
ENDROOT
BRANCH   1   2
ATOM      2  C   UNL     1       5.489 123.022 111.754  1.00  0.00     0.006 C 
BRANCH   2   3
ATOM      3  C   UNL     1       6.714 123.509 110.969  1.00  0.00     0.053 C 
BRANCH   3   4
ATOM      4  C   UNL     1       7.799 123.997 111.878  1.00  0.00     0.041 C 
ATOM      5  O   UNL     1       8.190 125.193 111.812  1.00  0.00    -0.550 OA
ATOM      6  O   UNL     1       8.357 123.142 112.819  1.00  0.00    -0.550 OA
ENDBRANCH   3   4
ENDBRANCH   2   3
ENDBRANCH   1   2
BRANCH   1   7
ATOM      7  C   UNL     1       3.919 124.734 110.751  1.00  0.00     0.000 C 
BRANCH   7   8
ATOM      8  C   UNL     1       2.606 125.479 111.016  1.00  0.00    -0.000 C 
BRANCH   8   9
ATOM      9  C   UNL     1       1.907 124.936 112.271  1.00  0.00    -0.000 C 
BRANCH   9  10
ATOM     10  C   UNL     1       1.116 126.018 113.022  1.00  0.00    -0.003 C 
ATOM     11  C   UNL     1       1.347 127.419 112.458  1.00  0.00     0.004 C 
ENDBRANCH   9  10
ENDBRANCH   8   9
ENDBRANCH   7   8
ENDBRANCH   1   7
TORSDOF 7
ENDMDL
MODEL 4
REMARK VINA RESULT:    -3.366      2.493      3.244
REMARK INTER + INTRA:          -5.411
REMARK INTER:                  -4.967
REMARK INTRA:                  -0.444
REMARK UNBOUND:                -0.667
REMARK SMILES CCCCCCCCC(=O)[O-]
REMARK SMILES IDX 6 1 7 2 8 3 9 4 10 5 11 6 5 7 4 8 3 9 2 10 1 11
REMARK H PARENT
REMARK Flexibility Score: inf
ROOT
ATOM      1  C   UNL     1       5.093 125.142 111.990  1.00  0.00     0.000 C 
ENDROOT
BRANCH   1   2
ATOM      2  C   UNL     1       6.317 126.065 112.087  1.00  0.00     0.006 C 
BRANCH   2   3
ATOM      3  C   UNL     1       7.464 125.609 111.176  1.00  0.00     0.053 C 
BRANCH   3   4
ATOM      4  C   UNL     1       7.962 124.246 111.548  1.00  0.00     0.041 C 
ATOM      5  O   UNL     1       8.797 124.110 112.480  1.00  0.00    -0.550 OA
ATOM      6  O   UNL     1       7.480 123.124 110.886  1.00  0.00    -0.550 OA
ENDBRANCH   3   4
ENDBRANCH   2   3
ENDBRANCH   1   2
BRANCH   1   7
ATOM      7  C   UNL     1       4.484 125.183 110.584  1.00  0.00     0.000 C 
BRANCH   7   8
ATOM      8  C   UNL     1       2.962 125.008 110.637  1.00  0.00    -0.000 C 
BRANCH   8   9
ATOM      9  C   UNL     1       2.268 126.327 111.012  1.00  0.00    -0.000 C 
BRANCH   9  10
ATOM     10  C   UNL     1       1.415 126.206 112.284  1.00  0.00    -0.003 C 
ATOM     11  C   UNL     1       1.443 124.800 112.882  1.00  0.00     0.004 C 
ENDBRANCH   9  10
ENDBRANCH   8   9
ENDBRANCH   7   8
ENDBRANCH   1   7
TORSDOF 7
ENDMDL
MODEL 5
REMARK VINA RESULT:    -3.366      2.720      4.942
REMARK INTER + INTRA:          -5.411
REMARK INTER:                  -4.996
REMARK INTRA:                  -0.415
REMARK UNBOUND:                -0.667
REMARK SMILES CCCCCCCCC(=O)[O-]
REMARK SMILES IDX 6 1 7 2 8 3 9 4 10 5 11 6 5 7 4 8 3 9 2 10 1 11
REMARK H PARENT
REMARK Flexibility Score: inf
ROOT
ATOM      1  C   UNL     1       4.979 124.535 111.289  1.00  0.00     0.000 C 
ENDROOT
BRANCH   1   2
ATOM      2  C   UNL     1       3.959 125.222 110.367  1.00  0.00     0.006 C 
BRANCH   2   3
ATOM      3  C   UNL     1       2.585 125.373 111.032  1.00  0.00     0.053 C 
BRANCH   3   4
ATOM      4  C   UNL     1       1.984 126.719 110.768  1.00  0.00     0.041 C 
ATOM      5  O   UNL     1       0.920 127.062 111.347  1.00  0.00    -0.550 OA
ATOM      6  O   UNL     1       2.616 127.607 109.907  1.00  0.00    -0.550 OA
ENDBRANCH   3   4
ENDBRANCH   2   3
ENDBRANCH   1   2
BRANCH   1   7
ATOM      7  C   UNL     1       6.118 125.491 111.659  1.00  0.00     0.000 C 
BRANCH   7   8
ATOM      8  C   UNL     1       7.483 124.817 111.485  1.00  0.00    -0.000 C 
BRANCH   8   9
ATOM      9  C   UNL     1       7.560 124.066 110.147  1.00  0.00    -0.000 C 
BRANCH   9  10
ATOM     10  C   UNL     1       8.164 124.921 109.022  1.00  0.00    -0.003 C 
ATOM     11  C   UNL     1       7.528 124.643 107.661  1.00  0.00     0.004 C 
ENDBRANCH   9  10
ENDBRANCH   8   9
ENDBRANCH   7   8
ENDBRANCH   1   7
TORSDOF 7
ENDMDL
MODEL 6
REMARK VINA RESULT:    -3.329      2.503      3.572
REMARK INTER + INTRA:          -5.359
REMARK INTER:                  -4.586
REMARK INTRA:                  -0.773
REMARK UNBOUND:                -0.667
REMARK SMILES CCCCCCCCC(=O)[O-]
REMARK SMILES IDX 6 1 7 2 8 3 9 4 10 5 11 6 5 7 4 8 3 9 2 10 1 11
REMARK H PARENT
REMARK Flexibility Score: inf
ROOT
ATOM      1  C   UNL     1       4.966 126.148 111.767  1.00  0.00     0.000 C 
ENDROOT
BRANCH   1   2
ATOM      2  C   UNL     1       6.476 125.866 111.743  1.00  0.00     0.006 C 
BRANCH   2   3
ATOM      3  C   UNL     1       6.907 124.915 112.867  1.00  0.00     0.053 C 
BRANCH   3   4
ATOM      4  C   UNL     1       7.578 123.688 112.330  1.00  0.00     0.041 C 
ATOM      5  O   UNL     1       8.398 123.052 113.042  1.00  0.00    -0.550 OA
ATOM      6  O   UNL     1       7.272 123.228 111.055  1.00  0.00    -0.550 OA
ENDBRANCH   3   4
ENDBRANCH   2   3
ENDBRANCH   1   2
BRANCH   1   7
ATOM      7  C   UNL     1       4.244 125.370 110.662  1.00  0.00     0.000 C 
BRANCH   7   8
ATOM      8  C   UNL     1       3.105 124.521 111.239  1.00  0.00    -0.000 C 
BRANCH   8   9
ATOM      9  C   UNL     1       3.044 124.648 112.769  1.00  0.00    -0.000 C 
BRANCH   9  10
ATOM     10  C   UNL     1       2.995 123.284 113.474  1.00  0.00    -0.003 C 
ATOM     11  C   UNL     1       4.219 122.419 113.174  1.00  0.00     0.004 C 
ENDBRANCH   9  10
ENDBRANCH   8   9
ENDBRANCH   7   8
ENDBRANCH   1   7
TORSDOF 7
ENDMDL
MODEL 7
REMARK VINA RESULT:    -3.214      2.615      3.191
REMARK INTER + INTRA:          -5.197
REMARK INTER:                  -4.604
REMARK INTRA:                  -0.593
REMARK UNBOUND:                -0.667
REMARK SMILES CCCCCCCCC(=O)[O-]
REMARK SMILES IDX 6 1 7 2 8 3 9 4 10 5 11 6 5 7 4 8 3 9 2 10 1 11
REMARK H PARENT
REMARK Flexibility Score: inf
ROOT
ATOM      1  C   UNL     1       5.673 126.354 112.899  1.00  0.00     0.000 C 
ENDROOT
BRANCH   1   2
ATOM      2  C   UNL     1       6.057 125.623 111.603  1.00  0.00     0.006 C 
BRANCH   2   3
ATOM      3  C   UNL     1       7.564 125.349 111.515  1.00  0.00     0.053 C 
BRANCH   3   4
ATOM      4  C   UNL     1       7.922 124.017 112.099  1.00  0.00     0.041 C 
ATOM      5  O   UNL     1       7.151 123.033 111.950  1.00  0.00    -0.550 OA
ATOM      6  O   UNL     1       9.122 123.855 112.779  1.00  0.00    -0.550 OA
ENDBRANCH   3   4
ENDBRANCH   2   3
ENDBRANCH   1   2
BRANCH   1   7
ATOM      7  C   UNL     1       4.442 125.713 113.548  1.00  0.00     0.000 C 
BRANCH   7   8
ATOM      8  C   UNL     1       3.997 124.466 112.775  1.00  0.00    -0.000 C 
BRANCH   8   9
ATOM      9  C   UNL     1       2.607 124.672 112.152  1.00  0.00    -0.000 C 
BRANCH   9  10
ATOM     10  C   UNL     1       2.679 125.161 110.697  1.00  0.00    -0.003 C 
ATOM     11  C   UNL     1       2.375 126.653 110.559  1.00  0.00     0.004 C 
ENDBRANCH   9  10
ENDBRANCH   8   9
ENDBRANCH   7   8
ENDBRANCH   1   7
TORSDOF 7
ENDMDL
MODEL 8
REMARK VINA RESULT:    -3.213      2.562      3.761
REMARK INTER + INTRA:          -5.196
REMARK INTER:                  -4.469
REMARK INTRA:                  -0.727
REMARK UNBOUND:                -0.667
REMARK SMILES CCCCCCCCC(=O)[O-]
REMARK SMILES IDX 6 1 7 2 8 3 9 4 10 5 11 6 5 7 4 8 3 9 2 10 1 11
REMARK H PARENT
REMARK Flexibility Score: inf
ROOT
ATOM      1  C   UNL     1       3.615 124.191 111.970  1.00  0.00     0.000 C 
ENDROOT
BRANCH   1   2
ATOM      2  C   UNL     1       4.959 123.448 112.023  1.00  0.00     0.006 C 
BRANCH   2   3
ATOM      3  C   UNL     1       6.032 124.125 111.162  1.00  0.00     0.053 C 
BRANCH   3   4
ATOM      4  C   UNL     1       7.365 124.142 111.845  1.00  0.00     0.041 C 
ATOM      5  O   UNL     1       7.749 123.142 112.507  1.00  0.00    -0.550 OA
ATOM      6  O   UNL     1       8.197 125.248 111.724  1.00  0.00    -0.550 OA
ENDBRANCH   3   4
ENDBRANCH   2   3
ENDBRANCH   1   2
BRANCH   1   7
ATOM      7  C   UNL     1       3.398 124.839 110.599  1.00  0.00     0.000 C 
BRANCH   7   8
ATOM      8  C   UNL     1       2.999 126.312 110.741  1.00  0.00    -0.000 C 
BRANCH   8   9
ATOM      9  C   UNL     1       2.927 126.723 112.219  1.00  0.00    -0.000 C 
BRANCH   9  10
ATOM     10  C   UNL     1       3.881 127.879 112.559  1.00  0.00    -0.003 C 
ATOM     11  C   UNL     1       5.313 127.409 112.808  1.00  0.00     0.004 C 
ENDBRANCH   9  10
ENDBRANCH   8   9
ENDBRANCH   7   8
ENDBRANCH   1   7
TORSDOF 7
ENDMDL
MODEL 9
REMARK VINA RESULT:    -3.158      3.555      5.279
REMARK INTER + INTRA:          -5.118
REMARK INTER:                  -4.777
REMARK INTRA:                  -0.341
REMARK UNBOUND:                -0.667
REMARK SMILES CCCCCCCCC(=O)[O-]
REMARK SMILES IDX 6 1 7 2 8 3 9 4 10 5 11 6 5 7 4 8 3 9 2 10 1 11
REMARK H PARENT
REMARK Flexibility Score: inf
ROOT
ATOM      1  C   UNL     1       6.364 123.451 111.579  1.00  0.00     0.000 C 
ENDROOT
BRANCH   1   2
ATOM      2  C   UNL     1       4.873 123.789 111.735  1.00  0.00     0.006 C 
BRANCH   2   3
ATOM      3  C   UNL     1       4.462 123.936 113.206  1.00  0.00     0.053 C 
BRANCH   3   4
ATOM      4  C   UNL     1       4.490 122.624 113.926  1.00  0.00     0.041 C 
ATOM      5  O   UNL     1       3.701 121.701 113.592  1.00  0.00    -0.550 OA
ATOM      6  O   UNL     1       5.409 122.408 114.946  1.00  0.00    -0.550 OA
ENDBRANCH   3   4
ENDBRANCH   2   3
ENDBRANCH   1   2
BRANCH   1   7
ATOM      7  C   UNL     1       7.231 124.704 111.736  1.00  0.00     0.000 C 
BRANCH   7   8
ATOM      8  C   UNL     1       8.168 124.882 110.536  1.00  0.00    -0.000 C 
BRANCH   8   9
ATOM      9  C   UNL     1       7.546 124.293 109.260  1.00  0.00    -0.000 C 
BRANCH   9  10
ATOM     10  C   UNL     1       8.187 124.849 107.979  1.00  0.00    -0.003 C 
ATOM     11  C   UNL     1       7.165 125.117 106.875  1.00  0.00     0.004 C 
ENDBRANCH   9  10
ENDBRANCH   8   9
ENDBRANCH   7   8
ENDBRANCH   1   7
TORSDOF 7
ENDMDL
