MODEL 1
REMARK VINA RESULT:    -3.951      0.000      0.000
REMARK INTER + INTRA:          -5.589
REMARK INTER:                  -5.337
REMARK INTRA:                  -0.252
REMARK UNBOUND:                -0.252
REMARK SMILES C=C1CCC=C(C)CC[C@@H]2[C@H]1CC2(C)C
REMARK SMILES IDX 11 1 12 2 13 3 10 4 14 5 15 6 9 7 8 8 6 9 7 10 5 11 2 13
REMARK SMILES IDX 1 14 3 15 4 16
REMARK H PARENT
REMARK Flexibility Score: 70.00
ROOT
ATOM      1  C   UNL     1      65.747   2.887  -2.779  1.00  0.00     0.018 C 
ATOM      2  C   UNL     1      66.519   1.607  -3.121  1.00  0.00     0.015 C 
ATOM      3  C   UNL     1      67.847   2.374  -2.971  1.00  0.00    -0.031 C 
ATOM      4  C   UNL     1      67.071   3.598  -2.398  1.00  0.00     0.002 C 
ATOM      5  C   UNL     1      68.480   2.700  -4.340  1.00  0.00     0.011 C 
ATOM      6  C   UNL     1      68.870   1.652  -2.067  1.00  0.00     0.011 C 
ENDROOT
BRANCH   4   7
ATOM      7  C   UNL     1      67.393   3.963  -0.917  1.00  0.00     0.009 C 
BRANCH   7   8
ATOM      8  C   UNL     1      67.374   5.470  -0.616  1.00  0.00     0.030 C 
BRANCH   8   9
ATOM      9  C   UNL     1      66.109   5.988   0.073  1.00  0.00    -0.077 C 
ATOM     10  C   UNL     1      66.277   6.630   1.433  1.00  0.00     0.039 C 
ATOM     11  C   UNL     1      64.846   5.986  -0.438  1.00  0.00    -0.028 CG0
ATOM     12  G   UNL     1      64.326   5.349  -1.714  1.00  0.00     0.000 G0
ENDBRANCH   8   9
ENDBRANCH   7   8
ENDBRANCH   4   7
BRANCH   1  13
ATOM     13  C   UNL     1      64.566   2.824  -1.811  1.00  0.00    -0.074 C 
ATOM     14  C   UNL     1      64.412   1.705  -1.076  1.00  0.00     0.008 C 
BRANCH  13  15
ATOM     15  C   UNL     1      63.649   3.992  -1.528  1.00  0.00     0.035 C 
BRANCH  15  16
ATOM     16  C   UNL     1      64.319   5.347  -1.721  1.00  0.00     0.032 CG0
ATOM     17  G   UNL     1      64.851   5.977  -0.447  1.00  0.00     0.000 G0
ENDBRANCH  15  16
ENDBRANCH  13  15
ENDBRANCH   1  13
TORSDOF 0
ENDMDL
MODEL 2
REMARK VINA RESULT:    -3.907      6.128      7.548
REMARK INTER + INTRA:          -5.530
REMARK INTER:                  -5.183
REMARK INTRA:                  -0.346
REMARK UNBOUND:                -0.252
REMARK SMILES C=C1CCC=C(C)CC[C@@H]2[C@H]1CC2(C)C
REMARK SMILES IDX 11 1 12 2 13 3 10 4 14 5 15 6 9 7 8 8 6 9 7 10 5 11 2 13
REMARK SMILES IDX 1 14 3 15 4 16
REMARK H PARENT
REMARK Flexibility Score: 70.00
ROOT
ATOM      1  C   UNL     1      62.333   3.841   3.899  1.00  0.00     0.018 C 
ATOM      2  C   UNL     1      62.141   3.614   2.395  1.00  0.00     0.015 C 
ATOM      3  C   UNL     1      63.629   3.942   2.161  1.00  0.00    -0.031 C 
ATOM      4  C   UNL     1      63.867   3.939   3.702  1.00  0.00     0.002 C 
ATOM      5  C   UNL     1      63.819   5.352   1.566  1.00  0.00     0.011 C 
ATOM      6  C   UNL     1      64.356   2.892   1.294  1.00  0.00     0.011 C 
ENDROOT
BRANCH   4   7
ATOM      7  C   UNL     1      64.821   2.824   4.231  1.00  0.00     0.009 C 
BRANCH   7   8
ATOM      8  C   UNL     1      65.584   3.197   5.511  1.00  0.00     0.030 C 
BRANCH   8   9
ATOM      9  C   UNL     1      65.038   2.587   6.805  1.00  0.00    -0.077 C 
ATOM     10  C   UNL     1      65.893   1.544   7.490  1.00  0.00     0.039 C 
ATOM     11  C   UNL     1      63.883   2.928   7.441  1.00  0.00    -0.028 CG0
ATOM     12  G   UNL     1      62.772   3.856   6.984  1.00  0.00     0.000 G0
ENDBRANCH   8   9
ENDBRANCH   7   8
ENDBRANCH   4   7
BRANCH   1  13
ATOM     13  C   UNL     1      61.716   2.862   4.899  1.00  0.00    -0.074 C 
ATOM     14  C   UNL     1      61.420   1.621   4.464  1.00  0.00     0.008 C 
BRANCH  13  15
ATOM     15  C   UNL     1      61.553   3.157   6.372  1.00  0.00     0.035 C 
BRANCH  15  16
ATOM     16  C   UNL     1      62.759   3.861   6.985  1.00  0.00     0.032 CG0
ATOM     17  G   UNL     1      63.875   2.932   7.426  1.00  0.00     0.000 G0
ENDBRANCH  15  16
ENDBRANCH  13  15
ENDBRANCH   1  13
TORSDOF 0
ENDMDL
MODEL 3
REMARK VINA RESULT:    -3.819      2.267      4.004
REMARK INTER + INTRA:          -5.411
REMARK INTER:                  -5.262
REMARK INTRA:                  -0.148
REMARK UNBOUND:                -0.252
REMARK SMILES C=C1CCC=C(C)CC[C@@H]2[C@H]1CC2(C)C
REMARK SMILES IDX 11 1 12 2 13 3 10 4 14 5 15 6 9 7 8 8 6 9 7 10 5 11 2 13
REMARK SMILES IDX 1 14 3 15 4 16
REMARK H PARENT
REMARK Flexibility Score: 70.00
ROOT
ATOM      1  C   UNL     1      67.664   2.752  -2.009  1.00  0.00     0.018 C 
ATOM      2  C   UNL     1      68.323   3.130  -3.340  1.00  0.00     0.015 C 
ATOM      3  C   UNL     1      67.778   1.832  -3.971  1.00  0.00    -0.031 C 
ATOM      4  C   UNL     1      66.923   1.576  -2.694  1.00  0.00     0.002 C 
ATOM      5  C   UNL     1      68.881   0.766  -4.133  1.00  0.00     0.011 C 
ATOM      6  C   UNL     1      67.056   2.064  -5.316  1.00  0.00     0.011 C 
ENDROOT
BRANCH   4   7
ATOM      7  C   UNL     1      65.378   1.609  -2.904  1.00  0.00     0.009 C 
BRANCH   7   8
ATOM      8  C   UNL     1      64.605   0.549  -2.104  1.00  0.00     0.030 C 
BRANCH   8   9
ATOM      9  C   UNL     1      63.948   1.046  -0.814  1.00  0.00    -0.077 C 
ATOM     10  C   UNL     1      62.458   0.827  -0.671  1.00  0.00     0.039 C 
ATOM     11  C   UNL     1      64.576   1.616   0.252  1.00  0.00    -0.028 CG0
ATOM     12  G   UNL     1      66.023   2.052   0.394  1.00  0.00     0.000 G0
ENDBRANCH   8   9
ENDBRANCH   7   8
ENDBRANCH   4   7
BRANCH   1  13
ATOM     13  C   UNL     1      66.911   3.814  -1.207  1.00  0.00    -0.074 C 
ATOM     14  C   UNL     1      66.727   5.021  -1.778  1.00  0.00     0.008 C 
BRANCH  13  15
ATOM     15  C   UNL     1      66.240   3.546   0.120  1.00  0.00     0.035 C 
BRANCH  15  16
ATOM     16  C   UNL     1      66.017   2.063   0.396  1.00  0.00     0.032 CG0
ATOM     17  G   UNL     1      64.577   1.605   0.257  1.00  0.00     0.000 G0
ENDBRANCH  15  16
ENDBRANCH  13  15
ENDBRANCH   1  13
TORSDOF 0
ENDMDL
MODEL 4
REMARK VINA RESULT:    -3.776      1.541      4.472
REMARK INTER + INTRA:          -5.353
REMARK INTER:                  -5.011
REMARK INTRA:                  -0.342
REMARK UNBOUND:                -0.252
REMARK SMILES C=C1CCC=C(C)CC[C@@H]2[C@H]1CC2(C)C
REMARK SMILES IDX 11 1 12 2 13 3 10 4 14 5 15 6 9 7 8 8 6 9 7 10 5 11 2 13
REMARK SMILES IDX 1 14 3 15 4 16
REMARK H PARENT
REMARK Flexibility Score: 70.00
ROOT
ATOM      1  C   UNL     1      65.317   5.025   0.041  1.00  0.00     0.018 C 
ATOM      2  C   UNL     1      65.529   6.462   0.532  1.00  0.00     0.015 C 
ATOM      3  C   UNL     1      67.046   6.202   0.620  1.00  0.00    -0.031 C 
ATOM      4  C   UNL     1      66.849   4.833  -0.098  1.00  0.00     0.002 C 
ATOM      5  C   UNL     1      67.511   6.009   2.078  1.00  0.00     0.011 C 
ATOM      6  C   UNL     1      67.893   7.291  -0.072  1.00  0.00     0.011 C 
ENDROOT
BRANCH   4   7
ATOM      7  C   UNL     1      67.522   4.708  -1.499  1.00  0.00     0.009 C 
BRANCH   7   8
ATOM      8  C   UNL     1      67.937   3.278  -1.879  1.00  0.00     0.030 C 
BRANCH   8   9
ATOM      9  C   UNL     1      67.003   2.557  -2.854  1.00  0.00    -0.077 C 
ATOM     10  C   UNL     1      67.537   2.274  -4.240  1.00  0.00     0.039 C 
ATOM     11  C   UNL     1      65.752   2.088  -2.584  1.00  0.00    -0.028 CG0
ATOM     12  G   UNL     1      64.899   2.280  -1.344  1.00  0.00     0.000 G0
ENDBRANCH   8   9
ENDBRANCH   7   8
ENDBRANCH   4   7
BRANCH   1  13
ATOM     13  C   UNL     1      64.368   4.755  -1.128  1.00  0.00    -0.074 C 
ATOM     14  C   UNL     1      64.094   5.775  -1.964  1.00  0.00     0.008 C 
BRANCH  13  15
ATOM     15  C   UNL     1      63.837   3.385  -1.479  1.00  0.00     0.035 C 
BRANCH  15  16
ATOM     16  C   UNL     1      64.879   2.281  -1.349  1.00  0.00     0.032 CG0
ATOM     17  G   UNL     1      65.751   2.088  -2.577  1.00  0.00     0.000 G0
ENDBRANCH  15  16
ENDBRANCH  13  15
ENDBRANCH   1  13
TORSDOF 0
ENDMDL
MODEL 5
REMARK VINA RESULT:    -3.747      1.879      2.956
REMARK INTER + INTRA:          -5.314
REMARK INTER:                  -4.963
REMARK INTRA:                  -0.351
REMARK UNBOUND:                -0.252
REMARK SMILES C=C1CCC=C(C)CC[C@@H]2[C@H]1CC2(C)C
REMARK SMILES IDX 11 1 12 2 13 3 10 4 14 5 15 6 9 7 8 8 6 9 7 10 5 11 2 13
REMARK SMILES IDX 1 14 3 15 4 16
REMARK H PARENT
REMARK Flexibility Score: 70.00
ROOT
ATOM      1  C   UNL     1      66.540   0.975  -2.585  1.00  0.00     0.018 C 
ATOM      2  C   UNL     1      67.879   0.906  -3.328  1.00  0.00     0.015 C 
ATOM      3  C   UNL     1      67.444   2.091  -4.211  1.00  0.00    -0.031 C 
ATOM      4  C   UNL     1      66.195   2.304  -3.303  1.00  0.00     0.002 C 
ATOM      5  C   UNL     1      67.037   1.633  -5.627  1.00  0.00     0.011 C 
ATOM      6  C   UNL     1      68.503   3.212  -4.295  1.00  0.00     0.011 C 
ENDROOT
BRANCH   4   7
ATOM      7  C   UNL     1      66.155   3.654  -2.524  1.00  0.00     0.009 C 
BRANCH   7   8
ATOM      8  C   UNL     1      64.742   4.137  -2.163  1.00  0.00     0.030 C 
BRANCH   8   9
ATOM      9  C   UNL     1      64.324   3.921  -0.706  1.00  0.00    -0.077 C 
ATOM     10  C   UNL     1      64.217   5.149   0.170  1.00  0.00     0.039 C 
ATOM     11  C   UNL     1      63.977   2.738  -0.127  1.00  0.00    -0.028 CG0
ATOM     12  G   UNL     1      64.060   1.331  -0.690  1.00  0.00     0.000 G0
ENDBRANCH   8   9
ENDBRANCH   7   8
ENDBRANCH   4   7
BRANCH   1  13
ATOM     13  C   UNL     1      66.512   0.858  -1.060  1.00  0.00    -0.074 C 
ATOM     14  C   UNL     1      67.623   1.205  -0.382  1.00  0.00     0.008 C 
BRANCH  13  15
ATOM     15  C   UNL     1      65.272   0.517  -0.267  1.00  0.00     0.035 C 
BRANCH  15  16
ATOM     16  C   UNL     1      64.046   1.321  -0.685  1.00  0.00     0.032 CG0
ATOM     17  G   UNL     1      63.995   2.730  -0.124  1.00  0.00     0.000 G0
ENDBRANCH  15  16
ENDBRANCH  13  15
ENDBRANCH   1  13
TORSDOF 0
ENDMDL
MODEL 6
REMARK VINA RESULT:    -3.690      2.088      3.255
REMARK INTER + INTRA:          -5.237
REMARK INTER:                  -5.622
REMARK INTRA:                   0.386
REMARK UNBOUND:                -0.252
REMARK SMILES C=C1CCC=C(C)CC[C@@H]2[C@H]1CC2(C)C
REMARK SMILES IDX 11 1 12 2 13 3 10 4 14 5 15 6 9 7 8 8 6 9 7 10 5 11 2 13
REMARK SMILES IDX 1 14 3 15 4 16
REMARK H PARENT
REMARK Flexibility Score: 70.00
ROOT
ATOM      1  C   UNL     1      62.988   1.926  -0.578  1.00  0.00     0.018 C 
ATOM      2  C   UNL     1      63.778   0.614  -0.509  1.00  0.00     0.015 C 
ATOM      3  C   UNL     1      64.405   0.927  -1.883  1.00  0.00    -0.031 C 
ATOM      4  C   UNL     1      63.785   2.356  -1.835  1.00  0.00     0.002 C 
ATOM      5  C   UNL     1      63.776   0.079  -3.007  1.00  0.00     0.011 C 
ATOM      6  C   UNL     1      65.942   0.783  -1.899  1.00  0.00     0.011 C 
ENDROOT
BRANCH   4   7
ATOM      7  C   UNL     1      64.810   3.531  -1.778  1.00  0.00     0.009 C 
BRANCH   7   8
ATOM      8  C   UNL     1      64.182   4.928  -1.898  1.00  0.00     0.030 C 
BRANCH   8   9
ATOM      9  C   UNL     1      64.728   5.981  -0.930  1.00  0.00    -0.077 C 
ATOM     10  C   UNL     1      65.618   7.056  -1.511  1.00  0.00     0.039 C 
ATOM     11  C   UNL     1      64.446   6.087   0.399  1.00  0.00    -0.028 CG0
ATOM     12  G   UNL     1      63.674   5.138   1.298  1.00  0.00     0.000 G0
ENDBRANCH   8   9
ENDBRANCH   7   8
ENDBRANCH   4   7
BRANCH   1  13
ATOM     13  C   UNL     1      62.897   2.823   0.657  1.00  0.00    -0.074 C 
ATOM     14  C   UNL     1      61.778   2.753   1.405  1.00  0.00     0.008 C 
BRANCH  13  15
ATOM     15  C   UNL     1      64.040   3.671   1.165  1.00  0.00     0.035 C 
BRANCH  15  16
ATOM     16  C   UNL     1      63.677   5.144   1.318  1.00  0.00     0.032 CG0
ATOM     17  G   UNL     1      64.442   6.081   0.401  1.00  0.00     0.000 G0
ENDBRANCH  15  16
ENDBRANCH  13  15
ENDBRANCH   1  13
TORSDOF 0
ENDMDL
MODEL 7
REMARK VINA RESULT:    -3.675      2.391      4.950
REMARK INTER + INTRA:          -5.216
REMARK INTER:                  -4.910
REMARK INTRA:                  -0.306
REMARK UNBOUND:                -0.252
REMARK SMILES C=C1CCC=C(C)CC[C@@H]2[C@H]1CC2(C)C
REMARK SMILES IDX 11 1 12 2 13 3 10 4 14 5 15 6 9 7 8 8 6 9 7 10 5 11 2 13
REMARK SMILES IDX 1 14 3 15 4 16
REMARK H PARENT
REMARK Flexibility Score: 70.00
ROOT
ATOM      1  C   UNL     1      64.606   2.402  -0.537  1.00  0.00     0.018 C 
ATOM      2  C   UNL     1      63.399   3.346  -0.492  1.00  0.00     0.015 C 
ATOM      3  C   UNL     1      64.325   4.535  -0.820  1.00  0.00    -0.031 C 
ATOM      4  C   UNL     1      65.495   3.543  -1.094  1.00  0.00     0.002 C 
ATOM      5  C   UNL     1      64.604   5.404   0.424  1.00  0.00     0.011 C 
ATOM      6  C   UNL     1      63.805   5.412  -1.980  1.00  0.00     0.011 C 
ENDROOT
BRANCH   4   7
ATOM      7  C   UNL     1      66.019   3.513  -2.562  1.00  0.00     0.009 C 
BRANCH   7   8
ATOM      8  C   UNL     1      67.516   3.193  -2.696  1.00  0.00     0.030 C 
BRANCH   8   9
ATOM      9  C   UNL     1      67.848   1.757  -3.108  1.00  0.00    -0.077 C 
ATOM     10  C   UNL     1      68.508   1.561  -4.455  1.00  0.00     0.039 C 
ATOM     11  C   UNL     1      67.666   0.634  -2.358  1.00  0.00    -0.028 CG0
ATOM     12  G   UNL     1      66.960   0.472  -1.024  1.00  0.00     0.000 G0
ENDBRANCH   8   9
ENDBRANCH   7   8
ENDBRANCH   4   7
BRANCH   1  13
ATOM     13  C   UNL     1      64.490   1.056  -1.253  1.00  0.00    -0.074 C 
ATOM     14  C   UNL     1      63.482   0.896  -2.133  1.00  0.00     0.008 C 
BRANCH  13  15
ATOM     15  C   UNL     1      65.517  -0.047  -1.141  1.00  0.00     0.035 C 
BRANCH  15  16
ATOM     16  C   UNL     1      66.947   0.468  -1.026  1.00  0.00     0.032 CG0
ATOM     17  G   UNL     1      67.670   0.625  -2.352  1.00  0.00     0.000 G0
ENDBRANCH  15  16
ENDBRANCH  13  15
ENDBRANCH   1  13
TORSDOF 0
ENDMDL
MODEL 8
REMARK VINA RESULT:    -3.608      2.079      3.641
REMARK INTER + INTRA:          -5.126
REMARK INTER:                  -4.865
REMARK INTRA:                  -0.261
REMARK UNBOUND:                -0.252
REMARK SMILES C=C1CCC=C(C)CC[C@@H]2[C@H]1CC2(C)C
REMARK SMILES IDX 11 1 12 2 13 3 10 4 14 5 15 6 9 7 8 8 6 9 7 10 5 11 2 13
REMARK SMILES IDX 1 14 3 15 4 16
REMARK H PARENT
REMARK Flexibility Score: 70.00
ROOT
ATOM      1  C   UNL     1      65.848   4.169  -1.074  1.00  0.00     0.018 C 
ATOM      2  C   UNL     1      66.486   3.766  -2.408  1.00  0.00     0.015 C 
ATOM      3  C   UNL     1      66.307   2.280  -2.038  1.00  0.00    -0.031 C 
ATOM      4  C   UNL     1      65.453   2.695  -0.802  1.00  0.00     0.002 C 
ATOM      5  C   UNL     1      67.639   1.632  -1.608  1.00  0.00     0.011 C 
ATOM      6  C   UNL     1      65.643   1.448  -3.156  1.00  0.00     0.011 C 
ENDROOT
BRANCH   4   7
ATOM      7  C   UNL     1      63.962   2.241  -0.834  1.00  0.00     0.009 C 
BRANCH   7   8
ATOM      8  C   UNL     1      63.379   1.877   0.541  1.00  0.00     0.030 C 
BRANCH   8   9
ATOM      9  C   UNL     1      62.498   2.949   1.187  1.00  0.00    -0.077 C 
ATOM     10  C   UNL     1      61.055   2.586   1.457  1.00  0.00     0.039 C 
ATOM     11  C   UNL     1      62.894   4.185   1.603  1.00  0.00    -0.028 CG0
ATOM     12  G   UNL     1      64.226   4.885   1.404  1.00  0.00     0.000 G0
ENDBRANCH   8   9
ENDBRANCH   7   8
ENDBRANCH   4   7
BRANCH   1  13
ATOM     13  C   UNL     1      64.813   5.294  -1.038  1.00  0.00    -0.074 C 
ATOM     14  C   UNL     1      64.278   5.695  -2.208  1.00  0.00     0.008 C 
BRANCH  13  15
ATOM     15  C   UNL     1      64.253   5.880   0.238  1.00  0.00     0.035 C 
BRANCH  15  16
ATOM     16  C   UNL     1      64.230   4.892   1.398  1.00  0.00     0.032 CG0
ATOM     17  G   UNL     1      62.899   4.190   1.603  1.00  0.00     0.000 G0
ENDBRANCH  15  16
ENDBRANCH  13  15
ENDBRANCH   1  13
TORSDOF 0
ENDMDL
MODEL 9
REMARK VINA RESULT:    -3.498      1.977      4.812
REMARK INTER + INTRA:          -4.977
REMARK INTER:                  -4.645
REMARK INTRA:                  -0.332
REMARK UNBOUND:                -0.252
REMARK SMILES C=C1CCC=C(C)CC[C@@H]2[C@H]1CC2(C)C
REMARK SMILES IDX 11 1 12 2 13 3 10 4 14 5 15 6 9 7 8 8 6 9 7 10 5 11 2 13
REMARK SMILES IDX 1 14 3 15 4 16
REMARK H PARENT
REMARK Flexibility Score: 70.00
ROOT
ATOM      1  C   UNL     1      66.890   4.388  -1.450  1.00  0.00     0.018 C 
ATOM      2  C   UNL     1      67.158   5.545  -0.481  1.00  0.00     0.015 C 
ATOM      3  C   UNL     1      65.686   5.985  -0.607  1.00  0.00    -0.031 C 
ATOM      4  C   UNL     1      65.368   4.680  -1.397  1.00  0.00     0.002 C 
ATOM      5  C   UNL     1      65.535   7.234  -1.500  1.00  0.00     0.011 C 
ATOM      6  C   UNL     1      64.999   6.216   0.757  1.00  0.00     0.011 C 
ENDROOT
BRANCH   4   7
ATOM      7  C   UNL     1      64.382   3.695  -0.696  1.00  0.00     0.009 C 
BRANCH   7   8
ATOM      8  C   UNL     1      63.562   2.825  -1.661  1.00  0.00     0.030 C 
BRANCH   8   9
ATOM      9  C   UNL     1      64.042   1.379  -1.814  1.00  0.00    -0.077 C 
ATOM     10  C   UNL     1      63.153   0.293  -1.249  1.00  0.00     0.039 C 
ATOM     11  C   UNL     1      65.164   0.960  -2.463  1.00  0.00    -0.028 CG0
ATOM     12  G   UNL     1      66.297   1.780  -3.053  1.00  0.00     0.000 G0
ENDBRANCH   8   9
ENDBRANCH   7   8
ENDBRANCH   4   7
BRANCH   1  13
ATOM     13  C   UNL     1      67.448   2.998  -1.145  1.00  0.00    -0.074 C 
ATOM     14  C   UNL     1      67.758   2.711   0.135  1.00  0.00     0.008 C 
BRANCH  13  15
ATOM     15  C   UNL     1      67.538   1.886  -2.165  1.00  0.00     0.035 C 
BRANCH  15  16
ATOM     16  C   UNL     1      66.304   1.778  -3.051  1.00  0.00     0.032 CG0
ATOM     17  G   UNL     1      65.171   0.960  -2.459  1.00  0.00     0.000 G0
ENDBRANCH  15  16
ENDBRANCH  13  15
ENDBRANCH   1  13
TORSDOF 0
ENDMDL
