MODEL 1
REMARK VINA RESULT:    -5.210      0.000      0.000
REMARK INTER + INTRA:         -10.384
REMARK INTER:                  -8.408
REMARK INTRA:                  -1.976
REMARK UNBOUND:                -1.976
REMARK SMILES C=C(CC[C@@H](C(=O)[O-])[C@H]1[C@H](O)C[C@]2(C)C3=CC[C@H](C(=C)C)[C@](C)(CCC(=O)[O-])C3=CC[C@]12C)C(C)C
REMARK SMILES IDX 5 1 9 2 22 3 29 4 18 5 23 6 15 7 30 8 17 9 13 10 16 11 31 12
REMARK SMILES IDX 32 13 12 14 14 15 33 16 10 17 24 18 25 19 26 20 27 21 28 22
REMARK SMILES IDX 19 23 20 24 21 25 11 26 6 28 7 29 8 30 4 31 3 32 2 33 1 34
REMARK SMILES IDX 34 35 35 36 36 37
REMARK H PARENT 11 27
REMARK Flexibility Score: inf
ROOT
ATOM      1  C   UNL     1       8.817   5.800   1.467  1.00  0.00     0.042 C 
ENDROOT
BRANCH   1   2
ATOM      2  C   UNL     1       7.353   6.389   1.495  1.00  0.00     0.034 C 
ATOM      3  C   UNL     1       2.391   7.988   2.713  1.00  0.00    -0.000 C 
ATOM      4  C   UNL     1       3.931   7.900   2.663  1.00  0.00    -0.042 C 
ATOM      5  C   UNL     1       2.067   8.704   4.074  1.00  0.00     0.028 C 
ATOM      6  C   UNL     1       1.801   8.857   1.565  1.00  0.00     0.017 C 
ATOM      7  C   UNL     1       4.682   7.453   3.873  1.00  0.00    -0.042 C 
ATOM      8  C   UNL     1       4.660   8.275   1.602  1.00  0.00    -0.022 C 
ATOM      9  C   UNL     1       2.659   7.960   5.290  1.00  0.00     0.036 C 
ATOM     10  C   UNL     1       6.055   6.757   3.648  1.00  0.00     0.001 C 
ATOM     11  C   UNL     1       4.082   7.522   5.084  1.00  0.00    -0.022 C 
ATOM     12  C   UNL     1       6.106   8.606   1.790  1.00  0.00     0.035 C 
ATOM     13  C   UNL     1       6.936   7.501   2.538  1.00  0.00    -0.014 C 
ATOM     14  C   UNL     1       5.767   5.342   3.066  1.00  0.00     0.044 C 
ATOM     15  C   UNL     1       6.827   6.563   4.990  1.00  0.00     0.017 C 
ATOM     16  C   UNL     1       8.144   8.284   3.128  1.00  0.00     0.013 C 
ATOM     17  C   UNL     1       6.309   5.266   1.644  1.00  0.00     0.119 C 
BRANCH   3  18
ATOM     18  C   UNL     1       1.779   6.551   2.653  1.00  0.00     0.018 C 
BRANCH  18  19
ATOM     19  C   UNL     1       0.751   6.319   1.522  1.00  0.00     0.053 C 
BRANCH  19  20
ATOM     20  C   UNL     1       1.363   5.682   0.309  1.00  0.00     0.041 C 
ATOM     21  O   UNL     1       2.613   5.577   0.209  1.00  0.00    -0.550 OA
ATOM     22  O   UNL     1       0.550   5.228  -0.724  1.00  0.00    -0.550 OA
ENDBRANCH  19  20
ENDBRANCH  18  19
ENDBRANCH   3  18
BRANCH   5  23
ATOM     23  C   UNL     1       0.593   9.072   4.291  1.00  0.00    -0.076 C 
ATOM     24  C   UNL     1       0.001  10.101   3.658  1.00  0.00     0.008 C 
ATOM     25  C   UNL     1      -0.255   8.234   5.218  1.00  0.00     0.039 C 
ENDBRANCH   5  23
BRANCH  17  26
ATOM     26  O   UNL     1       5.261   5.448   0.728  1.00  0.00    -0.393 OA
ATOM     27  H   UNL     1       5.677   5.592  -0.162  1.00  0.00     0.210 HD
ENDBRANCH  17  26
ENDBRANCH   1   2
BRANCH   1  28
ATOM     28  C   UNL     1       9.225   5.020   2.700  1.00  0.00     0.045 C 
ATOM     29  O   UNL     1       8.934   3.800   2.800  1.00  0.00    -0.550 OA
ATOM     30  O   UNL     1       9.992   5.607   3.700  1.00  0.00    -0.550 OA
ENDBRANCH   1  28
BRANCH   1  31
ATOM     31  C   UNL     1       9.890   6.839   1.035  1.00  0.00     0.014 C 
BRANCH  31  32
ATOM     32  C   UNL     1       9.944   7.013  -0.493  1.00  0.00     0.031 C 
BRANCH  32  33
ATOM     33  C   UNL     1       8.971   8.077  -0.951  1.00  0.00    -0.075 C 
ATOM     34  C   UNL     1       9.128   9.346  -0.526  1.00  0.00     0.008 C 
BRANCH  33  35
ATOM     35  C   UNL     1       7.835   7.701  -1.895  1.00  0.00     0.008 C 
ATOM     36  C   UNL     1       7.865   6.206  -2.236  1.00  0.00     0.012 C 
ATOM     37  C   UNL     1       7.860   8.561  -3.165  1.00  0.00     0.012 C 
ENDBRANCH  33  35
ENDBRANCH  32  33
ENDBRANCH  31  32
ENDBRANCH   1  31
TORSDOF 11
ENDMDL
MODEL 2
REMARK VINA RESULT:    -4.838      8.163     11.870
REMARK INTER + INTRA:          -9.784
REMARK INTER:                  -7.795
REMARK INTRA:                  -1.989
REMARK UNBOUND:                -1.976
REMARK SMILES C=C(CC[C@@H](C(=O)[O-])[C@H]1[C@H](O)C[C@]2(C)C3=CC[C@H](C(=C)C)[C@](C)(CCC(=O)[O-])C3=CC[C@]12C)C(C)C
REMARK SMILES IDX 5 1 9 2 22 3 29 4 18 5 23 6 15 7 30 8 17 9 13 10 16 11 31 12
REMARK SMILES IDX 32 13 12 14 14 15 33 16 10 17 24 18 25 19 26 20 27 21 28 22
REMARK SMILES IDX 19 23 20 24 21 25 11 26 6 28 7 29 8 30 4 31 3 32 2 33 1 34
REMARK SMILES IDX 34 35 35 36 36 37
REMARK H PARENT 11 27
REMARK Flexibility Score: inf
ROOT
ATOM      1  C   UNL     1       7.542  -1.447  -7.864  1.00  0.00     0.042 C 
ENDROOT
BRANCH   1   2
ATOM      2  C   UNL     1       7.566   0.121  -7.684  1.00  0.00     0.034 C 
ATOM      3  C   UNL     1       7.804   5.173  -5.926  1.00  0.00    -0.000 C 
ATOM      4  C   UNL     1       8.215   3.740  -6.327  1.00  0.00    -0.042 C 
ATOM      5  C   UNL     1       8.890   5.633  -4.886  1.00  0.00     0.028 C 
ATOM      6  C   UNL     1       7.839   6.166  -7.123  1.00  0.00     0.017 C 
ATOM      7  C   UNL     1       8.613   2.765  -5.269  1.00  0.00    -0.042 C 
ATOM      8  C   UNL     1       8.307   3.325  -7.599  1.00  0.00    -0.022 C 
ATOM      9  C   UNL     1       8.989   4.682  -3.674  1.00  0.00     0.036 C 
ATOM     10  C   UNL     1       8.383   1.255  -5.563  1.00  0.00     0.001 C 
ATOM     11  C   UNL     1       9.001   3.228  -4.058  1.00  0.00    -0.022 C 
ATOM     12  C   UNL     1       9.142   2.126  -7.916  1.00  0.00     0.035 C 
ATOM     13  C   UNL     1       8.814   0.856  -7.051  1.00  0.00    -0.014 C 
ATOM     14  C   UNL     1       6.850   0.998  -5.494  1.00  0.00     0.044 C 
ATOM     15  C   UNL     1       9.058   0.352  -4.484  1.00  0.00     0.017 C 
ATOM     16  C   UNL     1      10.125   0.019  -7.114  1.00  0.00     0.013 C 
ATOM     17  C   UNL     1       6.345   0.604  -6.877  1.00  0.00     0.119 C 
BRANCH   3  18
ATOM     18  C   UNL     1       6.372   5.153  -5.299  1.00  0.00     0.018 C 
BRANCH  18  19
ATOM     19  C   UNL     1       5.282   5.875  -6.125  1.00  0.00     0.053 C 
BRANCH  19  20
ATOM     20  C   UNL     1       4.213   4.940  -6.609  1.00  0.00     0.041 C 
ATOM     21  O   UNL     1       4.410   4.217  -7.620  1.00  0.00    -0.550 OA
ATOM     22  O   UNL     1       2.985   4.888  -5.957  1.00  0.00    -0.550 OA
ENDBRANCH  19  20
ENDBRANCH  18  19
ENDBRANCH   3  18
BRANCH   5  23
ATOM     23  C   UNL     1       8.807   7.103  -4.454  1.00  0.00    -0.076 C 
ATOM     24  C   UNL     1       7.923   7.543  -3.541  1.00  0.00     0.008 C 
ATOM     25  C   UNL     1       9.776   8.105  -5.036  1.00  0.00     0.039 C 
ENDBRANCH   5  23
BRANCH  17  26
ATOM     26  O   UNL     1       5.755   1.715  -7.499  1.00  0.00    -0.393 OA
ATOM     27  H   UNL     1       4.844   1.809  -7.116  1.00  0.00     0.210 HD
ENDBRANCH  17  26
ENDBRANCH   1   2
BRANCH   1  28
ATOM     28  C   UNL     1       8.209  -1.964  -9.122  1.00  0.00     0.045 C 
ATOM     29  O   UNL     1       8.369  -1.202 -10.111  1.00  0.00    -0.550 OA
ATOM     30  O   UNL     1       8.726  -3.253  -9.182  1.00  0.00    -0.550 OA
ENDBRANCH   1  28
BRANCH   1  31
ATOM     31  C   UNL     1       6.138  -2.071  -7.632  1.00  0.00     0.014 C 
BRANCH  31  32
ATOM     32  C   UNL     1       5.350  -2.227  -8.944  1.00  0.00     0.031 C 
BRANCH  32  33
ATOM     33  C   UNL     1       4.858  -3.648  -9.115  1.00  0.00    -0.075 C 
ATOM     34  C   UNL     1       5.549  -4.497  -9.900  1.00  0.00     0.008 C 
BRANCH  33  35
ATOM     35  C   UNL     1       3.597  -4.099  -8.390  1.00  0.00     0.008 C 
ATOM     36  C   UNL     1       2.586  -2.954  -8.262  1.00  0.00     0.012 C 
ATOM     37  C   UNL     1       3.930  -4.701  -7.018  1.00  0.00     0.012 C 
ENDBRANCH  33  35
ENDBRANCH  32  33
ENDBRANCH  31  32
ENDBRANCH   1  31
TORSDOF 11
ENDMDL
MODEL 3
REMARK VINA RESULT:    -4.572      2.001      2.717
REMARK INTER + INTRA:          -9.355
REMARK INTER:                  -7.387
REMARK INTRA:                  -1.968
REMARK UNBOUND:                -1.976
REMARK SMILES C=C(CC[C@@H](C(=O)[O-])[C@H]1[C@H](O)C[C@]2(C)C3=CC[C@H](C(=C)C)[C@](C)(CCC(=O)[O-])C3=CC[C@]12C)C(C)C
REMARK SMILES IDX 5 1 9 2 22 3 29 4 18 5 23 6 15 7 30 8 17 9 13 10 16 11 31 12
REMARK SMILES IDX 32 13 12 14 14 15 33 16 10 17 24 18 25 19 26 20 27 21 28 22
REMARK SMILES IDX 19 23 20 24 21 25 11 26 6 28 7 29 8 30 4 31 3 32 2 33 1 34
REMARK SMILES IDX 34 35 35 36 36 37
REMARK H PARENT 11 27
REMARK Flexibility Score: inf
ROOT
ATOM      1  C   UNL     1       8.098   7.129  -0.011  1.00  0.00     0.042 C 
ENDROOT
BRANCH   1   2
ATOM      2  C   UNL     1       6.760   7.609   0.674  1.00  0.00     0.034 C 
ATOM      3  C   UNL     1       2.550   8.490   3.863  1.00  0.00    -0.000 C 
ATOM      4  C   UNL     1       3.987   8.490   3.300  1.00  0.00    -0.042 C 
ATOM      5  C   UNL     1       2.718   8.692   5.413  1.00  0.00     0.028 C 
ATOM      6  C   UNL     1       1.690   9.668   3.319  1.00  0.00     0.017 C 
ATOM      7  C   UNL     1       5.046   7.696   3.988  1.00  0.00    -0.042 C 
ATOM      8  C   UNL     1       4.371   9.231   2.250  1.00  0.00    -0.022 C 
ATOM      9  C   UNL     1       3.609   7.609   6.058  1.00  0.00     0.036 C 
ATOM     10  C   UNL     1       6.229   7.176   3.121  1.00  0.00     0.001 C 
ATOM     11  C   UNL     1       4.863   7.328   5.278  1.00  0.00    -0.022 C 
ATOM     12  C   UNL     1       5.822   9.542   2.068  1.00  0.00     0.035 C 
ATOM     13  C   UNL     1       6.767   8.287   2.102  1.00  0.00    -0.014 C 
ATOM     14  C   UNL     1       5.678   6.028   2.226  1.00  0.00     0.044 C 
ATOM     15  C   UNL     1       7.368   6.576   4.004  1.00  0.00     0.017 C 
ATOM     16  C   UNL     1       8.150   8.878   2.503  1.00  0.00     0.013 C 
ATOM     17  C   UNL     1       5.741   6.457   0.765  1.00  0.00     0.119 C 
BRANCH   3  18
ATOM     18  C   UNL     1       1.854   7.131   3.527  1.00  0.00     0.018 C 
BRANCH  18  19
ATOM     19  C   UNL     1       0.698   7.218   2.504  1.00  0.00     0.053 C 
BRANCH  19  20
ATOM     20  C   UNL     1       1.123   6.824   1.120  1.00  0.00     0.041 C 
ATOM     21  O   UNL     1       1.798   7.616   0.412  1.00  0.00    -0.550 OA
ATOM     22  O   UNL     1       0.749   5.588   0.603  1.00  0.00    -0.550 OA
ENDBRANCH  19  20
ENDBRANCH  18  19
ENDBRANCH   3  18
BRANCH   5  23
ATOM     23  C   UNL     1       1.415   8.901   6.196  1.00  0.00    -0.076 C 
ATOM     24  C   UNL     1       0.403   8.016   6.170  1.00  0.00     0.008 C 
ATOM     25  C   UNL     1       1.258  10.125   7.067  1.00  0.00     0.039 C 
ENDBRANCH   5  23
BRANCH  17  26
ATOM     26  O   UNL     1       4.473   6.890   0.346  1.00  0.00    -0.393 OA
ATOM     27  H   UNL     1       4.365   7.822   0.671  1.00  0.00     0.210 HD
ENDBRANCH  17  26
ENDBRANCH   1   2
BRANCH   1  28
ATOM     28  C   UNL     1       8.777   8.155  -0.895  1.00  0.00     0.045 C 
ATOM     29  O   UNL     1       9.987   8.445  -0.710  1.00  0.00    -0.550 OA
ATOM     30  O   UNL     1       8.109   8.731  -1.969  1.00  0.00    -0.550 OA
ENDBRANCH   1  28
BRANCH   1  31
ATOM     31  C   UNL     1       7.974   5.739  -0.695  1.00  0.00     0.014 C 
BRANCH  31  32
ATOM     32  C   UNL     1       9.348   5.148  -1.056  1.00  0.00     0.031 C 
BRANCH  32  33
ATOM     33  C   UNL     1       9.321   4.519  -2.433  1.00  0.00    -0.075 C 
ATOM     34  C   UNL     1       9.893   3.313  -2.620  1.00  0.00     0.008 C 
BRANCH  33  35
ATOM     35  C   UNL     1       8.640   5.252  -3.581  1.00  0.00     0.008 C 
ATOM     36  C   UNL     1       8.267   4.289  -4.715  1.00  0.00     0.012 C 
ATOM     37  C   UNL     1       9.509   6.407  -4.097  1.00  0.00     0.012 C 
ENDBRANCH  33  35
ENDBRANCH  32  33
ENDBRANCH  31  32
ENDBRANCH   1  31
TORSDOF 11
ENDMDL
MODEL 4
REMARK VINA RESULT:    -4.405      3.372      6.939
REMARK INTER + INTRA:          -9.084
REMARK INTER:                  -6.943
REMARK INTRA:                  -2.141
REMARK UNBOUND:                -1.976
REMARK SMILES C=C(CC[C@@H](C(=O)[O-])[C@H]1[C@H](O)C[C@]2(C)C3=CC[C@H](C(=C)C)[C@](C)(CCC(=O)[O-])C3=CC[C@]12C)C(C)C
REMARK SMILES IDX 5 1 9 2 22 3 29 4 18 5 23 6 15 7 30 8 17 9 13 10 16 11 31 12
REMARK SMILES IDX 32 13 12 14 14 15 33 16 10 17 24 18 25 19 26 20 27 21 28 22
REMARK SMILES IDX 19 23 20 24 21 25 11 26 6 28 7 29 8 30 4 31 3 32 2 33 1 34
REMARK SMILES IDX 34 35 35 36 36 37
REMARK H PARENT 11 27
REMARK Flexibility Score: inf
ROOT
ATOM      1  C   UNL     1       5.938   7.692   1.156  1.00  0.00     0.042 C 
ENDROOT
BRANCH   1   2
ATOM      2  C   UNL     1       6.279   7.425   2.673  1.00  0.00     0.034 C 
ATOM      3  C   UNL     1       7.685   5.420   7.435  1.00  0.00    -0.000 C 
ATOM      4  C   UNL     1       7.764   5.960   5.991  1.00  0.00    -0.042 C 
ATOM      5  C   UNL     1       8.962   4.519   7.605  1.00  0.00     0.028 C 
ATOM      6  C   UNL     1       7.751   6.548   8.504  1.00  0.00     0.017 C 
ATOM      7  C   UNL     1       8.105   5.029   4.876  1.00  0.00    -0.042 C 
ATOM      8  C   UNL     1       7.613   7.254   5.676  1.00  0.00    -0.022 C 
ATOM      9  C   UNL     1       9.036   3.392   6.552  1.00  0.00     0.036 C 
ATOM     10  C   UNL     1       7.560   5.377   3.460  1.00  0.00     0.001 C 
ATOM     11  C   UNL     1       8.726   3.860   5.158  1.00  0.00    -0.022 C 
ATOM     12  C   UNL     1       8.160   7.758   4.379  1.00  0.00     0.035 C 
ATOM     13  C   UNL     1       7.714   6.933   3.118  1.00  0.00    -0.014 C 
ATOM     14  C   UNL     1       6.028   5.106   3.475  1.00  0.00     0.044 C 
ATOM     15  C   UNL     1       8.187   4.461   2.363  1.00  0.00     0.017 C 
ATOM     16  C   UNL     1       8.825   7.231   2.071  1.00  0.00     0.013 C 
ATOM     17  C   UNL     1       5.285   6.425   3.295  1.00  0.00     0.119 C 
BRANCH   3  18
ATOM     18  C   UNL     1       6.367   4.598   7.617  1.00  0.00     0.018 C 
BRANCH  18  19
ATOM     19  C   UNL     1       5.412   5.121   8.715  1.00  0.00     0.053 C 
BRANCH  19  20
ATOM     20  C   UNL     1       4.197   5.794   8.147  1.00  0.00     0.041 C 
ATOM     21  O   UNL     1       4.319   6.788   7.384  1.00  0.00    -0.550 OA
ATOM     22  O   UNL     1       2.927   5.339   8.485  1.00  0.00    -0.550 OA
ENDBRANCH  19  20
ENDBRANCH  18  19
ENDBRANCH   3  18
BRANCH   5  23
ATOM     23  C   UNL     1       9.213   3.993   9.025  1.00  0.00    -0.076 C 
ATOM     24  C   UNL     1       8.684   2.842   9.476  1.00  0.00     0.008 C 
ATOM     25  C   UNL     1      10.120   4.763   9.954  1.00  0.00     0.039 C 
ENDBRANCH   5  23
BRANCH  17  26
ATOM     26  O   UNL     1       4.838   6.889   4.542  1.00  0.00    -0.393 OA
ATOM     27  H   UNL     1       4.015   6.378   4.762  1.00  0.00     0.210 HD
ENDBRANCH  17  26
ENDBRANCH   1   2
BRANCH   1  28
ATOM     28  C   UNL     1       6.220   9.099   0.668  1.00  0.00     0.045 C 
ATOM     29  O   UNL     1       6.610   9.981   1.476  1.00  0.00    -0.550 OA
ATOM     30  O   UNL     1       6.132   9.421  -0.681  1.00  0.00    -0.550 OA
ENDBRANCH   1  28
BRANCH   1  31
ATOM     31  C   UNL     1       4.527   7.188   0.744  1.00  0.00     0.014 C 
BRANCH  31  32
ATOM     32  C   UNL     1       3.489   8.322   0.729  1.00  0.00     0.031 C 
BRANCH  32  33
ATOM     33  C   UNL     1       2.131   7.819   1.170  1.00  0.00    -0.075 C 
ATOM     34  C   UNL     1       1.147   8.704   1.419  1.00  0.00     0.008 C 
BRANCH  33  35
ATOM     35  C   UNL     1       1.895   6.321   1.315  1.00  0.00     0.008 C 
ATOM     36  C   UNL     1       1.185   5.746   0.083  1.00  0.00     0.012 C 
ATOM     37  C   UNL     1       1.121   6.002   2.600  1.00  0.00     0.012 C 
ENDBRANCH  33  35
ENDBRANCH  32  33
ENDBRANCH  31  32
ENDBRANCH   1  31
TORSDOF 11
ENDMDL
MODEL 5
REMARK VINA RESULT:    -4.259      3.521      5.845
REMARK INTER + INTRA:          -8.849
REMARK INTER:                  -6.539
REMARK INTRA:                  -2.310
REMARK UNBOUND:                -1.976
REMARK SMILES C=C(CC[C@@H](C(=O)[O-])[C@H]1[C@H](O)C[C@]2(C)C3=CC[C@H](C(=C)C)[C@](C)(CCC(=O)[O-])C3=CC[C@]12C)C(C)C
REMARK SMILES IDX 5 1 9 2 22 3 29 4 18 5 23 6 15 7 30 8 17 9 13 10 16 11 31 12
REMARK SMILES IDX 32 13 12 14 14 15 33 16 10 17 24 18 25 19 26 20 27 21 28 22
REMARK SMILES IDX 19 23 20 24 21 25 11 26 6 28 7 29 8 30 4 31 3 32 2 33 1 34
REMARK SMILES IDX 34 35 35 36 36 37
REMARK H PARENT 11 27
REMARK Flexibility Score: inf
ROOT
ATOM      1  C   UNL     1       8.214   6.468  -1.139  1.00  0.00     0.042 C 
ENDROOT
BRANCH   1   2
ATOM      2  C   UNL     1       7.911   5.820   0.268  1.00  0.00     0.034 C 
ATOM      3  C   UNL     1       7.133   4.713   5.449  1.00  0.00    -0.000 C 
ATOM      4  C   UNL     1       6.936   5.277   4.025  1.00  0.00    -0.042 C 
ATOM      5  C   UNL     1       6.330   5.685   6.387  1.00  0.00     0.028 C 
ATOM      6  C   UNL     1       6.536   3.286   5.618  1.00  0.00     0.017 C 
ATOM      7  C   UNL     1       7.085   6.743   3.788  1.00  0.00    -0.042 C 
ATOM      8  C   UNL     1       6.564   4.528   2.977  1.00  0.00    -0.022 C 
ATOM      9  C   UNL     1       6.797   7.151   6.259  1.00  0.00     0.036 C 
ATOM     10  C   UNL     1       7.534   7.198   2.369  1.00  0.00     0.001 C 
ATOM     11  C   UNL     1       6.981   7.595   4.835  1.00  0.00    -0.022 C 
ATOM     12  C   UNL     1       5.948   5.193   1.788  1.00  0.00     0.035 C 
ATOM     13  C   UNL     1       6.778   6.395   1.209  1.00  0.00    -0.014 C 
ATOM     14  C   UNL     1       9.037   6.826   2.218  1.00  0.00     0.044 C 
ATOM     15  C   UNL     1       7.415   8.744   2.199  1.00  0.00     0.017 C 
ATOM     16  C   UNL     1       5.717   7.247   0.456  1.00  0.00     0.013 C 
ATOM     17  C   UNL     1       9.183   5.763   1.136  1.00  0.00     0.119 C 
BRANCH   3  18
ATOM     18  C   UNL     1       8.656   4.692   5.801  1.00  0.00     0.018 C 
BRANCH  18  19
ATOM     19  C   UNL     1       9.433   3.457   5.289  1.00  0.00     0.053 C 
BRANCH  19  20
ATOM     20  C   UNL     1       9.786   2.503   6.392  1.00  0.00     0.041 C 
ATOM     21  O   UNL     1      10.027   2.931   7.551  1.00  0.00    -0.550 OA
ATOM     22  O   UNL     1       9.875   1.139   6.131  1.00  0.00    -0.550 OA
ENDBRANCH  19  20
ENDBRANCH  18  19
ENDBRANCH   3  18
BRANCH   5  23
ATOM     23  C   UNL     1       6.221   5.246   7.853  1.00  0.00    -0.076 C 
ATOM     24  C   UNL     1       5.053   4.892   8.420  1.00  0.00     0.008 C 
ATOM     25  C   UNL     1       7.468   5.161   8.700  1.00  0.00     0.039 C 
ENDBRANCH   5  23
BRANCH  17  26
ATOM     26  O   UNL     1       9.314   4.498   1.730  1.00  0.00    -0.393 OA
ATOM     27  H   UNL     1       8.616   3.917   1.328  1.00  0.00     0.210 HD
ENDBRANCH  17  26
ENDBRANCH   1   2
BRANCH   1  28
ATOM     28  C   UNL     1       7.989   5.560  -2.331  1.00  0.00     0.045 C 
ATOM     29  O   UNL     1       7.106   5.843  -3.182  1.00  0.00    -0.550 OA
ATOM     30  O   UNL     1       8.798   4.452  -2.552  1.00  0.00    -0.550 OA
ENDBRANCH   1  28
BRANCH   1  31
ATOM     31  C   UNL     1       9.582   7.203  -1.196  1.00  0.00     0.014 C 
BRANCH  31  32
ATOM     32  C   UNL     1       9.417   8.732  -1.225  1.00  0.00     0.031 C 
BRANCH  32  33
ATOM     33  C   UNL     1       9.058   9.212  -2.615  1.00  0.00    -0.075 C 
ATOM     34  C   UNL     1       9.847   8.876  -3.654  1.00  0.00     0.008 C 
BRANCH  33  35
ATOM     35  C   UNL     1       7.806  10.056  -2.819  1.00  0.00     0.008 C 
ATOM     36  C   UNL     1       6.962  10.121  -1.541  1.00  0.00     0.012 C 
ATOM     37  C   UNL     1       6.978   9.544  -4.005  1.00  0.00     0.012 C 
ENDBRANCH  33  35
ENDBRANCH  32  33
ENDBRANCH  31  32
ENDBRANCH   1  31
TORSDOF 11
ENDMDL
MODEL 6
REMARK VINA RESULT:    -4.142      2.587      6.914
REMARK INTER + INTRA:          -8.661
REMARK INTER:                  -6.039
REMARK INTRA:                  -2.621
REMARK UNBOUND:                -1.976
REMARK SMILES C=C(CC[C@@H](C(=O)[O-])[C@H]1[C@H](O)C[C@]2(C)C3=CC[C@H](C(=C)C)[C@](C)(CCC(=O)[O-])C3=CC[C@]12C)C(C)C
REMARK SMILES IDX 5 1 9 2 22 3 29 4 18 5 23 6 15 7 30 8 17 9 13 10 16 11 31 12
REMARK SMILES IDX 32 13 12 14 14 15 33 16 10 17 24 18 25 19 26 20 27 21 28 22
REMARK SMILES IDX 19 23 20 24 21 25 11 26 6 28 7 29 8 30 4 31 3 32 2 33 1 34
REMARK SMILES IDX 34 35 35 36 36 37
REMARK H PARENT 11 27
REMARK Flexibility Score: inf
ROOT
ATOM      1  C   UNL     1       7.629   4.141   6.918  1.00  0.00     0.042 C 
ENDROOT
BRANCH   1   2
ATOM      2  C   UNL     1       7.739   4.462   5.378  1.00  0.00     0.034 C 
ATOM      3  C   UNL     1       7.945   6.677   0.507  1.00  0.00    -0.000 C 
ATOM      4  C   UNL     1       8.322   6.262   1.945  1.00  0.00    -0.042 C 
ATOM      5  C   UNL     1       8.762   7.992   0.234  1.00  0.00     0.028 C 
ATOM      6  C   UNL     1       8.372   5.622  -0.554  1.00  0.00     0.017 C 
ATOM      7  C   UNL     1       8.350   7.293   3.024  1.00  0.00    -0.042 C 
ATOM      8  C   UNL     1       8.703   5.022   2.282  1.00  0.00    -0.022 C 
ATOM      9  C   UNL     1       8.464   9.099   1.268  1.00  0.00     0.036 C 
ATOM     10  C   UNL     1       8.076   6.815   4.479  1.00  0.00     0.001 C 
ATOM     11  C   UNL     1       8.451   8.600   2.686  1.00  0.00    -0.022 C 
ATOM     12  C   UNL     1       9.487   4.815   3.539  1.00  0.00     0.035 C 
ATOM     13  C   UNL     1       8.840   5.451   4.822  1.00  0.00    -0.014 C 
ATOM     14  C   UNL     1       6.560   6.475   4.577  1.00  0.00     0.044 C 
ATOM     15  C   UNL     1       8.371   7.941   5.518  1.00  0.00     0.017 C 
ATOM     16  C   UNL     1      10.047   5.643   5.786  1.00  0.00     0.013 C 
ATOM     17  C   UNL     1       6.397   4.980   4.823  1.00  0.00     0.119 C 
BRANCH   3  18
ATOM     18  C   UNL     1       6.404   6.921   0.417  1.00  0.00     0.018 C 
BRANCH  18  19
ATOM     19  C   UNL     1       5.523   5.689   0.731  1.00  0.00     0.053 C 
BRANCH  19  20
ATOM     20  C   UNL     1       4.177   6.069   1.275  1.00  0.00     0.041 C 
ATOM     21  O   UNL     1       4.053   6.417   2.478  1.00  0.00    -0.550 OA
ATOM     22  O   UNL     1       3.053   6.011   0.457  1.00  0.00    -0.550 OA
ENDBRANCH  19  20
ENDBRANCH  18  19
ENDBRANCH   3  18
BRANCH   5  23
ATOM     23  C   UNL     1       8.696   8.521  -1.205  1.00  0.00    -0.076 C 
ATOM     24  C   UNL     1       7.652   9.230  -1.671  1.00  0.00     0.008 C 
ATOM     25  C   UNL     1       9.858   8.283  -2.140  1.00  0.00     0.039 C 
ENDBRANCH   5  23
BRANCH  17  26
ATOM     26  O   UNL     1       6.084   4.333   3.617  1.00  0.00    -0.393 OA
ATOM     27  H   UNL     1       6.932   4.247   3.108  1.00  0.00     0.210 HD
ENDBRANCH  17  26
ENDBRANCH   1   2
BRANCH   1  28
ATOM     28  C   UNL     1       8.130   2.771   7.331  1.00  0.00     0.045 C 
ATOM     29  O   UNL     1       7.853   2.315   8.471  1.00  0.00    -0.550 OA
ATOM     30  O   UNL     1       8.829   1.964   6.441  1.00  0.00    -0.550 OA
ENDBRANCH   1  28
BRANCH   1  31
ATOM     31  C   UNL     1       6.234   4.473   7.518  1.00  0.00     0.014 C 
BRANCH  31  32
ATOM     32  C   UNL     1       6.247   5.786   8.319  1.00  0.00     0.031 C 
BRANCH  32  33
ATOM     33  C   UNL     1       5.008   6.607   8.033  1.00  0.00    -0.075 C 
ATOM     34  C   UNL     1       5.141   7.879   7.611  1.00  0.00     0.008 C 
BRANCH  33  35
ATOM     35  C   UNL     1       3.632   5.979   8.215  1.00  0.00     0.008 C 
ATOM     36  C   UNL     1       2.550   6.785   7.485  1.00  0.00     0.012 C 
ATOM     37  C   UNL     1       3.290   5.809   9.701  1.00  0.00     0.012 C 
ENDBRANCH  33  35
ENDBRANCH  32  33
ENDBRANCH  31  32
ENDBRANCH   1  31
TORSDOF 11
ENDMDL
MODEL 7
REMARK VINA RESULT:    -4.071      2.672      7.236
REMARK INTER + INTRA:          -8.546
REMARK INTER:                  -6.520
REMARK INTRA:                  -2.027
REMARK UNBOUND:                -1.976
REMARK SMILES C=C(CC[C@@H](C(=O)[O-])[C@H]1[C@H](O)C[C@]2(C)C3=CC[C@H](C(=C)C)[C@](C)(CCC(=O)[O-])C3=CC[C@]12C)C(C)C
REMARK SMILES IDX 5 1 9 2 22 3 29 4 18 5 23 6 15 7 30 8 17 9 13 10 16 11 31 12
REMARK SMILES IDX 32 13 12 14 14 15 33 16 10 17 24 18 25 19 26 20 27 21 28 22
REMARK SMILES IDX 19 23 20 24 21 25 11 26 6 28 7 29 8 30 4 31 3 32 2 33 1 34
REMARK SMILES IDX 34 35 35 36 36 37
REMARK H PARENT 11 27
REMARK Flexibility Score: inf
ROOT
ATOM      1  C   UNL     1       5.434   8.175   0.520  1.00  0.00     0.042 C 
ENDROOT
BRANCH   1   2
ATOM      2  C   UNL     1       6.349   7.299   1.460  1.00  0.00     0.034 C 
ATOM      3  C   UNL     1       8.745   4.745   5.511  1.00  0.00    -0.000 C 
ATOM      4  C   UNL     1       7.708   5.147   4.441  1.00  0.00    -0.042 C 
ATOM      5  C   UNL     1       7.917   4.013   6.628  1.00  0.00     0.028 C 
ATOM      6  C   UNL     1       9.808   3.744   4.972  1.00  0.00     0.017 C 
ATOM      7  C   UNL     1       6.420   5.770   4.863  1.00  0.00    -0.042 C 
ATOM      8  C   UNL     1       7.862   4.903   3.131  1.00  0.00    -0.022 C 
ATOM      9  C   UNL     1       6.786   4.895   7.199  1.00  0.00     0.036 C 
ATOM     10  C   UNL     1       5.721   6.728   3.855  1.00  0.00     0.001 C 
ATOM     11  C   UNL     1       5.996   5.610   6.139  1.00  0.00    -0.022 C 
ATOM     12  C   UNL     1       6.658   4.881   2.246  1.00  0.00     0.035 C 
ATOM     13  C   UNL     1       5.740   6.152   2.362  1.00  0.00    -0.014 C 
ATOM     14  C   UNL     1       6.561   8.037   3.804  1.00  0.00     0.044 C 
ATOM     15  C   UNL     1       4.285   7.111   4.328  1.00  0.00     0.017 C 
ATOM     16  C   UNL     1       4.351   5.649   1.874  1.00  0.00     0.013 C 
ATOM     17  C   UNL     1       7.171   8.187   2.415  1.00  0.00     0.119 C 
BRANCH   3  18
ATOM     18  C   UNL     1       9.457   6.024   6.059  1.00  0.00     0.018 C 
BRANCH  18  19
ATOM     19  C   UNL     1      10.109   6.927   4.986  1.00  0.00     0.053 C 
BRANCH  19  20
ATOM     20  C   UNL     1      10.035   8.384   5.338  1.00  0.00     0.041 C 
ATOM     21  O   UNL     1      10.125   9.260   4.439  1.00  0.00    -0.550 OA
ATOM     22  O   UNL     1       9.895   8.773   6.666  1.00  0.00    -0.550 OA
ENDBRANCH  19  20
ENDBRANCH  18  19
ENDBRANCH   3  18
BRANCH   5  23
ATOM     23  C   UNL     1       8.747   3.356   7.739  1.00  0.00    -0.076 C 
ATOM     24  C   UNL     1       9.145   2.072   7.685  1.00  0.00     0.008 C 
ATOM     25  C   UNL     1       9.177   4.177   8.932  1.00  0.00     0.039 C 
ENDBRANCH   5  23
BRANCH  17  26
ATOM     26  O   UNL     1       8.511   7.770   2.440  1.00  0.00    -0.393 OA
ATOM     27  H   UNL     1       9.018   8.459   2.944  1.00  0.00     0.210 HD
ENDBRANCH  17  26
ENDBRANCH   1   2
BRANCH   1  28
ATOM     28  C   UNL     1       6.172   9.128  -0.398  1.00  0.00     0.045 C 
ATOM     29  O   UNL     1       5.530   9.925  -1.129  1.00  0.00    -0.550 OA
ATOM     30  O   UNL     1       7.560   9.198  -0.393  1.00  0.00    -0.550 OA
ENDBRANCH   1  28
BRANCH   1  31
ATOM     31  C   UNL     1       4.257   8.860   1.270  1.00  0.00     0.014 C 
BRANCH  31  32
ATOM     32  C   UNL     1       2.900   8.571   0.604  1.00  0.00     0.031 C 
BRANCH  32  33
ATOM     33  C   UNL     1       1.805   8.442   1.640  1.00  0.00    -0.075 C 
ATOM     34  C   UNL     1       1.671   9.394   2.583  1.00  0.00     0.008 C 
BRANCH  33  35
ATOM     35  C   UNL     1       0.864   7.244   1.593  1.00  0.00     0.008 C 
ATOM     36  C   UNL     1       0.909   6.448   2.903  1.00  0.00     0.012 C 
ATOM     37  C   UNL     1       1.169   6.345   0.388  1.00  0.00     0.012 C 
ENDBRANCH  33  35
ENDBRANCH  32  33
ENDBRANCH  31  32
ENDBRANCH   1  31
TORSDOF 11
ENDMDL
