MODEL 1
REMARK VINA RESULT:    -3.923      0.000      0.000
REMARK INTER + INTRA:          -3.923
REMARK INTER:                  -3.923
REMARK INTRA:                   0.000
REMARK UNBOUND:                 0.000
REMARK SMILES CC1=CC(=O)[C@@H]2C[C@H]1C2(C)C
REMARK SMILES IDX 1 1 2 2 3 3 4 4 5 5 6 6 7 7 8 8 9 9 10 10 11 11
REMARK H PARENT
REMARK Flexibility Score: inf
ROOT
ATOM      1  C   UNL     1      80.182  13.892   0.251  1.00  0.00     0.040 C 
ATOM      2  C   UNL     1      79.555  14.682   1.355  1.00  0.00    -0.066 C 
ATOM      3  C   UNL     1      80.018  14.605   2.634  1.00  0.00     0.047 C 
ATOM      4  C   UNL     1      79.326  15.468   3.644  1.00  0.00     0.159 C 
ATOM      5  O   UNL     1      79.686  15.516   4.849  1.00  0.00    -0.295 OA
ATOM      6  C   UNL     1      78.152  16.290   3.107  1.00  0.00     0.067 C 
ATOM      7  C   UNL     1      77.352  15.287   2.247  1.00  0.00     0.021 C 
ATOM      8  C   UNL     1      78.345  15.607   1.106  1.00  0.00     0.022 C 
ATOM      9  C   UNL     1      78.596  16.984   1.788  1.00  0.00    -0.019 C 
ATOM     10  C   UNL     1      77.588  18.064   1.322  1.00  0.00     0.012 C 
ATOM     11  C   UNL     1      80.027  17.588   1.716  1.00  0.00     0.012 C 
ENDROOT
TORSDOF 0
ENDMDL
MODEL 2
REMARK VINA RESULT:    -3.814      1.329      2.218
REMARK INTER + INTRA:          -3.814
REMARK INTER:                  -3.814
REMARK INTRA:                   0.000
REMARK UNBOUND:                 0.000
REMARK SMILES CC1=CC(=O)[C@@H]2C[C@H]1C2(C)C
REMARK SMILES IDX 1 1 2 2 3 3 4 4 5 5 6 6 7 7 8 8 9 9 10 10 11 11
REMARK H PARENT
REMARK Flexibility Score: inf
ROOT
ATOM      1  C   UNL     1      76.394  13.875   2.472  1.00  0.00     0.040 C 
ATOM      2  C   UNL     1      77.694  14.571   2.723  1.00  0.00    -0.066 C 
ATOM      3  C   UNL     1      78.822  13.875   3.036  1.00  0.00     0.047 C 
ATOM      4  C   UNL     1      80.068  14.684   3.234  1.00  0.00     0.159 C 
ATOM      5  O   UNL     1      81.181  14.154   3.488  1.00  0.00    -0.295 OA
ATOM      6  C   UNL     1      79.892  16.198   3.103  1.00  0.00     0.067 C 
ATOM      7  C   UNL     1      78.618  16.502   3.920  1.00  0.00     0.021 C 
ATOM      8  C   UNL     1      77.818  16.108   2.657  1.00  0.00     0.022 C 
ATOM      9  C   UNL     1      79.071  16.491   1.815  1.00  0.00    -0.019 C 
ATOM     10  C   UNL     1      79.088  17.993   1.435  1.00  0.00     0.012 C 
ATOM     11  C   UNL     1      79.378  15.661   0.537  1.00  0.00     0.012 C 
ENDROOT
TORSDOF 0
ENDMDL
MODEL 3
REMARK VINA RESULT:    -3.748      1.748      2.824
REMARK INTER + INTRA:          -3.748
REMARK INTER:                  -3.748
REMARK INTRA:                   0.000
REMARK UNBOUND:                 0.000
REMARK SMILES CC1=CC(=O)[C@@H]2C[C@H]1C2(C)C
REMARK SMILES IDX 1 1 2 2 3 3 4 4 5 5 6 6 7 7 8 8 9 9 10 10 11 11
REMARK H PARENT
REMARK Flexibility Score: inf
ROOT
ATOM      1  C   UNL     1      80.734  14.056   4.018  1.00  0.00     0.040 C 
ATOM      2  C   UNL     1      79.852  14.885   3.139  1.00  0.00    -0.066 C 
ATOM      3  C   UNL     1      80.222  16.133   2.740  1.00  0.00     0.047 C 
ATOM      4  C   UNL     1      79.266  16.850   1.836  1.00  0.00     0.159 C 
ATOM      5  O   UNL     1      79.512  17.993   1.368  1.00  0.00    -0.295 OA
ATOM      6  C   UNL     1      77.974  16.096   1.520  1.00  0.00     0.067 C 
ATOM      7  C   UNL     1      77.507  15.556   2.889  1.00  0.00     0.021 C 
ATOM      8  C   UNL     1      78.477  14.376   2.657  1.00  0.00     0.022 C 
ATOM      9  C   UNL     1      78.336  14.635   1.128  1.00  0.00    -0.019 C 
ATOM     10  C   UNL     1      77.136  13.875   0.510  1.00  0.00     0.012 C 
ATOM     11  C   UNL     1      79.580  14.399   0.225  1.00  0.00     0.012 C 
ENDROOT
TORSDOF 0
ENDMDL
MODEL 4
REMARK VINA RESULT:    -3.657      1.788      3.391
REMARK INTER + INTRA:          -3.657
REMARK INTER:                  -3.657
REMARK INTRA:                   0.000
REMARK UNBOUND:                 0.000
REMARK SMILES CC1=CC(=O)[C@@H]2C[C@H]1C2(C)C
REMARK SMILES IDX 1 1 2 2 3 3 4 4 5 5 6 6 7 7 8 8 9 9 10 10 11 11
REMARK H PARENT
REMARK Flexibility Score: inf
ROOT
ATOM      1  C   UNL     1      76.376  13.877   2.063  1.00  0.00     0.040 C 
ATOM      2  C   UNL     1      77.691  14.558   2.271  1.00  0.00    -0.066 C 
ATOM      3  C   UNL     1      78.004  15.709   1.614  1.00  0.00     0.047 C 
ATOM      4  C   UNL     1      79.339  16.312   1.931  1.00  0.00     0.159 C 
ATOM      5  O   UNL     1      79.727  17.395   1.420  1.00  0.00    -0.295 OA
ATOM      6  C   UNL     1      80.195  15.520   2.921  1.00  0.00     0.067 C 
ATOM      7  C   UNL     1      80.087  14.060   2.431  1.00  0.00     0.021 C 
ATOM      8  C   UNL     1      78.762  13.984   3.223  1.00  0.00     0.022 C 
ATOM      9  C   UNL     1      79.308  15.122   4.135  1.00  0.00    -0.019 C 
ATOM     10  C   UNL     1      80.142  14.577   5.321  1.00  0.00     0.012 C 
ATOM     11  C   UNL     1      78.300  16.168   4.688  1.00  0.00     0.012 C 
ENDROOT
TORSDOF 0
ENDMDL
MODEL 5
REMARK VINA RESULT:    -3.631      1.249      2.910
REMARK INTER + INTRA:          -3.631
REMARK INTER:                  -3.631
REMARK INTRA:                   0.000
REMARK UNBOUND:                 0.000
REMARK SMILES CC1=CC(=O)[C@@H]2C[C@H]1C2(C)C
REMARK SMILES IDX 1 1 2 2 3 3 4 4 5 5 6 6 7 7 8 8 9 9 10 10 11 11
REMARK H PARENT
REMARK Flexibility Score: inf
ROOT
ATOM      1  C   UNL     1      79.428  18.128   1.535  1.00  0.00     0.040 C 
ATOM      2  C   UNL     1      79.466  16.640   1.674  1.00  0.00    -0.066 C 
ATOM      3  C   UNL     1      80.184  16.039   2.664  1.00  0.00     0.047 C 
ATOM      4  C   UNL     1      80.118  14.543   2.717  1.00  0.00     0.159 C 
ATOM      5  O   UNL     1      80.705  13.875   3.608  1.00  0.00    -0.295 OA
ATOM      6  C   UNL     1      79.285  13.886   1.616  1.00  0.00     0.067 C 
ATOM      7  C   UNL     1      79.727  14.609   0.325  1.00  0.00     0.021 C 
ATOM      8  C   UNL     1      78.712  15.712   0.698  1.00  0.00     0.022 C 
ATOM      9  C   UNL     1      77.928  14.637   1.506  1.00  0.00    -0.019 C 
ATOM     10  C   UNL     1      76.901  13.875   0.632  1.00  0.00     0.012 C 
ATOM     11  C   UNL     1      77.219  15.077   2.818  1.00  0.00     0.012 C 
ENDROOT
TORSDOF 0
ENDMDL
MODEL 6
REMARK VINA RESULT:    -3.600      1.746      3.173
REMARK INTER + INTRA:          -3.600
REMARK INTER:                  -3.600
REMARK INTRA:                   0.000
REMARK UNBOUND:                 0.000
REMARK SMILES CC1=CC(=O)[C@@H]2C[C@H]1C2(C)C
REMARK SMILES IDX 1 1 2 2 3 3 4 4 5 5 6 6 7 7 8 8 9 9 10 10 11 11
REMARK H PARENT
REMARK Flexibility Score: inf
ROOT
ATOM      1  C   UNL     1      77.856  18.178   1.006  1.00  0.00     0.040 C 
ATOM      2  C   UNL     1      78.268  16.782   1.349  1.00  0.00    -0.066 C 
ATOM      3  C   UNL     1      78.998  16.025   0.483  1.00  0.00     0.047 C 
ATOM      4  C   UNL     1      79.376  14.654   0.955  1.00  0.00     0.159 C 
ATOM      5  O   UNL     1      80.082  13.875   0.263  1.00  0.00    -0.295 OA
ATOM      6  C   UNL     1      78.846  14.270   2.338  1.00  0.00     0.067 C 
ATOM      7  C   UNL     1      77.368  14.715   2.312  1.00  0.00     0.021 C 
ATOM      8  C   UNL     1      77.875  16.125   2.689  1.00  0.00     0.022 C 
ATOM      9  C   UNL     1      79.125  15.443   3.319  1.00  0.00    -0.019 C 
ATOM     10  C   UNL     1      78.896  15.043   4.798  1.00  0.00     0.012 C 
ATOM     11  C   UNL     1      80.491  16.180   3.220  1.00  0.00     0.012 C 
ENDROOT
TORSDOF 0
ENDMDL
MODEL 7
REMARK VINA RESULT:    -3.040      0.981      3.150
REMARK INTER + INTRA:          -3.040
REMARK INTER:                  -3.040
REMARK INTRA:                   0.000
REMARK UNBOUND:                 0.000
REMARK SMILES CC1=CC(=O)[C@@H]2C[C@H]1C2(C)C
REMARK SMILES IDX 1 1 2 2 3 3 4 4 5 5 6 6 7 7 8 8 9 9 10 10 11 11
REMARK H PARENT
REMARK Flexibility Score: inf
ROOT
ATOM      1  C   UNL     1      77.620  18.381   1.001  1.00  0.00     0.040 C 
ATOM      2  C   UNL     1      78.223  17.203   1.700  1.00  0.00    -0.066 C 
ATOM      3  C   UNL     1      77.868  16.876   2.973  1.00  0.00     0.047 C 
ATOM      4  C   UNL     1      78.519  15.657   3.551  1.00  0.00     0.159 C 
ATOM      5  O   UNL     1      78.244  15.229   4.702  1.00  0.00    -0.295 OA
ATOM      6  C   UNL     1      79.539  14.967   2.643  1.00  0.00     0.067 C 
ATOM      7  C   UNL     1      80.392  16.127   2.085  1.00  0.00     0.021 C 
ATOM      8  C   UNL     1      79.287  16.314   1.021  1.00  0.00     0.022 C 
ATOM      9  C   UNL     1      78.917  14.816   1.225  1.00  0.00    -0.019 C 
ATOM     10  C   UNL     1      79.746  13.875   0.315  1.00  0.00     0.012 C 
ATOM     11  C   UNL     1      77.421  14.408   1.115  1.00  0.00     0.012 C 
ENDROOT
TORSDOF 0
ENDMDL
MODEL 8
REMARK VINA RESULT:    -2.982      1.659      2.461
REMARK INTER + INTRA:          -2.982
REMARK INTER:                  -2.982
REMARK INTRA:                   0.000
REMARK UNBOUND:                 0.000
REMARK SMILES CC1=CC(=O)[C@@H]2C[C@H]1C2(C)C
REMARK SMILES IDX 1 1 2 2 3 3 4 4 5 5 6 6 7 7 8 8 9 9 10 10 11 11
REMARK H PARENT
REMARK Flexibility Score: inf
ROOT
ATOM      1  C   UNL     1      81.033  14.124   3.809  1.00  0.00     0.040 C 
ATOM      2  C   UNL     1      79.836  14.473   2.983  1.00  0.00    -0.066 C 
ATOM      3  C   UNL     1      78.631  13.875   3.195  1.00  0.00     0.047 C 
ATOM      4  C   UNL     1      77.501  14.333   2.324  1.00  0.00     0.159 C 
ATOM      5  O   UNL     1      76.331  13.885   2.449  1.00  0.00    -0.295 OA
ATOM      6  C   UNL     1      77.868  15.384   1.275  1.00  0.00     0.067 C 
ATOM      7  C   UNL     1      79.178  14.853   0.652  1.00  0.00     0.021 C 
ATOM      8  C   UNL     1      79.909  15.511   1.844  1.00  0.00     0.022 C 
ATOM      9  C   UNL     1      78.710  16.496   1.962  1.00  0.00    -0.019 C 
ATOM     10  C   UNL     1      78.882  17.746   1.062  1.00  0.00     0.012 C 
ATOM     11  C   UNL     1      78.287  16.972   3.381  1.00  0.00     0.012 C 
ENDROOT
TORSDOF 0
ENDMDL
