MODEL 1
REMARK VINA RESULT:    -6.921      0.000      0.000
REMARK INTER + INTRA:         -11.465
REMARK INTER:                 -10.765
REMARK INTRA:                  -0.700
REMARK UNBOUND:                -0.700
REMARK SMILES C[C@@]12C[C@@H](O)[C@H]3C[C@]1(O[C@H]1O[C@H](CO)[C@H](O)[C@H](O)[C@@H]1O)[C@@]3(COC(=O)c1ccccc1)C(=O)O2
REMARK SMILES IDX 1 1 2 2 3 3 4 4 6 5 7 6 8 7 21 8 32 9 33 10 34 11 9 12 10 13
REMARK SMILES IDX 19 14 11 15 17 16 12 17 15 18 20 19 18 21 13 23 14 24 16 26
REMARK SMILES IDX 5 28 22 30 23 31 24 32 25 33 26 34 27 35 31 36 28 37 30 38
REMARK SMILES IDX 29 39
REMARK H PARENT 20 20 18 22 14 25 16 27 5 29
REMARK Flexibility Score: inf
ROOT
ATOM      1  C   UNL     1     -19.284  10.234  -8.801  1.00  0.00     0.060 C 
ATOM      2  C   UNL     1     -18.359  11.244  -9.479  1.00  0.00     0.142 C 
ATOM      3  C   UNL     1     -18.832  11.555 -10.945  1.00  0.00     0.083 C 
ATOM      4  C   UNL     1     -18.100  12.827 -11.515  1.00  0.00     0.123 C 
ATOM      5  C   UNL     1     -17.683  13.786 -10.354  1.00  0.00     0.045 C 
ATOM      6  C   UNL     1     -18.842  13.807  -9.340  1.00  0.00     0.049 C 
ATOM      7  C   UNL     1     -18.139  12.598  -8.670  1.00  0.00     0.131 C 
ATOM      8  C   UNL     1     -16.804  13.046  -9.294  1.00  0.00     0.140 C 
ATOM      9  C   UNL     1     -16.154  11.747  -9.652  1.00  0.00     0.319 C 
ATOM     10  O   UNL     1     -14.955  11.600 -10.003  1.00  0.00    -0.251 OA
ATOM     11  O   UNL     1     -17.053  10.708  -9.605  1.00  0.00    -0.456 OA
ENDROOT
BRANCH   7  12
ATOM     12  O   UNL     1     -18.093  12.407  -7.251  1.00  0.00    -0.338 OA
BRANCH  12  13
ATOM     13  C   UNL     1     -19.131  13.042  -6.516  1.00  0.00     0.282 C 
ATOM     14  C   UNL     1     -18.600  14.337  -5.864  1.00  0.00     0.202 C 
ATOM     15  O   UNL     1     -19.721  12.170  -5.560  1.00  0.00    -0.341 OA
ATOM     16  C   UNL     1     -17.667  14.012  -4.678  1.00  0.00     0.179 C 
ATOM     17  C   UNL     1     -18.800  11.790  -4.550  1.00  0.00     0.178 C 
ATOM     18  C   UNL     1     -18.339  13.009  -3.726  1.00  0.00     0.177 C 
BRANCH  14  19
ATOM     19  O   UNL     1     -19.689  15.114  -5.432  1.00  0.00    -0.385 OA
ATOM     20  H   UNL     1     -19.319  15.861  -4.893  1.00  0.00     0.211 HD
ENDBRANCH  14  19
BRANCH  16  21
ATOM     21  O   UNL     1     -17.322  15.179  -3.978  1.00  0.00    -0.387 OA
ATOM     22  H   UNL     1     -17.990  15.870  -4.227  1.00  0.00     0.211 HD
ENDBRANCH  16  21
BRANCH  17  23
ATOM     23  C   UNL     1     -19.428  10.697  -3.669  1.00  0.00     0.191 C 
BRANCH  23  24
ATOM     24  O   UNL     1     -18.463  10.060  -2.875  1.00  0.00    -0.394 OA
ATOM     25  H   UNL     1     -18.955   9.550  -2.179  1.00  0.00     0.210 HD
ENDBRANCH  23  24
ENDBRANCH  17  23
BRANCH  18  26
ATOM     26  O   UNL     1     -19.439  13.602  -3.080  1.00  0.00    -0.387 OA
ATOM     27  H   UNL     1     -20.254  13.281  -3.545  1.00  0.00     0.211 HD
ENDBRANCH  18  26
ENDBRANCH  12  13
ENDBRANCH   7  12
BRANCH   4  28
ATOM     28  O   UNL     1     -18.942  13.512 -12.403  1.00  0.00    -0.393 OA
ATOM     29  H   UNL     1     -18.784  14.480 -12.253  1.00  0.00     0.210 HD
ENDBRANCH   4  28
BRANCH   8  30
ATOM     30  C   UNL     1     -15.920  13.985  -8.443  1.00  0.00     0.255 C 
BRANCH  30  31
ATOM     31  O   UNL     1     -15.059  14.748  -9.288  1.00  0.00    -0.461 OA
BRANCH  31  32
ATOM     32  C   UNL     1     -14.138  15.698  -8.826  1.00  0.00     0.338 C 
ATOM     33  O   UNL     1     -13.348  16.264  -9.630  1.00  0.00    -0.246 OA
BRANCH  32  34
ATOM     34  C   UNL     1     -14.100  16.038  -7.387  1.00  0.00     0.060 A 
ATOM     35  C   UNL     1     -15.010  16.964  -6.842  1.00  0.00     0.015 A 
ATOM     36  C   UNL     1     -13.150  15.437  -6.541  1.00  0.00     0.015 A 
ATOM     37  C   UNL     1     -14.967  17.280  -5.481  1.00  0.00     0.001 A 
ATOM     38  C   UNL     1     -13.111  15.758  -5.180  1.00  0.00     0.001 A 
ATOM     39  C   UNL     1     -14.019  16.679  -4.651  1.00  0.00     0.000 A 
ENDBRANCH  32  34
ENDBRANCH  31  32
ENDBRANCH  30  31
ENDBRANCH   8  30
TORSDOF 12
ENDMDL
MODEL 2
REMARK VINA RESULT:    -6.670      1.975      6.465
REMARK INTER + INTRA:         -11.075
REMARK INTER:                 -10.607
REMARK INTRA:                  -0.468
REMARK UNBOUND:                -0.700
REMARK SMILES C[C@@]12C[C@@H](O)[C@H]3C[C@]1(O[C@H]1O[C@H](CO)[C@H](O)[C@H](O)[C@@H]1O)[C@@]3(COC(=O)c1ccccc1)C(=O)O2
REMARK SMILES IDX 1 1 2 2 3 3 4 4 6 5 7 6 8 7 21 8 32 9 33 10 34 11 9 12 10 13
REMARK SMILES IDX 19 14 11 15 17 16 12 17 15 18 20 19 18 21 13 23 14 24 16 26
REMARK SMILES IDX 5 28 22 30 23 31 24 32 25 33 26 34 27 35 31 36 28 37 30 38
REMARK SMILES IDX 29 39
REMARK H PARENT 20 20 18 22 14 25 16 27 5 29
REMARK Flexibility Score: inf
ROOT
ATOM      1  C   UNL     1     -14.902  17.006  -9.202  1.00  0.00     0.060 C 
ATOM      2  C   UNL     1     -14.958  16.817  -7.686  1.00  0.00     0.142 C 
ATOM      3  C   UNL     1     -15.705  18.011  -6.991  1.00  0.00     0.083 C 
ATOM      4  C   UNL     1     -16.063  17.660  -5.500  1.00  0.00     0.123 C 
ATOM      5  C   UNL     1     -16.227  16.116  -5.324  1.00  0.00     0.045 C 
ATOM      6  C   UNL     1     -16.973  15.592  -6.564  1.00  0.00     0.049 C 
ATOM      7  C   UNL     1     -15.573  15.428  -7.209  1.00  0.00     0.131 C 
ATOM      8  C   UNL     1     -14.950  15.352  -5.802  1.00  0.00     0.140 C 
ATOM      9  C   UNL     1     -13.664  16.097  -5.969  1.00  0.00     0.319 C 
ATOM     10  O   UNL     1     -12.719  16.122  -5.139  1.00  0.00    -0.251 OA
ATOM     11  O   UNL     1     -13.650  16.815  -7.142  1.00  0.00    -0.456 OA
ENDROOT
BRANCH   7  12
ATOM     12  O   UNL     1     -15.229  14.333  -8.067  1.00  0.00    -0.338 OA
BRANCH  12  13
ATOM     13  C   UNL     1     -15.861  14.334  -9.340  1.00  0.00     0.282 C 
ATOM     14  C   UNL     1     -17.370  14.047  -9.181  1.00  0.00     0.202 C 
ATOM     15  O   UNL     1     -15.242  13.430 -10.246  1.00  0.00    -0.341 OA
ATOM     16  C   UNL     1     -17.613  12.566  -8.824  1.00  0.00     0.179 C 
ATOM     17  C   UNL     1     -15.376  12.082  -9.823  1.00  0.00     0.178 C 
ATOM     18  C   UNL     1     -16.855  11.648  -9.797  1.00  0.00     0.177 C 
BRANCH  14  19
ATOM     19  O   UNL     1     -18.030  14.378 -10.378  1.00  0.00    -0.385 OA
ATOM     20  H   UNL     1     -17.331  14.490 -11.074  1.00  0.00     0.211 HD
ENDBRANCH  14  19
BRANCH  16  21
ATOM     21  O   UNL     1     -18.983  12.262  -8.849  1.00  0.00    -0.387 OA
ATOM     22  H   UNL     1     -19.104  11.440  -8.305  1.00  0.00     0.211 HD
ENDBRANCH  16  21
BRANCH  17  23
ATOM     23  C   UNL     1     -14.521  11.176 -10.724  1.00  0.00     0.191 C 
BRANCH  23  24
ATOM     24  O   UNL     1     -13.945  10.123  -9.996  1.00  0.00    -0.394 OA
ATOM     25  H   UNL     1     -14.327  10.165  -9.080  1.00  0.00     0.210 HD
ENDBRANCH  23  24
ENDBRANCH  17  23
BRANCH  18  26
ATOM     26  O   UNL     1     -17.409  11.733 -11.088  1.00  0.00    -0.387 OA
ATOM     27  H   UNL     1     -17.539  12.698 -11.282  1.00  0.00     0.211 HD
ENDBRANCH  18  26
ENDBRANCH  12  13
ENDBRANCH   7  12
BRANCH   4  28
ATOM     28  O   UNL     1     -17.255  18.299  -5.125  1.00  0.00    -0.393 OA
ATOM     29  H   UNL     1     -17.521  17.911  -4.251  1.00  0.00     0.210 HD
ENDBRANCH   4  28
BRANCH   8  30
ATOM     30  C   UNL     1     -14.792  13.943  -5.187  1.00  0.00     0.255 C 
BRANCH  30  31
ATOM     31  O   UNL     1     -15.480  13.873  -3.938  1.00  0.00    -0.461 OA
BRANCH  31  32
ATOM     32  C   UNL     1     -16.442  12.905  -3.620  1.00  0.00     0.338 C 
ATOM     33  O   UNL     1     -16.109  11.854  -3.006  1.00  0.00    -0.246 OA
BRANCH  32  34
ATOM     34  C   UNL     1     -17.853  13.123  -4.004  1.00  0.00     0.060 A 
ATOM     35  C   UNL     1     -18.653  14.051  -3.311  1.00  0.00     0.015 A 
ATOM     36  C   UNL     1     -18.416  12.403  -5.074  1.00  0.00     0.015 A 
ATOM     37  C   UNL     1     -19.985  14.251  -3.681  1.00  0.00     0.001 A 
ATOM     38  C   UNL     1     -19.751  12.607  -5.439  1.00  0.00     0.001 A 
ATOM     39  C   UNL     1     -20.535  13.530  -4.743  1.00  0.00     0.000 A 
ENDBRANCH  32  34
ENDBRANCH  31  32
ENDBRANCH  30  31
ENDBRANCH   8  30
TORSDOF 12
ENDMDL
MODEL 3
REMARK VINA RESULT:    -6.575      2.036      5.542
REMARK INTER + INTRA:         -10.927
REMARK INTER:                  -9.582
REMARK INTRA:                  -1.346
REMARK UNBOUND:                -0.700
REMARK SMILES C[C@@]12C[C@@H](O)[C@H]3C[C@]1(O[C@H]1O[C@H](CO)[C@H](O)[C@H](O)[C@@H]1O)[C@@]3(COC(=O)c1ccccc1)C(=O)O2
REMARK SMILES IDX 1 1 2 2 3 3 4 4 6 5 7 6 8 7 21 8 32 9 33 10 34 11 9 12 10 13
REMARK SMILES IDX 19 14 11 15 17 16 12 17 15 18 20 19 18 21 13 23 14 24 16 26
REMARK SMILES IDX 5 28 22 30 23 31 24 32 25 33 26 34 27 35 31 36 28 37 30 38
REMARK SMILES IDX 29 39
REMARK H PARENT 20 20 18 22 14 25 16 27 5 29
REMARK Flexibility Score: inf
ROOT
ATOM      1  C   UNL     1     -16.892  12.859 -11.500  1.00  0.00     0.060 C 
ATOM      2  C   UNL     1     -18.073  12.708 -10.541  1.00  0.00     0.142 C 
ATOM      3  C   UNL     1     -18.581  11.222 -10.492  1.00  0.00     0.083 C 
ATOM      4  C   UNL     1     -19.550  10.998  -9.273  1.00  0.00     0.123 C 
ATOM      5  C   UNL     1     -19.222  12.001  -8.120  1.00  0.00     0.045 C 
ATOM      6  C   UNL     1     -17.689  12.106  -8.029  1.00  0.00     0.049 C 
ATOM      7  C   UNL     1     -17.810  13.251  -9.067  1.00  0.00     0.131 C 
ATOM      8  C   UNL     1     -19.268  13.479  -8.624  1.00  0.00     0.140 C 
ATOM      9  C   UNL     1     -19.959  13.799  -9.912  1.00  0.00     0.319 C 
ATOM     10  O   UNL     1     -21.124  14.260 -10.022  1.00  0.00    -0.251 OA
ATOM     11  O   UNL     1     -19.176  13.474 -10.994  1.00  0.00    -0.456 OA
ENDROOT
BRANCH   7  12
ATOM     12  O   UNL     1     -16.992  14.426  -9.036  1.00  0.00    -0.338 OA
BRANCH  12  13
ATOM     13  C   UNL     1     -15.750  14.287  -8.359  1.00  0.00     0.282 C 
ATOM     14  C   UNL     1     -15.890  14.764  -6.897  1.00  0.00     0.202 C 
ATOM     15  O   UNL     1     -14.693  14.956  -9.036  1.00  0.00    -0.341 OA
ATOM     16  C   UNL     1     -15.999  16.302  -6.828  1.00  0.00     0.179 C 
ATOM     17  C   UNL     1     -14.888  16.362  -9.063  1.00  0.00     0.178 C 
ATOM     18  C   UNL     1     -14.871  16.957  -7.641  1.00  0.00     0.177 C 
BRANCH  14  19
ATOM     19  O   UNL     1     -14.779  14.318  -6.159  1.00  0.00    -0.385 OA
ATOM     20  H   UNL     1     -14.337  13.611  -6.697  1.00  0.00     0.211 HD
ENDBRANCH  14  19
BRANCH  16  21
ATOM     21  O   UNL     1     -15.952  16.749  -5.498  1.00  0.00    -0.387 OA
ATOM     22  H   UNL     1     -16.894  16.846  -5.196  1.00  0.00     0.211 HD
ENDBRANCH  16  21
BRANCH  17  23
ATOM     23  C   UNL     1     -13.831  17.007  -9.975  1.00  0.00     0.191 C 
BRANCH  23  24
ATOM     24  O   UNL     1     -12.539  16.553  -9.664  1.00  0.00    -0.394 OA
ATOM     25  H   UNL     1     -11.904  17.154 -10.134  1.00  0.00     0.210 HD
ENDBRANCH  23  24
ENDBRANCH  17  23
BRANCH  18  26
ATOM     26  O   UNL     1     -13.625  16.724  -7.031  1.00  0.00    -0.387 OA
ATOM     27  H   UNL     1     -13.046  17.500  -7.252  1.00  0.00     0.211 HD
ENDBRANCH  18  26
ENDBRANCH  12  13
ENDBRANCH   7  12
BRANCH   4  28
ATOM     28  O   UNL     1     -19.430   9.685  -8.794  1.00  0.00    -0.393 OA
ATOM     29  H   UNL     1     -19.298   9.105  -9.589  1.00  0.00     0.210 HD
ENDBRANCH   4  28
BRANCH   8  30
ATOM     30  C   UNL     1     -19.498  14.519  -7.505  1.00  0.00     0.255 C 
BRANCH  30  31
ATOM     31  O   UNL     1     -20.355  13.977  -6.500  1.00  0.00    -0.461 OA
BRANCH  31  32
ATOM     32  C   UNL     1     -20.190  14.187  -5.124  1.00  0.00     0.338 C 
ATOM     33  O   UNL     1     -21.125  14.687  -4.439  1.00  0.00    -0.246 OA
BRANCH  32  34
ATOM     34  C   UNL     1     -18.914  13.816  -4.476  1.00  0.00     0.060 A 
ATOM     35  C   UNL     1     -18.165  14.770  -3.762  1.00  0.00     0.015 A 
ATOM     36  C   UNL     1     -18.431  12.497  -4.563  1.00  0.00     0.015 A 
ATOM     37  C   UNL     1     -16.960  14.411  -3.151  1.00  0.00     0.001 A 
ATOM     38  C   UNL     1     -17.225  12.143  -3.951  1.00  0.00     0.001 A 
ATOM     39  C   UNL     1     -16.489  13.099  -3.247  1.00  0.00     0.000 A 
ENDBRANCH  32  34
ENDBRANCH  31  32
ENDBRANCH  30  31
ENDBRANCH   8  30
TORSDOF 12
ENDMDL
MODEL 4
REMARK VINA RESULT:    -6.573      1.970      5.624
REMARK INTER + INTRA:         -10.924
REMARK INTER:                  -9.929
REMARK INTRA:                  -0.994
REMARK UNBOUND:                -0.700
REMARK SMILES C[C@@]12C[C@@H](O)[C@H]3C[C@]1(O[C@H]1O[C@H](CO)[C@H](O)[C@H](O)[C@@H]1O)[C@@]3(COC(=O)c1ccccc1)C(=O)O2
REMARK SMILES IDX 1 1 2 2 3 3 4 4 6 5 7 6 8 7 21 8 32 9 33 10 34 11 9 12 10 13
REMARK SMILES IDX 19 14 11 15 17 16 12 17 15 18 20 19 18 21 13 23 14 24 16 26
REMARK SMILES IDX 5 28 22 30 23 31 24 32 25 33 26 34 27 35 31 36 28 37 30 38
REMARK SMILES IDX 29 39
REMARK H PARENT 20 20 18 22 14 25 16 27 5 29
REMARK Flexibility Score: inf
ROOT
ATOM      1  C   UNL     1     -20.773  14.587  -7.489  1.00  0.00     0.060 C 
ATOM      2  C   UNL     1     -19.663  14.901  -6.485  1.00  0.00     0.142 C 
ATOM      3  C   UNL     1     -20.180  14.776  -5.007  1.00  0.00     0.083 C 
ATOM      4  C   UNL     1     -18.979  14.759  -3.990  1.00  0.00     0.123 C 
ATOM      5  C   UNL     1     -17.692  14.192  -4.671  1.00  0.00     0.045 C 
ATOM      6  C   UNL     1     -18.126  13.007  -5.553  1.00  0.00     0.049 C 
ATOM      7  C   UNL     1     -18.329  14.054  -6.678  1.00  0.00     0.131 C 
ATOM      8  C   UNL     1     -17.335  14.992  -5.966  1.00  0.00     0.140 C 
ATOM      9  C   UNL     1     -17.938  16.343  -6.188  1.00  0.00     0.319 C 
ATOM     10  O   UNL     1     -17.371  17.443  -5.963  1.00  0.00    -0.251 OA
ATOM     11  O   UNL     1     -19.237  16.245  -6.628  1.00  0.00    -0.456 OA
ENDROOT
BRANCH   7  12
ATOM     12  O   UNL     1     -18.017  13.797  -8.052  1.00  0.00    -0.338 OA
BRANCH  12  13
ATOM     13  C   UNL     1     -17.880  12.426  -8.401  1.00  0.00     0.282 C 
ATOM     14  C   UNL     1     -16.748  12.255  -9.437  1.00  0.00     0.202 C 
ATOM     15  O   UNL     1     -19.105  11.865  -8.856  1.00  0.00    -0.341 OA
ATOM     16  C   UNL     1     -17.184  12.784 -10.820  1.00  0.00     0.179 C 
ATOM     17  C   UNL     1     -19.543  12.461 -10.067  1.00  0.00     0.178 C 
ATOM     18  C   UNL     1     -18.548  12.194 -11.214  1.00  0.00     0.177 C 
BRANCH  14  19
ATOM     19  O   UNL     1     -16.401  10.895  -9.520  1.00  0.00    -0.385 OA
ATOM     20  H   UNL     1     -16.090  10.618  -8.619  1.00  0.00     0.211 HD
ENDBRANCH  14  19
BRANCH  16  21
ATOM     21  O   UNL     1     -16.227  12.474 -11.799  1.00  0.00    -0.387 OA
ATOM     22  H   UNL     1     -15.337  12.651 -11.395  1.00  0.00     0.211 HD
ENDBRANCH  16  21
BRANCH  17  23
ATOM     23  C   UNL     1     -20.959  11.962 -10.400  1.00  0.00     0.191 C 
BRANCH  23  24
ATOM     24  O   UNL     1     -21.046  10.565 -10.307  1.00  0.00    -0.394 OA
ATOM     25  H   UNL     1     -21.535  10.254 -11.114  1.00  0.00     0.210 HD
ENDBRANCH  23  24
ENDBRANCH  17  23
BRANCH  18  26
ATOM     26  O   UNL     1     -18.438  10.812 -11.451  1.00  0.00    -0.387 OA
ATOM     27  H   UNL     1     -18.008  10.416 -10.648  1.00  0.00     0.211 HD
ENDBRANCH  18  26
ENDBRANCH  12  13
ENDBRANCH   7  12
BRANCH   4  28
ATOM     28  O   UNL     1     -19.300  13.970  -2.875  1.00  0.00    -0.393 OA
ATOM     29  H   UNL     1     -19.427  14.595  -2.114  1.00  0.00     0.210 HD
ENDBRANCH   4  28
BRANCH   8  30
ATOM     30  C   UNL     1     -15.852  14.881  -6.386  1.00  0.00     0.255 C 
BRANCH  30  31
ATOM     31  O   UNL     1     -15.064  15.823  -5.658  1.00  0.00    -0.461 OA
BRANCH  31  32
ATOM     32  C   UNL     1     -14.047  16.604  -6.223  1.00  0.00     0.338 C 
ATOM     33  O   UNL     1     -13.131  17.079  -5.496  1.00  0.00    -0.246 OA
BRANCH  32  34
ATOM     34  C   UNL     1     -14.048  16.865  -7.679  1.00  0.00     0.060 A 
ATOM     35  C   UNL     1     -13.282  16.071  -8.553  1.00  0.00     0.015 A 
ATOM     36  C   UNL     1     -14.819  17.914  -8.211  1.00  0.00     0.015 A 
ATOM     37  C   UNL     1     -13.290  16.324  -9.928  1.00  0.00     0.001 A 
ATOM     38  C   UNL     1     -14.822  18.163  -9.587  1.00  0.00     0.001 A 
ATOM     39  C   UNL     1     -14.057  17.369 -10.444  1.00  0.00     0.000 A 
ENDBRANCH  32  34
ENDBRANCH  31  32
ENDBRANCH  30  31
ENDBRANCH   8  30
TORSDOF 12
ENDMDL
MODEL 5
REMARK VINA RESULT:    -6.415      1.981      6.606
REMARK INTER + INTRA:         -10.678
REMARK INTER:                  -9.597
REMARK INTRA:                  -1.082
REMARK UNBOUND:                -0.700
REMARK SMILES C[C@@]12C[C@@H](O)[C@H]3C[C@]1(O[C@H]1O[C@H](CO)[C@H](O)[C@H](O)[C@@H]1O)[C@@]3(COC(=O)c1ccccc1)C(=O)O2
REMARK SMILES IDX 1 1 2 2 3 3 4 4 6 5 7 6 8 7 21 8 32 9 33 10 34 11 9 12 10 13
REMARK SMILES IDX 19 14 11 15 17 16 12 17 15 18 20 19 18 21 13 23 14 24 16 26
REMARK SMILES IDX 5 28 22 30 23 31 24 32 25 33 26 34 27 35 31 36 28 37 30 38
REMARK SMILES IDX 29 39
REMARK H PARENT 20 20 18 22 14 25 16 27 5 29
REMARK Flexibility Score: inf
ROOT
ATOM      1  C   UNL     1     -13.560  15.823  -8.389  1.00  0.00     0.060 C 
ATOM      2  C   UNL     1     -14.267  15.905  -7.036  1.00  0.00     0.142 C 
ATOM      3  C   UNL     1     -14.353  17.389  -6.527  1.00  0.00     0.083 C 
ATOM      4  C   UNL     1     -15.365  17.515  -5.328  1.00  0.00     0.123 C 
ATOM      5  C   UNL     1     -16.459  16.403  -5.414  1.00  0.00     0.045 C 
ATOM      6  C   UNL     1     -16.850  16.261  -6.896  1.00  0.00     0.049 C 
ATOM      7  C   UNL     1     -15.705  15.221  -6.991  1.00  0.00     0.131 C 
ATOM      8  C   UNL     1     -15.817  14.979  -5.474  1.00  0.00     0.140 C 
ATOM      9  C   UNL     1     -14.391  14.795  -5.063  1.00  0.00     0.319 C 
ATOM     10  O   UNL     1     -14.001  14.368  -3.945  1.00  0.00    -0.251 OA
ATOM     11  O   UNL     1     -13.527  15.205  -6.051  1.00  0.00    -0.456 OA
ENDROOT
BRANCH   7  12
ATOM     12  O   UNL     1     -15.790  14.034  -7.787  1.00  0.00    -0.338 OA
BRANCH  12  13
ATOM     13  C   UNL     1     -16.264  14.221  -9.114  1.00  0.00     0.282 C 
ATOM     14  C   UNL     1     -17.778  13.927  -9.180  1.00  0.00     0.202 C 
ATOM     15  O   UNL     1     -15.532  13.448 -10.058  1.00  0.00    -0.341 OA
ATOM     16  C   UNL     1     -18.050  12.412  -9.069  1.00  0.00     0.179 C 
ATOM     17  C   UNL     1     -15.705  12.055  -9.850  1.00  0.00     0.178 C 
ATOM     18  C   UNL     1     -17.172  11.635 -10.064  1.00  0.00     0.177 C 
BRANCH  14  19
ATOM     19  O   UNL     1     -18.292  14.429 -10.389  1.00  0.00    -0.385 OA
ATOM     20  H   UNL     1     -18.865  15.207 -10.162  1.00  0.00     0.211 HD
ENDBRANCH  14  19
BRANCH  16  21
ATOM     21  O   UNL     1     -19.405  12.127  -9.302  1.00  0.00    -0.387 OA
ATOM     22  H   UNL     1     -19.567  12.283 -10.269  1.00  0.00     0.211 HD
ENDBRANCH  16  21
BRANCH  17  23
ATOM     23  C   UNL     1     -14.740  11.279 -10.761  1.00  0.00     0.191 C 
BRANCH  23  24
ATOM     24  O   UNL     1     -14.064  10.272 -10.054  1.00  0.00    -0.394 OA
ATOM     25  H   UNL     1     -14.664   9.989  -9.315  1.00  0.00     0.210 HD
ENDBRANCH  23  24
ENDBRANCH  17  23
BRANCH  18  26
ATOM     26  O   UNL     1     -17.567  11.907 -11.387  1.00  0.00    -0.387 OA
ATOM     27  H   UNL     1     -17.009  11.338 -11.978  1.00  0.00     0.211 HD
ENDBRANCH  18  26
ENDBRANCH  12  13
ENDBRANCH   7  12
BRANCH   4  28
ATOM     28  O   UNL     1     -15.981  18.775  -5.346  1.00  0.00    -0.393 OA
ATOM     29  H   UNL     1     -16.901  18.635  -5.692  1.00  0.00     0.210 HD
ENDBRANCH   4  28
BRANCH   8  30
ATOM     30  C   UNL     1     -16.761  13.843  -5.020  1.00  0.00     0.255 C 
BRANCH  30  31
ATOM     31  O   UNL     1     -17.539  14.269  -3.901  1.00  0.00    -0.461 OA
BRANCH  31  32
ATOM     32  C   UNL     1     -18.940  14.277  -3.872  1.00  0.00     0.338 C 
ATOM     33  O   UNL     1     -19.559  13.808  -2.877  1.00  0.00    -0.246 OA
BRANCH  32  34
ATOM     34  C   UNL     1     -19.692  14.844  -5.012  1.00  0.00     0.060 A 
ATOM     35  C   UNL     1     -20.074  14.032  -6.097  1.00  0.00     0.015 A 
ATOM     36  C   UNL     1     -20.038  16.207  -5.027  1.00  0.00     0.015 A 
ATOM     37  C   UNL     1     -20.786  14.575  -7.170  1.00  0.00     0.001 A 
ATOM     38  C   UNL     1     -20.749  16.746  -6.104  1.00  0.00     0.001 A 
ATOM     39  C   UNL     1     -21.122  15.930  -7.175  1.00  0.00     0.000 A 
ENDBRANCH  32  34
ENDBRANCH  31  32
ENDBRANCH  30  31
ENDBRANCH   8  30
TORSDOF 12
ENDMDL
MODEL 6
REMARK VINA RESULT:    -6.299      2.392      5.754
REMARK INTER + INTRA:         -10.498
REMARK INTER:                 -10.378
REMARK INTRA:                  -0.119
REMARK UNBOUND:                -0.700
REMARK SMILES C[C@@]12C[C@@H](O)[C@H]3C[C@]1(O[C@H]1O[C@H](CO)[C@H](O)[C@H](O)[C@@H]1O)[C@@]3(COC(=O)c1ccccc1)C(=O)O2
REMARK SMILES IDX 1 1 2 2 3 3 4 4 6 5 7 6 8 7 21 8 32 9 33 10 34 11 9 12 10 13
REMARK SMILES IDX 19 14 11 15 17 16 12 17 15 18 20 19 18 21 13 23 14 24 16 26
REMARK SMILES IDX 5 28 22 30 23 31 24 32 25 33 26 34 27 35 31 36 28 37 30 38
REMARK SMILES IDX 29 39
REMARK H PARENT 20 20 18 22 14 25 16 27 5 29
REMARK Flexibility Score: inf
ROOT
ATOM      1  C   UNL     1     -15.130  11.983 -10.097  1.00  0.00     0.060 C 
ATOM      2  C   UNL     1     -16.659  11.958 -10.091  1.00  0.00     0.142 C 
ATOM      3  C   UNL     1     -17.204  10.579  -9.573  1.00  0.00     0.083 C 
ATOM      4  C   UNL     1     -18.740  10.669  -9.243  1.00  0.00     0.123 C 
ATOM      5  C   UNL     1     -19.133  12.130  -8.853  1.00  0.00     0.045 C 
ATOM      6  C   UNL     1     -18.000  12.688  -7.972  1.00  0.00     0.049 C 
ATOM      7  C   UNL     1     -17.343  13.157  -9.296  1.00  0.00     0.131 C 
ATOM      8  C   UNL     1     -18.727  13.144  -9.972  1.00  0.00     0.140 C 
ATOM      9  C   UNL     1     -18.419  12.642 -11.347  1.00  0.00     0.319 C 
ATOM     10  O   UNL     1     -19.208  12.658 -12.326  1.00  0.00    -0.251 OA
ATOM     11  O   UNL     1     -17.158  12.096 -11.409  1.00  0.00    -0.456 OA
ENDROOT
BRANCH   7  12
ATOM     12  O   UNL     1     -16.635  14.395  -9.422  1.00  0.00    -0.338 OA
BRANCH  12  13
ATOM     13  C   UNL     1     -15.354  14.432  -8.807  1.00  0.00     0.282 C 
ATOM     14  C   UNL     1     -15.501  14.720  -7.297  1.00  0.00     0.202 C 
ATOM     15  O   UNL     1     -14.481  15.359  -9.441  1.00  0.00    -0.341 OA
ATOM     16  C   UNL     1     -15.896  16.192  -7.055  1.00  0.00     0.179 C 
ATOM     17  C   UNL     1     -14.940  16.695  -9.306  1.00  0.00     0.178 C 
ATOM     18  C   UNL     1     -14.958  17.134  -7.828  1.00  0.00     0.177 C 
BRANCH  14  19
ATOM     19  O   UNL     1     -14.287  14.425  -6.652  1.00  0.00    -0.385 OA
ATOM     20  H   UNL     1     -13.809  15.286  -6.522  1.00  0.00     0.211 HD
ENDBRANCH  14  19
BRANCH  16  21
ATOM     21  O   UNL     1     -15.861  16.501  -5.686  1.00  0.00    -0.387 OA
ATOM     22  H   UNL     1     -15.134  15.955  -5.287  1.00  0.00     0.211 HD
ENDBRANCH  16  21
BRANCH  17  23
ATOM     23  C   UNL     1     -14.075  17.623 -10.176  1.00  0.00     0.191 C 
BRANCH  23  24
ATOM     24  O   UNL     1     -14.859  18.567 -10.856  1.00  0.00    -0.394 OA
ATOM     25  H   UNL     1     -15.231  19.180 -10.169  1.00  0.00     0.210 HD
ENDBRANCH  23  24
ENDBRANCH  17  23
BRANCH  18  26
ATOM     26  O   UNL     1     -13.659  17.086  -7.291  1.00  0.00    -0.387 OA
ATOM     27  H   UNL     1     -13.229  16.266  -7.648  1.00  0.00     0.211 HD
ENDBRANCH  18  26
ENDBRANCH  12  13
ENDBRANCH   7  12
BRANCH   4  28
ATOM     28  O   UNL     1     -19.058   9.805  -8.185  1.00  0.00    -0.393 OA
ATOM     29  H   UNL     1     -18.197   9.526  -7.777  1.00  0.00     0.210 HD
ENDBRANCH   4  28
BRANCH   8  30
ATOM     30  C   UNL     1     -19.526  14.466  -9.943  1.00  0.00     0.255 C 
BRANCH  30  31
ATOM     31  O   UNL     1     -20.527  14.412  -8.927  1.00  0.00    -0.461 OA
BRANCH  31  32
ATOM     32  C   UNL     1     -20.723  15.406  -7.958  1.00  0.00     0.338 C 
ATOM     33  O   UNL     1     -21.113  16.557  -8.297  1.00  0.00    -0.246 OA
BRANCH  32  34
ATOM     34  C   UNL     1     -20.475  15.097  -6.533  1.00  0.00     0.060 A 
ATOM     35  C   UNL     1     -19.767  15.997  -5.715  1.00  0.00     0.015 A 
ATOM     36  C   UNL     1     -20.947  13.895  -5.975  1.00  0.00     0.015 A 
ATOM     37  C   UNL     1     -19.537  15.698  -4.369  1.00  0.00     0.001 A 
ATOM     38  C   UNL     1     -20.713  13.600  -4.629  1.00  0.00     0.001 A 
ATOM     39  C   UNL     1     -20.008  14.500  -3.826  1.00  0.00     0.000 A 
ENDBRANCH  32  34
ENDBRANCH  31  32
ENDBRANCH  30  31
ENDBRANCH   8  30
TORSDOF 12
ENDMDL
MODEL 7
REMARK VINA RESULT:    -6.186      1.842      7.056
REMARK INTER + INTRA:         -10.322
REMARK INTER:                  -9.136
REMARK INTRA:                  -1.186
REMARK UNBOUND:                -0.700
REMARK SMILES C[C@@]12C[C@@H](O)[C@H]3C[C@]1(O[C@H]1O[C@H](CO)[C@H](O)[C@H](O)[C@@H]1O)[C@@]3(COC(=O)c1ccccc1)C(=O)O2
REMARK SMILES IDX 1 1 2 2 3 3 4 4 6 5 7 6 8 7 21 8 32 9 33 10 34 11 9 12 10 13
REMARK SMILES IDX 19 14 11 15 17 16 12 17 15 18 20 19 18 21 13 23 14 24 16 26
REMARK SMILES IDX 5 28 22 30 23 31 24 32 25 33 26 34 27 35 31 36 28 37 30 38
REMARK SMILES IDX 29 39
REMARK H PARENT 20 20 18 22 14 25 16 27 5 29
REMARK Flexibility Score: inf
ROOT
ATOM      1  C   UNL     1     -13.787  14.418  -6.565  1.00  0.00     0.060 C 
ATOM      2  C   UNL     1     -14.882  15.012  -5.679  1.00  0.00     0.142 C 
ATOM      3  C   UNL     1     -14.448  16.402  -5.091  1.00  0.00     0.083 C 
ATOM      4  C   UNL     1     -15.680  17.162  -4.473  1.00  0.00     0.123 C 
ATOM      5  C   UNL     1     -17.004  16.722  -5.176  1.00  0.00     0.045 C 
ATOM      6  C   UNL     1     -16.702  16.594  -6.680  1.00  0.00     0.049 C 
ATOM      7  C   UNL     1     -16.312  15.126  -6.371  1.00  0.00     0.131 C 
ATOM      8  C   UNL     1     -17.194  15.172  -5.109  1.00  0.00     0.140 C 
ATOM      9  C   UNL     1     -16.403  14.374  -4.123  1.00  0.00     0.319 C 
ATOM     10  O   UNL     1     -16.821  13.963  -3.010  1.00  0.00    -0.251 OA
ATOM     11  O   UNL     1     -15.113  14.178  -4.557  1.00  0.00    -0.456 OA
ENDROOT
BRANCH   7  12
ATOM     12  O   UNL     1     -16.601  14.037  -7.254  1.00  0.00    -0.338 OA
BRANCH  12  13
ATOM     13  C   UNL     1     -16.981  14.405  -8.573  1.00  0.00     0.282 C 
ATOM     14  C   UNL     1     -18.465  14.052  -8.813  1.00  0.00     0.202 C 
ATOM     15  O   UNL     1     -16.133  13.825  -9.557  1.00  0.00    -0.341 OA
ATOM     16  C   UNL     1     -18.651  12.527  -8.956  1.00  0.00     0.179 C 
ATOM     17  C   UNL     1     -16.236  12.410  -9.577  1.00  0.00     0.178 C 
ATOM     18  C   UNL     1     -17.654  11.957  -9.978  1.00  0.00     0.177 C 
BRANCH  14  19
ATOM     19  O   UNL     1     -18.913  14.711  -9.972  1.00  0.00    -0.385 OA
ATOM     20  H   UNL     1     -18.114  14.894 -10.531  1.00  0.00     0.211 HD
ENDBRANCH  14  19
BRANCH  16  21
ATOM     21  O   UNL     1     -19.964  12.216  -9.344  1.00  0.00    -0.387 OA
ATOM     22  H   UNL     1     -20.407  13.077  -9.568  1.00  0.00     0.211 HD
ENDBRANCH  16  21
BRANCH  17  23
ATOM     23  C   UNL     1     -15.157  11.832 -10.509  1.00  0.00     0.191 C 
BRANCH  23  24
ATOM     24  O   UNL     1     -15.702  10.911 -11.416  1.00  0.00    -0.394 OA
ATOM     25  H   UNL     1     -15.984  10.119 -10.887  1.00  0.00     0.210 HD
ENDBRANCH  23  24
ENDBRANCH  17  23
BRANCH  18  26
ATOM     26  O   UNL     1     -17.961  12.413 -11.273  1.00  0.00    -0.387 OA
ATOM     27  H   UNL     1     -17.421  11.871 -11.905  1.00  0.00     0.211 HD
ENDBRANCH  18  26
ENDBRANCH  12  13
ENDBRANCH   7  12
BRANCH   4  28
ATOM     28  O   UNL     1     -15.516  18.548  -4.618  1.00  0.00    -0.393 OA
ATOM     29  H   UNL     1     -16.267  18.864  -5.183  1.00  0.00     0.210 HD
ENDBRANCH   4  28
BRANCH   8  30
ATOM     30  C   UNL     1     -18.660  14.711  -5.270  1.00  0.00     0.255 C 
BRANCH  30  31
ATOM     31  O   UNL     1     -18.738  13.287  -5.189  1.00  0.00    -0.461 OA
BRANCH  31  32
ATOM     32  C   UNL     1     -19.848  12.534  -5.595  1.00  0.00     0.338 C 
ATOM     33  O   UNL     1     -20.746  13.057  -6.310  1.00  0.00    -0.246 OA
BRANCH  32  34
ATOM     34  C   UNL     1     -19.960  11.117  -5.183  1.00  0.00     0.060 A 
ATOM     35  C   UNL     1     -20.383  10.134  -6.097  1.00  0.00     0.015 A 
ATOM     36  C   UNL     1     -19.642  10.734  -3.867  1.00  0.00     0.015 A 
ATOM     37  C   UNL     1     -20.485   8.797  -5.700  1.00  0.00     0.001 A 
ATOM     38  C   UNL     1     -19.747   9.396  -3.476  1.00  0.00     0.001 A 
ATOM     39  C   UNL     1     -20.169   8.428  -4.391  1.00  0.00     0.000 A 
ENDBRANCH  32  34
ENDBRANCH  31  32
ENDBRANCH  30  31
ENDBRANCH   8  30
TORSDOF 12
ENDMDL
MODEL 8
REMARK VINA RESULT:    -6.163      1.866      6.023
REMARK INTER + INTRA:         -10.286
REMARK INTER:                  -9.850
REMARK INTRA:                  -0.435
REMARK UNBOUND:                -0.700
REMARK SMILES C[C@@]12C[C@@H](O)[C@H]3C[C@]1(O[C@H]1O[C@H](CO)[C@H](O)[C@H](O)[C@@H]1O)[C@@]3(COC(=O)c1ccccc1)C(=O)O2
REMARK SMILES IDX 1 1 2 2 3 3 4 4 6 5 7 6 8 7 21 8 32 9 33 10 34 11 9 12 10 13
REMARK SMILES IDX 19 14 11 15 17 16 12 17 15 18 20 19 18 21 13 23 14 24 16 26
REMARK SMILES IDX 5 28 22 30 23 31 24 32 25 33 26 34 27 35 31 36 28 37 30 38
REMARK SMILES IDX 29 39
REMARK H PARENT 20 20 18 22 14 25 16 27 5 29
REMARK Flexibility Score: inf
ROOT
ATOM      1  C   UNL     1     -16.234  17.997  -6.518  1.00  0.00     0.060 C 
ATOM      2  C   UNL     1     -15.205  16.916  -6.850  1.00  0.00     0.142 C 
ATOM      3  C   UNL     1     -13.946  17.023  -5.917  1.00  0.00     0.083 C 
ATOM      4  C   UNL     1     -13.058  15.728  -6.018  1.00  0.00     0.123 C 
ATOM      5  C   UNL     1     -13.931  14.494  -6.414  1.00  0.00     0.045 C 
ATOM      6  C   UNL     1     -15.256  14.604  -5.637  1.00  0.00     0.049 C 
ATOM      7  C   UNL     1     -15.774  15.428  -6.843  1.00  0.00     0.131 C 
ATOM      8  C   UNL     1     -14.717  14.756  -7.739  1.00  0.00     0.140 C 
ATOM      9  C   UNL     1     -14.291  15.870  -8.642  1.00  0.00     0.319 C 
ATOM     10  O   UNL     1     -13.589  15.744  -9.679  1.00  0.00    -0.251 OA
ATOM     11  O   UNL     1     -14.718  17.088  -8.169  1.00  0.00    -0.456 OA
ENDROOT
BRANCH   7  12
ATOM     12  O   UNL     1     -17.114  15.334  -7.338  1.00  0.00    -0.338 OA
BRANCH  12  13
ATOM     13  C   UNL     1     -18.107  15.050  -6.361  1.00  0.00     0.282 C 
ATOM     14  C   UNL     1     -17.978  13.586  -5.888  1.00  0.00     0.202 C 
ATOM     15  O   UNL     1     -19.418  15.343  -6.828  1.00  0.00    -0.341 OA
ATOM     16  C   UNL     1     -18.468  12.611  -6.978  1.00  0.00     0.179 C 
ATOM     17  C   UNL     1     -19.791  14.510  -7.915  1.00  0.00     0.178 C 
ATOM     18  C   UNL     1     -19.856  13.030  -7.489  1.00  0.00     0.177 C 
BRANCH  14  19
ATOM     19  O   UNL     1     -18.724  13.417  -4.708  1.00  0.00    -0.385 OA
ATOM     20  H   UNL     1     -19.147  12.520  -4.756  1.00  0.00     0.211 HD
ENDBRANCH  14  19
BRANCH  16  21
ATOM     21  O   UNL     1     -18.515  11.295  -6.490  1.00  0.00    -0.387 OA
ATOM     22  H   UNL     1     -18.820  10.722  -7.242  1.00  0.00     0.211 HD
ENDBRANCH  16  21
BRANCH  17  23
ATOM     23  C   UNL     1     -21.123  15.004  -8.504  1.00  0.00     0.191 C 
BRANCH  23  24
ATOM     24  O   UNL     1     -21.013  16.314  -8.995  1.00  0.00    -0.394 OA
ATOM     25  H   UNL     1     -20.678  16.874  -8.246  1.00  0.00     0.210 HD
ENDBRANCH  23  24
ENDBRANCH  17  23
BRANCH  18  26
ATOM     26  O   UNL     1     -20.825  12.856  -6.484  1.00  0.00    -0.387 OA
ATOM     27  H   UNL     1     -21.396  12.093  -6.762  1.00  0.00     0.211 HD
ENDBRANCH  18  26
ENDBRANCH  12  13
ENDBRANCH   7  12
BRANCH   4  28
ATOM     28  O   UNL     1     -12.427  15.476  -4.791  1.00  0.00    -0.393 OA
ATOM     29  H   UNL     1     -11.686  16.132  -4.714  1.00  0.00     0.210 HD
ENDBRANCH   4  28
BRANCH   8  30
ATOM     30  C   UNL     1     -15.150  13.470  -8.479  1.00  0.00     0.255 C 
BRANCH  30  31
ATOM     31  O   UNL     1     -15.345  13.743  -9.866  1.00  0.00    -0.461 OA
BRANCH  31  32
ATOM     32  C   UNL     1     -15.806  12.804 -10.799  1.00  0.00     0.338 C 
ATOM     33  O   UNL     1     -14.991  12.196 -11.546  1.00  0.00    -0.246 OA
BRANCH  32  34
ATOM     34  C   UNL     1     -17.255  12.524 -10.899  1.00  0.00     0.060 A 
ATOM     35  C   UNL     1     -17.810  11.378 -10.298  1.00  0.00     0.015 A 
ATOM     36  C   UNL     1     -18.100  13.404 -11.599  1.00  0.00     0.015 A 
ATOM     37  C   UNL     1     -19.180  11.122 -10.397  1.00  0.00     0.001 A 
ATOM     38  C   UNL     1     -19.471  13.141 -11.696  1.00  0.00     0.001 A 
ATOM     39  C   UNL     1     -20.010  12.000 -11.097  1.00  0.00     0.000 A 
ENDBRANCH  32  34
ENDBRANCH  31  32
ENDBRANCH  30  31
ENDBRANCH   8  30
TORSDOF 12
ENDMDL
