MODEL 1
REMARK VINA RESULT:    -7.157      0.000      0.000
REMARK INTER + INTRA:         -12.099
REMARK INTER:                 -10.923
REMARK INTRA:                  -1.177
REMARK UNBOUND:                -1.177
REMARK SMILES CC(=O)CCC=C(C)CCC=C(C)CCC=C(C)C
REMARK SMILES IDX 10 1 11 2 12 3 13 4 14 5 15 6 16 7 18 8 17 9 19 10 9 11 7 12
REMARK SMILES IDX 6 13 8 14 5 15 4 16 2 17 3 18 1 19
REMARK H PARENT
REMARK Flexibility Score: inf
ROOT
ATOM      1  C   UNL     1       0.741  10.372  46.612  1.00  0.00     0.032 C 
ENDROOT
BRANCH   1   2
ATOM      2  C   UNL     1      -0.325  11.292  46.072  1.00  0.00    -0.028 C 
ATOM      3  C   UNL     1      -1.632  11.232  46.415  1.00  0.00    -0.077 C 
ATOM      4  C   UNL     1      -2.164  10.175  47.355  1.00  0.00     0.039 C 
BRANCH   3   5
ATOM      5  C   UNL     1      -2.592  12.245  45.829  1.00  0.00     0.034 C 
BRANCH   5   6
ATOM      6  C   UNL     1      -1.831  13.349  45.085  1.00  0.00     0.032 C 
BRANCH   6   7
ATOM      7  C   UNL     1      -1.492  14.485  46.018  1.00  0.00    -0.028 C 
ATOM      8  C   UNL     1       0.959  14.378  45.514  1.00  0.00     0.039 C 
ATOM      9  C   UNL     1      -0.245  14.975  46.202  1.00  0.00    -0.080 C 
ATOM     10  C   UNL     1      -0.064  16.141  47.139  1.00  0.00     0.039 C 
ENDBRANCH   6   7
ENDBRANCH   5   6
ENDBRANCH   3   5
ENDBRANCH   1   2
BRANCH   1  11
ATOM     11  C   UNL     1       1.838  11.172  47.326  1.00  0.00     0.034 C 
BRANCH  11  12
ATOM     12  C   UNL     1       3.208  10.862  46.754  1.00  0.00    -0.077 C 
ATOM     13  C   UNL     1       4.367  11.212  47.362  1.00  0.00    -0.028 C 
ATOM     14  C   UNL     1       3.294  10.119  45.445  1.00  0.00     0.039 C 
BRANCH  13  15
ATOM     15  C   UNL     1       4.484  11.983  48.656  1.00  0.00     0.035 C 
BRANCH  15  16
ATOM     16  C   UNL     1       5.555  13.069  48.527  1.00  0.00     0.079 C 
BRANCH  16  17
ATOM     17  C   UNL     1       5.400  13.821  47.235  1.00  0.00     0.130 C 
ATOM     18  O   UNL     1       4.354  14.405  46.994  1.00  0.00    -0.300 OA
ATOM     19  C   UNL     1       6.525  13.871  46.247  1.00  0.00     0.087 C 
ENDBRANCH  16  17
ENDBRANCH  15  16
ENDBRANCH  13  15
ENDBRANCH  11  12
ENDBRANCH   1  11
TORSDOF 9
ENDMDL
MODEL 2
REMARK VINA RESULT:    -7.110      1.323      6.177
REMARK INTER + INTRA:         -12.027
REMARK INTER:                 -10.858
REMARK INTRA:                  -1.169
REMARK UNBOUND:                -1.177
REMARK SMILES CC(=O)CCC=C(C)CCC=C(C)CCC=C(C)C
REMARK SMILES IDX 10 1 11 2 12 3 13 4 14 5 15 6 16 7 18 8 17 9 19 10 9 11 7 12
REMARK SMILES IDX 6 13 8 14 5 15 4 16 2 17 3 18 1 19
REMARK H PARENT
REMARK Flexibility Score: inf
ROOT
ATOM      1  C   UNL     1       0.767  10.546  46.569  1.00  0.00     0.032 C 
ENDROOT
BRANCH   1   2
ATOM      2  C   UNL     1       1.880  11.071  47.441  1.00  0.00    -0.028 C 
ATOM      3  C   UNL     1       3.186  11.080  47.091  1.00  0.00    -0.077 C 
ATOM      4  C   UNL     1       3.667  10.500  45.782  1.00  0.00     0.039 C 
BRANCH   3   5
ATOM      5  C   UNL     1       4.198  11.675  48.047  1.00  0.00     0.034 C 
BRANCH   5   6
ATOM      6  C   UNL     1       4.474  13.144  47.703  1.00  0.00     0.032 C 
BRANCH   6   7
ATOM      7  C   UNL     1       5.879  13.529  48.092  1.00  0.00    -0.028 C 
ATOM      8  C   UNL     1       6.620  13.843  45.719  1.00  0.00     0.039 C 
ATOM      9  C   UNL     1       6.848  13.870  47.213  1.00  0.00    -0.080 C 
ATOM     10  C   UNL     1       8.197  14.271  47.751  1.00  0.00     0.039 C 
ENDBRANCH   6   7
ENDBRANCH   5   6
ENDBRANCH   3   5
ENDBRANCH   1   2
BRANCH   1  11
ATOM     11  C   UNL     1       0.007  11.701  45.904  1.00  0.00     0.034 C 
BRANCH  11  12
ATOM     12  C   UNL     1      -1.481  11.617  46.187  1.00  0.00    -0.077 C 
ATOM     13  C   UNL     1      -2.377  12.529  45.739  1.00  0.00    -0.028 C 
ATOM     14  C   UNL     1      -1.999  10.459  47.000  1.00  0.00     0.039 C 
BRANCH  13  15
ATOM     15  C   UNL     1      -2.048  13.768  44.939  1.00  0.00     0.035 C 
BRANCH  15  16
ATOM     16  C   UNL     1      -1.943  14.981  45.866  1.00  0.00     0.079 C 
BRANCH  16  17
ATOM     17  C   UNL     1      -0.507  15.383  46.058  1.00  0.00     0.130 C 
ATOM     18  O   UNL     1       0.252  15.401  45.101  1.00  0.00    -0.300 OA
ATOM     19  C   UNL     1      -0.004  15.775  47.414  1.00  0.00     0.087 C 
ENDBRANCH  16  17
ENDBRANCH  15  16
ENDBRANCH  13  15
ENDBRANCH  11  12
ENDBRANCH   1  11
TORSDOF 9
ENDMDL
MODEL 3
REMARK VINA RESULT:    -6.546      2.580      3.693
REMARK INTER + INTRA:         -11.166
REMARK INTER:                  -9.909
REMARK INTRA:                  -1.257
REMARK UNBOUND:                -1.177
REMARK SMILES CC(=O)CCC=C(C)CCC=C(C)CCC=C(C)C
REMARK SMILES IDX 10 1 11 2 12 3 13 4 14 5 15 6 16 7 18 8 17 9 19 10 9 11 7 12
REMARK SMILES IDX 6 13 8 14 5 15 4 16 2 17 3 18 1 19
REMARK H PARENT
REMARK Flexibility Score: inf
ROOT
ATOM      1  C   UNL     1       0.971  13.743  45.370  1.00  0.00     0.032 C 
ENDROOT
BRANCH   1   2
ATOM      2  C   UNL     1       0.207  14.960  45.828  1.00  0.00    -0.028 C 
ATOM      3  C   UNL     1      -1.134  15.103  45.728  1.00  0.00    -0.077 C 
ATOM      4  C   UNL     1      -2.004  14.050  45.081  1.00  0.00     0.039 C 
BRANCH   3   5
ATOM      5  C   UNL     1      -1.780  16.362  46.265  1.00  0.00     0.034 C 
BRANCH   5   6
ATOM      6  C   UNL     1      -2.966  16.781  45.388  1.00  0.00     0.032 C 
BRANCH   6   7
ATOM      7  C   UNL     1      -3.086  18.283  45.334  1.00  0.00    -0.028 C 
ATOM      8  C   UNL     1      -1.552  18.494  43.366  1.00  0.00     0.039 C 
ATOM      9  C   UNL     1      -2.476  19.065  44.415  1.00  0.00    -0.080 C 
ATOM     10  C   UNL     1      -2.721  20.551  44.462  1.00  0.00     0.039 C 
ENDBRANCH   6   7
ENDBRANCH   5   6
ENDBRANCH   3   5
ENDBRANCH   1   2
BRANCH   1  11
ATOM     11  C   UNL     1       1.397  12.886  46.570  1.00  0.00     0.034 C 
BRANCH  11  12
ATOM     12  C   UNL     1       1.197  11.408  46.291  1.00  0.00    -0.077 C 
ATOM     13  C   UNL     1       2.220  10.527  46.176  1.00  0.00    -0.028 C 
ATOM     14  C   UNL     1      -0.208  10.883  46.140  1.00  0.00     0.039 C 
BRANCH  13  15
ATOM     15  C   UNL     1       3.689  10.866  46.266  1.00  0.00     0.035 C 
BRANCH  15  16
ATOM     16  C   UNL     1       4.151  10.823  47.724  1.00  0.00     0.079 C 
BRANCH  16  17
ATOM     17  C   UNL     1       4.766  12.135  48.128  1.00  0.00     0.130 C 
ATOM     18  O   UNL     1       5.202  12.278  49.260  1.00  0.00    -0.300 OA
ATOM     19  C   UNL     1       4.859  13.262  47.145  1.00  0.00     0.087 C 
ENDBRANCH  16  17
ENDBRANCH  15  16
ENDBRANCH  13  15
ENDBRANCH  11  12
ENDBRANCH   1  11
TORSDOF 9
ENDMDL
MODEL 4
REMARK VINA RESULT:    -6.505      1.937      6.410
REMARK INTER + INTRA:         -11.105
REMARK INTER:                  -9.914
REMARK INTRA:                  -1.191
REMARK UNBOUND:                -1.177
REMARK SMILES CC(=O)CCC=C(C)CCC=C(C)CCC=C(C)C
REMARK SMILES IDX 10 1 11 2 12 3 13 4 14 5 15 6 16 7 18 8 17 9 19 10 9 11 7 12
REMARK SMILES IDX 6 13 8 14 5 15 4 16 2 17 3 18 1 19
REMARK H PARENT
REMARK Flexibility Score: inf
ROOT
ATOM      1  C   UNL     1       1.238  12.666  45.476  1.00  0.00     0.032 C 
ENDROOT
BRANCH   1   2
ATOM      2  C   UNL     1       2.066  12.212  46.651  1.00  0.00    -0.028 C 
ATOM      3  C   UNL     1       2.815  11.086  46.669  1.00  0.00    -0.077 C 
ATOM      4  C   UNL     1       2.847  10.130  45.500  1.00  0.00     0.039 C 
BRANCH   3   5
ATOM      5  C   UNL     1       3.633  10.768  47.902  1.00  0.00     0.034 C 
BRANCH   5   6
ATOM      6  C   UNL     1       3.841  12.024  48.756  1.00  0.00     0.032 C 
BRANCH   6   7
ATOM      7  C   UNL     1       5.267  12.505  48.662  1.00  0.00    -0.028 C 
ATOM      8  C   UNL     1       4.725  14.280  46.980  1.00  0.00     0.039 C 
ATOM      9  C   UNL     1       5.676  13.534  47.887  1.00  0.00    -0.080 C 
ATOM     10  C   UNL     1       7.130  13.928  47.924  1.00  0.00     0.039 C 
ENDBRANCH   6   7
ENDBRANCH   5   6
ENDBRANCH   3   5
ENDBRANCH   1   2
BRANCH   1  11
ATOM     11  C   UNL     1       0.081  13.561  45.941  1.00  0.00     0.034 C 
BRANCH  11  12
ATOM     12  C   UNL     1      -1.262  12.899  45.696  1.00  0.00    -0.077 C 
ATOM     13  C   UNL     1      -2.266  13.485  45.001  1.00  0.00    -0.028 C 
ATOM     14  C   UNL     1      -1.496  11.514  46.242  1.00  0.00     0.039 C 
BRANCH  13  15
ATOM     15  C   UNL     1      -2.231  14.873  44.404  1.00  0.00     0.035 C 
BRANCH  15  16
ATOM     16  C   UNL     1      -2.565  15.915  45.475  1.00  0.00     0.079 C 
BRANCH  16  17
ATOM     17  C   UNL     1      -1.564  17.036  45.458  1.00  0.00     0.130 C 
ATOM     18  O   UNL     1      -0.520  16.927  46.083  1.00  0.00    -0.300 OA
ATOM     19  C   UNL     1      -1.833  18.281  44.668  1.00  0.00     0.087 C 
ENDBRANCH  16  17
ENDBRANCH  15  16
ENDBRANCH  13  15
ENDBRANCH  11  12
ENDBRANCH   1  11
TORSDOF 9
ENDMDL
MODEL 5
REMARK VINA RESULT:    -6.398      1.922      6.202
REMARK INTER + INTRA:         -10.941
REMARK INTER:                  -9.459
REMARK INTRA:                  -1.482
REMARK UNBOUND:                -1.177
REMARK SMILES CC(=O)CCC=C(C)CCC=C(C)CCC=C(C)C
REMARK SMILES IDX 10 1 11 2 12 3 13 4 14 5 15 6 16 7 18 8 17 9 19 10 9 11 7 12
REMARK SMILES IDX 6 13 8 14 5 15 4 16 2 17 3 18 1 19
REMARK H PARENT
REMARK Flexibility Score: inf
ROOT
ATOM      1  C   UNL     1       0.304  13.360  46.071  1.00  0.00     0.032 C 
ENDROOT
BRANCH   1   2
ATOM      2  C   UNL     1       1.338  12.349  45.645  1.00  0.00    -0.028 C 
ATOM      3  C   UNL     1       1.348  11.054  46.035  1.00  0.00    -0.077 C 
ATOM      4  C   UNL     1       0.325  10.503  47.002  1.00  0.00     0.039 C 
BRANCH   3   5
ATOM      5  C   UNL     1       2.423  10.134  45.500  1.00  0.00     0.034 C 
BRANCH   5   6
ATOM      6  C   UNL     1       3.818  10.700  45.793  1.00  0.00     0.032 C 
BRANCH   6   7
ATOM      7  C   UNL     1       4.033  10.849  47.279  1.00  0.00    -0.028 C 
ATOM      8  C   UNL     1       4.631  13.275  47.109  1.00  0.00     0.039 C 
ATOM      9  C   UNL     1       4.374  12.007  47.888  1.00  0.00    -0.080 C 
ATOM     10  C   UNL     1       4.516  12.013  49.388  1.00  0.00     0.039 C 
ENDBRANCH   6   7
ENDBRANCH   5   6
ENDBRANCH   3   5
ENDBRANCH   1   2
BRANCH   1  11
ATOM     11  C   UNL     1      -0.724  13.589  44.955  1.00  0.00     0.034 C 
BRANCH  11  12
ATOM     12  C   UNL     1      -2.138  13.342  45.448  1.00  0.00    -0.077 C 
ATOM     13  C   UNL     1      -3.125  14.267  45.374  1.00  0.00    -0.028 C 
ATOM     14  C   UNL     1      -2.472  11.998  46.043  1.00  0.00     0.039 C 
BRANCH  13  15
ATOM     15  C   UNL     1      -2.977  15.672  44.840  1.00  0.00     0.035 C 
BRANCH  15  16
ATOM     16  C   UNL     1      -2.526  16.616  45.958  1.00  0.00     0.079 C 
BRANCH  16  17
ATOM     17  C   UNL     1      -1.191  17.227  45.634  1.00  0.00     0.130 C 
ATOM     18  O   UNL     1      -0.195  16.866  46.242  1.00  0.00    -0.300 OA
ATOM     19  C   UNL     1      -1.074  18.266  44.561  1.00  0.00     0.087 C 
ENDBRANCH  16  17
ENDBRANCH  15  16
ENDBRANCH  13  15
ENDBRANCH  11  12
ENDBRANCH   1  11
TORSDOF 9
ENDMDL
MODEL 6
REMARK VINA RESULT:    -6.367      2.008      2.690
REMARK INTER + INTRA:         -10.894
REMARK INTER:                  -9.830
REMARK INTRA:                  -1.064
REMARK UNBOUND:                -1.177
REMARK SMILES CC(=O)CCC=C(C)CCC=C(C)CCC=C(C)C
REMARK SMILES IDX 10 1 11 2 12 3 13 4 14 5 15 6 16 7 18 8 17 9 19 10 9 11 7 12
REMARK SMILES IDX 6 13 8 14 5 15 4 16 2 17 3 18 1 19
REMARK H PARENT
REMARK Flexibility Score: inf
ROOT
ATOM      1  C   UNL     1       1.493  12.872  45.536  1.00  0.00     0.032 C 
ENDROOT
BRANCH   1   2
ATOM      2  C   UNL     1       0.636  14.070  45.859  1.00  0.00    -0.028 C 
ATOM      3  C   UNL     1      -0.716  14.061  45.873  1.00  0.00    -0.077 C 
ATOM      4  C   UNL     1      -1.511  12.831  45.503  1.00  0.00     0.039 C 
BRANCH   3   5
ATOM      5  C   UNL     1      -1.455  15.326  46.254  1.00  0.00     0.034 C 
BRANCH   5   6
ATOM      6  C   UNL     1      -2.502  15.685  45.193  1.00  0.00     0.032 C 
BRANCH   6   7
ATOM      7  C   UNL     1      -1.886  16.514  44.094  1.00  0.00    -0.028 C 
ATOM      8  C   UNL     1      -2.765  18.673  45.011  1.00  0.00     0.039 C 
ATOM      9  C   UNL     1      -1.975  17.861  44.012  1.00  0.00    -0.080 C 
ATOM     10  C   UNL     1      -1.274  18.558  42.875  1.00  0.00     0.039 C 
ENDBRANCH   6   7
ENDBRANCH   5   6
ENDBRANCH   3   5
ENDBRANCH   1   2
BRANCH   1  11
ATOM     11  C   UNL     1       1.703  12.003  46.783  1.00  0.00     0.034 C 
BRANCH  11  12
ATOM     12  C   UNL     1       2.900  11.086  46.621  1.00  0.00    -0.077 C 
ATOM     13  C   UNL     1       3.980  11.117  47.439  1.00  0.00    -0.028 C 
ATOM     14  C   UNL     1       2.893  10.078  45.500  1.00  0.00     0.039 C 
BRANCH  13  15
ATOM     15  C   UNL     1       4.183  12.071  48.592  1.00  0.00     0.035 C 
BRANCH  15  16
ATOM     16  C   UNL     1       5.498  12.836  48.418  1.00  0.00     0.079 C 
BRANCH  16  17
ATOM     17  C   UNL     1       5.428  13.752  47.227  1.00  0.00     0.130 C 
ATOM     18  O   UNL     1       4.406  14.384  47.006  1.00  0.00    -0.300 OA
ATOM     19  C   UNL     1       6.610  13.905  46.319  1.00  0.00     0.087 C 
ENDBRANCH  16  17
ENDBRANCH  15  16
ENDBRANCH  13  15
ENDBRANCH  11  12
ENDBRANCH   1  11
TORSDOF 9
ENDMDL
MODEL 7
REMARK VINA RESULT:    -6.197      2.295      6.442
REMARK INTER + INTRA:         -10.634
REMARK INTER:                  -9.520
REMARK INTRA:                  -1.115
REMARK UNBOUND:                -1.177
REMARK SMILES CC(=O)CCC=C(C)CCC=C(C)CCC=C(C)C
REMARK SMILES IDX 10 1 11 2 12 3 13 4 14 5 15 6 16 7 18 8 17 9 19 10 9 11 7 12
REMARK SMILES IDX 6 13 8 14 5 15 4 16 2 17 3 18 1 19
REMARK H PARENT
REMARK Flexibility Score: inf
ROOT
ATOM      1  C   UNL     1       0.664  11.685  46.238  1.00  0.00     0.032 C 
ENDROOT
BRANCH   1   2
ATOM      2  C   UNL     1       1.898  11.538  47.092  1.00  0.00    -0.028 C 
ATOM      3  C   UNL     1       3.004  10.852  46.725  1.00  0.00    -0.077 C 
ATOM      4  C   UNL     1       3.083  10.105  45.414  1.00  0.00     0.039 C 
BRANCH   3   5
ATOM      5  C   UNL     1       4.192  10.817  47.663  1.00  0.00     0.034 C 
BRANCH   5   6
ATOM      6  C   UNL     1       4.168  12.019  48.615  1.00  0.00     0.032 C 
BRANCH   6   7
ATOM      7  C   UNL     1       5.551  12.601  48.775  1.00  0.00    -0.028 C 
ATOM      8  C   UNL     1       5.373  14.005  46.708  1.00  0.00     0.039 C 
ATOM      9  C   UNL     1       6.097  13.513  47.940  1.00  0.00    -0.080 C 
ATOM     10  C   UNL     1       7.476  14.034  48.249  1.00  0.00     0.039 C 
ENDBRANCH   6   7
ENDBRANCH   5   6
ENDBRANCH   3   5
ENDBRANCH   1   2
BRANCH   1  11
ATOM     11  C   UNL     1       0.743  12.957  45.384  1.00  0.00     0.034 C 
BRANCH  11  12
ATOM     12  C   UNL     1       0.704  14.204  46.247  1.00  0.00    -0.077 C 
ATOM     13  C   UNL     1      -0.421  14.926  46.463  1.00  0.00    -0.028 C 
ATOM     14  C   UNL     1       1.977  14.666  46.909  1.00  0.00     0.039 C 
BRANCH  13  15
ATOM     15  C   UNL     1      -1.779  14.640  45.866  1.00  0.00     0.035 C 
BRANCH  15  16
ATOM     16  C   UNL     1      -2.053  15.592  44.699  1.00  0.00     0.079 C 
BRANCH  16  17
ATOM     17  C   UNL     1      -2.167  17.011  45.184  1.00  0.00     0.130 C 
ATOM     18  O   UNL     1      -3.077  17.324  45.937  1.00  0.00    -0.300 OA
ATOM     19  C   UNL     1      -1.164  18.040  44.760  1.00  0.00     0.087 C 
ENDBRANCH  16  17
ENDBRANCH  15  16
ENDBRANCH  13  15
ENDBRANCH  11  12
ENDBRANCH   1  11
TORSDOF 9
ENDMDL
MODEL 8
REMARK VINA RESULT:    -6.194      1.687      4.203
REMARK INTER + INTRA:         -10.630
REMARK INTER:                  -9.445
REMARK INTRA:                  -1.185
REMARK UNBOUND:                -1.177
REMARK SMILES CC(=O)CCC=C(C)CCC=C(C)CCC=C(C)C
REMARK SMILES IDX 10 1 11 2 12 3 13 4 14 5 15 6 16 7 18 8 17 9 19 10 9 11 7 12
REMARK SMILES IDX 6 13 8 14 5 15 4 16 2 17 3 18 1 19
REMARK H PARENT
REMARK Flexibility Score: inf
ROOT
ATOM      1  C   UNL     1      -3.042  12.930  45.530  1.00  0.00     0.032 C 
ENDROOT
BRANCH   1   2
ATOM      2  C   UNL     1      -2.984  14.429  45.680  1.00  0.00    -0.028 C 
ATOM      3  C   UNL     1      -2.870  15.297  44.650  1.00  0.00    -0.077 C 
ATOM      4  C   UNL     1      -2.733  14.827  43.220  1.00  0.00     0.039 C 
BRANCH   3   5
ATOM      5  C   UNL     1      -2.863  16.783  44.939  1.00  0.00     0.034 C 
BRANCH   5   6
ATOM      6  C   UNL     1      -1.505  17.221  45.502  1.00  0.00     0.032 C 
BRANCH   6   7
ATOM      7  C   UNL     1      -0.440  16.202  45.183  1.00  0.00    -0.028 C 
ATOM      8  C   UNL     1       0.062  15.738  47.593  1.00  0.00     0.039 C 
ATOM      9  C   UNL     1       0.256  15.509  46.112  1.00  0.00    -0.080 C 
ATOM     10  C   UNL     1       1.264  14.493  45.643  1.00  0.00     0.039 C 
ENDBRANCH   6   7
ENDBRANCH   5   6
ENDBRANCH   3   5
ENDBRANCH   1   2
BRANCH   1  11
ATOM     11  C   UNL     1      -1.630  12.330  45.519  1.00  0.00     0.034 C 
BRANCH  11  12
ATOM     12  C   UNL     1      -1.547  11.099  46.402  1.00  0.00    -0.077 C 
ATOM     13  C   UNL     1      -0.393  10.435  46.648  1.00  0.00    -0.028 C 
ATOM     14  C   UNL     1      -2.809  10.586  47.049  1.00  0.00     0.039 C 
BRANCH  13  15
ATOM     15  C   UNL     1       0.960  10.776  46.070  1.00  0.00     0.035 C 
BRANCH  15  16
ATOM     16  C   UNL     1       1.930  11.162  47.190  1.00  0.00     0.079 C 
BRANCH  16  17
ATOM     17  C   UNL     1       3.348  11.169  46.690  1.00  0.00     0.130 C 
ATOM     18  O   UNL     1       3.680  10.403  45.797  1.00  0.00    -0.300 OA
ATOM     19  C   UNL     1       4.351  12.118  47.269  1.00  0.00     0.087 C 
ENDBRANCH  16  17
ENDBRANCH  15  16
ENDBRANCH  13  15
ENDBRANCH  11  12
ENDBRANCH   1  11
TORSDOF 9
ENDMDL
MODEL 9
REMARK VINA RESULT:    -6.136      2.428      6.735
REMARK INTER + INTRA:         -10.541
REMARK INTER:                  -8.999
REMARK INTRA:                  -1.541
REMARK UNBOUND:                -1.177
REMARK SMILES CC(=O)CCC=C(C)CCC=C(C)CCC=C(C)C
REMARK SMILES IDX 10 1 11 2 12 3 13 4 14 5 15 6 16 7 18 8 17 9 19 10 9 11 7 12
REMARK SMILES IDX 6 13 8 14 5 15 4 16 2 17 3 18 1 19
REMARK H PARENT
REMARK Flexibility Score: inf
ROOT
ATOM      1  C   UNL     1      -1.494  17.054  45.600  1.00  0.00     0.032 C 
ENDROOT
BRANCH   1   2
ATOM      2  C   UNL     1      -0.382  16.109  45.220  1.00  0.00    -0.028 C 
ATOM      3  C   UNL     1       0.371  15.418  46.105  1.00  0.00    -0.077 C 
ATOM      4  C   UNL     1       0.196  15.577  47.598  1.00  0.00     0.039 C 
BRANCH   3   5
ATOM      5  C   UNL     1       1.431  14.471  45.586  1.00  0.00     0.034 C 
BRANCH   5   6
ATOM      6  C   UNL     1       1.973  13.589  46.718  1.00  0.00     0.032 C 
BRANCH   6   7
ATOM      7  C   UNL     1       3.409  13.937  47.024  1.00  0.00    -0.028 C 
ATOM      8  C   UNL     1       4.115  11.541  47.215  1.00  0.00     0.039 C 
ATOM      9  C   UNL     1       4.388  13.027  47.226  1.00  0.00    -0.080 C 
ATOM     10  C   UNL     1       5.787  13.524  47.485  1.00  0.00     0.039 C 
ENDBRANCH   6   7
ENDBRANCH   5   6
ENDBRANCH   3   5
ENDBRANCH   1   2
BRANCH   1  11
ATOM     11  C   UNL     1      -2.850  16.335  45.576  1.00  0.00     0.034 C 
BRANCH  11  12
ATOM     12  C   UNL     1      -3.010  15.505  44.316  1.00  0.00    -0.077 C 
ATOM     13  C   UNL     1      -3.065  14.151  44.317  1.00  0.00    -0.028 C 
ATOM     14  C   UNL     1      -3.125  16.215  42.991  1.00  0.00     0.039 C 
BRANCH  13  15
ATOM     15  C   UNL     1      -2.940  13.266  45.535  1.00  0.00     0.035 C 
BRANCH  15  16
ATOM     16  C   UNL     1      -1.571  12.580  45.548  1.00  0.00     0.079 C 
BRANCH  16  17
ATOM     17  C   UNL     1      -1.617  11.315  46.359  1.00  0.00     0.130 C 
ATOM     18  O   UNL     1      -2.691  10.885  46.754  1.00  0.00    -0.300 OA
ATOM     19  C   UNL     1      -0.355  10.571  46.675  1.00  0.00     0.087 C 
ENDBRANCH  16  17
ENDBRANCH  15  16
ENDBRANCH  13  15
ENDBRANCH  11  12
ENDBRANCH   1  11
TORSDOF 9
ENDMDL
