MODEL 1
REMARK VINA RESULT:    -6.120      0.000      0.000
REMARK INTER + INTRA:         -10.870
REMARK INTER:                  -9.518
REMARK INTRA:                  -1.351
REMARK UNBOUND:                -1.351
REMARK SMILES COc1cc(CNC(=O)CCCCC=CC(C)C)ccc1O
REMARK SMILES IDX 11 1 12 2 13 3 14 4 15 5 16 6 17 7 18 8 10 9 8 10 9 11 7 12
REMARK SMILES IDX 6 14 5 15 4 16 19 17 3 18 20 19 21 20 2 21 1 22 22 23
REMARK H PARENT 7 13 22 24
REMARK Flexibility Score: inf
ROOT
ATOM      1  C   UNL     1      11.709  54.842  34.613  1.00  0.00     0.010 C 
ENDROOT
BRANCH   1   2
ATOM      2  C   UNL     1      11.938  53.743  35.662  1.00  0.00     0.005 C 
BRANCH   2   3
ATOM      3  C   UNL     1      13.335  53.127  35.514  1.00  0.00     0.027 C 
BRANCH   3   4
ATOM      4  C   UNL     1      14.386  54.206  35.434  1.00  0.00    -0.031 C 
ATOM      5  C   UNL     1      15.333  54.349  34.479  1.00  0.00    -0.028 C 
BRANCH   5   6
ATOM      6  C   UNL     1      15.613  53.440  33.292  1.00  0.00     0.005 C 
ATOM      7  C   UNL     1      14.495  53.444  32.239  1.00  0.00     0.012 C 
ATOM      8  C   UNL     1      16.019  52.020  33.712  1.00  0.00     0.012 C 
ENDBRANCH   5   6
ENDBRANCH   3   4
ENDBRANCH   2   3
ENDBRANCH   1   2
BRANCH   1   9
ATOM      9  C   UNL     1      11.012  56.075  35.199  1.00  0.00     0.100 C 
BRANCH   9  10
ATOM     10  C   UNL     1      11.381  57.328  34.457  1.00  0.00     0.220 C 
ATOM     11  O   UNL     1      10.938  58.438  34.854  1.00  0.00    -0.275 OA
ATOM     12  N   UNL     1      12.250  57.262  33.319  1.00  0.00    -0.352 N 
ATOM     13  H   UNL     1      12.578  56.322  32.994  1.00  0.00     0.163 HD
BRANCH  12  14
ATOM     14  C   UNL     1      12.715  58.469  32.637  1.00  0.00     0.151 C 
BRANCH  14  15
ATOM     15  C   UNL     1      14.212  58.436  32.463  1.00  0.00    -0.025 A 
ATOM     16  C   UNL     1      14.937  59.636  32.373  1.00  0.00     0.056 A 
ATOM     17  C   UNL     1      14.897  57.211  32.443  1.00  0.00     0.009 A 
ATOM     18  C   UNL     1      16.342  59.616  32.253  1.00  0.00     0.160 A 
ATOM     19  C   UNL     1      16.288  57.185  32.315  1.00  0.00     0.050 A 
ATOM     20  C   UNL     1      17.012  58.382  32.219  1.00  0.00     0.157 A 
BRANCH  18  21
ATOM     21  O   UNL     1      17.104  60.792  32.170  1.00  0.00    -0.493 OA
ATOM     22  C   UNL     1      16.631  62.025  31.636  1.00  0.00     0.278 C 
ENDBRANCH  18  21
BRANCH  20  23
ATOM     23  O   UNL     1      18.400  58.354  32.093  1.00  0.00    -0.504 OA
ATOM     24  H   UNL     1      18.996  58.999  32.604  1.00  0.00     0.293 HD
ENDBRANCH  20  23
ENDBRANCH  14  15
ENDBRANCH  12  14
ENDBRANCH   9  10
ENDBRANCH   1   9
TORSDOF 10
ENDMDL
MODEL 2
REMARK VINA RESULT:    -6.038      1.403      1.560
REMARK INTER + INTRA:         -10.742
REMARK INTER:                  -9.030
REMARK INTRA:                  -1.712
REMARK UNBOUND:                -1.351
REMARK SMILES COc1cc(CNC(=O)CCCCC=CC(C)C)ccc1O
REMARK SMILES IDX 11 1 12 2 13 3 14 4 15 5 16 6 17 7 18 8 10 9 8 10 9 11 7 12
REMARK SMILES IDX 6 14 5 15 4 16 19 17 3 18 20 19 21 20 2 21 1 22 22 23
REMARK H PARENT 7 13 22 24
REMARK Flexibility Score: inf
ROOT
ATOM      1  C   UNL     1      12.011  55.041  35.450  1.00  0.00     0.010 C 
ENDROOT
BRANCH   1   2
ATOM      2  C   UNL     1      12.091  53.525  35.688  1.00  0.00     0.005 C 
BRANCH   2   3
ATOM      3  C   UNL     1      13.544  53.036  35.616  1.00  0.00     0.027 C 
BRANCH   3   4
ATOM      4  C   UNL     1      14.465  54.162  35.215  1.00  0.00    -0.031 C 
ATOM      5  C   UNL     1      15.273  54.204  34.131  1.00  0.00    -0.028 C 
BRANCH   5   6
ATOM      6  C   UNL     1      15.501  53.120  33.089  1.00  0.00     0.005 C 
ATOM      7  C   UNL     1      14.250  52.792  32.260  1.00  0.00     0.012 C 
ATOM      8  C   UNL     1      16.165  51.863  33.672  1.00  0.00     0.012 C 
ENDBRANCH   5   6
ENDBRANCH   3   4
ENDBRANCH   2   3
ENDBRANCH   1   2
BRANCH   1   9
ATOM      9  C   UNL     1      10.743  55.449  34.692  1.00  0.00     0.100 C 
BRANCH   9  10
ATOM     10  C   UNL     1      11.052  55.897  33.292  1.00  0.00     0.220 C 
ATOM     11  O   UNL     1      10.145  56.426  32.596  1.00  0.00    -0.275 OA
ATOM     12  N   UNL     1      12.375  55.747  32.762  1.00  0.00    -0.352 N 
ATOM     13  H   UNL     1      13.100  55.277  33.354  1.00  0.00     0.163 HD
BRANCH  12  14
ATOM     14  C   UNL     1      12.739  56.268  31.445  1.00  0.00     0.151 C 
BRANCH  14  15
ATOM     15  C   UNL     1      14.177  56.717  31.431  1.00  0.00    -0.025 A 
ATOM     16  C   UNL     1      14.601  57.749  32.285  1.00  0.00     0.056 A 
ATOM     17  C   UNL     1      15.113  56.074  30.606  1.00  0.00     0.009 A 
ATOM     18  C   UNL     1      15.953  58.147  32.310  1.00  0.00     0.160 A 
ATOM     19  C   UNL     1      16.453  56.470  30.621  1.00  0.00     0.050 A 
ATOM     20  C   UNL     1      16.876  57.505  31.468  1.00  0.00     0.157 A 
BRANCH  18  21
ATOM     21  O   UNL     1      16.420  59.167  33.155  1.00  0.00    -0.493 OA
ATOM     22  C   UNL     1      16.031  60.534  33.060  1.00  0.00     0.278 C 
ENDBRANCH  18  21
BRANCH  20  23
ATOM     23  O   UNL     1      18.214  57.897  31.482  1.00  0.00    -0.504 OA
ATOM     24  H   UNL     1      18.569  58.560  32.165  1.00  0.00     0.293 HD
ENDBRANCH  20  23
ENDBRANCH  14  15
ENDBRANCH  12  14
ENDBRANCH   9  10
ENDBRANCH   1   9
TORSDOF 10
ENDMDL
MODEL 3
REMARK VINA RESULT:    -6.033      1.075      2.098
REMARK INTER + INTRA:         -10.735
REMARK INTER:                  -9.299
REMARK INTRA:                  -1.435
REMARK UNBOUND:                -1.351
REMARK SMILES COc1cc(CNC(=O)CCCCC=CC(C)C)ccc1O
REMARK SMILES IDX 11 1 12 2 13 3 14 4 15 5 16 6 17 7 18 8 10 9 8 10 9 11 7 12
REMARK SMILES IDX 6 14 5 15 4 16 19 17 3 18 20 19 21 20 2 21 1 22 22 23
REMARK H PARENT 7 13 22 24
REMARK Flexibility Score: inf
ROOT
ATOM      1  C   UNL     1      11.779  55.050  35.703  1.00  0.00     0.010 C 
ENDROOT
BRANCH   1   2
ATOM      2  C   UNL     1      11.958  53.542  35.462  1.00  0.00     0.005 C 
BRANCH   2   3
ATOM      3  C   UNL     1      13.429  53.134  35.617  1.00  0.00     0.027 C 
BRANCH   3   4
ATOM      4  C   UNL     1      14.334  54.325  35.423  1.00  0.00    -0.031 C 
ATOM      5  C   UNL     1      15.182  54.542  34.392  1.00  0.00    -0.028 C 
BRANCH   5   6
ATOM      6  C   UNL     1      15.478  53.628  33.213  1.00  0.00     0.005 C 
ATOM      7  C   UNL     1      14.295  53.468  32.247  1.00  0.00     0.012 C 
ATOM      8  C   UNL     1      16.073  52.278  33.641  1.00  0.00     0.012 C 
ENDBRANCH   5   6
ENDBRANCH   3   4
ENDBRANCH   2   3
ENDBRANCH   1   2
BRANCH   1   9
ATOM      9  C   UNL     1      10.835  55.698  34.684  1.00  0.00     0.100 C 
BRANCH   9  10
ATOM     10  C   UNL     1      11.301  57.069  34.287  1.00  0.00     0.220 C 
ATOM     11  O   UNL     1      10.892  58.073  34.928  1.00  0.00    -0.275 OA
ATOM     12  N   UNL     1      12.225  57.232  33.204  1.00  0.00    -0.352 N 
ATOM     13  H   UNL     1      12.524  56.382  32.670  1.00  0.00     0.163 HD
BRANCH  12  14
ATOM     14  C   UNL     1      12.782  58.539  32.858  1.00  0.00     0.151 C 
BRANCH  14  15
ATOM     15  C   UNL     1      14.239  58.415  32.496  1.00  0.00    -0.025 A 
ATOM     16  C   UNL     1      14.711  57.256  31.858  1.00  0.00     0.056 A 
ATOM     17  C   UNL     1      15.124  59.478  32.742  1.00  0.00     0.009 A 
ATOM     18  C   UNL     1      16.064  57.149  31.476  1.00  0.00     0.160 A 
ATOM     19  C   UNL     1      16.467  59.374  32.373  1.00  0.00     0.050 A 
ATOM     20  C   UNL     1      16.940  58.214  31.742  1.00  0.00     0.157 A 
BRANCH  18  21
ATOM     21  O   UNL     1      16.573  56.012  30.828  1.00  0.00    -0.493 OA
ATOM     22  C   UNL     1      16.220  55.609  29.508  1.00  0.00     0.278 C 
ENDBRANCH  18  21
BRANCH  20  23
ATOM     23  O   UNL     1      18.281  58.113  31.373  1.00  0.00    -0.504 OA
ATOM     24  H   UNL     1      18.562  58.003  30.403  1.00  0.00     0.293 HD
ENDBRANCH  20  23
ENDBRANCH  14  15
ENDBRANCH  12  14
ENDBRANCH   9  10
ENDBRANCH   1   9
TORSDOF 10
ENDMDL
MODEL 4
REMARK VINA RESULT:    -5.995      1.263      2.442
REMARK INTER + INTRA:         -10.676
REMARK INTER:                  -9.457
REMARK INTRA:                  -1.219
REMARK UNBOUND:                -1.351
REMARK SMILES COc1cc(CNC(=O)CCCCC=CC(C)C)ccc1O
REMARK SMILES IDX 11 1 12 2 13 3 14 4 15 5 16 6 17 7 18 8 10 9 8 10 9 11 7 12
REMARK SMILES IDX 6 14 5 15 4 16 19 17 3 18 20 19 21 20 2 21 1 22 22 23
REMARK H PARENT 7 13 22 24
REMARK Flexibility Score: inf
ROOT
ATOM      1  C   UNL     1      11.175  56.410  34.427  1.00  0.00     0.010 C 
ENDROOT
BRANCH   1   2
ATOM      2  C   UNL     1      11.532  55.432  35.557  1.00  0.00     0.005 C 
BRANCH   2   3
ATOM      3  C   UNL     1      11.512  53.983  35.054  1.00  0.00     0.027 C 
BRANCH   3   4
ATOM      4  C   UNL     1      12.501  53.140  35.820  1.00  0.00    -0.031 C 
ATOM      5  C   UNL     1      13.796  52.914  35.499  1.00  0.00    -0.028 C 
BRANCH   5   6
ATOM      6  C   UNL     1      14.556  53.395  34.272  1.00  0.00     0.005 C 
ATOM      7  C   UNL     1      15.611  52.396  33.773  1.00  0.00     0.012 C 
ATOM      8  C   UNL     1      15.123  54.813  34.442  1.00  0.00     0.012 C 
ENDBRANCH   5   6
ENDBRANCH   3   4
ENDBRANCH   2   3
ENDBRANCH   1   2
BRANCH   1   9
ATOM      9  C   UNL     1      10.624  57.740  34.954  1.00  0.00     0.100 C 
BRANCH   9  10
ATOM     10  C   UNL     1      11.361  58.914  34.378  1.00  0.00     0.220 C 
ATOM     11  O   UNL     1      11.247  60.045  34.920  1.00  0.00    -0.275 OA
ATOM     12  N   UNL     1      12.207  58.744  33.234  1.00  0.00    -0.352 N 
ATOM     13  H   UNL     1      12.259  57.798  32.786  1.00  0.00     0.163 HD
BRANCH  12  14
ATOM     14  C   UNL     1      13.022  59.840  32.711  1.00  0.00     0.151 C 
BRANCH  14  15
ATOM     15  C   UNL     1      14.469  59.429  32.620  1.00  0.00    -0.025 A 
ATOM     16  C   UNL     1      14.810  58.142  32.171  1.00  0.00     0.056 A 
ATOM     17  C   UNL     1      15.487  60.345  32.930  1.00  0.00     0.009 A 
ATOM     18  C   UNL     1      16.161  57.764  32.042  1.00  0.00     0.160 A 
ATOM     19  C   UNL     1      16.828  59.972  32.812  1.00  0.00     0.050 A 
ATOM     20  C   UNL     1      17.169  58.685  32.371  1.00  0.00     0.157 A 
BRANCH  18  21
ATOM     21  O   UNL     1      16.544  56.491  31.588  1.00  0.00    -0.493 OA
ATOM     22  C   UNL     1      16.440  56.051  30.237  1.00  0.00     0.278 C 
ENDBRANCH  18  21
BRANCH  20  23
ATOM     23  O   UNL     1      18.508  58.316  32.252  1.00  0.00    -0.504 OA
ATOM     24  H   UNL     1      19.006  57.861  33.011  1.00  0.00     0.293 HD
ENDBRANCH  20  23
ENDBRANCH  14  15
ENDBRANCH  12  14
ENDBRANCH   9  10
ENDBRANCH   1   9
TORSDOF 10
ENDMDL
MODEL 5
REMARK VINA RESULT:    -5.610      2.089      3.885
REMARK INTER + INTRA:         -10.076
REMARK INTER:                  -8.837
REMARK INTRA:                  -1.240
REMARK UNBOUND:                -1.351
REMARK SMILES COc1cc(CNC(=O)CCCCC=CC(C)C)ccc1O
REMARK SMILES IDX 11 1 12 2 13 3 14 4 15 5 16 6 17 7 18 8 10 9 8 10 9 11 7 12
REMARK SMILES IDX 6 14 5 15 4 16 19 17 3 18 20 19 21 20 2 21 1 22 22 23
REMARK H PARENT 7 13 22 24
REMARK Flexibility Score: inf
ROOT
ATOM      1  C   UNL     1      14.671  54.351  34.894  1.00  0.00     0.010 C 
ENDROOT
BRANCH   1   2
ATOM      2  C   UNL     1      13.736  53.257  35.433  1.00  0.00     0.005 C 
BRANCH   2   3
ATOM      3  C   UNL     1      12.391  53.854  35.868  1.00  0.00     0.027 C 
BRANCH   3   4
ATOM      4  C   UNL     1      11.459  53.979  34.689  1.00  0.00    -0.031 C 
ATOM      5  C   UNL     1      11.077  55.122  34.073  1.00  0.00    -0.028 C 
BRANCH   5   6
ATOM      6  C   UNL     1      11.436  56.552  34.444  1.00  0.00     0.005 C 
ATOM      7  C   UNL     1      10.562  57.134  35.565  1.00  0.00     0.012 C 
ATOM      8  C   UNL     1      11.521  57.480  33.223  1.00  0.00     0.012 C 
ENDBRANCH   5   6
ENDBRANCH   3   4
ENDBRANCH   2   3
ENDBRANCH   1   2
BRANCH   1   9
ATOM      9  C   UNL     1      15.388  53.927  33.607  1.00  0.00     0.100 C 
BRANCH   9  10
ATOM     10  C   UNL     1      15.080  54.853  32.467  1.00  0.00     0.220 C 
ATOM     11  O   UNL     1      13.892  54.971  32.066  1.00  0.00    -0.275 OA
ATOM     12  N   UNL     1      16.128  55.616  31.855  1.00  0.00    -0.352 N 
ATOM     13  H   UNL     1      17.110  55.475  32.189  1.00  0.00     0.163 HD
BRANCH  12  14
ATOM     14  C   UNL     1      15.850  56.606  30.815  1.00  0.00     0.151 C 
BRANCH  14  15
ATOM     15  C   UNL     1      16.209  57.991  31.290  1.00  0.00    -0.025 A 
ATOM     16  C   UNL     1      15.894  59.110  30.502  1.00  0.00     0.056 A 
ATOM     17  C   UNL     1      16.810  58.176  32.546  1.00  0.00     0.009 A 
ATOM     18  C   UNL     1      16.188  60.411  30.958  1.00  0.00     0.160 A 
ATOM     19  C   UNL     1      17.110  59.463  32.999  1.00  0.00     0.050 A 
ATOM     20  C   UNL     1      16.802  60.581  32.209  1.00  0.00     0.157 A 
BRANCH  18  21
ATOM     21  O   UNL     1      15.881  61.557  30.205  1.00  0.00    -0.493 OA
ATOM     22  C   UNL     1      14.559  62.002  29.917  1.00  0.00     0.278 C 
ENDBRANCH  18  21
BRANCH  20  23
ATOM     23  O   UNL     1      17.101  61.864  32.664  1.00  0.00    -0.504 OA
ATOM     24  H   UNL     1      16.385  62.478  33.042  1.00  0.00     0.293 HD
ENDBRANCH  20  23
ENDBRANCH  14  15
ENDBRANCH  12  14
ENDBRANCH   9  10
ENDBRANCH   1   9
TORSDOF 10
ENDMDL
MODEL 6
REMARK VINA RESULT:    -5.585      1.409      2.155
REMARK INTER + INTRA:         -10.039
REMARK INTER:                  -9.004
REMARK INTRA:                  -1.034
REMARK UNBOUND:                -1.351
REMARK SMILES COc1cc(CNC(=O)CCCCC=CC(C)C)ccc1O
REMARK SMILES IDX 11 1 12 2 13 3 14 4 15 5 16 6 17 7 18 8 10 9 8 10 9 11 7 12
REMARK SMILES IDX 6 14 5 15 4 16 19 17 3 18 20 19 21 20 2 21 1 22 22 23
REMARK H PARENT 7 13 22 24
REMARK Flexibility Score: inf
ROOT
ATOM      1  C   UNL     1      13.259  53.332  35.018  1.00  0.00     0.010 C 
ENDROOT
BRANCH   1   2
ATOM      2  C   UNL     1      14.601  54.046  35.245  1.00  0.00     0.005 C 
BRANCH   2   3
ATOM      3  C   UNL     1      15.492  53.945  33.999  1.00  0.00     0.027 C 
BRANCH   3   4
ATOM      4  C   UNL     1      16.192  52.609  33.953  1.00  0.00    -0.031 C 
ATOM      5  C   UNL     1      15.858  51.542  33.192  1.00  0.00    -0.028 C 
BRANCH   5   6
ATOM      6  C   UNL     1      14.674  51.398  32.247  1.00  0.00     0.005 C 
ATOM      7  C   UNL     1      14.460  49.962  31.747  1.00  0.00     0.012 C 
ATOM      8  C   UNL     1      14.698  52.422  31.102  1.00  0.00     0.012 C 
ENDBRANCH   5   6
ENDBRANCH   3   4
ENDBRANCH   2   3
ENDBRANCH   1   2
BRANCH   1   9
ATOM      9  C   UNL     1      12.057  54.228  35.340  1.00  0.00     0.100 C 
BRANCH   9  10
ATOM     10  C   UNL     1      12.024  55.449  34.467  1.00  0.00     0.220 C 
ATOM     11  O   UNL     1      11.432  56.485  34.871  1.00  0.00    -0.275 OA
ATOM     12  N   UNL     1      12.683  55.444  33.194  1.00  0.00    -0.352 N 
ATOM     13  H   UNL     1      13.142  54.559  32.872  1.00  0.00     0.163 HD
BRANCH  12  14
ATOM     14  C   UNL     1      12.763  56.646  32.366  1.00  0.00     0.151 C 
BRANCH  14  15
ATOM     15  C   UNL     1      14.200  56.999  32.079  1.00  0.00    -0.025 A 
ATOM     16  C   UNL     1      14.795  58.100  32.717  1.00  0.00     0.056 A 
ATOM     17  C   UNL     1      14.968  56.200  31.217  1.00  0.00     0.009 A 
ATOM     18  C   UNL     1      16.151  58.412  32.488  1.00  0.00     0.160 A 
ATOM     19  C   UNL     1      16.309  56.510  30.981  1.00  0.00     0.050 A 
ATOM     20  C   UNL     1      16.903  57.613  31.612  1.00  0.00     0.157 A 
BRANCH  18  21
ATOM     21  O   UNL     1      16.787  59.497  33.113  1.00  0.00    -0.493 OA
ATOM     22  C   UNL     1      16.712  60.846  32.660  1.00  0.00     0.278 C 
ENDBRANCH  18  21
BRANCH  20  23
ATOM     23  O   UNL     1      18.242  57.919  31.375  1.00  0.00    -0.504 OA
ATOM     24  H   UNL     1      18.914  57.207  31.103  1.00  0.00     0.293 HD
ENDBRANCH  20  23
ENDBRANCH  14  15
ENDBRANCH  12  14
ENDBRANCH   9  10
ENDBRANCH   1   9
TORSDOF 10
ENDMDL
MODEL 7
REMARK VINA RESULT:    -5.569      1.775      2.831
REMARK INTER + INTRA:         -10.013
REMARK INTER:                  -8.481
REMARK INTRA:                  -1.532
REMARK UNBOUND:                -1.351
REMARK SMILES COc1cc(CNC(=O)CCCCC=CC(C)C)ccc1O
REMARK SMILES IDX 11 1 12 2 13 3 14 4 15 5 16 6 17 7 18 8 10 9 8 10 9 11 7 12
REMARK SMILES IDX 6 14 5 15 4 16 19 17 3 18 20 19 21 20 2 21 1 22 22 23
REMARK H PARENT 7 13 22 24
REMARK Flexibility Score: inf
ROOT
ATOM      1  C   UNL     1      12.546  52.729  30.757  1.00  0.00     0.010 C 
ENDROOT
BRANCH   1   2
ATOM      2  C   UNL     1      13.390  51.652  31.457  1.00  0.00     0.005 C 
BRANCH   2   3
ATOM      3  C   UNL     1      14.742  52.223  31.905  1.00  0.00     0.027 C 
BRANCH   3   4
ATOM      4  C   UNL     1      15.153  51.636  33.232  1.00  0.00    -0.031 C 
ATOM      5  C   UNL     1      14.853  52.116  34.461  1.00  0.00    -0.028 C 
BRANCH   5   6
ATOM      6  C   UNL     1      14.088  53.383  34.812  1.00  0.00     0.005 C 
ATOM      7  C   UNL     1      14.995  54.556  35.215  1.00  0.00     0.012 C 
ATOM      8  C   UNL     1      12.961  53.137  35.825  1.00  0.00     0.012 C 
ENDBRANCH   5   6
ENDBRANCH   3   4
ENDBRANCH   2   3
ENDBRANCH   1   2
BRANCH   1   9
ATOM      9  C   UNL     1      11.559  53.412  31.712  1.00  0.00     0.100 C 
BRANCH   9  10
ATOM     10  C   UNL     1      11.779  54.896  31.771  1.00  0.00     0.220 C 
ATOM     11  O   UNL     1      10.975  55.666  31.181  1.00  0.00    -0.275 OA
ATOM     12  N   UNL     1      12.881  55.433  32.513  1.00  0.00    -0.352 N 
ATOM     13  H   UNL     1      13.549  54.767  32.968  1.00  0.00     0.163 HD
BRANCH  12  14
ATOM     14  C   UNL     1      13.065  56.874  32.681  1.00  0.00     0.151 C 
BRANCH  14  15
ATOM     15  C   UNL     1      14.495  57.261  32.408  1.00  0.00    -0.025 A 
ATOM     16  C   UNL     1      14.963  58.534  32.776  1.00  0.00     0.056 A 
ATOM     17  C   UNL     1      15.384  56.337  31.836  1.00  0.00     0.009 A 
ATOM     18  C   UNL     1      16.310  58.890  32.564  1.00  0.00     0.160 A 
ATOM     19  C   UNL     1      16.718  56.689  31.616  1.00  0.00     0.050 A 
ATOM     20  C   UNL     1      17.184  57.961  31.977  1.00  0.00     0.157 A 
BRANCH  18  21
ATOM     21  O   UNL     1      16.819  60.148  32.926  1.00  0.00    -0.493 OA
ATOM     22  C   UNL     1      16.736  61.316  32.115  1.00  0.00     0.278 C 
ENDBRANCH  18  21
BRANCH  20  23
ATOM     23  O   UNL     1      18.516  58.309  31.758  1.00  0.00    -0.504 OA
ATOM     24  H   UNL     1      19.245  58.079  32.427  1.00  0.00     0.293 HD
ENDBRANCH  20  23
ENDBRANCH  14  15
ENDBRANCH  12  14
ENDBRANCH   9  10
ENDBRANCH   1   9
TORSDOF 10
ENDMDL
MODEL 8
REMARK VINA RESULT:    -5.514      2.447      4.049
REMARK INTER + INTRA:          -9.928
REMARK INTER:                  -8.676
REMARK INTRA:                  -1.252
REMARK UNBOUND:                -1.351
REMARK SMILES COc1cc(CNC(=O)CCCCC=CC(C)C)ccc1O
REMARK SMILES IDX 11 1 12 2 13 3 14 4 15 5 16 6 17 7 18 8 10 9 8 10 9 11 7 12
REMARK SMILES IDX 6 14 5 15 4 16 19 17 3 18 20 19 21 20 2 21 1 22 22 23
REMARK H PARENT 7 13 22 24
REMARK Flexibility Score: inf
ROOT
ATOM      1  C   UNL     1      14.501  52.570  30.751  1.00  0.00     0.010 C 
ENDROOT
BRANCH   1   2
ATOM      2  C   UNL     1      14.560  51.500  31.853  1.00  0.00     0.005 C 
BRANCH   2   3
ATOM      3  C   UNL     1      15.691  51.801  32.846  1.00  0.00     0.027 C 
BRANCH   3   4
ATOM      4  C   UNL     1      15.290  51.404  34.245  1.00  0.00    -0.031 C 
ATOM      5  C   UNL     1      14.525  52.116  35.104  1.00  0.00    -0.028 C 
BRANCH   5   6
ATOM      6  C   UNL     1      13.932  53.502  34.904  1.00  0.00     0.005 C 
ATOM      7  C   UNL     1      14.966  54.633  35.011  1.00  0.00     0.012 C 
ATOM      8  C   UNL     1      12.695  53.752  35.778  1.00  0.00     0.012 C 
ENDBRANCH   5   6
ENDBRANCH   3   4
ENDBRANCH   2   3
ENDBRANCH   1   2
BRANCH   1   9
ATOM      9  C   UNL     1      14.164  53.960  31.301  1.00  0.00     0.100 C 
BRANCH   9  10
ATOM     10  C   UNL     1      15.029  55.025  30.691  1.00  0.00     0.220 C 
ATOM     11  O   UNL     1      14.739  55.485  29.555  1.00  0.00    -0.275 OA
ATOM     12  N   UNL     1      16.163  55.531  31.407  1.00  0.00    -0.352 N 
ATOM     13  H   UNL     1      16.397  55.108  32.336  1.00  0.00     0.163 HD
BRANCH  12  14
ATOM     14  C   UNL     1      16.964  56.640  30.892  1.00  0.00     0.151 C 
BRANCH  14  15
ATOM     15  C   UNL     1      16.567  57.934  31.553  1.00  0.00    -0.025 A 
ATOM     16  C   UNL     1      15.461  58.658  31.077  1.00  0.00     0.056 A 
ATOM     17  C   UNL     1      17.263  58.397  32.681  1.00  0.00     0.009 A 
ATOM     18  C   UNL     1      15.056  59.848  31.716  1.00  0.00     0.160 A 
ATOM     19  C   UNL     1      16.870  59.580  33.313  1.00  0.00     0.050 A 
ATOM     20  C   UNL     1      15.771  60.307  32.834  1.00  0.00     0.157 A 
BRANCH  18  21
ATOM     21  O   UNL     1      13.951  60.596  31.278  1.00  0.00    -0.493 OA
ATOM     22  C   UNL     1      12.711  60.034  30.859  1.00  0.00     0.278 C 
ENDBRANCH  18  21
BRANCH  20  23
ATOM     23  O   UNL     1      15.380  61.486  33.468  1.00  0.00    -0.504 OA
ATOM     24  H   UNL     1      14.441  61.610  33.834  1.00  0.00     0.293 HD
ENDBRANCH  20  23
ENDBRANCH  14  15
ENDBRANCH  12  14
ENDBRANCH   9  10
ENDBRANCH   1   9
TORSDOF 10
ENDMDL
MODEL 9
REMARK VINA RESULT:    -5.459      2.101      4.106
REMARK INTER + INTRA:          -9.842
REMARK INTER:                  -8.644
REMARK INTRA:                  -1.198
REMARK UNBOUND:                -1.351
REMARK SMILES COc1cc(CNC(=O)CCCCC=CC(C)C)ccc1O
REMARK SMILES IDX 11 1 12 2 13 3 14 4 15 5 16 6 17 7 18 8 10 9 8 10 9 11 7 12
REMARK SMILES IDX 6 14 5 15 4 16 19 17 3 18 20 19 21 20 2 21 1 22 22 23
REMARK H PARENT 7 13 22 24
REMARK Flexibility Score: inf
ROOT
ATOM      1  C   UNL     1      15.485  53.057  33.083  1.00  0.00     0.010 C 
ENDROOT
BRANCH   1   2
ATOM      2  C   UNL     1      14.784  52.530  34.346  1.00  0.00     0.005 C 
BRANCH   2   3
ATOM      3  C   UNL     1      14.283  53.689  35.217  1.00  0.00     0.027 C 
BRANCH   3   4
ATOM      4  C   UNL     1      12.952  53.349  35.840  1.00  0.00    -0.031 C 
ATOM      5  C   UNL     1      11.729  53.728  35.403  1.00  0.00    -0.028 C 
BRANCH   5   6
ATOM      6  C   UNL     1      11.392  54.629  34.225  1.00  0.00     0.005 C 
ATOM      7  C   UNL     1      11.285  56.114  34.600  1.00  0.00     0.012 C 
ATOM      8  C   UNL     1      10.176  54.135  33.427  1.00  0.00     0.012 C 
ENDBRANCH   5   6
ENDBRANCH   3   4
ENDBRANCH   2   3
ENDBRANCH   1   2
BRANCH   1   9
ATOM      9  C   UNL     1      14.491  53.546  32.023  1.00  0.00     0.100 C 
BRANCH   9  10
ATOM     10  C   UNL     1      15.079  54.632  31.168  1.00  0.00     0.220 C 
ATOM     11  O   UNL     1      14.555  54.898  30.055  1.00  0.00    -0.275 OA
ATOM     12  N   UNL     1      16.215  55.376  31.628  1.00  0.00    -0.352 N 
ATOM     13  H   UNL     1      16.648  55.112  32.545  1.00  0.00     0.163 HD
BRANCH  12  14
ATOM     14  C   UNL     1      16.748  56.508  30.873  1.00  0.00     0.151 C 
BRANCH  14  15
ATOM     15  C   UNL     1      16.391  57.809  31.544  1.00  0.00    -0.025 A 
ATOM     16  C   UNL     1      15.136  58.399  31.317  1.00  0.00     0.056 A 
ATOM     17  C   UNL     1      17.285  58.413  32.443  1.00  0.00     0.009 A 
ATOM     18  C   UNL     1      14.777  59.593  31.974  1.00  0.00     0.160 A 
ATOM     19  C   UNL     1      16.937  59.601  33.090  1.00  0.00     0.050 A 
ATOM     20  C   UNL     1      15.688  60.194  32.858  1.00  0.00     0.157 A 
BRANCH  18  21
ATOM     21  O   UNL     1      13.530  60.209  31.781  1.00  0.00    -0.493 OA
ATOM     22  C   UNL     1      12.675  59.971  30.667  1.00  0.00     0.278 C 
ENDBRANCH  18  21
BRANCH  20  23
ATOM     23  O   UNL     1      15.342  61.379  33.507  1.00  0.00    -0.504 OA
ATOM     24  H   UNL     1      16.046  62.019  33.860  1.00  0.00     0.293 HD
ENDBRANCH  20  23
ENDBRANCH  14  15
ENDBRANCH  12  14
ENDBRANCH   9  10
ENDBRANCH   1   9
TORSDOF 10
ENDMDL
