MODEL 1
REMARK VINA RESULT:    -2.667      0.000      0.000
REMARK INTER + INTRA:          -2.667
REMARK INTER:                  -2.667
REMARK INTRA:                   0.000
REMARK UNBOUND:                 0.000
REMARK SMILES CC(=O)[O-]
REMARK SMILES IDX 1 1 2 2 3 3 4 4
REMARK H PARENT
REMARK Flexibility Score: inf
ROOT
ATOM      1  C   UNL     1     -10.903   0.851  -9.701  1.00  0.00     0.063 C 
ATOM      2  C   UNL     1     -11.115   2.300  -9.416  1.00  0.00     0.038 C 
ATOM      3  O   UNL     1     -10.240   2.956  -8.793  1.00  0.00    -0.550 OA
ATOM      4  O   UNL     1     -12.302   2.916  -9.790  1.00  0.00    -0.550 OA
ENDROOT
TORSDOF 0
ENDMDL
MODEL 2
REMARK VINA RESULT:    -2.581      1.521      2.134
REMARK INTER + INTRA:          -2.581
REMARK INTER:                  -2.581
REMARK INTRA:                   0.000
REMARK UNBOUND:                 0.000
REMARK SMILES CC(=O)[O-]
REMARK SMILES IDX 1 1 2 2 3 3 4 4
REMARK H PARENT
REMARK Flexibility Score: inf
ROOT
ATOM      1  C   UNL     1     -12.212   3.305  -9.385  1.00  0.00     0.063 C 
ATOM      2  C   UNL     1     -10.881   2.648  -9.522  1.00  0.00     0.038 C 
ATOM      3  O   UNL     1     -10.791   1.392  -9.519  1.00  0.00    -0.550 OA
ATOM      4  O   UNL     1      -9.729   3.420  -9.599  1.00  0.00    -0.550 OA
ENDROOT
TORSDOF 0
ENDMDL
MODEL 3
REMARK VINA RESULT:    -2.442      8.644      9.008
REMARK INTER + INTRA:          -2.442
REMARK INTER:                  -2.442
REMARK INTRA:                   0.000
REMARK UNBOUND:                 0.000
REMARK SMILES CC(=O)[O-]
REMARK SMILES IDX 1 1 2 2 3 3 4 4
REMARK H PARENT
REMARK Flexibility Score: inf
ROOT
ATOM      1  C   UNL     1      -8.760   9.420  -8.751  1.00  0.00     0.063 C 
ATOM      2  C   UNL     1      -8.177  10.739  -9.128  1.00  0.00     0.038 C 
ATOM      3  O   UNL     1      -6.997  10.809  -9.562  1.00  0.00    -0.550 OA
ATOM      4  O   UNL     1      -8.915  11.902  -8.950  1.00  0.00    -0.550 OA
ENDROOT
TORSDOF 0
ENDMDL
MODEL 4
REMARK VINA RESULT:    -2.357      1.799      1.998
REMARK INTER + INTRA:          -2.357
REMARK INTER:                  -2.357
REMARK INTRA:                   0.000
REMARK UNBOUND:                 0.000
REMARK SMILES CC(=O)[O-]
REMARK SMILES IDX 1 1 2 2 3 3 4 4
REMARK H PARENT
REMARK Flexibility Score: inf
ROOT
ATOM      1  C   UNL     1     -11.140   2.486  -9.710  1.00  0.00     0.063 C 
ATOM      2  C   UNL     1     -12.581   2.767  -9.446  1.00  0.00     0.038 C 
ATOM      3  O   UNL     1     -12.929   3.866  -8.938  1.00  0.00    -0.550 OA
ATOM      4  O   UNL     1     -13.538   1.796  -9.708  1.00  0.00    -0.550 OA
ENDROOT
TORSDOF 0
ENDMDL
MODEL 5
REMARK VINA RESULT:    -2.134     13.965     14.248
REMARK INTER + INTRA:          -2.134
REMARK INTER:                  -2.134
REMARK INTRA:                   0.000
REMARK UNBOUND:                 0.000
REMARK SMILES CC(=O)[O-]
REMARK SMILES IDX 1 1 2 2 3 3 4 4
REMARK H PARENT
REMARK Flexibility Score: inf
ROOT
ATOM      1  C   UNL     1     -13.187   3.730   5.968  1.00  0.00     0.063 C 
ATOM      2  C   UNL     1     -12.811   3.815   4.527  1.00  0.00     0.038 C 
ATOM      3  O   UNL     1     -11.699   3.373   4.136  1.00  0.00    -0.550 OA
ATOM      4  O   UNL     1     -13.664   4.432   3.621  1.00  0.00    -0.550 OA
ENDROOT
TORSDOF 0
ENDMDL
MODEL 6
REMARK VINA RESULT:    -2.126     13.988     14.356
REMARK INTER + INTRA:          -2.126
REMARK INTER:                  -2.126
REMARK INTRA:                   0.000
REMARK UNBOUND:                 0.000
REMARK SMILES CC(=O)[O-]
REMARK SMILES IDX 1 1 2 2 3 3 4 4
REMARK H PARENT
REMARK Flexibility Score: inf
ROOT
ATOM      1  C   UNL     1     -13.164   3.768   5.994  1.00  0.00     0.063 C 
ATOM      2  C   UNL     1     -12.778   3.860   4.556  1.00  0.00     0.038 C 
ATOM      3  O   UNL     1     -13.566   4.379   3.722  1.00  0.00    -0.550 OA
ATOM      4  O   UNL     1     -11.572   3.325   4.124  1.00  0.00    -0.550 OA
ENDROOT
TORSDOF 0
ENDMDL
MODEL 7
REMARK VINA RESULT:    -2.087     16.716     17.129
REMARK INTER + INTRA:          -2.087
REMARK INTER:                  -2.087
REMARK INTRA:                   0.000
REMARK UNBOUND:                 0.000
REMARK SMILES CC(=O)[O-]
REMARK SMILES IDX 1 1 2 2 3 3 4 4
REMARK H PARENT
REMARK Flexibility Score: inf
ROOT
ATOM      1  C   UNL     1     -11.210   4.786   8.739  1.00  0.00     0.063 C 
ATOM      2  C   UNL     1     -10.864   4.141   7.440  1.00  0.00     0.038 C 
ATOM      3  O   UNL     1     -11.147   2.931   7.239  1.00  0.00    -0.550 OA
ATOM      4  O   UNL     1     -10.179   4.859   6.468  1.00  0.00    -0.550 OA
ENDROOT
TORSDOF 0
ENDMDL
MODEL 8
REMARK VINA RESULT:    -2.071     14.655     15.027
REMARK INTER + INTRA:          -2.071
REMARK INTER:                  -2.071
REMARK INTRA:                   0.000
REMARK UNBOUND:                 0.000
REMARK SMILES CC(=O)[O-]
REMARK SMILES IDX 1 1 2 2 3 3 4 4
REMARK H PARENT
REMARK Flexibility Score: inf
ROOT
ATOM      1  C   UNL     1     -10.439   4.878   6.716  1.00  0.00     0.063 C 
ATOM      2  C   UNL     1     -10.652   4.935   5.241  1.00  0.00     0.038 C 
ATOM      3  O   UNL     1      -9.724   5.321   4.483  1.00  0.00    -0.550 OA
ATOM      4  O   UNL     1     -11.892   4.615   4.704  1.00  0.00    -0.550 OA
ENDROOT
TORSDOF 0
ENDMDL
MODEL 9
REMARK VINA RESULT:    -2.024     18.929     19.421
REMARK INTER + INTRA:          -2.024
REMARK INTER:                  -2.024
REMARK INTRA:                   0.000
REMARK UNBOUND:                 0.000
REMARK SMILES CC(=O)[O-]
REMARK SMILES IDX 1 1 2 2 3 3 4 4
REMARK H PARENT
REMARK Flexibility Score: inf
ROOT
ATOM      1  C   UNL     1      -2.975  12.753   3.425  1.00  0.00     0.063 C 
ATOM      2  C   UNL     1      -2.358  12.211   4.670  1.00  0.00     0.038 C 
ATOM      3  O   UNL     1      -1.552  11.246   4.608  1.00  0.00    -0.550 OA
ATOM      4  O   UNL     1      -2.712  12.735   5.906  1.00  0.00    -0.550 OA
ENDROOT
TORSDOF 0
ENDMDL
