MODEL 1
REMARK VINA RESULT:    13.620      0.000      0.000
REMARK INTER + INTRA:          21.003
REMARK INTER:                  21.582
REMARK INTRA:                  -0.579
REMARK UNBOUND:                -0.579
REMARK SMILES CCCCCCCCCCCC(=O)[O-]
REMARK SMILES IDX 7 1 8 2 9 3 10 4 11 5 12 6 13 7 14 8 6 9 5 10 4 11 3 12 2 13
REMARK SMILES IDX 1 14
REMARK H PARENT
REMARK Flexibility Score: inf
ROOT
ATOM      1  C   UNL     1       4.114 -17.961  12.599  1.00  0.00     0.000 C 
ENDROOT
BRANCH   1   2
ATOM      2  C   UNL     1       4.658 -17.071  13.726  1.00  0.00     0.000 C 
BRANCH   2   3
ATOM      3  C   UNL     1       4.782 -17.812  15.069  1.00  0.00     0.000 C 
BRANCH   3   4
ATOM      4  C   UNL     1       5.124 -16.919  16.280  1.00  0.00     0.006 C 
BRANCH   4   5
ATOM      5  C   UNL     1       4.747 -17.518  17.643  1.00  0.00     0.053 C 
BRANCH   5   6
ATOM      6  C   UNL     1       4.077 -16.516  18.532  1.00  0.00     0.041 C 
ATOM      7  O   UNL     1       4.478 -15.321  18.554  1.00  0.00    -0.550 OA
ATOM      8  O   UNL     1       3.034 -16.907  19.361  1.00  0.00    -0.550 OA
ENDBRANCH   5   6
ENDBRANCH   4   5
ENDBRANCH   3   4
ENDBRANCH   2   3
ENDBRANCH   1   2
BRANCH   1   9
ATOM      9  C   UNL     1       4.954 -19.236  12.450  1.00  0.00     0.000 C 
BRANCH   9  10
ATOM     10  C   UNL     1       4.069 -20.439  12.091  1.00  0.00    -0.000 C 
BRANCH  10  11
ATOM     11  C   UNL     1       2.630 -20.295  12.612  1.00  0.00    -0.000 C 
BRANCH  11  12
ATOM     12  C   UNL     1       1.614 -20.053  11.483  1.00  0.00    -0.000 C 
BRANCH  12  13
ATOM     13  C   UNL     1       0.644 -18.903  11.800  1.00  0.00    -0.003 C 
ATOM     14  C   UNL     1       0.939 -17.639  10.993  1.00  0.00     0.004 C 
ENDBRANCH  12  13
ENDBRANCH  11  12
ENDBRANCH  10  11
ENDBRANCH   9  10
ENDBRANCH   1   9
TORSDOF 10
ENDMDL
MODEL 2
REMARK VINA RESULT:    14.151     13.684     15.519
REMARK INTER + INTRA:          21.845
REMARK INTER:                  22.177
REMARK INTRA:                  -0.332
REMARK UNBOUND:                -0.579
REMARK SMILES CCCCCCCCCCCC(=O)[O-]
REMARK SMILES IDX 7 1 8 2 9 3 10 4 11 5 12 6 13 7 14 8 6 9 5 10 4 11 3 12 2 13
REMARK SMILES IDX 1 14
REMARK H PARENT
REMARK Flexibility Score: inf
ROOT
ATOM      1  C   UNL     1      -6.482 -12.901  25.417  1.00  0.00     0.000 C 
ENDROOT
BRANCH   1   2
ATOM      2  C   UNL     1      -5.391 -13.949  25.148  1.00  0.00     0.000 C 
BRANCH   2   3
ATOM      3  C   UNL     1      -5.140 -14.876  26.351  1.00  0.00     0.000 C 
BRANCH   3   4
ATOM      4  C   UNL     1      -4.456 -16.217  26.012  1.00  0.00     0.006 C 
BRANCH   4   5
ATOM      5  C   UNL     1      -5.419 -17.403  25.853  1.00  0.00     0.053 C 
BRANCH   5   6
ATOM      6  C   UNL     1      -5.239 -18.100  24.540  1.00  0.00     0.041 C 
ATOM      7  O   UNL     1      -4.573 -17.557  23.619  1.00  0.00    -0.550 OA
ATOM      8  O   UNL     1      -5.835 -19.336  24.320  1.00  0.00    -0.550 OA
ENDBRANCH   5   6
ENDBRANCH   4   5
ENDBRANCH   3   4
ENDBRANCH   2   3
ENDBRANCH   1   2
BRANCH   1   9
ATOM      9  C   UNL     1      -6.438 -11.781  24.371  1.00  0.00     0.000 C 
BRANCH   9  10
ATOM     10  C   UNL     1      -6.118 -10.429  25.025  1.00  0.00    -0.000 C 
BRANCH  10  11
ATOM     11  C   UNL     1      -5.210  -9.547  24.155  1.00  0.00    -0.000 C 
BRANCH  11  12
ATOM     12  C   UNL     1      -4.123  -8.829  24.972  1.00  0.00    -0.000 C 
BRANCH  12  13
ATOM     13  C   UNL     1      -2.939  -8.372  24.105  1.00  0.00    -0.003 C 
ATOM     14  C   UNL     1      -1.615  -9.010  24.525  1.00  0.00     0.004 C 
ENDBRANCH  12  13
ENDBRANCH  11  12
ENDBRANCH  10  11
ENDBRANCH   9  10
ENDBRANCH   1   9
TORSDOF 10
ENDMDL
MODEL 3
REMARK VINA RESULT:    14.448      1.209      2.610
REMARK INTER + INTRA:          22.316
REMARK INTER:                  22.662
REMARK INTRA:                  -0.347
REMARK UNBOUND:                -0.579
REMARK SMILES CCCCCCCCCCCC(=O)[O-]
REMARK SMILES IDX 7 1 8 2 9 3 10 4 11 5 12 6 13 7 14 8 6 9 5 10 4 11 3 12 2 13
REMARK SMILES IDX 1 14
REMARK H PARENT
REMARK Flexibility Score: inf
ROOT
ATOM      1  C   UNL     1       4.550 -17.107  12.822  1.00  0.00     0.000 C 
ENDROOT
BRANCH   1   2
ATOM      2  C   UNL     1       5.125 -16.694  14.186  1.00  0.00     0.000 C 
BRANCH   2   3
ATOM      3  C   UNL     1       4.810 -17.708  15.301  1.00  0.00     0.000 C 
BRANCH   3   4
ATOM      4  C   UNL     1       4.975 -17.170  16.738  1.00  0.00     0.006 C 
BRANCH   4   5
ATOM      5  C   UNL     1       3.726 -16.481  17.309  1.00  0.00     0.053 C 
BRANCH   5   6
ATOM      6  C   UNL     1       3.888 -16.135  18.757  1.00  0.00     0.041 C 
ATOM      7  O   UNL     1       3.272 -16.791  19.639  1.00  0.00    -0.550 OA
ATOM      8  O   UNL     1       4.692 -15.066  19.133  1.00  0.00    -0.550 OA
ENDBRANCH   5   6
ENDBRANCH   4   5
ENDBRANCH   3   4
ENDBRANCH   2   3
ENDBRANCH   1   2
BRANCH   1   9
ATOM      9  C   UNL     1       4.284 -18.616  12.772  1.00  0.00     0.000 C 
BRANCH   9  10
ATOM     10  C   UNL     1       3.094 -18.934  11.854  1.00  0.00    -0.000 C 
BRANCH  10  11
ATOM     11  C   UNL     1       2.585 -20.375  12.018  1.00  0.00    -0.000 C 
BRANCH  11  12
ATOM     12  C   UNL     1       3.726 -21.388  12.212  1.00  0.00    -0.000 C 
BRANCH  12  13
ATOM     13  C   UNL     1       4.635 -21.493  10.977  1.00  0.00    -0.003 C 
ATOM     14  C   UNL     1       5.108 -22.922  10.709  1.00  0.00     0.004 C 
ENDBRANCH  12  13
ENDBRANCH  11  12
ENDBRANCH  10  11
ENDBRANCH   9  10
ENDBRANCH   1   9
TORSDOF 10
ENDMDL
MODEL 4
REMARK VINA RESULT:    14.534     14.535     15.385
REMARK INTER + INTRA:          22.451
REMARK INTER:                  22.818
REMARK INTRA:                  -0.368
REMARK UNBOUND:                -0.579
REMARK SMILES CCCCCCCCCCCC(=O)[O-]
REMARK SMILES IDX 7 1 8 2 9 3 10 4 11 5 12 6 13 7 14 8 6 9 5 10 4 11 3 12 2 13
REMARK SMILES IDX 1 14
REMARK H PARENT
REMARK Flexibility Score: inf
ROOT
ATOM      1  C   UNL     1      -5.081  -9.217  24.129  1.00  0.00     0.000 C 
ENDROOT
BRANCH   1   2
ATOM      2  C   UNL     1      -3.849  -8.801  24.947  1.00  0.00     0.000 C 
BRANCH   2   3
ATOM      3  C   UNL     1      -2.745  -8.161  24.087  1.00  0.00     0.000 C 
BRANCH   3   4
ATOM      4  C   UNL     1      -1.365  -8.843  24.180  1.00  0.00     0.006 C 
BRANCH   4   5
ATOM      5  C   UNL     1      -0.970  -9.294  25.595  1.00  0.00     0.053 C 
BRANCH   5   6
ATOM      6  C   UNL     1       0.206  -8.530  26.120  1.00  0.00     0.041 C 
ATOM      7  O   UNL     1       0.948  -9.037  27.003  1.00  0.00    -0.550 OA
ATOM      8  O   UNL     1       0.463  -7.244  25.661  1.00  0.00    -0.550 OA
ENDBRANCH   5   6
ENDBRANCH   4   5
ENDBRANCH   3   4
ENDBRANCH   2   3
ENDBRANCH   1   2
BRANCH   1   9
ATOM      9  C   UNL     1      -5.974 -10.174  24.927  1.00  0.00     0.000 C 
BRANCH   9  10
ATOM     10  C   UNL     1      -6.169 -11.500  24.175  1.00  0.00    -0.000 C 
BRANCH  10  11
ATOM     11  C   UNL     1      -6.502 -12.671  25.113  1.00  0.00    -0.000 C 
BRANCH  11  12
ATOM     12  C   UNL     1      -5.557 -13.870  24.922  1.00  0.00    -0.000 C 
BRANCH  12  13
ATOM     13  C   UNL     1      -5.015 -14.409  26.254  1.00  0.00    -0.003 C 
ATOM     14  C   UNL     1      -4.980 -15.937  26.305  1.00  0.00     0.004 C 
ENDBRANCH  12  13
ENDBRANCH  11  12
ENDBRANCH  10  11
ENDBRANCH   9  10
ENDBRANCH   1   9
TORSDOF 10
ENDMDL
MODEL 5
REMARK VINA RESULT:    14.853     13.361     14.356
REMARK INTER + INTRA:          22.957
REMARK INTER:                  23.351
REMARK INTRA:                  -0.394
REMARK UNBOUND:                -0.579
REMARK SMILES CCCCCCCCCCCC(=O)[O-]
REMARK SMILES IDX 7 1 8 2 9 3 10 4 11 5 12 6 13 7 14 8 6 9 5 10 4 11 3 12 2 13
REMARK SMILES IDX 1 14
REMARK H PARENT
REMARK Flexibility Score: inf
ROOT
ATOM      1  C   UNL     1      -6.503 -12.655  24.824  1.00  0.00     0.000 C 
ENDROOT
BRANCH   1   2
ATOM      2  C   UNL     1      -5.494 -13.805  24.687  1.00  0.00     0.000 C 
BRANCH   2   3
ATOM      3  C   UNL     1      -5.298 -14.591  25.995  1.00  0.00     0.000 C 
BRANCH   3   4
ATOM      4  C   UNL     1      -4.477 -15.891  25.861  1.00  0.00     0.006 C 
BRANCH   4   5
ATOM      5  C   UNL     1      -5.297 -17.182  26.003  1.00  0.00     0.053 C 
BRANCH   5   6
ATOM      6  C   UNL     1      -5.232 -18.027  24.768  1.00  0.00     0.041 C 
ATOM      7  O   UNL     1      -5.723 -19.187  24.767  1.00  0.00    -0.550 OA
ATOM      8  O   UNL     1      -4.599 -17.548  23.628  1.00  0.00    -0.550 OA
ENDBRANCH   5   6
ENDBRANCH   4   5
ENDBRANCH   3   4
ENDBRANCH   2   3
ENDBRANCH   1   2
BRANCH   1   9
ATOM      9  C   UNL     1      -6.894 -12.099  23.450  1.00  0.00     0.000 C 
BRANCH   9  10
ATOM     10  C   UNL     1      -7.251 -13.234  22.479  1.00  0.00    -0.000 C 
BRANCH  10  11
ATOM     11  C   UNL     1      -8.383 -12.854  21.511  1.00  0.00    -0.000 C 
BRANCH  11  12
ATOM     12  C   UNL     1      -8.757 -14.002  20.558  1.00  0.00    -0.000 C 
BRANCH  12  13
ATOM     13  C   UNL     1      -8.526 -13.641  19.082  1.00  0.00    -0.003 C 
ATOM     14  C   UNL     1      -9.259 -14.577  18.121  1.00  0.00     0.004 C 
ENDBRANCH  12  13
ENDBRANCH  11  12
ENDBRANCH  10  11
ENDBRANCH   9  10
ENDBRANCH   1   9
TORSDOF 10
ENDMDL
MODEL 6
REMARK VINA RESULT:    14.926     13.488     15.687
REMARK INTER + INTRA:          23.073
REMARK INTER:                  23.737
REMARK INTRA:                  -0.664
REMARK UNBOUND:                -0.579
REMARK SMILES CCCCCCCCCCCC(=O)[O-]
REMARK SMILES IDX 7 1 8 2 9 3 10 4 11 5 12 6 13 7 14 8 6 9 5 10 4 11 3 12 2 13
REMARK SMILES IDX 1 14
REMARK H PARENT
REMARK Flexibility Score: inf
ROOT
ATOM      1  C   UNL     1      -1.612  -8.917  23.699  1.00  0.00     0.000 C 
ENDROOT
BRANCH   1   2
ATOM      2  C   UNL     1      -2.016  -7.490  23.300  1.00  0.00     0.000 C 
BRANCH   2   3
ATOM      3  C   UNL     1      -3.513  -7.360  22.968  1.00  0.00     0.000 C 
BRANCH   3   4
ATOM      4  C   UNL     1      -3.827  -6.890  21.532  1.00  0.00     0.006 C 
BRANCH   4   5
ATOM      5  C   UNL     1      -2.751  -7.246  20.495  1.00  0.00     0.053 C 
BRANCH   5   6
ATOM      6  C   UNL     1      -3.345  -7.819  19.245  1.00  0.00     0.041 C 
ATOM      7  O   UNL     1      -4.521  -7.519  18.906  1.00  0.00    -0.550 OA
ATOM      8  O   UNL     1      -2.613  -8.711  18.471  1.00  0.00    -0.550 OA
ENDBRANCH   5   6
ENDBRANCH   4   5
ENDBRANCH   3   4
ENDBRANCH   2   3
ENDBRANCH   1   2
BRANCH   1   9
ATOM      9  C   UNL     1      -1.771  -9.131  25.210  1.00  0.00     0.000 C 
BRANCH   9  10
ATOM     10  C   UNL     1      -0.729 -10.128  25.736  1.00  0.00    -0.000 C 
BRANCH  10  11
ATOM     11  C   UNL     1       0.595  -9.453  26.129  1.00  0.00    -0.000 C 
BRANCH  11  12
ATOM     12  C   UNL     1       0.394  -8.277  27.101  1.00  0.00    -0.000 C 
BRANCH  12  13
ATOM     13  C   UNL     1       0.378  -6.918  26.385  1.00  0.00    -0.003 C 
ATOM     14  C   UNL     1       1.305  -6.876  25.170  1.00  0.00     0.004 C 
ENDBRANCH  12  13
ENDBRANCH  11  12
ENDBRANCH  10  11
ENDBRANCH   9  10
ENDBRANCH   1   9
TORSDOF 10
ENDMDL
MODEL 7
REMARK VINA RESULT:    14.958     14.736     16.199
REMARK INTER + INTRA:          23.123
REMARK INTER:                  23.678
REMARK INTRA:                  -0.554
REMARK UNBOUND:                -0.579
REMARK SMILES CCCCCCCCCCCC(=O)[O-]
REMARK SMILES IDX 7 1 8 2 9 3 10 4 11 5 12 6 13 7 14 8 6 9 5 10 4 11 3 12 2 13
REMARK SMILES IDX 1 14
REMARK H PARENT
REMARK Flexibility Score: inf
ROOT
ATOM      1  C   UNL     1      -3.106  -8.030  23.881  1.00  0.00     0.000 C 
ENDROOT
BRANCH   1   2
ATOM      2  C   UNL     1      -3.867  -8.822  24.955  1.00  0.00     0.000 C 
BRANCH   2   3
ATOM      3  C   UNL     1      -5.395  -8.666  24.845  1.00  0.00     0.000 C 
BRANCH   3   4
ATOM      4  C   UNL     1      -6.189  -9.989  24.842  1.00  0.00     0.006 C 
BRANCH   4   5
ATOM      5  C   UNL     1      -5.844 -10.937  23.684  1.00  0.00     0.053 C 
BRANCH   5   6
ATOM      6  C   UNL     1      -6.542 -12.256  23.812  1.00  0.00     0.041 C 
ATOM      7  O   UNL     1      -7.313 -12.657  22.900  1.00  0.00    -0.550 OA
ATOM      8  O   UNL     1      -6.368 -13.029  24.954  1.00  0.00    -0.550 OA
ENDBRANCH   5   6
ENDBRANCH   4   5
ENDBRANCH   3   4
ENDBRANCH   2   3
ENDBRANCH   1   2
BRANCH   1   9
ATOM      9  C   UNL     1      -1.599  -8.299  23.965  1.00  0.00     0.000 C 
BRANCH   9  10
ATOM     10  C   UNL     1      -1.301  -9.476  24.906  1.00  0.00    -0.000 C 
BRANCH  10  11
ATOM     11  C   UNL     1       0.128  -9.439  25.470  1.00  0.00    -0.000 C 
BRANCH  11  12
ATOM     12  C   UNL     1       0.206  -8.739  26.838  1.00  0.00    -0.000 C 
BRANCH  12  13
ATOM     13  C   UNL     1       0.495  -7.235  26.713  1.00  0.00    -0.003 C 
ATOM     14  C   UNL     1       1.219  -6.875  25.416  1.00  0.00     0.004 C 
ENDBRANCH  12  13
ENDBRANCH  11  12
ENDBRANCH  10  11
ENDBRANCH   9  10
ENDBRANCH   1   9
TORSDOF 10
ENDMDL
MODEL 8
REMARK VINA RESULT:    15.036     13.997     15.261
REMARK INTER + INTRA:          23.247
REMARK INTER:                  23.772
REMARK INTRA:                  -0.525
REMARK UNBOUND:                -0.579
REMARK SMILES CCCCCCCCCCCC(=O)[O-]
REMARK SMILES IDX 7 1 8 2 9 3 10 4 11 5 12 6 13 7 14 8 6 9 5 10 4 11 3 12 2 13
REMARK SMILES IDX 1 14
REMARK H PARENT
REMARK Flexibility Score: inf
ROOT
ATOM      1  C   UNL     1      -2.501  -9.215  24.724  1.00  0.00     0.000 C 
ENDROOT
BRANCH   1   2
ATOM      2  C   UNL     1      -3.835  -8.490  24.490  1.00  0.00     0.000 C 
BRANCH   2   3
ATOM      3  C   UNL     1      -4.971  -9.019  25.384  1.00  0.00     0.000 C 
BRANCH   3   4
ATOM      4  C   UNL     1      -6.099  -9.761  24.637  1.00  0.00     0.006 C 
BRANCH   4   5
ATOM      5  C   UNL     1      -5.632 -10.970  23.814  1.00  0.00     0.053 C 
BRANCH   5   6
ATOM      6  C   UNL     1      -6.573 -12.129  23.934  1.00  0.00     0.041 C 
ATOM      7  O   UNL     1      -6.647 -12.777  25.012  1.00  0.00    -0.550 OA
ATOM      8  O   UNL     1      -7.345 -12.516  22.845  1.00  0.00    -0.550 OA
ENDBRANCH   5   6
ENDBRANCH   4   5
ENDBRANCH   3   4
ENDBRANCH   2   3
ENDBRANCH   1   2
BRANCH   1   9
ATOM      9  C   UNL     1      -1.406  -8.662  23.805  1.00  0.00     0.000 C 
BRANCH   9  10
ATOM     10  C   UNL     1      -1.902  -7.426  23.040  1.00  0.00    -0.000 C 
BRANCH  10  11
ATOM     11  C   UNL     1      -1.901  -7.631  21.516  1.00  0.00    -0.000 C 
BRANCH  11  12
ATOM     12  C   UNL     1      -3.048  -6.880  20.818  1.00  0.00    -0.000 C 
BRANCH  12  13
ATOM     13  C   UNL     1      -3.166  -7.240  19.329  1.00  0.00    -0.003 C 
ATOM     14  C   UNL     1      -4.498  -7.904  18.982  1.00  0.00     0.004 C 
ENDBRANCH  12  13
ENDBRANCH  11  12
ENDBRANCH  10  11
ENDBRANCH   9  10
ENDBRANCH   1   9
TORSDOF 10
ENDMDL
