MODEL 1
REMARK VINA RESULT:    -7.603      0.000      0.000
REMARK INTER + INTRA:          -9.484
REMARK INTER:                  -9.159
REMARK INTRA:                  -0.325
REMARK UNBOUND:                -0.325
REMARK SMILES O=c1c(O)c(-c2ccc(O)c(O)c2)oc2cc(O)cc(O)c12
REMARK SMILES IDX 5 1 3 2 2 3 1 4 22 5 20 6 19 7 17 8 16 9 15 10 14 11 6 12
REMARK SMILES IDX 7 13 8 14 9 15 13 16 11 17 10 18 12 20 4 22 21 24 18 26
REMARK H PARENT 10 19 12 21 4 23 21 25 18 27
REMARK Flexibility Score: inf
ROOT
ATOM      1  C   UNL     1      23.942 -25.404  27.459  1.00  0.00     0.180 A 
ATOM      2  C   UNL     1      22.876 -25.393  26.543  1.00  0.00     0.208 A 
ATOM      3  C   UNL     1      23.019 -24.682  25.341  1.00  0.00     0.238 A 
ATOM      4  O   UNL     1      22.041 -24.630  24.549  1.00  0.00    -0.285 OA
ATOM      5  C   UNL     1      24.231 -24.004  25.063  1.00  0.00     0.111 A 
ATOM      6  C   UNL     1      24.499 -23.286  23.859  1.00  0.00     0.134 A 
ATOM      7  C   UNL     1      25.682 -22.546  23.747  1.00  0.00     0.093 A 
ATOM      8  C   UNL     1      26.635 -22.551  24.768  1.00  0.00     0.123 A 
ATOM      9  C   UNL     1      26.409 -23.297  25.922  1.00  0.00     0.094 A 
ATOM     10  C   UNL     1      25.222 -24.017  26.079  1.00  0.00     0.146 A 
ATOM     11  O   UNL     1      25.041 -24.706  27.199  1.00  0.00    -0.452 OA
ENDROOT
BRANCH   1  12
ATOM     12  C   UNL     1      23.875 -26.153  28.736  1.00  0.00     0.025 A 
ATOM     13  C   UNL     1      23.368 -25.521  29.880  1.00  0.00     0.016 A 
ATOM     14  C   UNL     1      23.315 -26.201  31.098  1.00  0.00     0.051 A 
ATOM     15  C   UNL     1      23.779 -27.516  31.202  1.00  0.00     0.157 A 
ATOM     16  C   UNL     1      24.364 -27.466  28.842  1.00  0.00     0.062 A 
ATOM     17  C   UNL     1      24.318 -28.155  30.061  1.00  0.00     0.158 A 
BRANCH  15  18
ATOM     18  O   UNL     1      23.691 -28.142  32.447  1.00  0.00    -0.504 OA
ATOM     19  H   UNL     1      22.821 -28.313  32.932  1.00  0.00     0.293 HD
ENDBRANCH  15  18
BRANCH  17  20
ATOM     20  O   UNL     1      24.819 -29.458  30.091  1.00  0.00    -0.504 OA
ATOM     21  H   UNL     1      24.830 -30.039  30.917  1.00  0.00     0.293 HD
ENDBRANCH  17  20
ENDBRANCH   1  12
BRANCH   2  22
ATOM     22  O   UNL     1      21.681 -26.050  26.847  1.00  0.00    -0.502 OA
ATOM     23  H   UNL     1      21.000 -26.297  26.139  1.00  0.00     0.293 HD
ENDBRANCH   2  22
BRANCH   6  24
ATOM     24  O   UNL     1      23.657 -23.290  22.743  1.00  0.00    -0.507 OA
ATOM     25  H   UNL     1      23.187 -24.106  22.381  1.00  0.00     0.293 HD
ENDBRANCH   6  24
BRANCH   8  26
ATOM     26  O   UNL     1      27.817 -21.823  24.641  1.00  0.00    -0.508 OA
ATOM     27  H   UNL     1      27.955 -20.948  25.132  1.00  0.00     0.293 HD
ENDBRANCH   8  26
TORSDOF 6
ENDMDL
MODEL 2
REMARK VINA RESULT:    -7.308      3.699      6.628
REMARK INTER + INTRA:          -9.128
REMARK INTER:                  -8.808
REMARK INTRA:                  -0.321
REMARK UNBOUND:                -0.325
REMARK SMILES O=c1c(O)c(-c2ccc(O)c(O)c2)oc2cc(O)cc(O)c12
REMARK SMILES IDX 5 1 3 2 2 3 1 4 22 5 20 6 19 7 17 8 16 9 15 10 14 11 6 12
REMARK SMILES IDX 7 13 8 14 9 15 13 16 11 17 10 18 12 20 4 22 21 24 18 26
REMARK H PARENT 10 19 12 21 4 23 21 25 18 27
REMARK Flexibility Score: inf
ROOT
ATOM      1  C   UNL     1      27.313 -22.535  23.993  1.00  0.00     0.180 A 
ATOM      2  C   UNL     1      28.224 -23.544  23.634  1.00  0.00     0.208 A 
ATOM      3  C   UNL     1      29.455 -23.180  23.065  1.00  0.00     0.238 A 
ATOM      4  O   UNL     1      30.243 -24.089  22.696  1.00  0.00    -0.285 OA
ATOM      5  C   UNL     1      29.766 -21.811  22.879  1.00  0.00     0.111 A 
ATOM      6  C   UNL     1      31.000 -21.327  22.349  1.00  0.00     0.134 A 
ATOM      7  C   UNL     1      31.149 -19.960  22.087  1.00  0.00     0.093 A 
ATOM      8  C   UNL     1      30.133 -19.052  22.396  1.00  0.00     0.123 A 
ATOM      9  C   UNL     1      28.948 -19.508  22.968  1.00  0.00     0.094 A 
ATOM     10  C   UNL     1      28.755 -20.871  23.208  1.00  0.00     0.146 A 
ATOM     11  O   UNL     1      27.608 -21.265  23.745  1.00  0.00    -0.452 OA
ENDROOT
BRANCH   1  12
ATOM     12  C   UNL     1      26.006 -22.841  24.620  1.00  0.00     0.025 A 
ATOM     13  C   UNL     1      25.931 -23.011  26.010  1.00  0.00     0.016 A 
ATOM     14  C   UNL     1      24.713 -23.319  26.619  1.00  0.00     0.051 A 
ATOM     15  C   UNL     1      23.553 -23.479  25.855  1.00  0.00     0.157 A 
ATOM     16  C   UNL     1      24.847 -23.022  23.847  1.00  0.00     0.062 A 
ATOM     17  C   UNL     1      23.621 -23.335  24.449  1.00  0.00     0.158 A 
BRANCH  15  18
ATOM     18  O   UNL     1      22.366 -23.779  26.526  1.00  0.00    -0.504 OA
ATOM     19  H   UNL     1      22.319 -24.338  27.367  1.00  0.00     0.293 HD
ENDBRANCH  15  18
BRANCH  17  20
ATOM     20  O   UNL     1      22.511 -23.500  23.618  1.00  0.00    -0.504 OA
ATOM     21  H   UNL     1      22.058 -24.387  23.451  1.00  0.00     0.293 HD
ENDBRANCH  17  20
ENDBRANCH   1  12
BRANCH   2  22
ATOM     22  O   UNL     1      27.886 -24.890  23.807  1.00  0.00    -0.502 OA
ATOM     23  H   UNL     1      26.956 -25.186  24.076  1.00  0.00     0.293 HD
ENDBRANCH   2  22
BRANCH   6  24
ATOM     24  O   UNL     1      32.111 -22.136  22.092  1.00  0.00    -0.507 OA
ATOM     25  H   UNL     1      32.089 -23.144  22.044  1.00  0.00     0.293 HD
ENDBRANCH   6  24
BRANCH   8  26
ATOM     26  O   UNL     1      30.296 -17.691  22.146  1.00  0.00    -0.508 OA
ATOM     27  H   UNL     1      29.517 -17.045  22.202  1.00  0.00     0.293 HD
ENDBRANCH   8  26
TORSDOF 6
ENDMDL
MODEL 3
REMARK VINA RESULT:    -7.140      1.820      7.128
REMARK INTER + INTRA:          -8.926
REMARK INTER:                  -8.605
REMARK INTRA:                  -0.321
REMARK UNBOUND:                -0.325
REMARK SMILES O=c1c(O)c(-c2ccc(O)c(O)c2)oc2cc(O)cc(O)c12
REMARK SMILES IDX 5 1 3 2 2 3 1 4 22 5 20 6 19 7 17 8 16 9 15 10 14 11 6 12
REMARK SMILES IDX 7 13 8 14 9 15 13 16 11 17 10 18 12 20 4 22 21 24 18 26
REMARK H PARENT 10 19 12 21 4 23 21 25 18 27
REMARK Flexibility Score: inf
ROOT
ATOM      1  C   UNL     1      25.663 -23.529  24.813  1.00  0.00     0.180 A 
ATOM      2  C   UNL     1      24.518 -23.931  24.105  1.00  0.00     0.208 A 
ATOM      3  C   UNL     1      23.523 -24.659  24.775  1.00  0.00     0.238 A 
ATOM      4  O   UNL     1      22.525 -25.064  24.123  1.00  0.00    -0.285 OA
ATOM      5  C   UNL     1      23.677 -24.961  26.150  1.00  0.00     0.111 A 
ATOM      6  C   UNL     1      22.714 -25.658  26.939  1.00  0.00     0.134 A 
ATOM      7  C   UNL     1      23.028 -26.016  28.256  1.00  0.00     0.093 A 
ATOM      8  C   UNL     1      24.246 -25.645  28.832  1.00  0.00     0.123 A 
ATOM      9  C   UNL     1      25.168 -24.914  28.088  1.00  0.00     0.094 A 
ATOM     10  C   UNL     1      24.899 -24.573  26.761  1.00  0.00     0.146 A 
ATOM     11  O   UNL     1      25.809 -23.884  26.084  1.00  0.00    -0.452 OA
ENDROOT
BRANCH   1  12
ATOM     12  C   UNL     1      26.743 -22.737  24.180  1.00  0.00     0.025 A 
ATOM     13  C   UNL     1      27.911 -23.383  23.751  1.00  0.00     0.016 A 
ATOM     14  C   UNL     1      28.950 -22.653  23.171  1.00  0.00     0.051 A 
ATOM     15  C   UNL     1      28.851 -21.266  23.020  1.00  0.00     0.157 A 
ATOM     16  C   UNL     1      26.650 -21.341  24.052  1.00  0.00     0.062 A 
ATOM     17  C   UNL     1      27.689 -20.600  23.473  1.00  0.00     0.158 A 
BRANCH  15  18
ATOM     18  O   UNL     1      29.922 -20.597  22.425  1.00  0.00    -0.504 OA
ATOM     19  H   UNL     1      30.690 -21.061  21.959  1.00  0.00     0.293 HD
ENDBRANCH  15  18
BRANCH  17  20
ATOM     20  O   UNL     1      27.525 -19.217  23.376  1.00  0.00    -0.504 OA
ATOM     21  H   UNL     1      28.291 -18.558  23.353  1.00  0.00     0.293 HD
ENDBRANCH  17  20
ENDBRANCH   1  12
BRANCH   2  22
ATOM     22  O   UNL     1      24.396 -23.641  22.743  1.00  0.00    -0.502 OA
ATOM     23  H   UNL     1      24.068 -22.744  22.405  1.00  0.00     0.293 HD
ENDBRANCH   2  22
BRANCH   6  24
ATOM     24  O   UNL     1      21.433 -25.994  26.491  1.00  0.00    -0.507 OA
ATOM     25  H   UNL     1      20.839 -26.690  26.916  1.00  0.00     0.293 HD
ENDBRANCH   6  24
BRANCH   8  26
ATOM     26  O   UNL     1      24.545 -25.993  30.148  1.00  0.00    -0.508 OA
ATOM     27  H   UNL     1      25.454 -26.357  30.406  1.00  0.00     0.293 HD
ENDBRANCH   8  26
TORSDOF 6
ENDMDL
MODEL 4
REMARK VINA RESULT:    -7.030      3.109      3.440
REMARK INTER + INTRA:          -8.794
REMARK INTER:                  -8.674
REMARK INTRA:                  -0.120
REMARK UNBOUND:                -0.325
REMARK SMILES O=c1c(O)c(-c2ccc(O)c(O)c2)oc2cc(O)cc(O)c12
REMARK SMILES IDX 5 1 3 2 2 3 1 4 22 5 20 6 19 7 17 8 16 9 15 10 14 11 6 12
REMARK SMILES IDX 7 13 8 14 9 15 13 16 11 17 10 18 12 20 4 22 21 24 18 26
REMARK H PARENT 10 19 12 21 4 23 21 25 18 27
REMARK Flexibility Score: inf
ROOT
ATOM      1  C   UNL     1      23.099 -25.109  29.070  1.00  0.00     0.180 A 
ATOM      2  C   UNL     1      22.311 -25.143  27.906  1.00  0.00     0.208 A 
ATOM      3  C   UNL     1      21.931 -23.932  27.305  1.00  0.00     0.238 A 
ATOM      4  O   UNL     1      21.181 -23.968  26.295  1.00  0.00    -0.285 OA
ATOM      5  C   UNL     1      22.358 -22.704  27.866  1.00  0.00     0.111 A 
ATOM      6  C   UNL     1      22.066 -21.419  27.317  1.00  0.00     0.134 A 
ATOM      7  C   UNL     1      22.428 -20.267  28.027  1.00  0.00     0.093 A 
ATOM      8  C   UNL     1      23.128 -20.354  29.232  1.00  0.00     0.123 A 
ATOM      9  C   UNL     1      23.470 -21.603  29.745  1.00  0.00     0.094 A 
ATOM     10  C   UNL     1      23.091 -22.771  29.079  1.00  0.00     0.146 A 
ATOM     11  O   UNL     1      23.427 -23.941  29.608  1.00  0.00    -0.452 OA
ENDROOT
BRANCH   1  12
ATOM     12  C   UNL     1      23.559 -26.345  29.745  1.00  0.00     0.025 A 
ATOM     13  C   UNL     1      23.263 -26.540  31.102  1.00  0.00     0.016 A 
ATOM     14  C   UNL     1      23.704 -27.687  31.763  1.00  0.00     0.051 A 
ATOM     15  C   UNL     1      24.460 -28.653  31.090  1.00  0.00     0.157 A 
ATOM     16  C   UNL     1      24.336 -27.302  29.072  1.00  0.00     0.062 A 
ATOM     17  C   UNL     1      24.786 -28.455  29.729  1.00  0.00     0.158 A 
BRANCH  15  18
ATOM     18  O   UNL     1      24.864 -29.781  31.807  1.00  0.00    -0.504 OA
ATOM     19  H   UNL     1      24.225 -30.421  32.259  1.00  0.00     0.293 HD
ENDBRANCH  15  18
BRANCH  17  20
ATOM     20  O   UNL     1      25.553 -29.364  28.996  1.00  0.00    -0.504 OA
ATOM     21  H   UNL     1      26.448 -29.143  28.582  1.00  0.00     0.293 HD
ENDBRANCH  17  20
ENDBRANCH   1  12
BRANCH   2  22
ATOM     22  O   UNL     1      21.883 -26.366  27.382  1.00  0.00    -0.502 OA
ATOM     23  H   UNL     1      21.461 -27.086  27.956  1.00  0.00     0.293 HD
ENDBRANCH   2  22
BRANCH   6  24
ATOM     24  O   UNL     1      21.453 -21.221  26.077  1.00  0.00    -0.507 OA
ATOM     25  H   UNL     1      21.553 -21.833  25.281  1.00  0.00     0.293 HD
ENDBRANCH   6  24
BRANCH   8  26
ATOM     26  O   UNL     1      23.498 -19.203  29.924  1.00  0.00    -0.508 OA
ATOM     27  H   UNL     1      24.458 -19.034  30.198  1.00  0.00     0.293 HD
ENDBRANCH   8  26
TORSDOF 6
ENDMDL
MODEL 5
REMARK VINA RESULT:    -7.028      1.860      6.800
REMARK INTER + INTRA:          -8.791
REMARK INTER:                  -8.469
REMARK INTRA:                  -0.322
REMARK UNBOUND:                -0.325
REMARK SMILES O=c1c(O)c(-c2ccc(O)c(O)c2)oc2cc(O)cc(O)c12
REMARK SMILES IDX 5 1 3 2 2 3 1 4 22 5 20 6 19 7 17 8 16 9 15 10 14 11 6 12
REMARK SMILES IDX 7 13 8 14 9 15 13 16 11 17 10 18 12 20 4 22 21 24 18 26
REMARK H PARENT 10 19 12 21 4 23 21 25 18 27
REMARK Flexibility Score: inf
ROOT
ATOM      1  C   UNL     1      25.725 -23.842  24.915  1.00  0.00     0.180 A 
ATOM      2  C   UNL     1      24.603 -24.146  24.123  1.00  0.00     0.208 A 
ATOM      3  C   UNL     1      23.493 -24.761  24.723  1.00  0.00     0.238 A 
ATOM      4  O   UNL     1      22.514 -25.079  23.999  1.00  0.00    -0.285 OA
ATOM      5  C   UNL     1      23.511 -25.050  26.109  1.00  0.00     0.111 A 
ATOM      6  C   UNL     1      22.426 -25.634  26.828  1.00  0.00     0.134 A 
ATOM      7  C   UNL     1      22.602 -25.995  28.170  1.00  0.00     0.093 A 
ATOM      8  C   UNL     1      23.803 -25.733  28.835  1.00  0.00     0.123 A 
ATOM      9  C   UNL     1      24.847 -25.108  28.157  1.00  0.00     0.094 A 
ATOM     10  C   UNL     1      24.714 -24.769  26.808  1.00  0.00     0.146 A 
ATOM     11  O   UNL     1      25.737 -24.185  26.197  1.00  0.00    -0.452 OA
ENDROOT
BRANCH   1  12
ATOM     12  C   UNL     1      26.923 -23.171  24.359  1.00  0.00     0.025 A 
ATOM     13  C   UNL     1      26.992 -21.771  24.360  1.00  0.00     0.016 A 
ATOM     14  C   UNL     1      28.103 -21.118  23.822  1.00  0.00     0.051 A 
ATOM     15  C   UNL     1      29.157 -21.846  23.261  1.00  0.00     0.157 A 
ATOM     16  C   UNL     1      27.969 -23.905  23.776  1.00  0.00     0.062 A 
ATOM     17  C   UNL     1      29.086 -23.258  23.231  1.00  0.00     0.158 A 
BRANCH  15  18
ATOM     18  O   UNL     1      30.241 -21.133  22.748  1.00  0.00    -0.504 OA
ATOM     19  H   UNL     1      31.204 -21.426  22.839  1.00  0.00     0.293 HD
ENDBRANCH  15  18
BRANCH  17  20
ATOM     20  O   UNL     1      30.089 -24.052  22.670  1.00  0.00    -0.504 OA
ATOM     21  H   UNL     1      30.394 -24.933  23.058  1.00  0.00     0.293 HD
ENDBRANCH  17  20
ENDBRANCH   1  12
BRANCH   2  22
ATOM     22  O   UNL     1      24.616 -23.872  22.753  1.00  0.00    -0.502 OA
ATOM     23  H   UNL     1      25.346 -23.324  22.314  1.00  0.00     0.293 HD
ENDBRANCH   2  22
BRANCH   6  24
ATOM     24  O   UNL     1      21.157 -25.854  26.285  1.00  0.00    -0.507 OA
ATOM     25  H   UNL     1      20.355 -26.173  26.807  1.00  0.00     0.293 HD
ENDBRANCH   6  24
BRANCH   8  26
ATOM     26  O   UNL     1      23.964 -26.082  30.174  1.00  0.00    -0.508 OA
ATOM     27  H   UNL     1      24.442 -26.932  30.446  1.00  0.00     0.293 HD
ENDBRANCH   8  26
TORSDOF 6
ENDMDL
MODEL 6
REMARK VINA RESULT:    -7.018      5.250      7.366
REMARK INTER + INTRA:          -8.779
REMARK INTER:                  -8.444
REMARK INTRA:                  -0.335
REMARK UNBOUND:                -0.325
REMARK SMILES O=c1c(O)c(-c2ccc(O)c(O)c2)oc2cc(O)cc(O)c12
REMARK SMILES IDX 5 1 3 2 2 3 1 4 22 5 20 6 19 7 17 8 16 9 15 10 14 11 6 12
REMARK SMILES IDX 7 13 8 14 9 15 13 16 11 17 10 18 12 20 4 22 21 24 18 26
REMARK H PARENT 10 19 12 21 4 23 21 25 18 27
REMARK Flexibility Score: inf
ROOT
ATOM      1  C   UNL     1      22.485 -21.310  26.785  1.00  0.00     0.180 A 
ATOM      2  C   UNL     1      22.969 -21.551  28.083  1.00  0.00     0.208 A 
ATOM      3  C   UNL     1      22.709 -20.612  29.093  1.00  0.00     0.238 A 
ATOM      4  O   UNL     1      23.191 -20.807  30.239  1.00  0.00    -0.285 OA
ATOM      5  C   UNL     1      21.953 -19.451  28.798  1.00  0.00     0.111 A 
ATOM      6  C   UNL     1      21.595 -18.454  29.753  1.00  0.00     0.134 A 
ATOM      7  C   UNL     1      20.957 -17.284  29.323  1.00  0.00     0.093 A 
ATOM      8  C   UNL     1      20.607 -17.105  27.982  1.00  0.00     0.123 A 
ATOM      9  C   UNL     1      20.899 -18.100  27.053  1.00  0.00     0.094 A 
ATOM     10  C   UNL     1      21.567 -19.263  27.444  1.00  0.00     0.146 A 
ATOM     11  O   UNL     1      21.836 -20.181  26.525  1.00  0.00    -0.452 OA
ENDROOT
BRANCH   1  12
ATOM     12  C   UNL     1      22.699 -22.266  25.674  1.00  0.00     0.025 A 
ATOM     13  C   UNL     1      23.801 -22.099  24.824  1.00  0.00     0.016 A 
ATOM     14  C   UNL     1      24.010 -22.977  23.758  1.00  0.00     0.051 A 
ATOM     15  C   UNL     1      23.118 -24.026  23.512  1.00  0.00     0.157 A 
ATOM     16  C   UNL     1      21.788 -23.304  25.416  1.00  0.00     0.062 A 
ATOM     17  C   UNL     1      21.988 -24.188  24.347  1.00  0.00     0.158 A 
BRANCH  15  18
ATOM     18  O   UNL     1      23.388 -24.872  22.435  1.00  0.00    -0.504 OA
ATOM     19  H   UNL     1      23.912 -24.595  21.616  1.00  0.00     0.293 HD
ENDBRANCH  15  18
BRANCH  17  20
ATOM     20  O   UNL     1      21.043 -25.197  24.152  1.00  0.00    -0.504 OA
ATOM     21  H   UNL     1      20.259 -25.122  23.519  1.00  0.00     0.293 HD
ENDBRANCH  17  20
ENDBRANCH   1  12
BRANCH   2  22
ATOM     22  O   UNL     1      23.732 -22.692  28.347  1.00  0.00    -0.502 OA
ATOM     23  H   UNL     1      23.949 -22.995  29.289  1.00  0.00     0.293 HD
ENDBRANCH   2  22
BRANCH   6  24
ATOM     24  O   UNL     1      21.815 -18.575  31.128  1.00  0.00    -0.507 OA
ATOM     25  H   UNL     1      22.713 -18.751  31.554  1.00  0.00     0.293 HD
ENDBRANCH   6  24
BRANCH   8  26
ATOM     26  O   UNL     1      19.959 -15.944  27.565  1.00  0.00    -0.508 OA
ATOM     27  H   UNL     1      20.248 -15.446  26.733  1.00  0.00     0.293 HD
ENDBRANCH   8  26
TORSDOF 6
ENDMDL
MODEL 7
REMARK VINA RESULT:    -6.958      2.328      2.855
REMARK INTER + INTRA:          -8.706
REMARK INTER:                  -9.143
REMARK INTRA:                   0.436
REMARK UNBOUND:                -0.325
REMARK SMILES O=c1c(O)c(-c2ccc(O)c(O)c2)oc2cc(O)cc(O)c12
REMARK SMILES IDX 5 1 3 2 2 3 1 4 22 5 20 6 19 7 17 8 16 9 15 10 14 11 6 12
REMARK SMILES IDX 7 13 8 14 9 15 13 16 11 17 10 18 12 20 4 22 21 24 18 26
REMARK H PARENT 10 19 12 21 4 23 21 25 18 27
REMARK Flexibility Score: inf
ROOT
ATOM      1  C   UNL     1      23.493 -25.697  28.222  1.00  0.00     0.180 A 
ATOM      2  C   UNL     1      22.883 -24.516  28.679  1.00  0.00     0.208 A 
ATOM      3  C   UNL     1      22.409 -23.587  27.739  1.00  0.00     0.238 A 
ATOM      4  O   UNL     1      21.913 -22.507  28.153  1.00  0.00    -0.285 OA
ATOM      5  C   UNL     1      22.537 -23.858  26.355  1.00  0.00     0.111 A 
ATOM      6  C   UNL     1      22.056 -23.006  25.315  1.00  0.00     0.134 A 
ATOM      7  C   UNL     1      22.353 -23.310  23.981  1.00  0.00     0.093 A 
ATOM      8  C   UNL     1      23.057 -24.470  23.646  1.00  0.00     0.123 A 
ATOM      9  C   UNL     1      23.478 -25.338  24.650  1.00  0.00     0.094 A 
ATOM     10  C   UNL     1      23.229 -25.043  25.993  1.00  0.00     0.146 A 
ATOM     11  O   UNL     1      23.657 -25.891  26.919  1.00  0.00    -0.452 OA
ENDROOT
BRANCH   1  12
ATOM     12  C   UNL     1      23.995 -26.735  29.153  1.00  0.00     0.025 A 
ATOM     13  C   UNL     1      23.522 -26.764  30.472  1.00  0.00     0.016 A 
ATOM     14  C   UNL     1      23.997 -27.721  31.371  1.00  0.00     0.051 A 
ATOM     15  C   UNL     1      24.960 -28.655  30.977  1.00  0.00     0.157 A 
ATOM     16  C   UNL     1      24.979 -27.657  28.760  1.00  0.00     0.062 A 
ATOM     17  C   UNL     1      25.463 -28.619  29.656  1.00  0.00     0.158 A 
BRANCH  15  18
ATOM     18  O   UNL     1      25.387 -29.590  31.922  1.00  0.00    -0.504 OA
ATOM     19  H   UNL     1      25.440 -30.585  31.749  1.00  0.00     0.293 HD
ENDBRANCH  15  18
BRANCH  17  20
ATOM     20  O   UNL     1      26.440 -29.504  29.195  1.00  0.00    -0.504 OA
ATOM     21  H   UNL     1      26.595 -30.425  29.582  1.00  0.00     0.293 HD
ENDBRANCH  17  20
ENDBRANCH   1  12
BRANCH   2  22
ATOM     22  O   UNL     1      22.787 -24.259  30.049  1.00  0.00    -0.502 OA
ATOM     23  H   UNL     1      22.520 -24.971  30.718  1.00  0.00     0.293 HD
ENDBRANCH   2  22
BRANCH   6  24
ATOM     24  O   UNL     1      21.266 -21.874  25.536  1.00  0.00    -0.507 OA
ATOM     25  H   UNL     1      20.455 -21.847  26.136  1.00  0.00     0.293 HD
ENDBRANCH   6  24
BRANCH   8  26
ATOM     26  O   UNL     1      23.334 -24.772  22.315  1.00  0.00    -0.508 OA
ATOM     27  H   UNL     1      24.285 -24.826  21.971  1.00  0.00     0.293 HD
ENDBRANCH   8  26
TORSDOF 6
ENDMDL
MODEL 8
REMARK VINA RESULT:    -6.911      4.848      6.758
REMARK INTER + INTRA:          -8.650
REMARK INTER:                  -8.513
REMARK INTRA:                  -0.137
REMARK UNBOUND:                -0.325
REMARK SMILES O=c1c(O)c(-c2ccc(O)c(O)c2)oc2cc(O)cc(O)c12
REMARK SMILES IDX 5 1 3 2 2 3 1 4 22 5 20 6 19 7 17 8 16 9 15 10 14 11 6 12
REMARK SMILES IDX 7 13 8 14 9 15 13 16 11 17 10 18 12 20 4 22 21 24 18 26
REMARK H PARENT 10 19 12 21 4 23 21 25 18 27
REMARK Flexibility Score: inf
ROOT
ATOM      1  C   UNL     1      22.258 -21.375  27.547  1.00  0.00     0.180 A 
ATOM      2  C   UNL     1      22.089 -22.441  28.448  1.00  0.00     0.208 A 
ATOM      3  C   UNL     1      22.245 -23.757  27.983  1.00  0.00     0.238 A 
ATOM      4  O   UNL     1      22.039 -24.708  28.780  1.00  0.00    -0.285 OA
ATOM      5  C   UNL     1      22.584 -23.989  26.627  1.00  0.00     0.111 A 
ATOM      6  C   UNL     1      22.806 -25.278  26.058  1.00  0.00     0.134 A 
ATOM      7  C   UNL     1      23.008 -25.398  24.678  1.00  0.00     0.093 A 
ATOM      8  C   UNL     1      23.060 -24.269  23.857  1.00  0.00     0.123 A 
ATOM      9  C   UNL     1      22.903 -23.002  24.413  1.00  0.00     0.094 A 
ATOM     10  C   UNL     1      22.664 -22.852  25.781  1.00  0.00     0.146 A 
ATOM     11  O   UNL     1      22.511 -21.628  26.269  1.00  0.00    -0.452 OA
ENDROOT
BRANCH   1  12
ATOM     12  C   UNL     1      22.134 -19.961  27.969  1.00  0.00     0.025 A 
ATOM     13  C   UNL     1      21.211 -19.126  27.324  1.00  0.00     0.016 A 
ATOM     14  C   UNL     1      21.092 -17.785  27.692  1.00  0.00     0.051 A 
ATOM     15  C   UNL     1      21.900 -17.247  28.699  1.00  0.00     0.157 A 
ATOM     16  C   UNL     1      22.963 -19.418  28.965  1.00  0.00     0.062 A 
ATOM     17  C   UNL     1      22.853 -18.072  29.339  1.00  0.00     0.158 A 
BRANCH  15  18
ATOM     18  O   UNL     1      21.726 -15.900  29.025  1.00  0.00    -0.504 OA
ATOM     19  H   UNL     1      20.900 -15.530  29.475  1.00  0.00     0.293 HD
ENDBRANCH  15  18
BRANCH  17  20
ATOM     20  O   UNL     1      23.709 -17.602  30.338  1.00  0.00    -0.504 OA
ATOM     21  H   UNL     1      24.182 -18.198  31.002  1.00  0.00     0.293 HD
ENDBRANCH  17  20
ENDBRANCH   1  12
BRANCH   2  22
ATOM     22  O   UNL     1      21.733 -22.190  29.775  1.00  0.00    -0.502 OA
ATOM     23  H   UNL     1      21.448 -21.273  30.098  1.00  0.00     0.293 HD
ENDBRANCH   2  22
BRANCH   6  24
ATOM     24  O   UNL     1      22.866 -26.461  26.802  1.00  0.00    -0.507 OA
ATOM     25  H   UNL     1      22.217 -26.715  27.532  1.00  0.00     0.293 HD
ENDBRANCH   6  24
BRANCH   8  26
ATOM     26  O   UNL     1      23.276 -24.396  22.486  1.00  0.00    -0.508 OA
ATOM     27  H   UNL     1      23.914 -25.088  22.113  1.00  0.00     0.293 HD
ENDBRANCH   8  26
TORSDOF 6
ENDMDL
MODEL 9
REMARK VINA RESULT:    -6.713      1.944      6.800
REMARK INTER + INTRA:          -8.412
REMARK INTER:                  -8.339
REMARK INTRA:                  -0.073
REMARK UNBOUND:                -0.325
REMARK SMILES O=c1c(O)c(-c2ccc(O)c(O)c2)oc2cc(O)cc(O)c12
REMARK SMILES IDX 5 1 3 2 2 3 1 4 22 5 20 6 19 7 17 8 16 9 15 10 14 11 6 12
REMARK SMILES IDX 7 13 8 14 9 15 13 16 11 17 10 18 12 20 4 22 21 24 18 26
REMARK H PARENT 10 19 12 21 4 23 21 25 18 27
REMARK Flexibility Score: inf
ROOT
ATOM      1  C   UNL     1      23.309 -25.293  27.478  1.00  0.00     0.180 A 
ATOM      2  C   UNL     1      22.362 -24.764  28.373  1.00  0.00     0.208 A 
ATOM      3  C   UNL     1      22.340 -25.232  29.696  1.00  0.00     0.238 A 
ATOM      4  O   UNL     1      21.455 -24.795  30.478  1.00  0.00    -0.285 OA
ATOM      5  C   UNL     1      23.277 -26.209  30.114  1.00  0.00     0.111 A 
ATOM      6  C   UNL     1      23.372 -26.724  31.441  1.00  0.00     0.134 A 
ATOM      7  C   UNL     1      24.249 -27.782  31.709  1.00  0.00     0.093 A 
ATOM      8  C   UNL     1      25.081 -28.298  30.713  1.00  0.00     0.123 A 
ATOM      9  C   UNL     1      25.037 -27.762  29.429  1.00  0.00     0.094 A 
ATOM     10  C   UNL     1      24.147 -26.730  29.121  1.00  0.00     0.146 A 
ATOM     11  O   UNL     1      24.130 -26.254  27.882  1.00  0.00    -0.452 OA
ENDROOT
BRANCH   1  12
ATOM     12  C   UNL     1      23.409 -24.832  26.074  1.00  0.00     0.025 A 
ATOM     13  C   UNL     1      23.616 -23.471  25.808  1.00  0.00     0.016 A 
ATOM     14  C   UNL     1      23.693 -23.012  24.491  1.00  0.00     0.051 A 
ATOM     15  C   UNL     1      23.550 -23.897  23.418  1.00  0.00     0.157 A 
ATOM     16  C   UNL     1      23.243 -25.720  24.998  1.00  0.00     0.062 A 
ATOM     17  C   UNL     1      23.315 -25.268  23.674  1.00  0.00     0.158 A 
BRANCH  15  18
ATOM     18  O   UNL     1      23.645 -23.376  22.126  1.00  0.00    -0.504 OA
ATOM     19  H   UNL     1      22.847 -23.144  21.551  1.00  0.00     0.293 HD
ENDBRANCH  15  18
BRANCH  17  20
ATOM     20  O   UNL     1      23.142 -26.207  22.655  1.00  0.00    -0.504 OA
ATOM     21  H   UNL     1      23.445 -26.068  21.701  1.00  0.00     0.293 HD
ENDBRANCH  17  20
ENDBRANCH   1  12
BRANCH   2  22
ATOM     22  O   UNL     1      21.433 -23.817  27.934  1.00  0.00    -0.502 OA
ATOM     23  H   UNL     1      20.563 -23.642  28.422  1.00  0.00     0.293 HD
ENDBRANCH   2  22
BRANCH   6  24
ATOM     24  O   UNL     1      22.654 -26.218  32.528  1.00  0.00    -0.507 OA
ATOM     25  H   UNL     1      22.346 -25.261  32.619  1.00  0.00     0.293 HD
ENDBRANCH   6  24
BRANCH   8  26
ATOM     26  O   UNL     1      25.962 -29.341  30.993  1.00  0.00    -0.508 OA
ATOM     27  H   UNL     1      26.545 -29.334  31.821  1.00  0.00     0.293 HD
ENDBRANCH   8  26
TORSDOF 6
ENDMDL
