MODEL 1
REMARK VINA RESULT:    -4.496      0.000      0.000
REMARK INTER + INTRA:          -6.483
REMARK INTER:                  -6.336
REMARK INTRA:                  -0.147
REMARK UNBOUND:                -0.147
REMARK SMILES CC1=CCC(=C(C)C)C(=O)CC(C)=CCC1
REMARK SMILES IDX 12 1 14 2 13 3 15 4 16 5 2 6 1 7 3 8 11 10 9 11 10 12 5 13
REMARK SMILES IDX 6 14 7 15 8 16 4 17
REMARK H PARENT
REMARK Flexibility Score: 60.00
ROOT
ATOM      1  C   UNL     1      21.706  28.263 -16.568  1.00  0.00    -0.070 C 
ATOM      2  C   UNL     1      20.367  28.267 -16.764  1.00  0.00    -0.027 C 
ATOM      3  C   UNL     1      22.580  28.928 -17.601  1.00  0.00     0.039 C 
ENDROOT
BRANCH   2   4
ATOM      4  C   UNL     1      19.352  27.547 -15.908  1.00  0.00     0.032 C 
BRANCH   4   5
ATOM      5  C   UNL     1      18.655  28.413 -14.849  1.00  0.00     0.034 C 
BRANCH   5   6
ATOM      6  C   UNL     1      18.643  27.800 -13.461  1.00  0.00    -0.077 C 
ATOM      7  C   UNL     1      17.545  26.817 -13.136  1.00  0.00     0.039 C 
ATOM      8  C   UNL     1      19.590  28.015 -12.513  1.00  0.00    -0.023 CG0
ATOM      9  G   UNL     1      20.710  29.038 -12.513  1.00  0.00     0.000 G0
ENDBRANCH   5   6
ENDBRANCH   4   5
ENDBRANCH   2   4
BRANCH   1  10
ATOM     10  C   UNL     1      22.364  27.702 -15.326  1.00  0.00     0.111 C 
BRANCH  10  11
ATOM     11  C   UNL     1      22.543  28.770 -14.277  1.00  0.00     0.163 C 
ATOM     12  O   UNL     1      23.069  29.867 -14.606  1.00  0.00    -0.294 OA
BRANCH  11  13
ATOM     13  C   UNL     1      22.110  28.576 -12.867  1.00  0.00    -0.002 C 
ATOM     14  C   UNL     1      22.997  28.146 -11.929  1.00  0.00    -0.069 C 
ATOM     15  C   UNL     1      22.623  28.064 -10.466  1.00  0.00     0.039 C 
ATOM     16  C   UNL     1      24.387  27.708 -12.327  1.00  0.00     0.039 C 
BRANCH  13  17
ATOM     17  C   UNL     1      20.712  29.044 -12.508  1.00  0.00     0.066 CG0
ATOM     18  G   UNL     1      19.609  28.003 -12.518  1.00  0.00     0.000 G0
ENDBRANCH  13  17
ENDBRANCH  11  13
ENDBRANCH  10  11
ENDBRANCH   1  10
TORSDOF 0
ENDMDL
MODEL 2
REMARK VINA RESULT:    -4.404      9.543     12.302
REMARK INTER + INTRA:          -6.354
REMARK INTER:                  -6.243
REMARK INTRA:                  -0.111
REMARK UNBOUND:                -0.147
REMARK SMILES CC1=CCC(=C(C)C)C(=O)CC(C)=CCC1
REMARK SMILES IDX 12 1 14 2 13 3 15 4 16 5 2 6 1 7 3 8 11 10 9 11 10 12 5 13
REMARK SMILES IDX 6 14 7 15 8 16 4 17
REMARK H PARENT
REMARK Flexibility Score: 60.00
ROOT
ATOM      1  C   UNL     1      34.984  31.199 -12.847  1.00  0.00    -0.070 C 
ATOM      2  C   UNL     1      35.083  31.845 -14.033  1.00  0.00    -0.027 C 
ATOM      3  C   UNL     1      35.764  31.736 -11.675  1.00  0.00     0.039 C 
ENDROOT
BRANCH   2   4
ATOM      4  C   UNL     1      34.479  31.383 -15.337  1.00  0.00     0.032 C 
BRANCH   4   5
ATOM      5  C   UNL     1      33.332  32.252 -15.873  1.00  0.00     0.034 C 
BRANCH   5   6
ATOM      6  C   UNL     1      32.101  31.464 -16.283  1.00  0.00    -0.077 C 
ATOM      7  C   UNL     1      31.926  31.145 -17.747  1.00  0.00     0.039 C 
ATOM      8  C   UNL     1      31.182  30.963 -15.419  1.00  0.00    -0.023 CG0
ATOM      9  G   UNL     1      31.033  31.238 -13.935  1.00  0.00     0.000 G0
ENDBRANCH   5   6
ENDBRANCH   4   5
ENDBRANCH   2   4
BRANCH   1  10
ATOM     10  C   UNL     1      34.067  30.018 -12.618  1.00  0.00     0.111 C 
BRANCH  10  11
ATOM     11  C   UNL     1      32.701  30.470 -12.165  1.00  0.00     0.163 C 
ATOM     12  O   UNL     1      32.600  31.125 -11.093  1.00  0.00    -0.294 OA
BRANCH  11  13
ATOM     13  C   UNL     1      31.471  30.178 -12.947  1.00  0.00    -0.002 C 
ATOM     14  C   UNL     1      30.725  29.074 -12.668  1.00  0.00    -0.069 C 
ATOM     15  C   UNL     1      29.403  28.819 -13.354  1.00  0.00     0.039 C 
ATOM     16  C   UNL     1      31.213  28.047 -11.673  1.00  0.00     0.039 C 
BRANCH  13  17
ATOM     17  C   UNL     1      31.009  31.244 -13.924  1.00  0.00     0.066 CG0
ATOM     18  G   UNL     1      31.201  30.960 -15.401  1.00  0.00     0.000 G0
ENDBRANCH  13  17
ENDBRANCH  11  13
ENDBRANCH  10  11
ENDBRANCH   1  10
TORSDOF 0
ENDMDL
MODEL 3
REMARK VINA RESULT:    -4.350      1.937      3.961
REMARK INTER + INTRA:          -6.277
REMARK INTER:                  -6.251
REMARK INTRA:                  -0.026
REMARK UNBOUND:                -0.147
REMARK SMILES CC1=CCC(=C(C)C)C(=O)CC(C)=CCC1
REMARK SMILES IDX 12 1 14 2 13 3 15 4 16 5 2 6 1 7 3 8 11 10 9 11 10 12 5 13
REMARK SMILES IDX 6 14 7 15 8 16 4 17
REMARK H PARENT
REMARK Flexibility Score: 60.00
ROOT
ATOM      1  C   UNL     1      19.070  27.922 -13.261  1.00  0.00    -0.070 C 
ATOM      2  C   UNL     1      18.971  27.466 -14.532  1.00  0.00    -0.027 C 
ATOM      3  C   UNL     1      18.354  27.164 -12.173  1.00  0.00     0.039 C 
ENDROOT
BRANCH   2   4
ATOM      4  C   UNL     1      19.512  28.162 -15.758  1.00  0.00     0.032 C 
BRANCH   4   5
ATOM      5  C   UNL     1      20.750  27.508 -16.390  1.00  0.00     0.034 C 
BRANCH   5   6
ATOM      6  C   UNL     1      21.918  28.458 -16.583  1.00  0.00    -0.077 C 
ATOM      7  C   UNL     1      22.062  29.132 -17.926  1.00  0.00     0.039 C 
ATOM      8  C   UNL     1      22.802  28.802 -15.613  1.00  0.00    -0.023 CG0
ATOM      9  G   UNL     1      22.979  28.190 -14.237  1.00  0.00     0.000 G0
ENDBRANCH   5   6
ENDBRANCH   4   5
ENDBRANCH   2   4
BRANCH   1  10
ATOM     10  C   UNL     1      19.930  29.103 -12.865  1.00  0.00     0.111 C 
BRANCH  10  11
ATOM     11  C   UNL     1      21.278  28.649 -12.363  1.00  0.00     0.163 C 
ATOM     12  O   UNL     1      21.331  27.911 -11.343  1.00  0.00    -0.294 OA
BRANCH  11  13
ATOM     13  C   UNL     1      22.545  29.036 -13.037  1.00  0.00    -0.002 C 
ATOM     14  C   UNL     1      23.340  30.004 -12.505  1.00  0.00    -0.069 C 
ATOM     15  C   UNL     1      24.694  30.328 -13.092  1.00  0.00     0.039 C 
ATOM     16  C   UNL     1      22.877  30.810 -11.313  1.00  0.00     0.039 C 
BRANCH  13  17
ATOM     17  C   UNL     1      22.980  28.189 -14.220  1.00  0.00     0.066 CG0
ATOM     18  G   UNL     1      22.810  28.790 -15.602  1.00  0.00     0.000 G0
ENDBRANCH  13  17
ENDBRANCH  11  13
ENDBRANCH  10  11
ENDBRANCH   1  10
TORSDOF 0
ENDMDL
MODEL 4
REMARK VINA RESULT:    -4.289      2.129      4.060
REMARK INTER + INTRA:          -6.192
REMARK INTER:                  -6.147
REMARK INTRA:                  -0.045
REMARK UNBOUND:                -0.147
REMARK SMILES CC1=CCC(=C(C)C)C(=O)CC(C)=CCC1
REMARK SMILES IDX 12 1 14 2 13 3 15 4 16 5 2 6 1 7 3 8 11 10 9 11 10 12 5 13
REMARK SMILES IDX 6 14 7 15 8 16 4 17
REMARK H PARENT
REMARK Flexibility Score: 60.00
ROOT
ATOM      1  C   UNL     1      20.320  28.803 -12.376  1.00  0.00    -0.070 C 
ATOM      2  C   UNL     1      19.473  28.229 -13.262  1.00  0.00    -0.027 C 
ATOM      3  C   UNL     1      20.032  28.640 -10.905  1.00  0.00     0.039 C 
ENDROOT
BRANCH   2   4
ATOM      4  C   UNL     1      19.531  28.391 -14.762  1.00  0.00     0.032 C 
BRANCH   4   5
ATOM      5  C   UNL     1      20.486  27.433 -15.489  1.00  0.00     0.034 C 
BRANCH   5   6
ATOM      6  C   UNL     1      21.468  28.126 -16.415  1.00  0.00    -0.077 C 
ATOM      7  C   UNL     1      20.935  28.697 -17.706  1.00  0.00     0.039 C 
ATOM      8  C   UNL     1      22.780  28.335 -16.133  1.00  0.00    -0.023 CG0
ATOM      9  G   UNL     1      23.603  27.764 -14.995  1.00  0.00     0.000 G0
ENDBRANCH   5   6
ENDBRANCH   4   5
ENDBRANCH   2   4
BRANCH   1  10
ATOM     10  C   UNL     1      21.586  29.526 -12.782  1.00  0.00     0.111 C 
BRANCH  10  11
ATOM     11  C   UNL     1      22.778  28.604 -12.732  1.00  0.00     0.163 C 
ATOM     12  O   UNL     1      22.876  27.784 -11.780  1.00  0.00    -0.294 OA
BRANCH  11  13
ATOM     13  C   UNL     1      23.838  28.622 -13.775  1.00  0.00    -0.002 C 
ATOM     14  C   UNL     1      25.013  29.270 -13.549  1.00  0.00    -0.069 C 
ATOM     15  C   UNL     1      26.158  29.197 -14.533  1.00  0.00     0.039 C 
ATOM     16  C   UNL     1      25.203  30.111 -12.308  1.00  0.00     0.039 C 
BRANCH  13  17
ATOM     17  C   UNL     1      23.613  27.751 -14.998  1.00  0.00     0.066 CG0
ATOM     18  G   UNL     1      22.796  28.344 -16.130  1.00  0.00     0.000 G0
ENDBRANCH  13  17
ENDBRANCH  11  13
ENDBRANCH  10  11
ENDBRANCH   1  10
TORSDOF 0
ENDMDL
MODEL 5
REMARK VINA RESULT:    -4.279     10.311     12.802
REMARK INTER + INTRA:          -6.178
REMARK INTER:                  -6.021
REMARK INTRA:                  -0.158
REMARK UNBOUND:                -0.147
REMARK SMILES CC1=CCC(=C(C)C)C(=O)CC(C)=CCC1
REMARK SMILES IDX 12 1 14 2 13 3 15 4 16 5 2 6 1 7 3 8 11 10 9 11 10 12 5 13
REMARK SMILES IDX 6 14 7 15 8 16 4 17
REMARK H PARENT
REMARK Flexibility Score: 60.00
ROOT
ATOM      1  C   UNL     1      31.998  31.559 -16.196  1.00  0.00    -0.070 C 
ATOM      2  C   UNL     1      33.310  31.641 -16.519  1.00  0.00    -0.027 C 
ATOM      3  C   UNL     1      31.028  31.114 -17.260  1.00  0.00     0.039 C 
ENDROOT
BRANCH   2   4
ATOM      4  C   UNL     1      34.401  32.184 -15.626  1.00  0.00     0.032 C 
BRANCH   4   5
ATOM      5  C   UNL     1      35.207  31.126 -14.859  1.00  0.00     0.034 C 
BRANCH   5   6
ATOM      6  C   UNL     1      35.421  31.458 -13.394  1.00  0.00    -0.077 C 
ATOM      7  C   UNL     1      36.569  32.372 -13.039  1.00  0.00     0.039 C 
ATOM      8  C   UNL     1      34.612  31.049 -12.383  1.00  0.00    -0.023 CG0
ATOM      9  G   UNL     1      33.487  30.032 -12.427  1.00  0.00     0.000 G0
ENDBRANCH   5   6
ENDBRANCH   4   5
ENDBRANCH   2   4
BRANCH   1  10
ATOM     10  C   UNL     1      31.467  31.808 -14.801  1.00  0.00     0.111 C 
BRANCH  10  11
ATOM     11  C   UNL     1      31.530  30.556 -13.964  1.00  0.00     0.163 C 
ATOM     12  O   UNL     1      31.112  29.473 -14.454  1.00  0.00    -0.294 OA
BRANCH  11  13
ATOM     13  C   UNL     1      32.079  30.554 -12.581  1.00  0.00    -0.002 C 
ATOM     14  C   UNL     1      31.278  30.858 -11.524  1.00  0.00    -0.069 C 
ATOM     15  C   UNL     1      31.770  30.738 -10.100  1.00  0.00     0.039 C 
ATOM     16  C   UNL     1      29.867  31.354 -11.743  1.00  0.00     0.039 C 
BRANCH  13  17
ATOM     17  C   UNL     1      33.494  30.034 -12.405  1.00  0.00     0.066 CG0
ATOM     18  G   UNL     1      34.611  31.059 -12.382  1.00  0.00     0.000 G0
ENDBRANCH  13  17
ENDBRANCH  11  13
ENDBRANCH  10  11
ENDBRANCH   1  10
TORSDOF 0
ENDMDL
MODEL 6
REMARK VINA RESULT:    -4.049     14.146     16.737
REMARK INTER + INTRA:          -5.853
REMARK INTER:                  -5.712
REMARK INTRA:                  -0.141
REMARK UNBOUND:                -0.147
REMARK SMILES CC1=CCC(=C(C)C)C(=O)CC(C)=CCC1
REMARK SMILES IDX 12 1 14 2 13 3 15 4 16 5 2 6 1 7 3 8 11 10 9 11 10 12 5 13
REMARK SMILES IDX 6 14 7 15 8 16 4 17
REMARK H PARENT
REMARK Flexibility Score: 60.00
ROOT
ATOM      1  C   UNL     1      33.938  37.054 -24.951  1.00  0.00    -0.070 C 
ATOM      2  C   UNL     1      33.337  38.267 -24.991  1.00  0.00    -0.027 C 
ATOM      3  C   UNL     1      35.355  36.943 -25.454  1.00  0.00     0.039 C 
ENDROOT
BRANCH   2   4
ATOM      4  C   UNL     1      31.892  38.542 -24.651  1.00  0.00     0.032 C 
BRANCH   4   5
ATOM      5  C   UNL     1      31.633  38.999 -23.208  1.00  0.00     0.034 C 
BRANCH   5   6
ATOM      6  C   UNL     1      30.540  38.219 -22.501  1.00  0.00    -0.077 C 
ATOM      7  C   UNL     1      29.109  38.623 -22.758  1.00  0.00     0.039 C 
ATOM      8  C   UNL     1      30.752  37.137 -21.709  1.00  0.00    -0.023 CG0
ATOM      9  G   UNL     1      32.067  36.602 -21.175  1.00  0.00     0.000 G0
ENDBRANCH   5   6
ENDBRANCH   4   5
ENDBRANCH   2   4
BRANCH   1  10
ATOM     10  C   UNL     1      33.291  35.825 -24.352  1.00  0.00     0.111 C 
BRANCH  10  11
ATOM     11  C   UNL     1      33.677  35.660 -22.903  1.00  0.00     0.163 C 
ATOM     12  O   UNL     1      34.891  35.763 -22.580  1.00  0.00    -0.294 OA
BRANCH  11  13
ATOM     13  C   UNL     1      32.671  35.389 -21.842  1.00  0.00    -0.002 C 
ATOM     14  C   UNL     1      32.439  34.115 -21.423  1.00  0.00    -0.069 C 
ATOM     15  C   UNL     1      31.522  33.820 -20.259  1.00  0.00     0.039 C 
ATOM     16  C   UNL     1      33.078  32.944 -22.133  1.00  0.00     0.039 C 
BRANCH  13  17
ATOM     17  C   UNL     1      32.067  36.595 -21.145  1.00  0.00     0.066 CG0
ATOM     18  G   UNL     1      30.762  37.133 -21.699  1.00  0.00     0.000 G0
ENDBRANCH  13  17
ENDBRANCH  11  13
ENDBRANCH  10  11
ENDBRANCH   1  10
TORSDOF 0
ENDMDL
MODEL 7
REMARK VINA RESULT:    -4.022      9.560     12.212
REMARK INTER + INTRA:          -5.816
REMARK INTER:                  -5.720
REMARK INTRA:                  -0.096
REMARK UNBOUND:                -0.147
REMARK SMILES CC1=CCC(=C(C)C)C(=O)CC(C)=CCC1
REMARK SMILES IDX 12 1 14 2 13 3 15 4 16 5 2 6 1 7 3 8 11 10 9 11 10 12 5 13
REMARK SMILES IDX 6 14 7 15 8 16 4 17
REMARK H PARENT
REMARK Flexibility Score: 60.00
ROOT
ATOM      1  C   UNL     1      33.802  30.242 -11.846  1.00  0.00    -0.070 C 
ATOM      2  C   UNL     1      34.307  30.665 -10.664  1.00  0.00    -0.027 C 
ATOM      3  C   UNL     1      33.988  31.121 -13.057  1.00  0.00     0.039 C 
ENDROOT
BRANCH   2   4
ATOM      4  C   UNL     1      34.109  29.982  -9.331  1.00  0.00     0.032 C 
BRANCH   4   5
ATOM      5  C   UNL     1      32.934  30.508  -8.493  1.00  0.00     0.034 C 
BRANCH   5   6
ATOM      6  C   UNL     1      32.356  31.818  -8.996  1.00  0.00    -0.077 C 
ATOM      7  C   UNL     1      33.011  33.098  -8.536  1.00  0.00     0.039 C 
ATOM      8  C   UNL     1      31.338  31.922  -9.887  1.00  0.00    -0.023 CG0
ATOM      9  G   UNL     1      30.420  30.830 -10.403  1.00  0.00     0.000 G0
ENDBRANCH   5   6
ENDBRANCH   4   5
ENDBRANCH   2   4
BRANCH   1  10
ATOM     10  C   UNL     1      33.137  28.896 -12.034  1.00  0.00     0.111 C 
BRANCH  10  11
ATOM     11  C   UNL     1      31.713  28.920 -11.536  1.00  0.00     0.163 C 
ATOM     12  O   UNL     1      31.251  27.899 -10.960  1.00  0.00    -0.294 OA
BRANCH  11  13
ATOM     13  C   UNL     1      30.839  30.113 -11.694  1.00  0.00    -0.002 C 
ATOM     14  C   UNL     1      30.325  30.432 -12.913  1.00  0.00    -0.069 C 
ATOM     15  C   UNL     1      29.331  31.557 -13.082  1.00  0.00     0.039 C 
ATOM     16  C   UNL     1      30.756  29.679 -14.151  1.00  0.00     0.039 C 
BRANCH  13  17
ATOM     17  C   UNL     1      30.419  30.828 -10.424  1.00  0.00     0.066 CG0
ATOM     18  G   UNL     1      31.341  31.914  -9.902  1.00  0.00     0.000 G0
ENDBRANCH  13  17
ENDBRANCH  11  13
ENDBRANCH  10  11
ENDBRANCH   1  10
TORSDOF 0
ENDMDL
MODEL 8
REMARK VINA RESULT:    -3.909     15.282     18.068
REMARK INTER + INTRA:          -5.657
REMARK INTER:                  -5.863
REMARK INTRA:                   0.206
REMARK UNBOUND:                -0.147
REMARK SMILES CC1=CCC(=C(C)C)C(=O)CC(C)=CCC1
REMARK SMILES IDX 12 1 14 2 13 3 15 4 16 5 2 6 1 7 3 8 11 10 9 11 10 12 5 13
REMARK SMILES IDX 6 14 7 15 8 16 4 17
REMARK H PARENT
REMARK Flexibility Score: 60.00
ROOT
ATOM      1  C   UNL     1      31.874  35.927 -21.598  1.00  0.00    -0.070 C 
ATOM      2  C   UNL     1      30.993  36.936 -21.794  1.00  0.00    -0.027 C 
ATOM      3  C   UNL     1      31.334  34.576 -21.203  1.00  0.00     0.039 C 
ENDROOT
BRANCH   2   4
ATOM      4  C   UNL     1      31.356  38.377 -22.067  1.00  0.00     0.032 C 
BRANCH   4   5
ATOM      5  C   UNL     1      30.735  38.980 -23.335  1.00  0.00     0.034 C 
BRANCH   5   6
ATOM      6  C   UNL     1      31.014  38.184 -24.597  1.00  0.00    -0.077 C 
ATOM      7  C   UNL     1      29.831  37.678 -25.385  1.00  0.00     0.039 C 
ATOM      8  C   UNL     1      32.250  37.956 -25.109  1.00  0.00    -0.023 CG0
ATOM      9  G   UNL     1      33.600  38.223 -24.471  1.00  0.00     0.000 G0
ENDBRANCH   5   6
ENDBRANCH   4   5
ENDBRANCH   2   4
BRANCH   1  10
ATOM     10  C   UNL     1      33.362  36.063 -21.836  1.00  0.00     0.111 C 
BRANCH  10  11
ATOM     11  C   UNL     1      33.690  35.944 -23.303  1.00  0.00     0.163 C 
ATOM     12  O   UNL     1      33.328  34.910 -23.927  1.00  0.00    -0.294 OA
BRANCH  11  13
ATOM     13  C   UNL     1      34.419  37.009 -24.040  1.00  0.00    -0.002 C 
ATOM     14  C   UNL     1      35.707  36.815 -24.434  1.00  0.00    -0.069 C 
ATOM     15  C   UNL     1      36.431  37.823 -25.297  1.00  0.00     0.039 C 
ATOM     16  C   UNL     1      36.469  35.585 -23.996  1.00  0.00     0.039 C 
BRANCH  13  17
ATOM     17  C   UNL     1      33.612  38.219 -24.474  1.00  0.00     0.066 CG0
ATOM     18  G   UNL     1      32.260  37.958 -25.110  1.00  0.00     0.000 G0
ENDBRANCH  13  17
ENDBRANCH  11  13
ENDBRANCH  10  11
ENDBRANCH   1  10
TORSDOF 0
ENDMDL
MODEL 9
REMARK VINA RESULT:    -3.849     15.304     17.673
REMARK INTER + INTRA:          -5.571
REMARK INTER:                  -5.738
REMARK INTRA:                   0.166
REMARK UNBOUND:                -0.147
REMARK SMILES CC1=CCC(=C(C)C)C(=O)CC(C)=CCC1
REMARK SMILES IDX 12 1 14 2 13 3 15 4 16 5 2 6 1 7 3 8 11 10 9 11 10 12 5 13
REMARK SMILES IDX 6 14 7 15 8 16 4 17
REMARK H PARENT
REMARK Flexibility Score: 60.00
ROOT
ATOM      1  C   UNL     1      31.452  37.254 -22.476  1.00  0.00    -0.070 C 
ATOM      2  C   UNL     1      31.350  36.501 -21.356  1.00  0.00    -0.027 C 
ATOM      3  C   UNL     1      31.091  38.715 -22.390  1.00  0.00     0.039 C 
ENDROOT
BRANCH   2   4
ATOM      4  C   UNL     1      31.546  35.005 -21.283  1.00  0.00     0.032 C 
BRANCH   4   5
ATOM      5  C   UNL     1      32.862  34.548 -20.636  1.00  0.00     0.034 C 
BRANCH   5   6
ATOM      6  C   UNL     1      33.735  33.703 -21.546  1.00  0.00    -0.077 C 
ATOM      7  C   UNL     1      33.619  32.202 -21.437  1.00  0.00     0.039 C 
ATOM      8  C   UNL     1      34.562  34.198 -22.502  1.00  0.00    -0.023 CG0
ATOM      9  G   UNL     1      34.974  35.639 -22.739  1.00  0.00     0.000 G0
ENDBRANCH   5   6
ENDBRANCH   4   5
ENDBRANCH   2   4
BRANCH   1  10
ATOM     10  C   UNL     1      31.990  36.725 -23.788  1.00  0.00     0.111 C 
BRANCH  10  11
ATOM     11  C   UNL     1      33.400  37.203 -24.029  1.00  0.00     0.163 C 
ATOM     12  O   UNL     1      33.606  38.435 -24.198  1.00  0.00    -0.294 OA
BRANCH  11  13
ATOM     13  C   UNL     1      34.558  36.270 -24.063  1.00  0.00    -0.002 C 
ATOM     14  C   UNL     1      35.292  36.127 -25.199  1.00  0.00    -0.069 C 
ATOM     15  C   UNL     1      36.549  35.289 -25.229  1.00  0.00     0.039 C 
ATOM     16  C   UNL     1      34.855  36.787 -26.487  1.00  0.00     0.039 C 
BRANCH  13  17
ATOM     17  C   UNL     1      34.972  35.641 -22.745  1.00  0.00     0.066 CG0
ATOM     18  G   UNL     1      34.567  34.199 -22.508  1.00  0.00     0.000 G0
ENDBRANCH  13  17
ENDBRANCH  11  13
ENDBRANCH  10  11
ENDBRANCH   1  10
TORSDOF 0
ENDMDL
