MODEL 1
REMARK VINA RESULT:    -3.749      0.000      0.000
REMARK INTER + INTRA:          -6.069
REMARK INTER:                  -5.502
REMARK INTRA:                  -0.567
REMARK UNBOUND:                -0.567
REMARK SMILES O=C([O-])CCCCCCCC(=O)[O-]
REMARK SMILES IDX 7 1 6 2 5 3 4 4 2 5 1 6 3 7 8 8 9 9 10 10 11 11 12 12 13 13
REMARK H PARENT
REMARK Flexibility Score: inf
ROOT
ATOM      1  C   UNL     1       5.017  -1.484 400.472  1.00  0.00     0.000 C 
ENDROOT
BRANCH   1   2
ATOM      2  C   UNL     1       3.815  -2.317 400.000  1.00  0.00     0.000 C 
BRANCH   2   3
ATOM      3  C   UNL     1       3.243  -3.215 401.111  1.00  0.00     0.006 C 
BRANCH   3   4
ATOM      4  C   UNL     1       3.720  -2.787 402.505  1.00  0.00     0.053 C 
BRANCH   4   5
ATOM      5  C   UNL     1       3.434  -3.836 403.536  1.00  0.00     0.041 C 
ATOM      6  O   UNL     1       3.913  -4.993 403.412  1.00  0.00    -0.550 OA
ATOM      7  O   UNL     1       2.611  -3.544 404.617  1.00  0.00    -0.550 OA
ENDBRANCH   4   5
ENDBRANCH   3   4
ENDBRANCH   2   3
ENDBRANCH   1   2
BRANCH   1   8
ATOM      8  C   UNL     1       4.965  -0.033 399.969  1.00  0.00     0.000 C 
BRANCH   8   9
ATOM      9  C   UNL     1       3.563   0.561 400.150  1.00  0.00     0.006 C 
BRANCH   9  10
ATOM     10  C   UNL     1       3.630   1.936 400.819  1.00  0.00     0.053 C 
BRANCH  10  11
ATOM     11  C   UNL     1       4.063   1.805 402.244  1.00  0.00     0.041 C 
ATOM     12  O   UNL     1       3.453   1.026 403.024  1.00  0.00    -0.550 OA
ATOM     13  O   UNL     1       5.173   2.505 402.701  1.00  0.00    -0.550 OA
ENDBRANCH  10  11
ENDBRANCH   9  10
ENDBRANCH   8   9
ENDBRANCH   1   8
TORSDOF 8
ENDMDL
MODEL 2
REMARK VINA RESULT:    -3.706      0.813      1.051
REMARK INTER + INTRA:          -6.006
REMARK INTER:                  -5.426
REMARK INTRA:                  -0.579
REMARK UNBOUND:                -0.567
REMARK SMILES O=C([O-])CCCCCCCC(=O)[O-]
REMARK SMILES IDX 7 1 6 2 5 3 4 4 2 5 1 6 3 7 8 8 9 9 10 10 11 11 12 12 13 13
REMARK H PARENT
REMARK Flexibility Score: inf
ROOT
ATOM      1  C   UNL     1       5.054  -1.440 400.268  1.00  0.00     0.000 C 
ENDROOT
BRANCH   1   2
ATOM      2  C   UNL     1       3.793  -2.293 400.059  1.00  0.00     0.000 C 
BRANCH   2   3
ATOM      3  C   UNL     1       3.600  -3.347 401.164  1.00  0.00     0.006 C 
BRANCH   3   4
ATOM      4  C   UNL     1       3.681  -2.735 402.569  1.00  0.00     0.053 C 
BRANCH   4   5
ATOM      5  C   UNL     1       3.293  -3.722 403.627  1.00  0.00     0.041 C 
ATOM      6  O   UNL     1       3.901  -4.820 403.724  1.00  0.00    -0.550 OA
ATOM      7  O   UNL     1       2.235  -3.445 404.484  1.00  0.00    -0.550 OA
ENDBRANCH   4   5
ENDBRANCH   3   4
ENDBRANCH   2   3
ENDBRANCH   1   2
BRANCH   1   8
ATOM      8  C   UNL     1       4.832   0.039 399.916  1.00  0.00     0.000 C 
BRANCH   8   9
ATOM      9  C   UNL     1       3.517   0.556 400.514  1.00  0.00     0.006 C 
BRANCH   9  10
ATOM     10  C   UNL     1       3.706   0.980 401.973  1.00  0.00     0.053 C 
BRANCH  10  11
ATOM     11  C   UNL     1       4.054   2.433 402.055  1.00  0.00     0.041 C 
ATOM     12  O   UNL     1       4.814   2.852 402.968  1.00  0.00    -0.550 OA
ATOM     13  O   UNL     1       3.580   3.317 401.094  1.00  0.00    -0.550 OA
ENDBRANCH  10  11
ENDBRANCH   9  10
ENDBRANCH   8   9
ENDBRANCH   1   8
TORSDOF 8
ENDMDL
MODEL 3
REMARK VINA RESULT:    -3.695      0.817      1.528
REMARK INTER + INTRA:          -5.990
REMARK INTER:                  -5.613
REMARK INTRA:                  -0.377
REMARK UNBOUND:                -0.567
REMARK SMILES O=C([O-])CCCCCCCC(=O)[O-]
REMARK SMILES IDX 7 1 6 2 5 3 4 4 2 5 1 6 3 7 8 8 9 9 10 10 11 11 12 12 13 13
REMARK H PARENT
REMARK Flexibility Score: inf
ROOT
ATOM      1  C   UNL     1       4.851  -1.362 400.503  1.00  0.00     0.000 C 
ENDROOT
BRANCH   1   2
ATOM      2  C   UNL     1       3.728  -2.279 399.994  1.00  0.00     0.000 C 
BRANCH   2   3
ATOM      3  C   UNL     1       3.248  -3.278 401.062  1.00  0.00     0.006 C 
BRANCH   3   4
ATOM      4  C   UNL     1       4.382  -4.186 401.556  1.00  0.00     0.053 C 
BRANCH   4   5
ATOM      5  C   UNL     1       3.972  -4.984 402.756  1.00  0.00     0.041 C 
ATOM      6  O   UNL     1       3.714  -4.405 403.843  1.00  0.00    -0.550 OA
ATOM      7  O   UNL     1       3.909  -6.370 402.683  1.00  0.00    -0.550 OA
ENDBRANCH   4   5
ENDBRANCH   3   4
ENDBRANCH   2   3
ENDBRANCH   1   2
BRANCH   1   8
ATOM      8  C   UNL     1       4.766   0.057 399.919  1.00  0.00     0.000 C 
BRANCH   8   9
ATOM      9  C   UNL     1       3.452   0.738 400.319  1.00  0.00     0.006 C 
BRANCH   9  10
ATOM     10  C   UNL     1       3.702   2.158 400.835  1.00  0.00     0.053 C 
BRANCH  10  11
ATOM     11  C   UNL     1       4.103   2.129 402.276  1.00  0.00     0.041 C 
ATOM     12  O   UNL     1       4.839   3.036 402.747  1.00  0.00    -0.550 OA
ATOM     13  O   UNL     1       3.623   1.129 403.112  1.00  0.00    -0.550 OA
ENDBRANCH  10  11
ENDBRANCH   9  10
ENDBRANCH   8   9
ENDBRANCH   1   8
TORSDOF 8
ENDMDL
MODEL 4
REMARK VINA RESULT:    -3.643      2.027      3.304
REMARK INTER + INTRA:          -5.914
REMARK INTER:                  -4.990
REMARK INTRA:                  -0.923
REMARK UNBOUND:                -0.567
REMARK SMILES O=C([O-])CCCCCCCC(=O)[O-]
REMARK SMILES IDX 7 1 6 2 5 3 4 4 2 5 1 6 3 7 8 8 9 9 10 10 11 11 12 12 13 13
REMARK H PARENT
REMARK Flexibility Score: inf
ROOT
ATOM      1  C   UNL     1       3.753   1.812 400.576  1.00  0.00     0.000 C 
ENDROOT
BRANCH   1   2
ATOM      2  C   UNL     1       5.083   1.149 400.187  1.00  0.00     0.000 C 
BRANCH   2   3
ATOM      3  C   UNL     1       4.938  -0.358 399.913  1.00  0.00     0.006 C 
BRANCH   3   4
ATOM      4  C   UNL     1       3.701  -0.954 400.599  1.00  0.00     0.053 C 
BRANCH   4   5
ATOM      5  C   UNL     1       3.956  -2.347 401.089  1.00  0.00     0.041 C 
ATOM      6  O   UNL     1       5.036  -2.626 401.671  1.00  0.00    -0.550 OA
ATOM      7  O   UNL     1       3.014  -3.345 400.871  1.00  0.00    -0.550 OA
ENDBRANCH   4   5
ENDBRANCH   3   4
ENDBRANCH   2   3
ENDBRANCH   1   2
BRANCH   1   8
ATOM      8  C   UNL     1       3.918   2.866 401.681  1.00  0.00     0.000 C 
BRANCH   8   9
ATOM      9  C   UNL     1       4.940   2.407 402.729  1.00  0.00     0.006 C 
BRANCH   9  10
ATOM     10  C   UNL     1       4.291   1.484 403.763  1.00  0.00     0.053 C 
BRANCH  10  11
ATOM     11  C   UNL     1       5.056   0.203 403.875  1.00  0.00     0.041 C 
ATOM     12  O   UNL     1       6.196   0.098 403.351  1.00  0.00    -0.550 OA
ATOM     13  O   UNL     1       4.532  -0.858 404.602  1.00  0.00    -0.550 OA
ENDBRANCH  10  11
ENDBRANCH   9  10
ENDBRANCH   8   9
ENDBRANCH   1   8
TORSDOF 8
ENDMDL
MODEL 5
REMARK VINA RESULT:    -3.639      1.577      2.465
REMARK INTER + INTRA:          -5.908
REMARK INTER:                  -5.448
REMARK INTRA:                  -0.460
REMARK UNBOUND:                -0.567
REMARK SMILES O=C([O-])CCCCCCCC(=O)[O-]
REMARK SMILES IDX 7 1 6 2 5 3 4 4 2 5 1 6 3 7 8 8 9 9 10 10 11 11 12 12 13 13
REMARK H PARENT
REMARK Flexibility Score: inf
ROOT
ATOM      1  C   UNL     1       3.357   0.724 400.813  1.00  0.00     0.000 C 
ENDROOT
BRANCH   1   2
ATOM      2  C   UNL     1       4.015  -0.237 399.810  1.00  0.00     0.000 C 
BRANCH   2   3
ATOM      3  C   UNL     1       4.579  -1.501 400.483  1.00  0.00     0.006 C 
BRANCH   3   4
ATOM      4  C   UNL     1       3.627  -2.698 400.357  1.00  0.00     0.053 C 
BRANCH   4   5
ATOM      5  C   UNL     1       3.610  -3.527 401.604  1.00  0.00     0.041 C 
ATOM      6  O   UNL     1       3.775  -4.773 401.539  1.00  0.00    -0.550 OA
ATOM      7  O   UNL     1       3.378  -2.928 402.836  1.00  0.00    -0.550 OA
ENDBRANCH   4   5
ENDBRANCH   3   4
ENDBRANCH   2   3
ENDBRANCH   1   2
BRANCH   1   8
ATOM      8  C   UNL     1       3.715   2.194 400.544  1.00  0.00     0.000 C 
BRANCH   8   9
ATOM      9  C   UNL     1       3.935   2.955 401.857  1.00  0.00     0.006 C 
BRANCH   9  10
ATOM     10  C   UNL     1       4.625   2.069 402.898  1.00  0.00     0.053 C 
BRANCH  10  11
ATOM     11  C   UNL     1       6.108   2.255 402.844  1.00  0.00     0.041 C 
ATOM     12  O   UNL     1       6.650   3.215 403.453  1.00  0.00    -0.550 OA
ATOM     13  O   UNL     1       6.900   1.340 402.162  1.00  0.00    -0.550 OA
ENDBRANCH  10  11
ENDBRANCH   9  10
ENDBRANCH   8   9
ENDBRANCH   1   8
TORSDOF 8
ENDMDL
MODEL 6
REMARK VINA RESULT:    -3.618      1.296      5.051
REMARK INTER + INTRA:          -5.877
REMARK INTER:                  -5.394
REMARK INTRA:                  -0.483
REMARK UNBOUND:                -0.567
REMARK SMILES O=C([O-])CCCCCCCC(=O)[O-]
REMARK SMILES IDX 7 1 6 2 5 3 4 4 2 5 1 6 3 7 8 8 9 9 10 10 11 11 12 12 13 13
REMARK H PARENT
REMARK Flexibility Score: inf
ROOT
ATOM      1  C   UNL     1       4.293  -2.052 400.791  1.00  0.00     0.000 C 
ENDROOT
BRANCH   1   2
ATOM      2  C   UNL     1       3.658  -1.124 399.744  1.00  0.00     0.000 C 
BRANCH   2   3
ATOM      3  C   UNL     1       3.837   0.366 400.085  1.00  0.00     0.006 C 
BRANCH   3   4
ATOM      4  C   UNL     1       3.862   0.614 401.599  1.00  0.00     0.053 C 
BRANCH   4   5
ATOM      5  C   UNL     1       4.013   2.069 401.921  1.00  0.00     0.041 C 
ATOM      6  O   UNL     1       4.483   2.428 403.032  1.00  0.00    -0.550 OA
ATOM      7  O   UNL     1       3.604   3.031 401.005  1.00  0.00    -0.550 OA
ENDBRANCH   4   5
ENDBRANCH   3   4
ENDBRANCH   2   3
ENDBRANCH   1   2
BRANCH   1   8
ATOM      8  C   UNL     1       3.325  -3.139 401.282  1.00  0.00     0.000 C 
BRANCH   8   9
ATOM      9  C   UNL     1       3.698  -3.610 402.693  1.00  0.00     0.006 C 
BRANCH   9  10
ATOM     10  C   UNL     1       3.808  -2.426 403.657  1.00  0.00     0.053 C 
BRANCH  10  11
ATOM     11  C   UNL     1       2.849  -2.584 404.794  1.00  0.00     0.041 C 
ATOM     12  O   UNL     1       1.765  -3.204 404.627  1.00  0.00    -0.550 OA
ATOM     13  O   UNL     1       3.172  -2.090 406.051  1.00  0.00    -0.550 OA
ENDBRANCH  10  11
ENDBRANCH   9  10
ENDBRANCH   8   9
ENDBRANCH   1   8
TORSDOF 8
ENDMDL
MODEL 7
REMARK VINA RESULT:    -3.599      1.507      2.214
REMARK INTER + INTRA:          -5.849
REMARK INTER:                  -5.337
REMARK INTRA:                  -0.512
REMARK UNBOUND:                -0.567
REMARK SMILES O=C([O-])CCCCCCCC(=O)[O-]
REMARK SMILES IDX 7 1 6 2 5 3 4 4 2 5 1 6 3 7 8 8 9 9 10 10 11 11 12 12 13 13
REMARK H PARENT
REMARK Flexibility Score: inf
ROOT
ATOM      1  C   UNL     1       3.257  -3.130 400.984  1.00  0.00     0.000 C 
ENDROOT
BRANCH   1   2
ATOM      2  C   UNL     1       4.481  -3.796 401.633  1.00  0.00     0.000 C 
BRANCH   2   3
ATOM      3  C   UNL     1       4.392  -3.831 403.168  1.00  0.00     0.006 C 
BRANCH   3   4
ATOM      4  C   UNL     1       4.008  -2.468 403.758  1.00  0.00     0.053 C 
BRANCH   4   5
ATOM      5  C   UNL     1       2.982  -2.602 404.842  1.00  0.00     0.041 C 
ATOM      6  O   UNL     1       1.906  -3.218 404.624  1.00  0.00    -0.550 OA
ATOM      7  O   UNL     1       3.198  -2.015 406.083  1.00  0.00    -0.550 OA
ENDBRANCH   4   5
ENDBRANCH   3   4
ENDBRANCH   2   3
ENDBRANCH   1   2
BRANCH   1   8
ATOM      8  C   UNL     1       3.637  -2.205 399.818  1.00  0.00     0.000 C 
BRANCH   8   9
ATOM      9  C   UNL     1       4.366  -0.954 400.323  1.00  0.00     0.006 C 
BRANCH   9  10
ATOM     10  C   UNL     1       3.447   0.270 400.291  1.00  0.00     0.053 C 
BRANCH  10  11
ATOM     11  C   UNL     1       4.217   1.513 400.605  1.00  0.00     0.041 C 
ATOM     12  O   UNL     1       3.617   2.551 400.990  1.00  0.00    -0.550 OA
ATOM     13  O   UNL     1       5.604   1.511 400.522  1.00  0.00    -0.550 OA
ENDBRANCH  10  11
ENDBRANCH   9  10
ENDBRANCH   8   9
ENDBRANCH   1   8
TORSDOF 8
ENDMDL
MODEL 8
REMARK VINA RESULT:    -3.584      1.611      6.089
REMARK INTER + INTRA:          -5.828
REMARK INTER:                  -5.440
REMARK INTRA:                  -0.387
REMARK UNBOUND:                -0.567
REMARK SMILES O=C([O-])CCCCCCCC(=O)[O-]
REMARK SMILES IDX 7 1 6 2 5 3 4 4 2 5 1 6 3 7 8 8 9 9 10 10 11 11 12 12 13 13
REMARK H PARENT
REMARK Flexibility Score: inf
ROOT
ATOM      1  C   UNL     1       3.626  -2.262 400.080  1.00  0.00     0.000 C 
ENDROOT
BRANCH   1   2
ATOM      2  C   UNL     1       5.002  -1.660 400.409  1.00  0.00     0.000 C 
BRANCH   2   3
ATOM      3  C   UNL     1       5.055  -0.140 400.176  1.00  0.00     0.006 C 
BRANCH   3   4
ATOM      4  C   UNL     1       3.669   0.511 400.279  1.00  0.00     0.053 C 
BRANCH   4   5
ATOM      5  C   UNL     1       3.638   1.588 401.319  1.00  0.00     0.041 C 
ATOM      6  O   UNL     1       3.599   1.289 402.541  1.00  0.00    -0.550 OA
ATOM      7  O   UNL     1       3.617   2.924 400.938  1.00  0.00    -0.550 OA
ENDBRANCH   4   5
ENDBRANCH   3   4
ENDBRANCH   2   3
ENDBRANCH   1   2
BRANCH   1   8
ATOM      8  C   UNL     1       3.211  -3.362 401.068  1.00  0.00     0.000 C 
BRANCH   8   9
ATOM      9  C   UNL     1       4.439  -4.096 401.622  1.00  0.00     0.006 C 
BRANCH   9  10
ATOM     10  C   UNL     1       4.096  -4.850 402.909  1.00  0.00     0.053 C 
BRANCH  10  11
ATOM     11  C   UNL     1       4.215  -6.326 402.699  1.00  0.00     0.041 C 
ATOM     12  O   UNL     1       4.818  -7.040 403.542  1.00  0.00    -0.550 OA
ATOM     13  O   UNL     1       3.615  -6.923 401.597  1.00  0.00    -0.550 OA
ENDBRANCH  10  11
ENDBRANCH   9  10
ENDBRANCH   8   9
ENDBRANCH   1   8
TORSDOF 8
ENDMDL
MODEL 9
REMARK VINA RESULT:    -3.565      2.206      3.966
REMARK INTER + INTRA:          -5.799
REMARK INTER:                  -4.911
REMARK INTRA:                  -0.888
REMARK UNBOUND:                -0.567
REMARK SMILES O=C([O-])CCCCCCCC(=O)[O-]
REMARK SMILES IDX 7 1 6 2 5 3 4 4 2 5 1 6 3 7 8 8 9 9 10 10 11 11 12 12 13 13
REMARK H PARENT
REMARK Flexibility Score: inf
ROOT
ATOM      1  C   UNL     1       4.127   1.605 400.623  1.00  0.00     0.000 C 
ENDROOT
BRANCH   1   2
ATOM      2  C   UNL     1       4.190   2.111 402.073  1.00  0.00     0.000 C 
BRANCH   2   3
ATOM      3  C   UNL     1       3.597   1.108 403.077  1.00  0.00     0.006 C 
BRANCH   3   4
ATOM      4  C   UNL     1       4.677   0.451 403.947  1.00  0.00     0.053 C 
BRANCH   4   5
ATOM      5  C   UNL     1       4.660  -1.042 403.819  1.00  0.00     0.041 C 
ATOM      6  O   UNL     1       3.590  -1.681 403.992  1.00  0.00    -0.550 OA
ATOM      7  O   UNL     1       5.835  -1.730 403.542  1.00  0.00    -0.550 OA
ENDBRANCH   4   5
ENDBRANCH   3   4
ENDBRANCH   2   3
ENDBRANCH   1   2
BRANCH   1   8
ATOM      8  C   UNL     1       5.476   1.061 400.128  1.00  0.00     0.000 C 
BRANCH   8   9
ATOM      9  C   UNL     1       5.518  -0.469 400.216  1.00  0.00     0.006 C 
BRANCH   9  10
ATOM     10  C   UNL     1       4.115  -1.067 400.079  1.00  0.00     0.053 C 
BRANCH  10  11
ATOM     11  C   UNL     1       4.122  -2.513 400.461  1.00  0.00     0.041 C 
ATOM     12  O   UNL     1       3.047  -3.092 400.769  1.00  0.00    -0.550 OA
ATOM     13  O   UNL     1       5.308  -3.235 400.429  1.00  0.00    -0.550 OA
ENDBRANCH  10  11
ENDBRANCH   9  10
ENDBRANCH   8   9
ENDBRANCH   1   8
TORSDOF 8
ENDMDL
