MODEL 1
REMARK VINA RESULT:    -5.479      0.000      0.000
REMARK INTER + INTRA:          -6.697
REMARK INTER:                  -6.600
REMARK INTRA:                  -0.096
REMARK UNBOUND:                -0.096
REMARK SMILES O=c1c(O)c(-c2ccc(O)c(O)c2)oc2cc(O)cc(O)c12
REMARK SMILES IDX 5 1 3 2 2 3 1 4 22 5 20 6 19 7 17 8 16 9 15 10 14 11 6 12
REMARK SMILES IDX 7 13 8 14 9 15 13 16 11 17 10 18 12 20 4 22 21 24 18 26
REMARK H PARENT 10 19 12 21 4 23 21 25 18 27
REMARK Flexibility Score: inf
ROOT
ATOM      1  C   UNL     1       3.519   5.641   9.822  1.00  0.00     0.180 A 
ATOM      2  C   UNL     1       2.434   5.879   8.958  1.00  0.00     0.208 A 
ATOM      3  C   UNL     1       1.507   6.880   9.291  1.00  0.00     0.238 A 
ATOM      4  O   UNL     1       0.525   7.095   8.530  1.00  0.00    -0.285 OA
ATOM      5  C   UNL     1       1.691   7.635  10.467  1.00  0.00     0.111 A 
ATOM      6  C   UNL     1       0.807   8.663  10.873  1.00  0.00     0.134 A 
ATOM      7  C   UNL     1       1.064   9.378  12.053  1.00  0.00     0.093 A 
ATOM      8  C   UNL     1       2.186   9.085  12.832  1.00  0.00     0.123 A 
ATOM      9  C   UNL     1       3.063   8.069  12.437  1.00  0.00     0.094 A 
ATOM     10  C   UNL     1       2.823   7.346  11.265  1.00  0.00     0.146 A 
ATOM     11  O   UNL     1       3.669   6.384  10.916  1.00  0.00    -0.452 OA
ENDROOT
BRANCH   1  12
ATOM     12  C   UNL     1       4.526   4.590   9.549  1.00  0.00     0.025 A 
ATOM     13  C   UNL     1       5.297   4.662   8.380  1.00  0.00     0.016 A 
ATOM     14  C   UNL     1       6.266   3.693   8.113  1.00  0.00     0.051 A 
ATOM     15  C   UNL     1       6.495   2.644   9.011  1.00  0.00     0.157 A 
ATOM     16  C   UNL     1       4.769   3.551  10.464  1.00  0.00     0.062 A 
ATOM     17  C   UNL     1       5.741   2.576  10.206  1.00  0.00     0.158 A 
BRANCH  15  18
ATOM     18  O   UNL     1       7.472   1.704   8.681  1.00  0.00    -0.504 OA
ATOM     19  H   UNL     1       7.352   0.984   7.984  1.00  0.00     0.293 HD
ENDBRANCH  15  18
BRANCH  17  20
ATOM     20  O   UNL     1       5.927   1.573  11.158  1.00  0.00    -0.504 OA
ATOM     21  H   UNL     1       5.193   0.962  11.487  1.00  0.00     0.293 HD
ENDBRANCH  17  20
ENDBRANCH   1  12
BRANCH   2  22
ATOM     22  O   UNL     1       2.301   5.149   7.773  1.00  0.00    -0.502 OA
ATOM     23  H   UNL     1       2.762   5.421   6.913  1.00  0.00     0.293 HD
ENDBRANCH   2  22
BRANCH   6  24
ATOM     24  O   UNL     1      -0.321   8.981  10.116  1.00  0.00    -0.507 OA
ATOM     25  H   UNL     1      -1.258   8.904  10.496  1.00  0.00     0.293 HD
ENDBRANCH   6  24
BRANCH   8  26
ATOM     26  O   UNL     1       2.419   9.810  13.999  1.00  0.00    -0.508 OA
ATOM     27  H   UNL     1       2.186   9.434  14.911  1.00  0.00     0.293 HD
ENDBRANCH   8  26
TORSDOF 6
ENDMDL
MODEL 2
REMARK VINA RESULT:    -5.343      2.280      7.060
REMARK INTER + INTRA:          -6.532
REMARK INTER:                  -6.212
REMARK INTRA:                  -0.320
REMARK UNBOUND:                -0.096
REMARK SMILES O=c1c(O)c(-c2ccc(O)c(O)c2)oc2cc(O)cc(O)c12
REMARK SMILES IDX 5 1 3 2 2 3 1 4 22 5 20 6 19 7 17 8 16 9 15 10 14 11 6 12
REMARK SMILES IDX 7 13 8 14 9 15 13 16 11 17 10 18 12 20 4 22 21 24 18 26
REMARK H PARENT 10 19 12 21 4 23 21 25 18 27
REMARK Flexibility Score: inf
ROOT
ATOM      1  C   UNL     1       4.053   5.477   8.249  1.00  0.00     0.180 A 
ATOM      2  C   UNL     1       4.821   5.411   7.071  1.00  0.00     0.208 A 
ATOM      3  C   UNL     1       5.861   4.472   6.991  1.00  0.00     0.238 A 
ATOM      4  O   UNL     1       6.564   4.411   5.946  1.00  0.00    -0.285 OA
ATOM      5  C   UNL     1       6.103   3.606   8.077  1.00  0.00     0.111 A 
ATOM      6  C   UNL     1       7.128   2.630   8.076  1.00  0.00     0.134 A 
ATOM      7  C   UNL     1       7.299   1.797   9.193  1.00  0.00     0.093 A 
ATOM      8  C   UNL     1       6.466   1.921  10.307  1.00  0.00     0.123 A 
ATOM      9  C   UNL     1       5.451   2.885  10.315  1.00  0.00     0.094 A 
ATOM     10  C   UNL     1       5.267   3.724   9.212  1.00  0.00     0.146 A 
ATOM     11  O   UNL     1       4.299   4.633   9.247  1.00  0.00    -0.452 OA
ENDROOT
BRANCH   1  12
ATOM     12  C   UNL     1       2.952   6.453   8.416  1.00  0.00     0.025 A 
ATOM     13  C   UNL     1       3.219   7.701   8.997  1.00  0.00     0.016 A 
ATOM     14  C   UNL     1       2.199   8.643   9.146  1.00  0.00     0.051 A 
ATOM     15  C   UNL     1       0.901   8.367   8.706  1.00  0.00     0.157 A 
ATOM     16  C   UNL     1       1.653   6.180   7.952  1.00  0.00     0.062 A 
ATOM     17  C   UNL     1       0.625   7.120   8.094  1.00  0.00     0.158 A 
BRANCH  15  18
ATOM     18  O   UNL     1      -0.075   9.348   8.892  1.00  0.00    -0.504 OA
ATOM     19  H   UNL     1       0.002  10.102   9.558  1.00  0.00     0.293 HD
ENDBRANCH  15  18
BRANCH  17  20
ATOM     20  O   UNL     1      -0.640   6.781   7.612  1.00  0.00    -0.504 OA
ATOM     21  H   UNL     1      -1.484   6.814   8.166  1.00  0.00     0.293 HD
ENDBRANCH  17  20
ENDBRANCH   1  12
BRANCH   2  22
ATOM     22  O   UNL     1       4.530   6.247   5.990  1.00  0.00    -0.502 OA
ATOM     23  H   UNL     1       3.802   6.034   5.319  1.00  0.00     0.293 HD
ENDBRANCH   2  22
BRANCH   6  24
ATOM     24  O   UNL     1       7.976   2.479   6.978  1.00  0.00    -0.507 OA
ATOM     25  H   UNL     1       8.969   2.307   7.090  1.00  0.00     0.293 HD
ENDBRANCH   6  24
BRANCH   8  26
ATOM     26  O   UNL     1       6.655   1.082  11.403  1.00  0.00    -0.508 OA
ATOM     27  H   UNL     1       7.583   0.815  11.711  1.00  0.00     0.293 HD
ENDBRANCH   8  26
TORSDOF 6
ENDMDL
MODEL 3
REMARK VINA RESULT:    -5.252      3.599      6.223
REMARK INTER + INTRA:          -6.423
REMARK INTER:                  -6.153
REMARK INTRA:                  -0.269
REMARK UNBOUND:                -0.096
REMARK SMILES O=c1c(O)c(-c2ccc(O)c(O)c2)oc2cc(O)cc(O)c12
REMARK SMILES IDX 5 1 3 2 2 3 1 4 22 5 20 6 19 7 17 8 16 9 15 10 14 11 6 12
REMARK SMILES IDX 7 13 8 14 9 15 13 16 11 17 10 18 12 20 4 22 21 24 18 26
REMARK H PARENT 10 19 12 21 4 23 21 25 18 27
REMARK Flexibility Score: inf
ROOT
ATOM      1  C   UNL     1       2.218   7.858  11.893  1.00  0.00     0.180 A 
ATOM      2  C   UNL     1       1.945   8.922  12.772  1.00  0.00     0.208 A 
ATOM      3  C   UNL     1       2.757   9.092  13.905  1.00  0.00     0.238 A 
ATOM      4  O   UNL     1       2.516  10.034  14.707  1.00  0.00    -0.285 OA
ATOM      5  C   UNL     1       3.834   8.210  14.128  1.00  0.00     0.111 A 
ATOM      6  C   UNL     1       4.702   8.313  15.242  1.00  0.00     0.134 A 
ATOM      7  C   UNL     1       5.759   7.402  15.388  1.00  0.00     0.093 A 
ATOM      8  C   UNL     1       5.966   6.393  14.444  1.00  0.00     0.123 A 
ATOM      9  C   UNL     1       5.111   6.285  13.342  1.00  0.00     0.094 A 
ATOM     10  C   UNL     1       4.052   7.183  13.180  1.00  0.00     0.146 A 
ATOM     11  O   UNL     1       3.252   7.055  12.126  1.00  0.00    -0.452 OA
ENDROOT
BRANCH   1  12
ATOM     12  C   UNL     1       1.396   7.604  10.688  1.00  0.00     0.025 A 
ATOM     13  C   UNL     1       0.434   6.583  10.712  1.00  0.00     0.016 A 
ATOM     14  C   UNL     1      -0.366   6.339   9.594  1.00  0.00     0.051 A 
ATOM     15  C   UNL     1      -0.233   7.115   8.438  1.00  0.00     0.157 A 
ATOM     16  C   UNL     1       1.517   8.399   9.535  1.00  0.00     0.062 A 
ATOM     17  C   UNL     1       0.717   8.164   8.410  1.00  0.00     0.158 A 
BRANCH  15  18
ATOM     18  O   UNL     1      -1.057   6.815   7.352  1.00  0.00    -0.504 OA
ATOM     19  H   UNL     1      -1.385   7.498   6.685  1.00  0.00     0.293 HD
ENDBRANCH  15  18
BRANCH  17  20
ATOM     20  O   UNL     1       0.892   8.993   7.301  1.00  0.00    -0.504 OA
ATOM     21  H   UNL     1       1.776   9.400   7.034  1.00  0.00     0.293 HD
ENDBRANCH  17  20
ENDBRANCH   1  12
BRANCH   2  22
ATOM     22  O   UNL     1       0.902   9.812  12.504  1.00  0.00    -0.502 OA
ATOM     23  H   UNL     1       1.019  10.622  11.906  1.00  0.00     0.293 HD
ENDBRANCH   2  22
BRANCH   6  24
ATOM     24  O   UNL     1       4.524   9.310  16.201  1.00  0.00    -0.507 OA
ATOM     25  H   UNL     1       4.762   9.162  17.176  1.00  0.00     0.293 HD
ENDBRANCH   6  24
BRANCH   8  26
ATOM     26  O   UNL     1       7.023   5.501  14.612  1.00  0.00    -0.508 OA
ATOM     27  H   UNL     1       6.886   4.500  14.546  1.00  0.00     0.293 HD
ENDBRANCH   8  26
TORSDOF 6
ENDMDL
MODEL 4
REMARK VINA RESULT:    -5.223      2.749      5.755
REMARK INTER + INTRA:          -6.388
REMARK INTER:                  -6.132
REMARK INTRA:                  -0.257
REMARK UNBOUND:                -0.096
REMARK SMILES O=c1c(O)c(-c2ccc(O)c(O)c2)oc2cc(O)cc(O)c12
REMARK SMILES IDX 5 1 3 2 2 3 1 4 22 5 20 6 19 7 17 8 16 9 15 10 14 11 6 12
REMARK SMILES IDX 7 13 8 14 9 15 13 16 11 17 10 18 12 20 4 22 21 24 18 26
REMARK H PARENT 10 19 12 21 4 23 21 25 18 27
REMARK Flexibility Score: inf
ROOT
ATOM      1  C   UNL     1       3.812   6.601  11.021  1.00  0.00     0.180 A 
ATOM      2  C   UNL     1       4.832   5.670  10.751  1.00  0.00     0.208 A 
ATOM      3  C   UNL     1       5.725   5.325  11.778  1.00  0.00     0.238 A 
ATOM      4  O   UNL     1       6.650   4.500  11.545  1.00  0.00    -0.285 OA
ATOM      5  C   UNL     1       5.571   5.900  13.056  1.00  0.00     0.111 A 
ATOM      6  C   UNL     1       6.426   5.603  14.146  1.00  0.00     0.134 A 
ATOM      7  C   UNL     1       6.201   6.209  15.392  1.00  0.00     0.093 A 
ATOM      8  C   UNL     1       5.142   7.102  15.568  1.00  0.00     0.123 A 
ATOM      9  C   UNL     1       4.295   7.401  14.495  1.00  0.00     0.094 A 
ATOM     10  C   UNL     1       4.504   6.807  13.246  1.00  0.00     0.146 A 
ATOM     11  O   UNL     1       3.688   7.112  12.243  1.00  0.00    -0.452 OA
ENDROOT
BRANCH   1  12
ATOM     12  C   UNL     1       2.844   7.030   9.985  1.00  0.00     0.025 A 
ATOM     13  C   UNL     1       3.265   7.892   8.962  1.00  0.00     0.016 A 
ATOM     14  C   UNL     1       2.375   8.293   7.965  1.00  0.00     0.051 A 
ATOM     15  C   UNL     1       1.054   7.832   7.958  1.00  0.00     0.157 A 
ATOM     16  C   UNL     1       1.524   6.547   9.969  1.00  0.00     0.062 A 
ATOM     17  C   UNL     1       0.624   6.941   8.971  1.00  0.00     0.158 A 
BRANCH  15  18
ATOM     18  O   UNL     1       0.212   8.276   6.938  1.00  0.00    -0.504 OA
ATOM     19  H   UNL     1       0.443   8.235   5.956  1.00  0.00     0.293 HD
ENDBRANCH  15  18
BRANCH  17  20
ATOM     20  O   UNL     1      -0.671   6.423   9.019  1.00  0.00    -0.504 OA
ATOM     21  H   UNL     1      -1.093   6.033   9.849  1.00  0.00     0.293 HD
ENDBRANCH  17  20
ENDBRANCH   1  12
BRANCH   2  22
ATOM     22  O   UNL     1       4.933   5.078   9.489  1.00  0.00    -0.502 OA
ATOM     23  H   UNL     1       4.513   4.182   9.275  1.00  0.00     0.293 HD
ENDBRANCH   2  22
BRANCH   6  24
ATOM     24  O   UNL     1       7.491   4.714  14.002  1.00  0.00    -0.507 OA
ATOM     25  H   UNL     1       7.809   4.406  13.090  1.00  0.00     0.293 HD
ENDBRANCH   6  24
BRANCH   8  26
ATOM     26  O   UNL     1       4.940   7.690  16.815  1.00  0.00    -0.508 OA
ATOM     27  H   UNL     1       4.528   7.174  17.583  1.00  0.00     0.293 HD
ENDBRANCH   8  26
TORSDOF 6
ENDMDL
MODEL 5
REMARK VINA RESULT:    -5.220      2.713      4.503
REMARK INTER + INTRA:          -6.384
REMARK INTER:                  -6.557
REMARK INTRA:                   0.172
REMARK UNBOUND:                -0.096
REMARK SMILES O=c1c(O)c(-c2ccc(O)c(O)c2)oc2cc(O)cc(O)c12
REMARK SMILES IDX 5 1 3 2 2 3 1 4 22 5 20 6 19 7 17 8 16 9 15 10 14 11 6 12
REMARK SMILES IDX 7 13 8 14 9 15 13 16 11 17 10 18 12 20 4 22 21 24 18 26
REMARK H PARENT 10 19 12 21 4 23 21 25 18 27
REMARK Flexibility Score: inf
ROOT
ATOM      1  C   UNL     1       3.978   6.177  11.309  1.00  0.00     0.180 A 
ATOM      2  C   UNL     1       4.005   5.192  10.305  1.00  0.00     0.208 A 
ATOM      3  C   UNL     1       3.164   5.336   9.190  1.00  0.00     0.238 A 
ATOM      4  O   UNL     1       3.171   4.454   8.289  1.00  0.00    -0.285 OA
ATOM      5  C   UNL     1       2.329   6.467   9.090  1.00  0.00     0.111 A 
ATOM      6  C   UNL     1       1.455   6.690   7.998  1.00  0.00     0.134 A 
ATOM      7  C   UNL     1       0.662   7.847   7.966  1.00  0.00     0.093 A 
ATOM      8  C   UNL     1       0.726   8.783   9.001  1.00  0.00     0.123 A 
ATOM      9  C   UNL     1       1.586   8.568  10.083  1.00  0.00     0.094 A 
ATOM     10  C   UNL     1       2.383   7.421  10.133  1.00  0.00     0.146 A 
ATOM     11  O   UNL     1       3.188   7.239  11.174  1.00  0.00    -0.452 OA
ENDROOT
BRANCH   1  12
ATOM     12  C   UNL     1       4.821   6.086  12.524  1.00  0.00     0.025 A 
ATOM     13  C   UNL     1       6.151   5.655  12.409  1.00  0.00     0.016 A 
ATOM     14  C   UNL     1       6.969   5.581  13.538  1.00  0.00     0.051 A 
ATOM     15  C   UNL     1       6.483   5.946  14.798  1.00  0.00     0.157 A 
ATOM     16  C   UNL     1       4.336   6.476  13.784  1.00  0.00     0.062 A 
ATOM     17  C   UNL     1       5.150   6.407  14.922  1.00  0.00     0.158 A 
BRANCH  15  18
ATOM     18  O   UNL     1       7.349   5.841  15.887  1.00  0.00    -0.504 OA
ATOM     19  H   UNL     1       7.802   4.984  16.169  1.00  0.00     0.293 HD
ENDBRANCH  15  18
BRANCH  17  20
ATOM     20  O   UNL     1       4.602   6.809  16.141  1.00  0.00    -0.504 OA
ATOM     21  H   UNL     1       3.682   7.212  16.241  1.00  0.00     0.293 HD
ENDBRANCH  17  20
ENDBRANCH   1  12
BRANCH   2  22
ATOM     22  O   UNL     1       4.878   4.104  10.404  1.00  0.00    -0.502 OA
ATOM     23  H   UNL     1       5.198   3.589   9.593  1.00  0.00     0.293 HD
ENDBRANCH   2  22
BRANCH   6  24
ATOM     24  O   UNL     1       1.370   5.775   6.948  1.00  0.00    -0.507 OA
ATOM     25  H   UNL     1       0.545   5.711   6.361  1.00  0.00     0.293 HD
ENDBRANCH   6  24
BRANCH   8  26
ATOM     26  O   UNL     1      -0.072   9.924   8.945  1.00  0.00    -0.508 OA
ATOM     27  H   UNL     1       0.188  10.724   8.381  1.00  0.00     0.293 HD
ENDBRANCH   8  26
TORSDOF 6
ENDMDL
MODEL 6
REMARK VINA RESULT:    -5.175      2.852      6.543
REMARK INTER + INTRA:          -6.330
REMARK INTER:                  -6.120
REMARK INTRA:                  -0.210
REMARK UNBOUND:                -0.096
REMARK SMILES O=c1c(O)c(-c2ccc(O)c(O)c2)oc2cc(O)cc(O)c12
REMARK SMILES IDX 5 1 3 2 2 3 1 4 22 5 20 6 19 7 17 8 16 9 15 10 14 11 6 12
REMARK SMILES IDX 7 13 8 14 9 15 13 16 11 17 10 18 12 20 4 22 21 24 18 26
REMARK H PARENT 10 19 12 21 4 23 21 25 18 27
REMARK Flexibility Score: inf
ROOT
ATOM      1  C   UNL     1       5.081   6.300  12.495  1.00  0.00     0.180 A 
ATOM      2  C   UNL     1       5.896   5.187  12.216  1.00  0.00     0.208 A 
ATOM      3  C   UNL     1       5.643   4.432  11.060  1.00  0.00     0.238 A 
ATOM      4  O   UNL     1       6.359   3.427  10.805  1.00  0.00    -0.285 OA
ATOM      5  C   UNL     1       4.594   4.812  10.196  1.00  0.00     0.111 A 
ATOM      6  C   UNL     1       4.275   4.108   9.010  1.00  0.00     0.134 A 
ATOM      7  C   UNL     1       3.222   4.556   8.197  1.00  0.00     0.093 A 
ATOM      8  C   UNL     1       2.486   5.690   8.546  1.00  0.00     0.123 A 
ATOM      9  C   UNL     1       2.796   6.389   9.717  1.00  0.00     0.094 A 
ATOM     10  C   UNL     1       3.840   5.958  10.540  1.00  0.00     0.146 A 
ATOM     11  O   UNL     1       4.110   6.637  11.649  1.00  0.00    -0.452 OA
ENDROOT
BRANCH   1  12
ATOM     12  C   UNL     1       5.274   7.133  13.703  1.00  0.00     0.025 A 
ATOM     13  C   UNL     1       5.638   8.480  13.561  1.00  0.00     0.016 A 
ATOM     14  C   UNL     1       5.806   9.289  14.687  1.00  0.00     0.051 A 
ATOM     15  C   UNL     1       5.601   8.776  15.972  1.00  0.00     0.157 A 
ATOM     16  C   UNL     1       5.045   6.621  14.992  1.00  0.00     0.062 A 
ATOM     17  C   UNL     1       5.208   7.426  16.127  1.00  0.00     0.158 A 
BRANCH  15  18
ATOM     18  O   UNL     1       5.792   9.635  17.056  1.00  0.00    -0.504 OA
ATOM     19  H   UNL     1       5.046  10.124  17.528  1.00  0.00     0.293 HD
ENDBRANCH  15  18
BRANCH  17  20
ATOM     20  O   UNL     1       4.964   6.850  17.375  1.00  0.00    -0.504 OA
ATOM     21  H   UNL     1       4.449   7.302  18.115  1.00  0.00     0.293 HD
ENDBRANCH  17  20
ENDBRANCH   1  12
BRANCH   2  22
ATOM     22  O   UNL     1       6.960   4.860  13.062  1.00  0.00    -0.502 OA
ATOM     23  H   UNL     1       7.914   4.787  12.730  1.00  0.00     0.293 HD
ENDBRANCH   2  22
BRANCH   6  24
ATOM     24  O   UNL     1       4.993   2.973   8.633  1.00  0.00    -0.507 OA
ATOM     25  H   UNL     1       4.852   2.077   9.088  1.00  0.00     0.293 HD
ENDBRANCH   6  24
BRANCH   8  26
ATOM     26  O   UNL     1       1.446   6.113   7.721  1.00  0.00    -0.508 OA
ATOM     27  H   UNL     1       0.775   5.459   7.336  1.00  0.00     0.293 HD
ENDBRANCH   8  26
TORSDOF 6
ENDMDL
MODEL 7
REMARK VINA RESULT:    -5.037      1.501      3.145
REMARK INTER + INTRA:          -6.164
REMARK INTER:                  -6.090
REMARK INTRA:                  -0.074
REMARK UNBOUND:                -0.096
REMARK SMILES O=c1c(O)c(-c2ccc(O)c(O)c2)oc2cc(O)cc(O)c12
REMARK SMILES IDX 5 1 3 2 2 3 1 4 22 5 20 6 19 7 17 8 16 9 15 10 14 11 6 12
REMARK SMILES IDX 7 13 8 14 9 15 13 16 11 17 10 18 12 20 4 22 21 24 18 26
REMARK H PARENT 10 19 12 21 4 23 21 25 18 27
REMARK Flexibility Score: inf
ROOT
ATOM      1  C   UNL     1       4.464   4.939   9.986  1.00  0.00     0.180 A 
ATOM      2  C   UNL     1       4.545   5.742  11.139  1.00  0.00     0.208 A 
ATOM      3  C   UNL     1       3.590   6.754  11.329  1.00  0.00     0.238 A 
ATOM      4  O   UNL     1       3.658   7.487  12.352  1.00  0.00    -0.285 OA
ATOM      5  C   UNL     1       2.566   6.932  10.376  1.00  0.00     0.111 A 
ATOM      6  C   UNL     1       1.564   7.926  10.494  1.00  0.00     0.134 A 
ATOM      7  C   UNL     1       0.571   8.034   9.508  1.00  0.00     0.093 A 
ATOM      8  C   UNL     1       0.560   7.170   8.411  1.00  0.00     0.123 A 
ATOM      9  C   UNL     1       1.548   6.187   8.288  1.00  0.00     0.094 A 
ATOM     10  C   UNL     1       2.546   6.065   9.260  1.00  0.00     0.146 A 
ATOM     11  O   UNL     1       3.475   5.126   9.116  1.00  0.00    -0.452 OA
ENDROOT
BRANCH   1  12
ATOM     12  C   UNL     1       5.444   3.864   9.706  1.00  0.00     0.025 A 
ATOM     13  C   UNL     1       6.208   3.917   8.531  1.00  0.00     0.016 A 
ATOM     14  C   UNL     1       7.152   2.925   8.257  1.00  0.00     0.051 A 
ATOM     15  C   UNL     1       7.363   1.872   9.154  1.00  0.00     0.157 A 
ATOM     16  C   UNL     1       5.669   2.820  10.620  1.00  0.00     0.062 A 
ATOM     17  C   UNL     1       6.616   1.823  10.355  1.00  0.00     0.158 A 
BRANCH  15  18
ATOM     18  O   UNL     1       8.315   0.908   8.818  1.00  0.00    -0.504 OA
ATOM     19  H   UNL     1       8.856   0.921   7.965  1.00  0.00     0.293 HD
ENDBRANCH  15  18
BRANCH  17  20
ATOM     20  O   UNL     1       6.785   0.816  11.307  1.00  0.00    -0.504 OA
ATOM     21  H   UNL     1       7.659   0.620  11.773  1.00  0.00     0.293 HD
ENDBRANCH  17  20
ENDBRANCH   1  12
BRANCH   2  22
ATOM     22  O   UNL     1       5.541   5.513  12.092  1.00  0.00    -0.502 OA
ATOM     23  H   UNL     1       6.526   5.518  11.859  1.00  0.00     0.293 HD
ENDBRANCH   2  22
BRANCH   6  24
ATOM     24  O   UNL     1       1.546   8.803  11.579  1.00  0.00    -0.507 OA
ATOM     25  H   UNL     1       1.393   9.798  11.459  1.00  0.00     0.293 HD
ENDBRANCH   6  24
BRANCH   8  26
ATOM     26  O   UNL     1      -0.437   7.298   7.446  1.00  0.00    -0.508 OA
ATOM     27  H   UNL     1      -0.591   8.171   6.957  1.00  0.00     0.293 HD
ENDBRANCH   8  26
TORSDOF 6
ENDMDL
MODEL 8
REMARK VINA RESULT:    -4.940      3.007      5.405
REMARK INTER + INTRA:          -6.047
REMARK INTER:                  -5.724
REMARK INTRA:                  -0.323
REMARK UNBOUND:                -0.096
REMARK SMILES O=c1c(O)c(-c2ccc(O)c(O)c2)oc2cc(O)cc(O)c12
REMARK SMILES IDX 5 1 3 2 2 3 1 4 22 5 20 6 19 7 17 8 16 9 15 10 14 11 6 12
REMARK SMILES IDX 7 13 8 14 9 15 13 16 11 17 10 18 12 20 4 22 21 24 18 26
REMARK H PARENT 10 19 12 21 4 23 21 25 18 27
REMARK Flexibility Score: inf
ROOT
ATOM      1  C   UNL     1       3.812   7.492  12.841  1.00  0.00     0.180 A 
ATOM      2  C   UNL     1       2.767   8.408  13.063  1.00  0.00     0.208 A 
ATOM      3  C   UNL     1       1.765   8.544  12.090  1.00  0.00     0.238 A 
ATOM      4  O   UNL     1       0.829   9.369  12.272  1.00  0.00    -0.285 OA
ATOM      5  C   UNL     1       1.815   7.752  10.924  1.00  0.00     0.111 A 
ATOM      6  C   UNL     1       0.844   7.825   9.896  1.00  0.00     0.134 A 
ATOM      7  C   UNL     1       0.958   6.995   8.770  1.00  0.00     0.093 A 
ATOM      8  C   UNL     1       2.021   6.097   8.653  1.00  0.00     0.123 A 
ATOM      9  C   UNL     1       2.984   6.021   9.664  1.00  0.00     0.094 A 
ATOM     10  C   UNL     1       2.888   6.840  10.793  1.00  0.00     0.146 A 
ATOM     11  O   UNL     1       3.819   6.751  11.736  1.00  0.00    -0.452 OA
ENDROOT
BRANCH   1  12
ATOM     12  C   UNL     1       4.915   7.307  13.812  1.00  0.00     0.025 A 
ATOM     13  C   UNL     1       6.034   8.151  13.754  1.00  0.00     0.016 A 
ATOM     14  C   UNL     1       7.075   8.006  14.673  1.00  0.00     0.051 A 
ATOM     15  C   UNL     1       7.017   7.029  15.672  1.00  0.00     0.157 A 
ATOM     16  C   UNL     1       4.842   6.339  14.828  1.00  0.00     0.062 A 
ATOM     17  C   UNL     1       5.881   6.188  15.756  1.00  0.00     0.158 A 
BRANCH  15  18
ATOM     18  O   UNL     1       8.094   6.931  16.554  1.00  0.00    -0.504 OA
ATOM     19  H   UNL     1       8.049   7.178  17.532  1.00  0.00     0.293 HD
ENDBRANCH  15  18
BRANCH  17  20
ATOM     20  O   UNL     1       5.741   5.206  16.737  1.00  0.00    -0.504 OA
ATOM     21  H   UNL     1       4.863   4.961  17.171  1.00  0.00     0.293 HD
ENDBRANCH  17  20
ENDBRANCH   1  12
BRANCH   2  22
ATOM     22  O   UNL     1       2.714   9.146  14.249  1.00  0.00    -0.502 OA
ATOM     23  H   UNL     1       3.496   9.697  14.581  1.00  0.00     0.293 HD
ENDBRANCH   2  22
BRANCH   6  24
ATOM     24  O   UNL     1      -0.231   8.711   9.985  1.00  0.00    -0.507 OA
ATOM     25  H   UNL     1      -0.180   9.556  10.542  1.00  0.00     0.293 HD
ENDBRANCH   6  24
BRANCH   8  26
ATOM     26  O   UNL     1       2.111   5.284   7.525  1.00  0.00    -0.508 OA
ATOM     27  H   UNL     1       1.330   4.715   7.219  1.00  0.00     0.293 HD
ENDBRANCH   8  26
TORSDOF 6
ENDMDL
MODEL 9
REMARK VINA RESULT:    -4.865      2.460      3.154
REMARK INTER + INTRA:          -5.957
REMARK INTER:                  -5.775
REMARK INTRA:                  -0.181
REMARK UNBOUND:                -0.096
REMARK SMILES O=c1c(O)c(-c2ccc(O)c(O)c2)oc2cc(O)cc(O)c12
REMARK SMILES IDX 5 1 3 2 2 3 1 4 22 5 20 6 19 7 17 8 16 9 15 10 14 11 6 12
REMARK SMILES IDX 7 13 8 14 9 15 13 16 11 17 10 18 12 20 4 22 21 24 18 26
REMARK H PARENT 10 19 12 21 4 23 21 25 18 27
REMARK Flexibility Score: inf
ROOT
ATOM      1  C   UNL     1       4.427   5.122   8.887  1.00  0.00     0.180 A 
ATOM      2  C   UNL     1       4.618   5.782   7.659  1.00  0.00     0.208 A 
ATOM      3  C   UNL     1       3.587   6.590   7.154  1.00  0.00     0.238 A 
ATOM      4  O   UNL     1       3.742   7.177   6.050  1.00  0.00    -0.285 OA
ATOM      5  C   UNL     1       2.394   6.738   7.892  1.00  0.00     0.111 A 
ATOM      6  C   UNL     1       1.308   7.535   7.457  1.00  0.00     0.134 A 
ATOM      7  C   UNL     1       0.158   7.641   8.254  1.00  0.00     0.093 A 
ATOM      8  C   UNL     1       0.074   6.967   9.474  1.00  0.00     0.123 A 
ATOM      9  C   UNL     1       1.142   6.176   9.909  1.00  0.00     0.094 A 
ATOM     10  C   UNL     1       2.296   6.059   9.129  1.00  0.00     0.146 A 
ATOM     11  O   UNL     1       3.295   5.298   9.563  1.00  0.00    -0.452 OA
ENDROOT
BRANCH   1  12
ATOM     12  C   UNL     1       5.460   4.239   9.475  1.00  0.00     0.025 A 
ATOM     13  C   UNL     1       5.801   3.047   8.820  1.00  0.00     0.016 A 
ATOM     14  C   UNL     1       6.787   2.209   9.346  1.00  0.00     0.051 A 
ATOM     15  C   UNL     1       7.460   2.549  10.524  1.00  0.00     0.157 A 
ATOM     16  C   UNL     1       6.150   4.595  10.646  1.00  0.00     0.062 A 
ATOM     17  C   UNL     1       7.142   3.763  11.180  1.00  0.00     0.158 A 
BRANCH  15  18
ATOM     18  O   UNL     1       8.429   1.665  11.001  1.00  0.00    -0.504 OA
ATOM     19  H   UNL     1       9.053   1.137  10.409  1.00  0.00     0.293 HD
ENDBRANCH  15  18
BRANCH  17  20
ATOM     20  O   UNL     1       7.785   4.179  12.347  1.00  0.00    -0.504 OA
ATOM     21  H   UNL     1       7.531   3.868  13.273  1.00  0.00     0.293 HD
ENDBRANCH  17  20
ENDBRANCH   1  12
BRANCH   2  22
ATOM     22  O   UNL     1       5.828   5.658   6.970  1.00  0.00    -0.502 OA
ATOM     23  H   UNL     1       6.149   6.352   6.306  1.00  0.00     0.293 HD
ENDBRANCH   2  22
BRANCH   6  24
ATOM     24  O   UNL     1       1.363   8.223   6.244  1.00  0.00    -0.507 OA
ATOM     25  H   UNL     1       0.528   8.586   5.798  1.00  0.00     0.293 HD
ENDBRANCH   6  24
BRANCH   8  26
ATOM     26  O   UNL     1      -1.079   7.089  10.247  1.00  0.00    -0.508 OA
ATOM     27  H   UNL     1      -1.478   7.994  10.464  1.00  0.00     0.293 HD
ENDBRANCH   8  26
TORSDOF 6
ENDMDL
