MODEL 1
REMARK VINA RESULT:    -3.284      0.000      0.000
REMARK INTER + INTRA:          -4.080
REMARK INTER:                  -3.955
REMARK INTRA:                  -0.125
REMARK UNBOUND:                -0.125
REMARK SMILES OCC(O)CO
REMARK SMILES IDX 3 1 5 2 6 3 2 5 1 6 4 8
REMARK H PARENT 6 4 1 7 4 9
REMARK Flexibility Score: inf
ROOT
ATOM      1  C   UNL     1      25.999  -6.980  15.544  1.00  0.00     0.165 C 
ENDROOT
BRANCH   1   2
ATOM      2  C   UNL     1      25.175  -8.271  15.644  1.00  0.00     0.190 C 
BRANCH   2   3
ATOM      3  O   UNL     1      26.016  -9.392  15.619  1.00  0.00    -0.394 OA
ATOM      4  H   UNL     1      26.093  -9.699  16.560  1.00  0.00     0.210 HD
ENDBRANCH   2   3
ENDBRANCH   1   2
BRANCH   1   5
ATOM      5  C   UNL     1      26.008  -6.436  14.110  1.00  0.00     0.190 C 
BRANCH   5   6
ATOM      6  O   UNL     1      26.817  -7.232  13.287  1.00  0.00    -0.394 OA
ATOM      7  H   UNL     1      27.626  -6.696  13.078  1.00  0.00     0.210 HD
ENDBRANCH   5   6
ENDBRANCH   1   5
BRANCH   1   8
ATOM      8  O   UNL     1      27.319  -7.218  15.961  1.00  0.00    -0.388 OA
ATOM      9  H   UNL     1      27.492  -6.611  16.727  1.00  0.00     0.211 HD
ENDBRANCH   1   8
TORSDOF 5
ENDMDL
MODEL 2
REMARK VINA RESULT:    -3.260      8.125      8.682
REMARK INTER + INTRA:          -4.052
REMARK INTER:                  -3.843
REMARK INTRA:                  -0.209
REMARK UNBOUND:                -0.125
REMARK SMILES OCC(O)CO
REMARK SMILES IDX 3 1 5 2 6 3 2 5 1 6 4 8
REMARK H PARENT 6 4 1 7 4 9
REMARK Flexibility Score: inf
ROOT
ATOM      1  C   UNL     1      25.282   0.506  17.960  1.00  0.00     0.165 C 
ENDROOT
BRANCH   1   2
ATOM      2  C   UNL     1      24.952  -0.805  17.233  1.00  0.00     0.190 C 
BRANCH   2   3
ATOM      3  O   UNL     1      25.204  -0.679  15.860  1.00  0.00    -0.394 OA
ATOM      4  H   UNL     1      26.175  -0.850  15.742  1.00  0.00     0.210 HD
ENDBRANCH   2   3
ENDBRANCH   1   2
BRANCH   1   5
ATOM      5  C   UNL     1      24.019   1.346  18.193  1.00  0.00     0.190 C 
BRANCH   5   6
ATOM      6  O   UNL     1      23.115   1.175  17.135  1.00  0.00    -0.394 OA
ATOM      7  H   UNL     1      22.228   1.473  17.467  1.00  0.00     0.210 HD
ENDBRANCH   5   6
ENDBRANCH   1   5
BRANCH   1   8
ATOM      8  O   UNL     1      26.207   1.253  17.213  1.00  0.00    -0.388 OA
ATOM      9  H   UNL     1      26.476   0.688  16.442  1.00  0.00     0.211 HD
ENDBRANCH   1   8
TORSDOF 5
ENDMDL
MODEL 3
REMARK VINA RESULT:    -3.172      7.211      7.881
REMARK INTER + INTRA:          -3.946
REMARK INTER:                  -3.748
REMARK INTRA:                  -0.198
REMARK UNBOUND:                -0.125
REMARK SMILES OCC(O)CO
REMARK SMILES IDX 3 1 5 2 6 3 2 5 1 6 4 8
REMARK H PARENT 6 4 1 7 4 9
REMARK Flexibility Score: inf
ROOT
ATOM      1  C   UNL     1      24.509  -0.614  17.874  1.00  0.00     0.165 C 
ENDROOT
BRANCH   1   2
ATOM      2  C   UNL     1      24.122  -0.572  16.389  1.00  0.00     0.190 C 
BRANCH   2   3
ATOM      3  O   UNL     1      25.205  -0.964  15.590  1.00  0.00    -0.394 OA
ATOM      4  H   UNL     1      25.821  -0.185  15.562  1.00  0.00     0.210 HD
ENDBRANCH   2   3
ENDBRANCH   1   2
BRANCH   1   5
ATOM      5  C   UNL     1      25.304   0.635  18.277  1.00  0.00     0.190 C 
BRANCH   5   6
ATOM      6  O   UNL     1      26.062   1.103  17.195  1.00  0.00    -0.394 OA
ATOM      7  H   UNL     1      26.392   2.005  17.448  1.00  0.00     0.210 HD
ENDBRANCH   5   6
ENDBRANCH   1   5
BRANCH   1   8
ATOM      8  O   UNL     1      25.275  -1.760  18.140  1.00  0.00    -0.388 OA
ATOM      9  H   UNL     1      25.320  -2.279  17.295  1.00  0.00     0.211 HD
ENDBRANCH   1   8
TORSDOF 5
ENDMDL
MODEL 4
REMARK VINA RESULT:    -3.160      6.970      7.834
REMARK INTER + INTRA:          -3.931
REMARK INTER:                  -3.928
REMARK INTRA:                  -0.003
REMARK UNBOUND:                -0.125
REMARK SMILES OCC(O)CO
REMARK SMILES IDX 3 1 5 2 6 3 2 5 1 6 4 8
REMARK H PARENT 6 4 1 7 4 9
REMARK Flexibility Score: inf
ROOT
ATOM      1  C   UNL     1      24.586  -0.540  16.918  1.00  0.00     0.165 C 
ENDROOT
BRANCH   1   2
ATOM      2  C   UNL     1      24.927   0.802  17.582  1.00  0.00     0.190 C 
BRANCH   2   3
ATOM      3  O   UNL     1      26.203   1.230  17.190  1.00  0.00    -0.394 OA
ATOM      4  H   UNL     1      26.320   0.922  16.253  1.00  0.00     0.210 HD
ENDBRANCH   2   3
ENDBRANCH   1   2
BRANCH   1   5
ATOM      5  C   UNL     1      24.977  -1.720  17.816  1.00  0.00     0.190 C 
BRANCH   5   6
ATOM      6  O   UNL     1      24.873  -2.928  17.112  1.00  0.00    -0.394 OA
ATOM      7  H   UNL     1      25.614  -2.936  16.450  1.00  0.00     0.210 HD
ENDBRANCH   5   6
ENDBRANCH   1   5
BRANCH   1   8
ATOM      8  O   UNL     1      25.250  -0.651  15.686  1.00  0.00    -0.388 OA
ATOM      9  H   UNL     1      26.053  -1.213  15.842  1.00  0.00     0.211 HD
ENDBRANCH   1   8
TORSDOF 5
ENDMDL
MODEL 5
REMARK VINA RESULT:    -3.144      7.991      8.485
REMARK INTER + INTRA:          -3.912
REMARK INTER:                  -3.689
REMARK INTRA:                  -0.223
REMARK UNBOUND:                -0.125
REMARK SMILES OCC(O)CO
REMARK SMILES IDX 3 1 5 2 6 3 2 5 1 6 4 8
REMARK H PARENT 6 4 1 7 4 9
REMARK Flexibility Score: inf
ROOT
ATOM      1  C   UNL     1      24.940  -0.311  17.233  1.00  0.00     0.165 C 
ENDROOT
BRANCH   1   2
ATOM      2  C   UNL     1      23.447  -0.515  17.528  1.00  0.00     0.190 C 
BRANCH   2   3
ATOM      3  O   UNL     1      22.666   0.085  16.531  1.00  0.00    -0.394 OA
ATOM      4  H   UNL     1      21.914   0.530  17.002  1.00  0.00     0.210 HD
ENDBRANCH   2   3
ENDBRANCH   1   2
BRANCH   1   5
ATOM      5  C   UNL     1      25.358   1.146  17.470  1.00  0.00     0.190 C 
BRANCH   5   6
ATOM      6  O   UNL     1      24.867   1.970  16.447  1.00  0.00    -0.394 OA
ATOM      7  H   UNL     1      24.677   2.853  16.860  1.00  0.00     0.210 HD
ENDBRANCH   5   6
ENDBRANCH   1   5
BRANCH   1   8
ATOM      8  O   UNL     1      25.222  -0.667  15.904  1.00  0.00    -0.388 OA
ATOM      9  H   UNL     1      24.808  -1.556  15.751  1.00  0.00     0.211 HD
ENDBRANCH   1   8
TORSDOF 5
ENDMDL
MODEL 6
REMARK VINA RESULT:    -3.125      0.703      2.405
REMARK INTER + INTRA:          -3.889
REMARK INTER:                  -3.694
REMARK INTRA:                  -0.195
REMARK UNBOUND:                -0.125
REMARK SMILES OCC(O)CO
REMARK SMILES IDX 3 1 5 2 6 3 2 5 1 6 4 8
REMARK H PARENT 6 4 1 7 4 9
REMARK Flexibility Score: inf
ROOT
ATOM      1  C   UNL     1      25.826  -7.014  14.084  1.00  0.00     0.165 C 
ENDROOT
BRANCH   1   2
ATOM      2  C   UNL     1      26.298  -6.422  15.419  1.00  0.00     0.190 C 
BRANCH   2   3
ATOM      3  O   UNL     1      27.437  -7.098  15.877  1.00  0.00    -0.394 OA
ATOM      4  H   UNL     1      28.157  -6.896  15.225  1.00  0.00     0.210 HD
ENDBRANCH   2   3
ENDBRANCH   1   2
BRANCH   1   5
ATOM      5  C   UNL     1      25.074  -8.335  14.296  1.00  0.00     0.190 C 
BRANCH   5   6
ATOM      6  O   UNL     1      25.781  -9.165  15.178  1.00  0.00    -0.394 OA
ATOM      7  H   UNL     1      26.587  -8.659  15.460  1.00  0.00     0.210 HD
ENDBRANCH   5   6
ENDBRANCH   1   5
BRANCH   1   8
ATOM      8  O   UNL     1      26.925  -7.233  13.238  1.00  0.00    -0.388 OA
ATOM      9  H   UNL     1      26.576  -7.680  12.423  1.00  0.00     0.211 HD
ENDBRANCH   1   8
TORSDOF 5
ENDMDL
MODEL 7
REMARK VINA RESULT:    -3.098      7.781      8.461
REMARK INTER + INTRA:          -3.857
REMARK INTER:                  -3.656
REMARK INTRA:                  -0.201
REMARK UNBOUND:                -0.125
REMARK SMILES OCC(O)CO
REMARK SMILES IDX 3 1 5 2 6 3 2 5 1 6 4 8
REMARK H PARENT 6 4 1 7 4 9
REMARK Flexibility Score: inf
ROOT
ATOM      1  C   UNL     1      24.086   0.010  17.666  1.00  0.00     0.165 C 
ENDROOT
BRANCH   1   2
ATOM      2  C   UNL     1      25.163   0.963  18.203  1.00  0.00     0.190 C 
BRANCH   2   3
ATOM      3  O   UNL     1      26.122   1.222  17.215  1.00  0.00    -0.394 OA
ATOM      4  H   UNL     1      25.692   1.844  16.571  1.00  0.00     0.210 HD
ENDBRANCH   2   3
ENDBRANCH   1   2
BRANCH   1   5
ATOM      5  C   UNL     1      24.715  -1.215  16.989  1.00  0.00     0.190 C 
BRANCH   5   6
ATOM      6  O   UNL     1      25.171  -0.886  15.705  1.00  0.00    -0.394 OA
ATOM      7  H   UNL     1      25.434  -1.738  15.269  1.00  0.00     0.210 HD
ENDBRANCH   5   6
ENDBRANCH   1   5
BRANCH   1   8
ATOM      8  O   UNL     1      23.264   0.680  16.745  1.00  0.00    -0.388 OA
ATOM      9  H   UNL     1      22.659  -0.001  16.352  1.00  0.00     0.211 HD
ENDBRANCH   1   8
TORSDOF 5
ENDMDL
MODEL 8
REMARK VINA RESULT:    -3.028      8.111      8.670
REMARK INTER + INTRA:          -3.772
REMARK INTER:                  -3.757
REMARK INTRA:                  -0.015
REMARK UNBOUND:                -0.125
REMARK SMILES OCC(O)CO
REMARK SMILES IDX 3 1 5 2 6 3 2 5 1 6 4 8
REMARK H PARENT 6 4 1 7 4 9
REMARK Flexibility Score: inf
ROOT
ATOM      1  C   UNL     1      24.764   1.076  17.332  1.00  0.00     0.165 C 
ENDROOT
BRANCH   1   2
ATOM      2  C   UNL     1      24.394   1.079  18.822  1.00  0.00     0.190 C 
BRANCH   2   3
ATOM      3  O   UNL     1      23.354   0.172  19.068  1.00  0.00    -0.394 OA
ATOM      4  H   UNL     1      23.489  -0.579  18.432  1.00  0.00     0.210 HD
ENDBRANCH   2   3
ENDBRANCH   1   2
BRANCH   1   5
ATOM      5  C   UNL     1      24.280  -0.206  16.642  1.00  0.00     0.190 C 
BRANCH   5   6
ATOM      6  O   UNL     1      25.283  -0.724  15.810  1.00  0.00    -0.394 OA
ATOM      7  H   UNL     1      25.713   0.053  15.366  1.00  0.00     0.210 HD
ENDBRANCH   5   6
ENDBRANCH   1   5
BRANCH   1   8
ATOM      8  O   UNL     1      26.155   1.191  17.181  1.00  0.00    -0.388 OA
ATOM      9  H   UNL     1      26.318   1.498  16.251  1.00  0.00     0.211 HD
ENDBRANCH   1   8
TORSDOF 5
ENDMDL
MODEL 9
REMARK VINA RESULT:    -3.015      1.360      2.853
REMARK INTER + INTRA:          -3.756
REMARK INTER:                  -3.533
REMARK INTRA:                  -0.223
REMARK UNBOUND:                -0.125
REMARK SMILES OCC(O)CO
REMARK SMILES IDX 3 1 5 2 6 3 2 5 1 6 4 8
REMARK H PARENT 6 4 1 7 4 9
REMARK Flexibility Score: inf
ROOT
ATOM      1  C   UNL     1      25.701  -7.019  14.128  1.00  0.00     0.165 C 
ENDROOT
BRANCH   1   2
ATOM      2  C   UNL     1      25.202  -5.567  14.144  1.00  0.00     0.190 C 
BRANCH   2   3
ATOM      3  O   UNL     1      25.389  -5.001  15.413  1.00  0.00    -0.394 OA
ATOM      4  H   UNL     1      25.269  -4.022  15.297  1.00  0.00     0.210 HD
ENDBRANCH   2   3
ENDBRANCH   1   2
BRANCH   1   5
ATOM      5  C   UNL     1      25.990  -7.524  15.548  1.00  0.00     0.190 C 
BRANCH   5   6
ATOM      6  O   UNL     1      27.300  -7.200  15.926  1.00  0.00    -0.394 OA
ATOM      7  H   UNL     1      27.804  -7.028  15.089  1.00  0.00     0.210 HD
ENDBRANCH   5   6
ENDBRANCH   1   5
BRANCH   1   8
ATOM      8  O   UNL     1      26.867  -7.119  13.351  1.00  0.00    -0.388 OA
ATOM      9  H   UNL     1      27.460  -6.372  13.626  1.00  0.00     0.211 HD
ENDBRANCH   1   8
TORSDOF 5
ENDMDL
