MODEL 1
REMARK VINA RESULT:    -3.047      0.000      0.000
REMARK INTER + INTRA:          -6.298
REMARK INTER:                  -4.828
REMARK INTRA:                  -1.470
REMARK UNBOUND:                -1.470
REMARK SMILES CCCCCCCCCCCC(=O)[O-]
REMARK SMILES IDX 7 1 8 2 9 3 10 4 11 5 12 6 13 7 14 8 6 9 5 10 4 11 3 12 2 13
REMARK SMILES IDX 1 14
REMARK H PARENT
REMARK Flexibility Score: inf
ROOT
ATOM      1  C   UNL     1     -97.832 -44.758  -8.353  1.00  0.00     0.000 C 
ENDROOT
BRANCH   1   2
ATOM      2  C   UNL     1     -96.394 -45.157  -7.993  1.00  0.00     0.000 C 
BRANCH   2   3
ATOM      3  C   UNL     1     -95.867 -46.316  -8.855  1.00  0.00     0.000 C 
BRANCH   3   4
ATOM      4  C   UNL     1     -94.536 -45.979  -9.549  1.00  0.00     0.006 C 
BRANCH   4   5
ATOM      5  C   UNL     1     -93.942 -47.191 -10.281  1.00  0.00     0.053 C 
BRANCH   5   6
ATOM      6  C   UNL     1     -94.238 -47.155 -11.749  1.00  0.00     0.041 C 
ATOM      7  O   UNL     1     -95.004 -48.013 -12.262  1.00  0.00    -0.550 OA
ATOM      8  O   UNL     1     -93.691 -46.157 -12.544  1.00  0.00    -0.550 OA
ENDBRANCH   5   6
ENDBRANCH   4   5
ENDBRANCH   3   4
ENDBRANCH   2   3
ENDBRANCH   1   2
BRANCH   1   9
ATOM      9  C   UNL     1     -97.907 -43.280  -8.758  1.00  0.00     0.000 C 
BRANCH   9  10
ATOM     10  C   UNL     1     -96.964 -42.984  -9.933  1.00  0.00    -0.000 C 
BRANCH  10  11
ATOM     11  C   UNL     1     -97.577 -43.350 -11.295  1.00  0.00    -0.000 C 
BRANCH  11  12
ATOM     12  C   UNL     1     -96.867 -44.540 -11.962  1.00  0.00    -0.000 C 
BRANCH  12  13
ATOM     13  C   UNL     1     -97.781 -45.767 -12.102  1.00  0.00    -0.003 C 
ATOM     14  C   UNL     1     -99.261 -45.397 -12.199  1.00  0.00     0.004 C 
ENDBRANCH  12  13
ENDBRANCH  11  12
ENDBRANCH  10  11
ENDBRANCH   9  10
ENDBRANCH   1   9
TORSDOF 10
ENDMDL
MODEL 2
REMARK VINA RESULT:    -3.041      0.894      1.344
REMARK INTER + INTRA:          -6.289
REMARK INTER:                  -4.784
REMARK INTRA:                  -1.505
REMARK UNBOUND:                -1.470
REMARK SMILES CCCCCCCCCCCC(=O)[O-]
REMARK SMILES IDX 7 1 8 2 9 3 10 4 11 5 12 6 13 7 14 8 6 9 5 10 4 11 3 12 2 13
REMARK SMILES IDX 1 14
REMARK H PARENT
REMARK Flexibility Score: inf
ROOT
ATOM      1  C   UNL     1     -97.356 -43.927  -8.955  1.00  0.00     0.000 C 
ENDROOT
BRANCH   1   2
ATOM      2  C   UNL     1     -96.222 -44.926  -8.685  1.00  0.00     0.000 C 
BRANCH   2   3
ATOM      3  C   UNL     1     -96.667 -46.388  -8.854  1.00  0.00     0.000 C 
BRANCH   3   4
ATOM      4  C   UNL     1     -95.752 -47.179  -9.806  1.00  0.00     0.006 C 
BRANCH   4   5
ATOM      5  C   UNL     1     -94.752 -46.272 -10.535  1.00  0.00     0.053 C 
BRANCH   5   6
ATOM      6  C   UNL     1     -94.490 -46.742 -11.933  1.00  0.00     0.041 C 
ATOM      7  O   UNL     1     -94.983 -47.828 -12.339  1.00  0.00    -0.550 OA
ATOM      8  O   UNL     1     -93.726 -45.967 -12.795  1.00  0.00    -0.550 OA
ENDBRANCH   5   6
ENDBRANCH   4   5
ENDBRANCH   3   4
ENDBRANCH   2   3
ENDBRANCH   1   2
BRANCH   1   9
ATOM      9  C   UNL     1     -96.986 -42.972 -10.097  1.00  0.00     0.000 C 
BRANCH   9  10
ATOM     10  C   UNL     1     -97.220 -43.632 -11.464  1.00  0.00    -0.000 C 
BRANCH  10  11
ATOM     11  C   UNL     1     -98.696 -43.596 -11.896  1.00  0.00    -0.000 C 
BRANCH  11  12
ATOM     12  C   UNL     1     -99.206 -44.967 -12.371  1.00  0.00    -0.000 C 
BRANCH  12  13
ATOM     13  C   UNL     1     -98.119 -46.052 -12.307  1.00  0.00    -0.003 C 
ATOM     14  C   UNL     1     -98.687 -47.448 -12.052  1.00  0.00     0.004 C 
ENDBRANCH  12  13
ENDBRANCH  11  12
ENDBRANCH  10  11
ENDBRANCH   9  10
ENDBRANCH   1   9
TORSDOF 10
ENDMDL
MODEL 3
REMARK VINA RESULT:    -3.038      1.079      1.661
REMARK INTER + INTRA:          -6.284
REMARK INTER:                  -4.925
REMARK INTRA:                  -1.359
REMARK UNBOUND:                -1.470
REMARK SMILES CCCCCCCCCCCC(=O)[O-]
REMARK SMILES IDX 7 1 8 2 9 3 10 4 11 5 12 6 13 7 14 8 6 9 5 10 4 11 3 12 2 13
REMARK SMILES IDX 1 14
REMARK H PARENT
REMARK Flexibility Score: inf
ROOT
ATOM      1  C   UNL     1     -97.226 -45.025  -8.809  1.00  0.00     0.000 C 
ENDROOT
BRANCH   1   2
ATOM      2  C   UNL     1     -95.713 -44.764  -8.845  1.00  0.00     0.000 C 
BRANCH   2   3
ATOM      3  C   UNL     1     -94.925 -45.931  -9.461  1.00  0.00     0.000 C 
BRANCH   3   4
ATOM      4  C   UNL     1     -95.719 -46.671 -10.552  1.00  0.00     0.006 C 
BRANCH   4   5
ATOM      5  C   UNL     1     -95.328 -46.213 -11.964  1.00  0.00     0.053 C 
BRANCH   5   6
ATOM      6  C   UNL     1     -93.979 -46.728 -12.362  1.00  0.00     0.041 C 
ATOM      7  O   UNL     1     -93.187 -45.995 -13.012  1.00  0.00    -0.550 OA
ATOM      8  O   UNL     1     -93.586 -48.007 -11.991  1.00  0.00    -0.550 OA
ENDBRANCH   5   6
ENDBRANCH   4   5
ENDBRANCH   3   4
ENDBRANCH   2   3
ENDBRANCH   1   2
BRANCH   1   9
ATOM      9  C   UNL     1     -98.005 -43.809  -9.329  1.00  0.00     0.000 C 
BRANCH   9  10
ATOM     10  C   UNL     1     -97.237 -43.106 -10.458  1.00  0.00    -0.000 C 
BRANCH  10  11
ATOM     11  C   UNL     1     -97.690 -43.561 -11.856  1.00  0.00    -0.000 C 
BRANCH  11  12
ATOM     12  C   UNL     1     -99.199 -43.368 -12.080  1.00  0.00    -0.000 C 
BRANCH  12  13
ATOM     13  C   UNL     1     -99.911 -44.680 -12.447  1.00  0.00    -0.003 C 
ATOM     14  C   UNL     1     -99.000 -45.902 -12.331  1.00  0.00     0.004 C 
ENDBRANCH  12  13
ENDBRANCH  11  12
ENDBRANCH  10  11
ENDBRANCH   9  10
ENDBRANCH   1   9
TORSDOF 10
ENDMDL
MODEL 4
REMARK VINA RESULT:    -3.017      1.167      2.962
REMARK INTER + INTRA:          -6.251
REMARK INTER:                  -4.601
REMARK INTRA:                  -1.650
REMARK UNBOUND:                -1.470
REMARK SMILES CCCCCCCCCCCC(=O)[O-]
REMARK SMILES IDX 7 1 8 2 9 3 10 4 11 5 12 6 13 7 14 8 6 9 5 10 4 11 3 12 2 13
REMARK SMILES IDX 1 14
REMARK H PARENT
REMARK Flexibility Score: inf
ROOT
ATOM      1  C   UNL     1     -98.915 -45.514 -12.305  1.00  0.00     0.000 C 
ENDROOT
BRANCH   1   2
ATOM      2  C   UNL     1     -97.529 -46.158 -12.155  1.00  0.00     0.000 C 
BRANCH   2   3
ATOM      3  C   UNL     1     -97.479 -47.199 -11.025  1.00  0.00     0.000 C 
BRANCH   3   4
ATOM      4  C   UNL     1     -96.051 -47.438 -10.503  1.00  0.00     0.006 C 
BRANCH   4   5
ATOM      5  C   UNL     1     -95.002 -46.661 -11.309  1.00  0.00     0.053 C 
BRANCH   5   6
ATOM      6  C   UNL     1     -94.182 -47.567 -12.174  1.00  0.00     0.041 C 
ATOM      7  O   UNL     1     -92.975 -47.295 -12.414  1.00  0.00    -0.550 OA
ATOM      8  O   UNL     1     -94.742 -48.727 -12.693  1.00  0.00    -0.550 OA
ENDBRANCH   5   6
ENDBRANCH   4   5
ENDBRANCH   3   4
ENDBRANCH   2   3
ENDBRANCH   1   2
BRANCH   1   9
ATOM      9  C   UNL     1     -98.837 -43.994 -12.110  1.00  0.00     0.000 C 
BRANCH   9  10
ATOM     10  C   UNL     1     -97.440 -43.571 -11.634  1.00  0.00    -0.000 C 
BRANCH  10  11
ATOM     11  C   UNL     1     -97.434 -43.067 -10.181  1.00  0.00    -0.000 C 
BRANCH  11  12
ATOM     12  C   UNL     1     -96.447 -43.841  -9.291  1.00  0.00    -0.000 C 
BRANCH  12  13
ATOM     13  C   UNL     1     -97.157 -44.662  -8.202  1.00  0.00    -0.003 C 
ATOM     14  C   UNL     1     -98.670 -44.736  -8.406  1.00  0.00     0.004 C 
ENDBRANCH  12  13
ENDBRANCH  11  12
ENDBRANCH  10  11
ENDBRANCH   9  10
ENDBRANCH   1   9
TORSDOF 10
ENDMDL
MODEL 5
REMARK VINA RESULT:    -2.943      1.154      3.150
REMARK INTER + INTRA:          -6.134
REMARK INTER:                  -4.709
REMARK INTRA:                  -1.425
REMARK UNBOUND:                -1.470
REMARK SMILES CCCCCCCCCCCC(=O)[O-]
REMARK SMILES IDX 7 1 8 2 9 3 10 4 11 5 12 6 13 7 14 8 6 9 5 10 4 11 3 12 2 13
REMARK SMILES IDX 1 14
REMARK H PARENT
REMARK Flexibility Score: inf
ROOT
ATOM      1  C   UNL     1     -98.139 -43.801 -11.990  1.00  0.00     0.000 C 
ENDROOT
BRANCH   1   2
ATOM      2  C   UNL     1     -98.914 -45.123 -11.884  1.00  0.00     0.000 C 
BRANCH   2   3
ATOM      3  C   UNL     1     -98.021 -46.353 -12.110  1.00  0.00     0.000 C 
BRANCH   3   4
ATOM      4  C   UNL     1     -96.522 -46.007 -12.098  1.00  0.00     0.006 C 
BRANCH   4   5
ATOM      5  C   UNL     1     -95.641 -47.252 -11.923  1.00  0.00     0.053 C 
BRANCH   5   6
ATOM      6  C   UNL     1     -94.185 -46.926 -12.052  1.00  0.00     0.041 C 
ATOM      7  O   UNL     1     -93.328 -47.585 -11.405  1.00  0.00    -0.550 OA
ATOM      8  O   UNL     1     -93.773 -45.914 -12.908  1.00  0.00    -0.550 OA
ENDBRANCH   5   6
ENDBRANCH   4   5
ENDBRANCH   3   4
ENDBRANCH   2   3
ENDBRANCH   1   2
BRANCH   1   9
ATOM      9  C   UNL     1     -98.238 -43.001 -10.685  1.00  0.00     0.000 C 
BRANCH   9  10
ATOM     10  C   UNL     1     -98.790 -43.872  -9.546  1.00  0.00    -0.000 C 
BRANCH  10  11
ATOM     11  C   UNL     1     -97.760 -44.112  -8.429  1.00  0.00    -0.000 C 
BRANCH  11  12
ATOM     12  C   UNL     1     -96.311 -44.068  -8.941  1.00  0.00    -0.000 C 
BRANCH  12  13
ATOM     13  C   UNL     1     -95.544 -45.367  -8.647  1.00  0.00    -0.003 C 
ATOM     14  C   UNL     1     -96.468 -46.543  -8.331  1.00  0.00     0.004 C 
ENDBRANCH  12  13
ENDBRANCH  11  12
ENDBRANCH  10  11
ENDBRANCH   9  10
ENDBRANCH   1   9
TORSDOF 10
ENDMDL
MODEL 6
REMARK VINA RESULT:    -2.933      1.849      2.920
REMARK INTER + INTRA:          -6.118
REMARK INTER:                  -4.771
REMARK INTRA:                  -1.347
REMARK UNBOUND:                -1.470
REMARK SMILES CCCCCCCCCCCC(=O)[O-]
REMARK SMILES IDX 7 1 8 2 9 3 10 4 11 5 12 6 13 7 14 8 6 9 5 10 4 11 3 12 2 13
REMARK SMILES IDX 1 14
REMARK H PARENT
REMARK Flexibility Score: inf
ROOT
ATOM      1  C   UNL     1     -97.583 -42.988 -10.143  1.00  0.00     0.000 C 
ENDROOT
BRANCH   1   2
ATOM      2  C   UNL     1     -96.592 -43.564  -9.121  1.00  0.00     0.000 C 
BRANCH   2   3
ATOM      3  C   UNL     1     -97.129 -44.823  -8.420  1.00  0.00     0.000 C 
BRANCH   3   4
ATOM      4  C   UNL     1     -96.047 -45.900  -8.227  1.00  0.00     0.006 C 
BRANCH   4   5
ATOM      5  C   UNL     1     -94.818 -45.651  -9.112  1.00  0.00     0.053 C 
BRANCH   5   6
ATOM      6  C   UNL     1     -93.772 -46.705  -8.921  1.00  0.00     0.041 C 
ATOM      7  O   UNL     1     -92.967 -46.632  -7.954  1.00  0.00    -0.550 OA
ATOM      8  O   UNL     1     -93.704 -47.784  -9.793  1.00  0.00    -0.550 OA
ENDBRANCH   5   6
ENDBRANCH   4   5
ENDBRANCH   3   4
ENDBRANCH   2   3
ENDBRANCH   1   2
BRANCH   1   9
ATOM      9  C   UNL     1     -97.343 -43.583 -11.536  1.00  0.00     0.000 C 
BRANCH   9  10
ATOM     10  C   UNL     1     -98.611 -44.267 -12.068  1.00  0.00    -0.000 C 
BRANCH  10  11
ATOM     11  C   UNL     1     -98.473 -45.797 -12.145  1.00  0.00    -0.000 C 
BRANCH  11  12
ATOM     12  C   UNL     1     -97.013 -46.265 -12.014  1.00  0.00    -0.000 C 
BRANCH  12  13
ATOM     13  C   UNL     1     -96.904 -47.715 -11.516  1.00  0.00    -0.003 C 
ATOM     14  C   UNL     1     -95.996 -48.578 -12.392  1.00  0.00     0.004 C 
ENDBRANCH  12  13
ENDBRANCH  11  12
ENDBRANCH  10  11
ENDBRANCH   9  10
ENDBRANCH   1   9
TORSDOF 10
ENDMDL
MODEL 7
REMARK VINA RESULT:    -2.908      1.644      4.056
REMARK INTER + INTRA:          -6.078
REMARK INTER:                  -4.728
REMARK INTRA:                  -1.349
REMARK UNBOUND:                -1.470
REMARK SMILES CCCCCCCCCCCC(=O)[O-]
REMARK SMILES IDX 7 1 8 2 9 3 10 4 11 5 12 6 13 7 14 8 6 9 5 10 4 11 3 12 2 13
REMARK SMILES IDX 1 14
REMARK H PARENT
REMARK Flexibility Score: inf
ROOT
ATOM      1  C   UNL     1     -97.302 -43.209  -9.926  1.00  0.00     0.000 C 
ENDROOT
BRANCH   1   2
ATOM      2  C   UNL     1     -97.211 -43.654 -11.394  1.00  0.00     0.000 C 
BRANCH   2   3
ATOM      3  C   UNL     1     -98.586 -43.724 -12.077  1.00  0.00     0.000 C 
BRANCH   3   4
ATOM      4  C   UNL     1     -99.096 -45.167 -12.235  1.00  0.00     0.006 C 
BRANCH   4   5
ATOM      5  C   UNL     1     -97.985 -46.202 -12.015  1.00  0.00     0.053 C 
BRANCH   5   6
ATOM      6  C   UNL     1     -98.338 -47.532 -12.604  1.00  0.00     0.041 C 
ATOM      7  O   UNL     1     -99.499 -47.741 -13.048  1.00  0.00    -0.550 OA
ATOM      8  O   UNL     1     -97.378 -48.531 -12.690  1.00  0.00    -0.550 OA
ENDBRANCH   5   6
ENDBRANCH   4   5
ENDBRANCH   3   4
ENDBRANCH   2   3
ENDBRANCH   1   2
BRANCH   1   9
ATOM      9  C   UNL     1     -96.246 -43.922  -9.071  1.00  0.00     0.000 C 
BRANCH   9  10
ATOM     10  C   UNL     1     -96.749 -45.299  -8.612  1.00  0.00    -0.000 C 
BRANCH  10  11
ATOM     11  C   UNL     1     -95.700 -46.408  -8.800  1.00  0.00    -0.000 C 
BRANCH  11  12
ATOM     12  C   UNL     1     -94.610 -46.024  -9.815  1.00  0.00    -0.000 C 
BRANCH  12  13
ATOM     13  C   UNL     1     -94.584 -46.961 -11.033  1.00  0.00    -0.003 C 
ATOM     14  C   UNL     1     -94.325 -46.222 -12.346  1.00  0.00     0.004 C 
ENDBRANCH  12  13
ENDBRANCH  11  12
ENDBRANCH  10  11
ENDBRANCH   9  10
ENDBRANCH   1   9
TORSDOF 10
ENDMDL
MODEL 8
REMARK VINA RESULT:    -2.875      1.527      2.469
REMARK INTER + INTRA:          -6.026
REMARK INTER:                  -4.232
REMARK INTRA:                  -1.795
REMARK UNBOUND:                -1.470
REMARK SMILES CCCCCCCCCCCC(=O)[O-]
REMARK SMILES IDX 7 1 8 2 9 3 10 4 11 5 12 6 13 7 14 8 6 9 5 10 4 11 3 12 2 13
REMARK SMILES IDX 1 14
REMARK H PARENT
REMARK Flexibility Score: inf
ROOT
ATOM      1  C   UNL     1     -97.807 -43.349 -10.259  1.00  0.00     0.000 C 
ENDROOT
BRANCH   1   2
ATOM      2  C   UNL     1     -96.647 -43.589  -9.281  1.00  0.00     0.000 C 
BRANCH   2   3
ATOM      3  C   UNL     1     -96.984 -44.635  -8.207  1.00  0.00     0.000 C 
BRANCH   3   4
ATOM      4  C   UNL     1     -95.888 -45.705  -8.058  1.00  0.00     0.006 C 
BRANCH   4   5
ATOM      5  C   UNL     1     -94.792 -45.563  -9.123  1.00  0.00     0.053 C 
BRANCH   5   6
ATOM      6  C   UNL     1     -94.552 -46.851  -9.849  1.00  0.00     0.041 C 
ATOM      7  O   UNL     1     -94.867 -47.948  -9.316  1.00  0.00    -0.550 OA
ATOM      8  O   UNL     1     -94.008 -46.838 -11.126  1.00  0.00    -0.550 OA
ENDBRANCH   5   6
ENDBRANCH   4   5
ENDBRANCH   3   4
ENDBRANCH   2   3
ENDBRANCH   1   2
BRANCH   1   9
ATOM      9  C   UNL     1     -97.331 -43.465 -11.713  1.00  0.00     0.000 C 
BRANCH   9  10
ATOM     10  C   UNL     1     -96.911 -44.906 -12.041  1.00  0.00    -0.000 C 
BRANCH  10  11
ATOM     11  C   UNL     1     -98.105 -45.873 -12.108  1.00  0.00    -0.000 C 
BRANCH  11  12
ATOM     12  C   UNL     1     -97.762 -47.274 -11.575  1.00  0.00    -0.000 C 
BRANCH  12  13
ATOM     13  C   UNL     1     -98.379 -47.544 -10.193  1.00  0.00    -0.003 C 
ATOM     14  C   UNL     1     -99.591 -46.659  -9.901  1.00  0.00     0.004 C 
ENDBRANCH  12  13
ENDBRANCH  11  12
ENDBRANCH  10  11
ENDBRANCH   9  10
ENDBRANCH   1   9
TORSDOF 10
ENDMDL
MODEL 9
REMARK VINA RESULT:    -2.752      2.387      4.753
REMARK INTER + INTRA:          -5.830
REMARK INTER:                  -4.592
REMARK INTRA:                  -1.238
REMARK UNBOUND:                -1.470
REMARK SMILES CCCCCCCCCCCC(=O)[O-]
REMARK SMILES IDX 7 1 8 2 9 3 10 4 11 5 12 6 13 7 14 8 6 9 5 10 4 11 3 12 2 13
REMARK SMILES IDX 1 14
REMARK H PARENT
REMARK Flexibility Score: inf
ROOT
ATOM      1  C   UNL     1     -98.820 -45.755 -12.345  1.00  0.00     0.000 C 
ENDROOT
BRANCH   1   2
ATOM      2  C   UNL     1     -99.638 -44.477 -12.110  1.00  0.00     0.000 C 
BRANCH   2   3
ATOM      3  C   UNL     1     -98.756 -43.225 -11.981  1.00  0.00     0.000 C 
BRANCH   3   4
ATOM      4  C   UNL     1     -97.317 -43.556 -11.550  1.00  0.00     0.006 C 
BRANCH   4   5
ATOM      5  C   UNL     1     -96.975 -42.971 -10.173  1.00  0.00     0.053 C 
BRANCH   5   6
ATOM      6  C   UNL     1     -97.038 -44.009  -9.096  1.00  0.00     0.041 C 
ATOM      7  O   UNL     1     -98.142 -44.308  -8.568  1.00  0.00    -0.550 OA
ATOM      8  O   UNL     1     -95.883 -44.667  -8.696  1.00  0.00    -0.550 OA
ENDBRANCH   5   6
ENDBRANCH   4   5
ENDBRANCH   3   4
ENDBRANCH   2   3
ENDBRANCH   1   2
BRANCH   1   9
ATOM      9  C   UNL     1     -98.921 -46.701 -11.141  1.00  0.00     0.000 C 
BRANCH   9  10
ATOM     10  C   UNL     1     -97.542 -47.267 -10.769  1.00  0.00    -0.000 C 
BRANCH  10  11
ATOM     11  C   UNL     1     -96.571 -47.298 -11.961  1.00  0.00    -0.000 C 
BRANCH  11  12
ATOM     12  C   UNL     1     -95.243 -46.583 -11.660  1.00  0.00    -0.000 C 
BRANCH  12  13
ATOM     13  C   UNL     1     -94.020 -47.431 -12.044  1.00  0.00    -0.003 C 
ATOM     14  C   UNL     1     -94.395 -48.838 -12.511  1.00  0.00     0.004 C 
ENDBRANCH  12  13
ENDBRANCH  11  12
ENDBRANCH  10  11
ENDBRANCH   9  10
ENDBRANCH   1   9
TORSDOF 10
ENDMDL
