MODEL 1
REMARK VINA RESULT:    -7.540      0.000      0.000
REMARK INTER + INTRA:          -9.072
REMARK INTER:                  -9.303
REMARK INTRA:                   0.231
REMARK UNBOUND:                 0.231
REMARK SMILES O=C1c2c(O)cc(O)cc2O[C@@H](c2cc(O)c(O)c(O)c2)[C@H]1O
REMARK SMILES IDX 12 1 22 2 2 3 1 4 3 5 4 6 6 7 7 8 9 9 10 10 11 11 13 12
REMARK SMILES IDX 14 13 15 14 21 15 17 16 19 17 16 18 18 20 20 22 23 24 5 26
REMARK SMILES IDX 8 28
REMARK H PARENT 16 19 18 21 20 23 23 25 5 27 8 29
REMARK Flexibility Score: inf
ROOT
ATOM      1  C   UNL     1     -10.437  49.425  55.139  1.00  0.00     0.240 C 
ATOM      2  C   UNL     1     -10.449  48.217  56.094  1.00  0.00     0.231 C 
ATOM      3  C   UNL     1      -9.165  48.218  56.877  1.00  0.00     0.202 C 
ATOM      4  O   UNL     1      -9.203  48.052  58.125  1.00  0.00    -0.291 OA
ATOM      5  C   UNL     1      -7.890  48.481  56.163  1.00  0.00     0.105 A 
ATOM      6  C   UNL     1      -6.608  48.136  56.669  1.00  0.00     0.133 A 
ATOM      7  C   UNL     1      -5.464  48.489  55.943  1.00  0.00     0.093 A 
ATOM      8  C   UNL     1      -5.568  49.122  54.703  1.00  0.00     0.123 A 
ATOM      9  C   UNL     1      -6.830  49.421  54.180  1.00  0.00     0.093 A 
ATOM     10  C   UNL     1      -7.983  49.115  54.906  1.00  0.00     0.138 A 
ATOM     11  O   UNL     1      -9.234  49.442  54.363  1.00  0.00    -0.481 OA
ENDROOT
BRANCH   1  12
ATOM     12  C   UNL     1     -11.651  49.432  54.238  1.00  0.00     0.003 A 
ATOM     13  C   UNL     1     -11.778  50.418  53.247  1.00  0.00     0.058 A 
ATOM     14  C   UNL     1     -12.913  50.460  52.426  1.00  0.00     0.161 A 
ATOM     15  C   UNL     1     -12.689  48.503  54.416  1.00  0.00     0.058 A 
ATOM     16  C   UNL     1     -13.941  49.516  52.600  1.00  0.00     0.200 A 
ATOM     17  C   UNL     1     -13.825  48.538  53.603  1.00  0.00     0.161 A 
BRANCH  14  18
ATOM     18  O   UNL     1     -13.026  51.439  51.439  1.00  0.00    -0.504 OA
ATOM     19  H   UNL     1     -13.929  51.744  51.095  1.00  0.00     0.293 HD
ENDBRANCH  14  18
BRANCH  16  20
ATOM     20  O   UNL     1     -15.077  49.543  51.790  1.00  0.00    -0.502 OA
ATOM     21  H   UNL     1     -15.027  49.420  50.786  1.00  0.00     0.293 HD
ENDBRANCH  16  20
BRANCH  17  22
ATOM     22  O   UNL     1     -14.830  47.592  53.805  1.00  0.00    -0.504 OA
ATOM     23  H   UNL     1     -15.581  47.454  53.140  1.00  0.00     0.293 HD
ENDBRANCH  17  22
ENDBRANCH   1  12
BRANCH   2  24
ATOM     24  O   UNL     1     -10.548  47.021  55.365  1.00  0.00    -0.381 OA
ATOM     25  H   UNL     1     -11.493  46.724  55.430  1.00  0.00     0.211 HD
ENDBRANCH   2  24
BRANCH   6  26
ATOM     26  O   UNL     1      -6.422  47.421  57.854  1.00  0.00    -0.507 OA
ATOM     27  H   UNL     1      -5.665  47.587  58.500  1.00  0.00     0.293 HD
ENDBRANCH   6  26
BRANCH   8  28
ATOM     28  O   UNL     1      -4.412  49.443  53.996  1.00  0.00    -0.508 OA
ATOM     29  H   UNL     1      -4.387  49.417  52.982  1.00  0.00     0.293 HD
ENDBRANCH   8  28
TORSDOF 7
ENDMDL
MODEL 2
REMARK VINA RESULT:    -6.845      1.648      7.235
REMARK INTER + INTRA:          -8.214
REMARK INTER:                  -7.929
REMARK INTRA:                  -0.285
REMARK UNBOUND:                 0.231
REMARK SMILES O=C1c2c(O)cc(O)cc2O[C@@H](c2cc(O)c(O)c(O)c2)[C@H]1O
REMARK SMILES IDX 12 1 22 2 2 3 1 4 3 5 4 6 6 7 7 8 9 9 10 10 11 11 13 12
REMARK SMILES IDX 14 13 15 14 21 15 17 16 19 17 16 18 18 20 20 22 23 24 5 26
REMARK SMILES IDX 8 28
REMARK H PARENT 16 19 18 21 20 23 23 25 5 27 8 29
REMARK Flexibility Score: inf
ROOT
ATOM      1  C   UNL     1      -9.786  50.134  55.492  1.00  0.00     0.240 C 
ATOM      2  C   UNL     1      -9.650  51.003  54.229  1.00  0.00     0.231 C 
ATOM      3  C   UNL     1     -11.027  51.266  53.683  1.00  0.00     0.202 C 
ATOM      4  O   UNL     1     -11.346  52.439  53.354  1.00  0.00    -0.291 OA
ATOM      5  C   UNL     1     -11.995  50.143  53.609  1.00  0.00     0.105 A 
ATOM      6  C   UNL     1     -13.150  50.141  52.783  1.00  0.00     0.133 A 
ATOM      7  C   UNL     1     -14.033  49.056  52.838  1.00  0.00     0.093 A 
ATOM      8  C   UNL     1     -13.764  47.952  53.649  1.00  0.00     0.123 A 
ATOM      9  C   UNL     1     -12.603  47.929  54.427  1.00  0.00     0.093 A 
ATOM     10  C   UNL     1     -11.729  49.018  54.419  1.00  0.00     0.138 A 
ATOM     11  O   UNL     1     -10.581  48.974  55.223  1.00  0.00    -0.481 OA
ENDROOT
BRANCH   1  12
ATOM     12  C   UNL     1      -8.434  49.736  56.041  1.00  0.00     0.003 A 
ATOM     13  C   UNL     1      -7.694  50.651  56.805  1.00  0.00     0.058 A 
ATOM     14  C   UNL     1      -6.424  50.311  57.292  1.00  0.00     0.161 A 
ATOM     15  C   UNL     1      -7.875  48.482  55.745  1.00  0.00     0.058 A 
ATOM     16  C   UNL     1      -5.879  49.047  57.006  1.00  0.00     0.200 A 
ATOM     17  C   UNL     1      -6.610  48.134  56.226  1.00  0.00     0.161 A 
BRANCH  14  18
ATOM     18  O   UNL     1      -5.701  51.226  58.057  1.00  0.00    -0.504 OA
ATOM     19  H   UNL     1      -6.137  51.757  58.801  1.00  0.00     0.293 HD
ENDBRANCH  14  18
BRANCH  16  20
ATOM     20  O   UNL     1      -4.617  48.692  57.484  1.00  0.00    -0.502 OA
ATOM     21  H   UNL     1      -3.909  48.282  56.888  1.00  0.00     0.293 HD
ENDBRANCH  16  20
BRANCH  17  22
ATOM     22  O   UNL     1      -6.093  46.875  55.918  1.00  0.00    -0.504 OA
ATOM     23  H   UNL     1      -5.260  46.758  55.354  1.00  0.00     0.293 HD
ENDBRANCH  17  22
ENDBRANCH   1  12
BRANCH   2  24
ATOM     24  O   UNL     1      -8.884  50.336  53.259  1.00  0.00    -0.381 OA
ATOM     25  H   UNL     1      -7.959  50.281  53.615  1.00  0.00     0.211 HD
ENDBRANCH   2  24
BRANCH   6  26
ATOM     26  O   UNL     1     -13.443  51.163  51.878  1.00  0.00    -0.507 OA
ATOM     27  H   UNL     1     -14.334  51.636  51.830  1.00  0.00     0.293 HD
ENDBRANCH   6  26
BRANCH   8  28
ATOM     28  O   UNL     1     -14.652  46.879  53.667  1.00  0.00    -0.508 OA
ATOM     29  H   UNL     1     -15.074  46.555  54.530  1.00  0.00     0.293 HD
ENDBRANCH   8  28
TORSDOF 7
ENDMDL
MODEL 3
REMARK VINA RESULT:    -6.830      0.921      2.029
REMARK INTER + INTRA:          -8.196
REMARK INTER:                  -8.585
REMARK INTRA:                   0.389
REMARK UNBOUND:                 0.231
REMARK SMILES O=C1c2c(O)cc(O)cc2O[C@@H](c2cc(O)c(O)c(O)c2)[C@H]1O
REMARK SMILES IDX 12 1 22 2 2 3 1 4 3 5 4 6 6 7 7 8 9 9 10 10 11 11 13 12
REMARK SMILES IDX 14 13 15 14 21 15 17 16 19 17 16 18 18 20 20 22 23 24 5 26
REMARK SMILES IDX 8 28
REMARK H PARENT 16 19 18 21 20 23 23 25 5 27 8 29
REMARK Flexibility Score: inf
ROOT
ATOM      1  C   UNL     1      -9.519  49.646  55.269  1.00  0.00     0.240 C 
ATOM      2  C   UNL     1      -9.372  48.510  56.298  1.00  0.00     0.231 C 
ATOM      3  C   UNL     1      -7.984  48.567  56.874  1.00  0.00     0.202 C 
ATOM      4  O   UNL     1      -7.831  48.490  58.121  1.00  0.00    -0.291 OA
ATOM      5  C   UNL     1      -6.836  48.778  55.957  1.00  0.00     0.105 A 
ATOM      6  C   UNL     1      -5.489  48.470  56.284  1.00  0.00     0.133 A 
ATOM      7  C   UNL     1      -4.472  48.770  55.368  1.00  0.00     0.093 A 
ATOM      8  C   UNL     1      -4.771  49.313  54.118  1.00  0.00     0.123 A 
ATOM      9  C   UNL     1      -6.100  49.574  53.773  1.00  0.00     0.093 A 
ATOM     10  C   UNL     1      -7.127  49.321  54.687  1.00  0.00     0.138 A 
ATOM     11  O   UNL     1      -8.449  49.607  54.320  1.00  0.00    -0.481 OA
ENDROOT
BRANCH   1  12
ATOM     12  C   UNL     1     -10.856  49.589  54.566  1.00  0.00     0.003 A 
ATOM     13  C   UNL     1     -11.748  48.541  54.845  1.00  0.00     0.058 A 
ATOM     14  C   UNL     1     -12.977  48.454  54.177  1.00  0.00     0.161 A 
ATOM     15  C   UNL     1     -11.198  50.536  53.587  1.00  0.00     0.058 A 
ATOM     16  C   UNL     1     -13.319  49.416  53.210  1.00  0.00     0.200 A 
ATOM     17  C   UNL     1     -12.422  50.457  52.915  1.00  0.00     0.161 A 
BRANCH  14  18
ATOM     18  O   UNL     1     -13.858  47.413  54.468  1.00  0.00    -0.504 OA
ATOM     19  H   UNL     1     -14.088  47.164  55.423  1.00  0.00     0.293 HD
ENDBRANCH  14  18
BRANCH  16  20
ATOM     20  O   UNL     1     -14.540  49.345  52.537  1.00  0.00    -0.502 OA
ATOM     21  H   UNL     1     -14.677  49.759  51.623  1.00  0.00     0.293 HD
ENDBRANCH  16  20
BRANCH  17  22
ATOM     22  O   UNL     1     -12.729  51.422  51.955  1.00  0.00    -0.504 OA
ATOM     23  H   UNL     1     -12.028  52.047  51.577  1.00  0.00     0.293 HD
ENDBRANCH  17  22
ENDBRANCH   1  12
BRANCH   2  24
ATOM     24  O   UNL     1      -9.568  47.264  55.679  1.00  0.00    -0.381 OA
ATOM     25  H   UNL     1     -10.390  46.874  56.077  1.00  0.00     0.211 HD
ENDBRANCH   2  24
BRANCH   6  26
ATOM     26  O   UNL     1      -5.116  47.842  57.475  1.00  0.00    -0.507 OA
ATOM     27  H   UNL     1      -5.764  47.381  58.096  1.00  0.00     0.293 HD
ENDBRANCH   6  26
BRANCH   8  28
ATOM     28  O   UNL     1      -3.740  49.583  53.221  1.00  0.00    -0.508 OA
ATOM     29  H   UNL     1      -3.270  50.482  53.208  1.00  0.00     0.293 HD
ENDBRANCH   8  28
TORSDOF 7
ENDMDL
MODEL 4
REMARK VINA RESULT:    -6.563     19.066     21.795
REMARK INTER + INTRA:          -7.866
REMARK INTER:                  -8.225
REMARK INTRA:                   0.359
REMARK UNBOUND:                 0.231
REMARK SMILES O=C1c2c(O)cc(O)cc2O[C@@H](c2cc(O)c(O)c(O)c2)[C@H]1O
REMARK SMILES IDX 12 1 22 2 2 3 1 4 3 5 4 6 6 7 7 8 9 9 10 10 11 11 13 12
REMARK SMILES IDX 14 13 15 14 21 15 17 16 19 17 16 18 18 20 20 22 23 24 5 26
REMARK SMILES IDX 8 28
REMARK H PARENT 16 19 18 21 20 23 23 25 5 27 8 29
REMARK Flexibility Score: inf
ROOT
ATOM      1  C   UNL     1     -10.338  63.108  39.382  1.00  0.00     0.240 C 
ATOM      2  C   UNL     1     -10.431  62.034  40.481  1.00  0.00     0.231 C 
ATOM      3  C   UNL     1     -11.508  61.056  40.099  1.00  0.00     0.202 C 
ATOM      4  O   UNL     1     -11.276  59.821  40.180  1.00  0.00    -0.291 OA
ATOM      5  C   UNL     1     -12.796  61.577  39.575  1.00  0.00     0.105 A 
ATOM      6  C   UNL     1     -14.004  60.831  39.547  1.00  0.00     0.133 A 
ATOM      7  C   UNL     1     -15.148  61.395  38.970  1.00  0.00     0.093 A 
ATOM      8  C   UNL     1     -15.132  62.700  38.474  1.00  0.00     0.123 A 
ATOM      9  C   UNL     1     -13.958  63.455  38.542  1.00  0.00     0.093 A 
ATOM     10  C   UNL     1     -12.793  62.898  39.077  1.00  0.00     0.138 A 
ATOM     11  O   UNL     1     -11.626  63.672  39.117  1.00  0.00    -0.481 OA
ENDROOT
BRANCH   1  12
ATOM     12  C   UNL     1      -9.347  64.191  39.746  1.00  0.00     0.003 A 
ATOM     13  C   UNL     1      -8.311  64.517  38.857  1.00  0.00     0.058 A 
ATOM     14  C   UNL     1      -7.364  65.494  39.194  1.00  0.00     0.161 A 
ATOM     15  C   UNL     1      -9.409  64.837  40.992  1.00  0.00     0.058 A 
ATOM     16  C   UNL     1      -7.443  66.148  40.436  1.00  0.00     0.200 A 
ATOM     17  C   UNL     1      -8.469  65.812  41.336  1.00  0.00     0.161 A 
BRANCH  14  18
ATOM     18  O   UNL     1      -6.344  65.816  38.300  1.00  0.00    -0.504 OA
ATOM     19  H   UNL     1      -5.387  65.945  38.610  1.00  0.00     0.293 HD
ENDBRANCH  14  18
BRANCH  16  20
ATOM     20  O   UNL     1      -6.509  67.125  40.787  1.00  0.00    -0.502 OA
ATOM     21  H   UNL     1      -6.318  67.925  40.197  1.00  0.00     0.293 HD
ENDBRANCH  16  20
BRANCH  17  22
ATOM     22  O   UNL     1      -8.569  66.438  42.579  1.00  0.00    -0.504 OA
ATOM     23  H   UNL     1      -7.840  67.041  42.939  1.00  0.00     0.293 HD
ENDBRANCH  17  22
ENDBRANCH   1  12
BRANCH   2  24
ATOM     24  O   UNL     1     -10.756  62.626  41.713  1.00  0.00    -0.381 OA
ATOM     25  H   UNL     1     -11.681  62.339  41.932  1.00  0.00     0.211 HD
ENDBRANCH   2  24
BRANCH   6  26
ATOM     26  O   UNL     1     -14.127  59.556  40.105  1.00  0.00    -0.507 OA
ATOM     27  H   UNL     1     -14.850  59.294  40.758  1.00  0.00     0.293 HD
ENDBRANCH   6  26
BRANCH   8  28
ATOM     28  O   UNL     1     -16.292  63.240  37.923  1.00  0.00    -0.508 OA
ATOM     29  H   UNL     1     -17.004  62.652  37.505  1.00  0.00     0.293 HD
ENDBRANCH   8  28
TORSDOF 7
ENDMDL
MODEL 5
REMARK VINA RESULT:    -6.152      3.361      8.949
REMARK INTER + INTRA:          -7.360
REMARK INTER:                  -7.792
REMARK INTRA:                   0.432
REMARK UNBOUND:                 0.231
REMARK SMILES O=C1c2c(O)cc(O)cc2O[C@@H](c2cc(O)c(O)c(O)c2)[C@H]1O
REMARK SMILES IDX 12 1 22 2 2 3 1 4 3 5 4 6 6 7 7 8 9 9 10 10 11 11 13 12
REMARK SMILES IDX 14 13 15 14 21 15 17 16 19 17 16 18 18 20 20 22 23 24 5 26
REMARK SMILES IDX 8 28
REMARK H PARENT 16 19 18 21 20 23 23 25 5 27 8 29
REMARK Flexibility Score: inf
ROOT
ATOM      1  C   UNL     1     -14.982  49.260  52.961  1.00  0.00     0.240 C 
ATOM      2  C   UNL     1     -15.236  47.851  52.394  1.00  0.00     0.231 C 
ATOM      3  C   UNL     1     -16.697  47.730  52.060  1.00  0.00     0.202 C 
ATOM      4  O   UNL     1     -17.038  47.251  50.947  1.00  0.00    -0.291 OA
ATOM      5  C   UNL     1     -17.699  48.240  53.030  1.00  0.00     0.105 A 
ATOM      6  C   UNL     1     -19.066  47.855  53.041  1.00  0.00     0.133 A 
ATOM      7  C   UNL     1     -19.941  48.447  53.959  1.00  0.00     0.093 A 
ATOM      8  C   UNL     1     -19.477  49.367  54.901  1.00  0.00     0.123 A 
ATOM      9  C   UNL     1     -18.123  49.713  54.925  1.00  0.00     0.093 A 
ATOM     10  C   UNL     1     -17.240  49.166  53.992  1.00  0.00     0.138 A 
ATOM     11  O   UNL     1     -15.890  49.544  54.030  1.00  0.00    -0.481 OA
ENDROOT
BRANCH   1  12
ATOM     12  C   UNL     1     -13.551  49.424  53.421  1.00  0.00     0.003 A 
ATOM     13  C   UNL     1     -12.965  48.446  54.240  1.00  0.00     0.058 A 
ATOM     14  C   UNL     1     -11.651  48.598  54.704  1.00  0.00     0.161 A 
ATOM     15  C   UNL     1     -12.814  50.574  53.094  1.00  0.00     0.058 A 
ATOM     16  C   UNL     1     -10.915  49.745  54.358  1.00  0.00     0.200 A 
ATOM     17  C   UNL     1     -11.504  50.735  53.553  1.00  0.00     0.161 A 
BRANCH  14  18
ATOM     18  O   UNL     1     -11.077  47.617  55.510  1.00  0.00    -0.504 OA
ATOM     19  H   UNL     1     -10.200  47.173  55.263  1.00  0.00     0.293 HD
ENDBRANCH  14  18
BRANCH  16  20
ATOM     20  O   UNL     1      -9.605  49.912  54.811  1.00  0.00    -0.502 OA
ATOM     21  H   UNL     1      -9.088  49.164  55.257  1.00  0.00     0.293 HD
ENDBRANCH  16  20
BRANCH  17  22
ATOM     22  O   UNL     1     -10.801  51.887  53.199  1.00  0.00    -0.504 OA
ATOM     23  H   UNL     1      -9.850  51.853  52.854  1.00  0.00     0.293 HD
ENDBRANCH  17  22
ENDBRANCH   1  12
BRANCH   2  24
ATOM     24  O   UNL     1     -14.893  46.875  53.344  1.00  0.00    -0.381 OA
ATOM     25  H   UNL     1     -14.423  47.347  54.080  1.00  0.00     0.211 HD
ENDBRANCH   2  24
BRANCH   6  26
ATOM     26  O   UNL     1     -19.589  46.875  52.194  1.00  0.00    -0.507 OA
ATOM     27  H   UNL     1     -19.049  46.386  51.496  1.00  0.00     0.293 HD
ENDBRANCH   6  26
BRANCH   8  28
ATOM     28  O   UNL     1     -20.369  49.925  55.815  1.00  0.00    -0.508 OA
ATOM     29  H   UNL     1     -20.087  50.668  56.443  1.00  0.00     0.293 HD
ENDBRANCH   8  28
TORSDOF 7
ENDMDL
MODEL 6
REMARK VINA RESULT:    -5.578     17.707     21.099
REMARK INTER + INTRA:          -6.651
REMARK INTER:                  -6.377
REMARK INTRA:                  -0.274
REMARK UNBOUND:                 0.231
REMARK SMILES O=C1c2c(O)cc(O)cc2O[C@@H](c2cc(O)c(O)c(O)c2)[C@H]1O
REMARK SMILES IDX 12 1 22 2 2 3 1 4 3 5 4 6 6 7 7 8 9 9 10 10 11 11 13 12
REMARK SMILES IDX 14 13 15 14 21 15 17 16 19 17 16 18 18 20 20 22 23 24 5 26
REMARK SMILES IDX 8 28
REMARK H PARENT 16 19 18 21 20 23 23 25 5 27 8 29
REMARK Flexibility Score: inf
ROOT
ATOM      1  C   UNL     1      -9.212  62.770  40.490  1.00  0.00     0.240 C 
ATOM      2  C   UNL     1      -9.728  63.011  41.921  1.00  0.00     0.231 C 
ATOM      3  C   UNL     1     -10.628  61.867  42.300  1.00  0.00     0.202 C 
ATOM      4  O   UNL     1     -10.480  61.313  43.421  1.00  0.00    -0.291 OA
ATOM      5  C   UNL     1     -11.624  61.381  41.313  1.00  0.00     0.105 A 
ATOM      6  C   UNL     1     -12.766  60.606  41.649  1.00  0.00     0.133 A 
ATOM      7  C   UNL     1     -13.608  60.143  40.631  1.00  0.00     0.093 A 
ATOM      8  C   UNL     1     -13.373  60.481  39.297  1.00  0.00     0.123 A 
ATOM      9  C   UNL     1     -12.277  61.283  38.966  1.00  0.00     0.093 A 
ATOM     10  C   UNL     1     -11.400  61.722  39.961  1.00  0.00     0.138 A 
ATOM     11  O   UNL     1     -10.300  62.511  39.598  1.00  0.00    -0.481 OA
ENDROOT
BRANCH   1  12
ATOM     12  C   UNL     1      -8.383  63.934  39.995  1.00  0.00     0.003 A 
ATOM     13  C   UNL     1      -8.971  64.911  39.177  1.00  0.00     0.058 A 
ATOM     14  C   UNL     1      -8.210  65.978  38.681  1.00  0.00     0.161 A 
ATOM     15  C   UNL     1      -7.013  64.022  40.289  1.00  0.00     0.058 A 
ATOM     16  C   UNL     1      -6.842  66.068  38.994  1.00  0.00     0.200 A 
ATOM     17  C   UNL     1      -6.245  65.082  39.798  1.00  0.00     0.161 A 
BRANCH  14  18
ATOM     18  O   UNL     1      -8.806  66.947  37.875  1.00  0.00    -0.504 OA
ATOM     19  H   UNL     1      -9.423  66.696  37.112  1.00  0.00     0.293 HD
ENDBRANCH  14  18
BRANCH  16  20
ATOM     20  O   UNL     1      -6.069  67.125  38.510  1.00  0.00    -0.502 OA
ATOM     21  H   UNL     1      -6.435  68.065  38.420  1.00  0.00     0.293 HD
ENDBRANCH  16  20
BRANCH  17  22
ATOM     22  O   UNL     1      -4.889  65.140  40.120  1.00  0.00    -0.504 OA
ATOM     23  H   UNL     1      -4.444  64.442  40.705  1.00  0.00     0.293 HD
ENDBRANCH  17  22
ENDBRANCH   1  12
BRANCH   2  24
ATOM     24  O   UNL     1     -10.453  64.213  41.980  1.00  0.00    -0.381 OA
ATOM     25  H   UNL     1     -10.006  64.783  42.659  1.00  0.00     0.211 HD
ENDBRANCH   2  24
BRANCH   6  26
ATOM     26  O   UNL     1     -13.122  60.303  42.965  1.00  0.00    -0.507 OA
ATOM     27  H   UNL     1     -12.516  60.442  43.760  1.00  0.00     0.293 HD
ENDBRANCH   6  26
BRANCH   8  28
ATOM     28  O   UNL     1     -14.240  60.021  38.308  1.00  0.00    -0.508 OA
ATOM     29  H   UNL     1     -14.042  60.160  37.323  1.00  0.00     0.293 HD
ENDBRANCH   8  28
TORSDOF 7
ENDMDL
MODEL 7
REMARK VINA RESULT:    -5.118      1.897      3.165
REMARK INTER + INTRA:          -6.084
REMARK INTER:                  -5.697
REMARK INTRA:                  -0.387
REMARK UNBOUND:                 0.231
REMARK SMILES O=C1c2c(O)cc(O)cc2O[C@@H](c2cc(O)c(O)c(O)c2)[C@H]1O
REMARK SMILES IDX 12 1 22 2 2 3 1 4 3 5 4 6 6 7 7 8 9 9 10 10 11 11 13 12
REMARK SMILES IDX 14 13 15 14 21 15 17 16 19 17 16 18 18 20 20 22 23 24 5 26
REMARK SMILES IDX 8 28
REMARK H PARENT 16 19 18 21 20 23 23 25 5 27 8 29
REMARK Flexibility Score: inf
ROOT
ATOM      1  C   UNL     1     -11.625  49.129  53.915  1.00  0.00     0.240 C 
ATOM      2  C   UNL     1     -11.396  50.621  54.220  1.00  0.00     0.231 C 
ATOM      3  C   UNL     1      -9.962  50.807  54.631  1.00  0.00     0.202 C 
ATOM      4  O   UNL     1      -9.290  51.741  54.121  1.00  0.00    -0.291 OA
ATOM      5  C   UNL     1      -9.358  49.839  55.582  1.00  0.00     0.105 A 
ATOM      6  C   UNL     1      -8.187  50.096  56.344  1.00  0.00     0.133 A 
ATOM      7  C   UNL     1      -7.664  49.089  57.163  1.00  0.00     0.093 A 
ATOM      8  C   UNL     1      -8.308  47.857  57.286  1.00  0.00     0.123 A 
ATOM      9  C   UNL     1      -9.488  47.617  56.575  1.00  0.00     0.093 A 
ATOM     10  C   UNL     1     -10.005  48.592  55.720  1.00  0.00     0.138 A 
ATOM     11  O   UNL     1     -11.180  48.317  55.007  1.00  0.00    -0.481 OA
ENDROOT
BRANCH   1  12
ATOM     12  C   UNL     1     -13.075  48.843  53.597  1.00  0.00     0.003 A 
ATOM     13  C   UNL     1     -13.688  49.476  52.503  1.00  0.00     0.058 A 
ATOM     14  C   UNL     1     -15.041  49.249  52.215  1.00  0.00     0.161 A 
ATOM     15  C   UNL     1     -13.842  48.000  54.416  1.00  0.00     0.058 A 
ATOM     16  C   UNL     1     -15.797  48.390  53.031  1.00  0.00     0.200 A 
ATOM     17  C   UNL     1     -15.192  47.768  54.136  1.00  0.00     0.161 A 
BRANCH  14  18
ATOM     18  O   UNL     1     -15.637  49.877  51.122  1.00  0.00    -0.504 OA
ATOM     19  H   UNL     1     -16.551  49.600  50.784  1.00  0.00     0.293 HD
ENDBRANCH  14  18
BRANCH  16  20
ATOM     20  O   UNL     1     -17.145  48.151  52.756  1.00  0.00    -0.502 OA
ATOM     21  H   UNL     1     -17.624  47.321  53.083  1.00  0.00     0.293 HD
ENDBRANCH  16  20
BRANCH  17  22
ATOM     22  O   UNL     1     -15.918  46.916  54.969  1.00  0.00    -0.504 OA
ATOM     23  H   UNL     1     -16.739  46.417  54.647  1.00  0.00     0.293 HD
ENDBRANCH  17  22
ENDBRANCH   1  12
BRANCH   2  24
ATOM     24  O   UNL     1     -12.238  51.038  55.264  1.00  0.00    -0.381 OA
ATOM     25  H   UNL     1     -11.648  51.386  55.984  1.00  0.00     0.211 HD
ENDBRANCH   2  24
BRANCH   6  26
ATOM     26  O   UNL     1      -7.535  51.332  56.348  1.00  0.00    -0.507 OA
ATOM     27  H   UNL     1      -7.175  51.783  55.520  1.00  0.00     0.293 HD
ENDBRANCH   6  26
BRANCH   8  28
ATOM     28  O   UNL     1      -7.774  46.881  58.124  1.00  0.00    -0.508 OA
ATOM     29  H   UNL     1      -7.669  45.920  57.819  1.00  0.00     0.293 HD
ENDBRANCH   8  28
TORSDOF 7
ENDMDL
