MODEL 1
REMARK VINA RESULT:    -6.358      0.000      0.000
REMARK INTER + INTRA:          -8.007
REMARK INTER:                  -7.659
REMARK INTRA:                  -0.348
REMARK UNBOUND:                -0.348
REMARK SMILES Oc1cc(O)c2c(c1)O[C@@H](c1ccc(O)c(O)c1)[C@H](O)C2
REMARK SMILES IDX 21 1 19 2 10 3 9 4 7 5 8 6 2 7 3 8 4 9 6 10 20 11 11 13
REMARK SMILES IDX 18 14 12 15 16 16 13 17 14 18 17 19 15 21 5 23 1 25
REMARK H PARENT 20 12 17 20 15 22 5 24 1 26
REMARK Flexibility Score: inf
ROOT
ATOM      1  C   UNL     1     -34.817  11.426   8.589  1.00  0.00     0.079 C 
ATOM      2  C   UNL     1     -34.672   9.898   8.472  1.00  0.00     0.164 C 
ATOM      3  C   UNL     1     -33.956   9.539   7.158  1.00  0.00     0.232 C 
ATOM      4  O   UNL     1     -32.691  10.197   7.102  1.00  0.00    -0.482 OA
ATOM      5  C   UNL     1     -32.507  11.504   7.566  1.00  0.00     0.131 A 
ATOM      6  C   UNL     1     -31.295  12.150   7.309  1.00  0.00     0.093 A 
ATOM      7  C   UNL     1     -31.088  13.462   7.747  1.00  0.00     0.122 A 
ATOM      8  C   UNL     1     -32.103  14.131   8.436  1.00  0.00     0.092 A 
ATOM      9  C   UNL     1     -33.323  13.499   8.703  1.00  0.00     0.126 A 
ATOM     10  C   UNL     1     -33.521  12.156   8.300  1.00  0.00     0.039 A 
ENDROOT
BRANCH   2  11
ATOM     11  O   UNL     1     -35.941   9.297   8.499  1.00  0.00    -0.389 OA
ATOM     12  H   UNL     1     -36.023   8.843   9.380  1.00  0.00     0.211 HD
ENDBRANCH   2  11
BRANCH   3  13
ATOM     13  C   UNL     1     -33.759   8.047   7.035  1.00  0.00    -0.001 A 
ATOM     14  C   UNL     1     -32.851   7.374   7.872  1.00  0.00     0.057 A 
ATOM     15  C   UNL     1     -34.515   7.307   6.112  1.00  0.00     0.012 A 
ATOM     16  C   UNL     1     -32.687   5.985   7.775  1.00  0.00     0.157 A 
ATOM     17  C   UNL     1     -34.353   5.922   6.014  1.00  0.00     0.050 A 
ATOM     18  C   UNL     1     -33.441   5.257   6.840  1.00  0.00     0.157 A 
BRANCH  16  19
ATOM     19  O   UNL     1     -31.781   5.326   8.606  1.00  0.00    -0.504 OA
ATOM     20  H   UNL     1     -31.818   4.323   8.739  1.00  0.00     0.293 HD
ENDBRANCH  16  19
BRANCH  18  21
ATOM     21  O   UNL     1     -33.301   3.875   6.718  1.00  0.00    -0.504 OA
ATOM     22  H   UNL     1     -33.580   3.239   7.456  1.00  0.00     0.293 HD
ENDBRANCH  18  21
ENDBRANCH   3  13
BRANCH   9  23
ATOM     23  O   UNL     1     -34.315  14.234   9.356  1.00  0.00    -0.507 OA
ATOM     24  H   UNL     1     -34.251  15.229   9.521  1.00  0.00     0.293 HD
ENDBRANCH   9  23
BRANCH   7  25
ATOM     25  O   UNL     1     -29.883  14.113   7.496  1.00  0.00    -0.508 OA
ATOM     26  H   UNL     1     -29.845  15.113   7.335  1.00  0.00     0.293 HD
ENDBRANCH   7  25
TORSDOF 6
ENDMDL
MODEL 2
REMARK VINA RESULT:    -6.346      1.504      7.140
REMARK INTER + INTRA:          -7.992
REMARK INTER:                  -7.625
REMARK INTRA:                  -0.367
REMARK UNBOUND:                -0.348
REMARK SMILES Oc1cc(O)c2c(c1)O[C@@H](c1ccc(O)c(O)c1)[C@H](O)C2
REMARK SMILES IDX 21 1 19 2 10 3 9 4 7 5 8 6 2 7 3 8 4 9 6 10 20 11 11 13
REMARK SMILES IDX 18 14 12 15 16 16 13 17 14 18 17 19 15 21 5 23 1 25
REMARK H PARENT 20 12 17 20 15 22 5 24 1 26
REMARK Flexibility Score: inf
ROOT
ATOM      1  C   UNL     1     -31.805   7.157   9.032  1.00  0.00     0.079 C 
ATOM      2  C   UNL     1     -32.160   8.609   9.400  1.00  0.00     0.164 C 
ATOM      3  C   UNL     1     -32.419   9.425   8.122  1.00  0.00     0.232 C 
ATOM      4  O   UNL     1     -33.451   8.806   7.354  1.00  0.00    -0.482 OA
ATOM      5  C   UNL     1     -33.559   7.417   7.230  1.00  0.00     0.131 A 
ATOM      6  C   UNL     1     -34.472   6.887   6.315  1.00  0.00     0.093 A 
ATOM      7  C   UNL     1     -34.591   5.503   6.158  1.00  0.00     0.122 A 
ATOM      8  C   UNL     1     -33.784   4.647   6.914  1.00  0.00     0.092 A 
ATOM      9  C   UNL     1     -32.864   5.161   7.835  1.00  0.00     0.126 A 
ATOM     10  C   UNL     1     -32.771   6.559   8.029  1.00  0.00     0.039 A 
ENDROOT
BRANCH   2  11
ATOM     11  O   UNL     1     -31.105   9.187  10.125  1.00  0.00    -0.389 OA
ATOM     12  H   UNL     1     -30.462   8.456  10.324  1.00  0.00     0.211 HD
ENDBRANCH   2  11
BRANCH   3  13
ATOM     13  C   UNL     1     -32.814  10.845   8.451  1.00  0.00    -0.001 A 
ATOM     14  C   UNL     1     -32.079  11.928   7.939  1.00  0.00     0.057 A 
ATOM     15  C   UNL     1     -33.950  11.099   9.236  1.00  0.00     0.012 A 
ATOM     16  C   UNL     1     -32.461  13.247   8.223  1.00  0.00     0.157 A 
ATOM     17  C   UNL     1     -34.333  12.413   9.520  1.00  0.00     0.050 A 
ATOM     18  C   UNL     1     -33.593  13.489   9.019  1.00  0.00     0.157 A 
BRANCH  16  19
ATOM     19  O   UNL     1     -31.723  14.316   7.715  1.00  0.00    -0.504 OA
ATOM     20  H   UNL     1     -31.054  14.189   6.966  1.00  0.00     0.293 HD
ENDBRANCH  16  19
BRANCH  18  21
ATOM     21  O   UNL     1     -33.999  14.788   9.320  1.00  0.00    -0.504 OA
ATOM     22  H   UNL     1     -33.373  15.464   9.742  1.00  0.00     0.293 HD
ENDBRANCH  18  21
ENDBRANCH   3  13
BRANCH   9  23
ATOM     23  O   UNL     1     -32.055   4.257   8.527  1.00  0.00    -0.507 OA
ATOM     24  H   UNL     1     -31.065   4.152   8.354  1.00  0.00     0.293 HD
ENDBRANCH   9  23
BRANCH   7  25
ATOM     25  O   UNL     1     -35.500   4.966   5.250  1.00  0.00    -0.508 OA
ATOM     26  H   UNL     1     -35.388   4.029   4.880  1.00  0.00     0.293 HD
ENDBRANCH   7  25
TORSDOF 6
ENDMDL
MODEL 3
REMARK VINA RESULT:    -6.204      1.285      6.945
REMARK INTER + INTRA:          -7.822
REMARK INTER:                  -7.485
REMARK INTRA:                  -0.337
REMARK UNBOUND:                -0.348
REMARK SMILES Oc1cc(O)c2c(c1)O[C@@H](c1ccc(O)c(O)c1)[C@H](O)C2
REMARK SMILES IDX 21 1 19 2 10 3 9 4 7 5 8 6 2 7 3 8 4 9 6 10 20 11 11 13
REMARK SMILES IDX 18 14 12 15 16 16 13 17 14 18 17 19 15 21 5 23 1 25
REMARK H PARENT 20 12 17 20 15 22 5 24 1 26
REMARK Flexibility Score: inf
ROOT
ATOM      1  C   UNL     1     -34.822   8.258   6.356  1.00  0.00     0.079 C 
ATOM      2  C   UNL     1     -34.193   9.653   6.527  1.00  0.00     0.164 C 
ATOM      3  C   UNL     1     -33.857   9.898   8.009  1.00  0.00     0.232 C 
ATOM      4  O   UNL     1     -32.995   8.864   8.486  1.00  0.00    -0.482 OA
ATOM      5  C   UNL     1     -33.146   7.528   8.101  1.00  0.00     0.131 A 
ATOM      6  C   UNL     1     -32.392   6.547   8.750  1.00  0.00     0.093 A 
ATOM      7  C   UNL     1     -32.533   5.201   8.398  1.00  0.00     0.122 A 
ATOM      8  C   UNL     1     -33.441   4.837   7.399  1.00  0.00     0.092 A 
ATOM      9  C   UNL     1     -34.205   5.807   6.739  1.00  0.00     0.126 A 
ATOM     10  C   UNL     1     -34.033   7.174   7.061  1.00  0.00     0.039 A 
ENDROOT
BRANCH   2  11
ATOM     11  O   UNL     1     -35.087  10.637   6.076  1.00  0.00    -0.389 OA
ATOM     12  H   UNL     1     -35.997  10.339   6.342  1.00  0.00     0.211 HD
ENDBRANCH   2  11
BRANCH   3  13
ATOM     13  C   UNL     1     -33.196  11.241   8.204  1.00  0.00    -0.001 A 
ATOM     14  C   UNL     1     -33.901  12.306   8.791  1.00  0.00     0.057 A 
ATOM     15  C   UNL     1     -31.852  11.427   7.842  1.00  0.00     0.012 A 
ATOM     16  C   UNL     1     -33.279  13.546   8.997  1.00  0.00     0.157 A 
ATOM     17  C   UNL     1     -31.230  12.662   8.046  1.00  0.00     0.050 A 
ATOM     18  C   UNL     1     -31.937  13.724   8.621  1.00  0.00     0.157 A 
BRANCH  16  19
ATOM     19  O   UNL     1     -33.987  14.599   9.576  1.00  0.00    -0.504 OA
ATOM     20  H   UNL     1     -34.404  14.515  10.495  1.00  0.00     0.293 HD
ENDBRANCH  16  19
BRANCH  18  21
ATOM     21  O   UNL     1     -31.289  14.944   8.811  1.00  0.00    -0.504 OA
ATOM     22  H   UNL     1     -30.435  15.181   8.322  1.00  0.00     0.293 HD
ENDBRANCH  18  21
ENDBRANCH   3  13
BRANCH   9  23
ATOM     23  O   UNL     1     -35.127   5.377   5.783  1.00  0.00    -0.507 OA
ATOM     24  H   UNL     1     -35.198   5.780   4.858  1.00  0.00     0.293 HD
ENDBRANCH   9  23
BRANCH   7  25
ATOM     25  O   UNL     1     -31.785   4.217   9.038  1.00  0.00    -0.508 OA
ATOM     26  H   UNL     1     -32.094   3.798   9.907  1.00  0.00     0.293 HD
ENDBRANCH   7  25
TORSDOF 6
ENDMDL
MODEL 4
REMARK VINA RESULT:    -6.106      1.425      6.839
REMARK INTER + INTRA:          -7.704
REMARK INTER:                  -7.334
REMARK INTRA:                  -0.370
REMARK UNBOUND:                -0.348
REMARK SMILES Oc1cc(O)c2c(c1)O[C@@H](c1ccc(O)c(O)c1)[C@H](O)C2
REMARK SMILES IDX 21 1 19 2 10 3 9 4 7 5 8 6 2 7 3 8 4 9 6 10 20 11 11 13
REMARK SMILES IDX 18 14 12 15 16 16 13 17 14 18 17 19 15 21 5 23 1 25
REMARK H PARENT 20 12 17 20 15 22 5 24 1 26
REMARK Flexibility Score: inf
ROOT
ATOM      1  C   UNL     1     -34.738   8.351   6.344  1.00  0.00     0.079 C 
ATOM      2  C   UNL     1     -34.089   9.740   6.487  1.00  0.00     0.164 C 
ATOM      3  C   UNL     1     -33.723   9.998   7.959  1.00  0.00     0.232 C 
ATOM      4  O   UNL     1     -32.864   8.960   8.432  1.00  0.00    -0.482 OA
ATOM      5  C   UNL     1     -33.039   7.621   8.067  1.00  0.00     0.131 A 
ATOM      6  C   UNL     1     -32.284   6.639   8.713  1.00  0.00     0.093 A 
ATOM      7  C   UNL     1     -32.448   5.291   8.379  1.00  0.00     0.122 A 
ATOM      8  C   UNL     1     -33.379   4.926   7.403  1.00  0.00     0.092 A 
ATOM      9  C   UNL     1     -34.143   5.897   6.746  1.00  0.00     0.126 A 
ATOM     10  C   UNL     1     -33.949   7.266   7.048  1.00  0.00     0.039 A 
ENDROOT
BRANCH   2  11
ATOM     11  O   UNL     1     -34.980  10.729   6.041  1.00  0.00    -0.389 OA
ATOM     12  H   UNL     1     -34.547  11.174   5.264  1.00  0.00     0.211 HD
ENDBRANCH   2  11
BRANCH   3  13
ATOM     13  C   UNL     1     -33.042  11.336   8.126  1.00  0.00    -0.001 A 
ATOM     14  C   UNL     1     -31.851  11.622   7.437  1.00  0.00     0.057 A 
ATOM     15  C   UNL     1     -33.619  12.327   8.936  1.00  0.00     0.012 A 
ATOM     16  C   UNL     1     -31.233  12.873   7.571  1.00  0.00     0.157 A 
ATOM     17  C   UNL     1     -33.005  13.575   9.071  1.00  0.00     0.050 A 
ATOM     18  C   UNL     1     -31.813  13.853   8.394  1.00  0.00     0.157 A 
BRANCH  16  19
ATOM     19  O   UNL     1     -30.049  13.148   6.888  1.00  0.00    -0.504 OA
ATOM     20  H   UNL     1     -29.817  14.086   6.585  1.00  0.00     0.293 HD
ENDBRANCH  16  19
BRANCH  18  21
ATOM     21  O   UNL     1     -31.224  15.107   8.549  1.00  0.00    -0.504 OA
ATOM     22  H   UNL     1     -31.772  15.942   8.720  1.00  0.00     0.293 HD
ENDBRANCH  18  21
ENDBRANCH   3  13
BRANCH   9  23
ATOM     23  O   UNL     1     -35.088   5.467   5.812  1.00  0.00    -0.507 OA
ATOM     24  H   UNL     1     -36.011   5.142   6.064  1.00  0.00     0.293 HD
ENDBRANCH   9  23
BRANCH   7  25
ATOM     25  O   UNL     1     -31.699   4.305   9.017  1.00  0.00    -0.508 OA
ATOM     26  H   UNL     1     -30.814   3.986   8.641  1.00  0.00     0.293 HD
ENDBRANCH   7  25
TORSDOF 6
ENDMDL
MODEL 5
REMARK VINA RESULT:    -5.711      2.736      6.161
REMARK INTER + INTRA:          -7.228
REMARK INTER:                  -6.940
REMARK INTRA:                  -0.288
REMARK UNBOUND:                -0.348
REMARK SMILES Oc1cc(O)c2c(c1)O[C@@H](c1ccc(O)c(O)c1)[C@H](O)C2
REMARK SMILES IDX 21 1 19 2 10 3 9 4 7 5 8 6 2 7 3 8 4 9 6 10 20 11 11 13
REMARK SMILES IDX 18 14 12 15 16 16 13 17 14 18 17 19 15 21 5 23 1 25
REMARK H PARENT 20 12 17 20 15 22 5 24 1 26
REMARK Flexibility Score: inf
ROOT
ATOM      1  C   UNL     1     -35.051   9.036   8.248  1.00  0.00     0.079 C 
ATOM      2  C   UNL     1     -34.412   9.643   6.986  1.00  0.00     0.164 C 
ATOM      3  C   UNL     1     -32.888   9.751   7.171  1.00  0.00     0.232 C 
ATOM      4  O   UNL     1     -32.346   8.465   7.474  1.00  0.00    -0.482 OA
ATOM      5  C   UNL     1     -33.005   7.554   8.305  1.00  0.00     0.131 A 
ATOM      6  C   UNL     1     -32.333   6.397   8.709  1.00  0.00     0.093 A 
ATOM      7  C   UNL     1     -32.960   5.475   9.553  1.00  0.00     0.122 A 
ATOM      8  C   UNL     1     -34.261   5.719  10.002  1.00  0.00     0.092 A 
ATOM      9  C   UNL     1     -34.948   6.873   9.608  1.00  0.00     0.126 A 
ATOM     10  C   UNL     1     -34.335   7.786   8.719  1.00  0.00     0.039 A 
ENDROOT
BRANCH   2  11
ATOM     11  O   UNL     1     -34.951  10.918   6.747  1.00  0.00    -0.389 OA
ATOM     12  H   UNL     1     -35.254  11.269   7.626  1.00  0.00     0.211 HD
ENDBRANCH   2  11
BRANCH   3  13
ATOM     13  C   UNL     1     -32.225  10.303   5.931  1.00  0.00    -0.001 A 
ATOM     14  C   UNL     1     -32.603   9.847   4.656  1.00  0.00     0.057 A 
ATOM     15  C   UNL     1     -31.256  11.313   6.038  1.00  0.00     0.012 A 
ATOM     16  C   UNL     1     -32.006  10.378   3.504  1.00  0.00     0.157 A 
ATOM     17  C   UNL     1     -30.660  11.843   4.890  1.00  0.00     0.050 A 
ATOM     18  C   UNL     1     -31.029  11.380   3.623  1.00  0.00     0.157 A 
BRANCH  16  19
ATOM     19  O   UNL     1     -32.382   9.917   2.243  1.00  0.00    -0.504 OA
ATOM     20  H   UNL     1     -33.130  10.357   1.719  1.00  0.00     0.293 HD
ENDBRANCH  16  19
BRANCH  18  21
ATOM     21  O   UNL     1     -30.416  11.929   2.497  1.00  0.00    -0.504 OA
ATOM     22  H   UNL     1     -30.336  12.929   2.362  1.00  0.00     0.293 HD
ENDBRANCH  18  21
ENDBRANCH   3  13
BRANCH   9  23
ATOM     23  O   UNL     1     -36.228   7.083  10.125  1.00  0.00    -0.507 OA
ATOM     24  H   UNL     1     -36.401   7.434  11.057  1.00  0.00     0.293 HD
ENDBRANCH   9  23
BRANCH   7  25
ATOM     25  O   UNL     1     -32.299   4.319   9.959  1.00  0.00    -0.508 OA
ATOM     26  H   UNL     1     -31.772   4.286  10.824  1.00  0.00     0.293 HD
ENDBRANCH   7  25
TORSDOF 6
ENDMDL
MODEL 6
REMARK VINA RESULT:    -5.648      1.371      2.850
REMARK INTER + INTRA:          -7.152
REMARK INTER:                  -6.785
REMARK INTRA:                  -0.367
REMARK UNBOUND:                -0.348
REMARK SMILES Oc1cc(O)c2c(c1)O[C@@H](c1ccc(O)c(O)c1)[C@H](O)C2
REMARK SMILES IDX 21 1 19 2 10 3 9 4 7 5 8 6 2 7 3 8 4 9 6 10 20 11 11 13
REMARK SMILES IDX 18 14 12 15 16 16 13 17 14 18 17 19 15 21 5 23 1 25
REMARK H PARENT 20 12 17 20 15 22 5 24 1 26
REMARK Flexibility Score: inf
ROOT
ATOM      1  C   UNL     1     -30.829  11.917   6.605  1.00  0.00     0.079 C 
ATOM      2  C   UNL     1     -31.552  10.635   6.154  1.00  0.00     0.164 C 
ATOM      3  C   UNL     1     -32.157   9.918   7.373  1.00  0.00     0.232 C 
ATOM      4  O   UNL     1     -33.033  10.804   8.069  1.00  0.00    -0.482 OA
ATOM      5  C   UNL     1     -32.745  12.163   8.234  1.00  0.00     0.131 A 
ATOM      6  C   UNL     1     -33.549  12.928   9.084  1.00  0.00     0.093 A 
ATOM      7  C   UNL     1     -33.276  14.285   9.280  1.00  0.00     0.122 A 
ATOM      8  C   UNL     1     -32.188  14.875   8.631  1.00  0.00     0.092 A 
ATOM      9  C   UNL     1     -31.373  14.123   7.776  1.00  0.00     0.126 A 
ATOM     10  C   UNL     1     -31.671  12.760   7.540  1.00  0.00     0.039 A 
ENDROOT
BRANCH   2  11
ATOM     11  O   UNL     1     -30.646   9.781   5.504  1.00  0.00    -0.389 OA
ATOM     12  H   UNL     1     -29.998   9.476   6.193  1.00  0.00     0.211 HD
ENDBRANCH   2  11
BRANCH   3  13
ATOM     13  C   UNL     1     -32.913   8.678   6.959  1.00  0.00    -0.001 A 
ATOM     14  C   UNL     1     -32.577   7.423   7.495  1.00  0.00     0.057 A 
ATOM     15  C   UNL     1     -33.993   8.774   6.066  1.00  0.00     0.012 A 
ATOM     16  C   UNL     1     -33.296   6.276   7.130  1.00  0.00     0.157 A 
ATOM     17  C   UNL     1     -34.711   7.632   5.701  1.00  0.00     0.050 A 
ATOM     18  C   UNL     1     -34.367   6.382   6.227  1.00  0.00     0.157 A 
BRANCH  16  19
ATOM     19  O   UNL     1     -32.953   5.034   7.663  1.00  0.00    -0.504 OA
ATOM     20  H   UNL     1     -32.237   4.455   7.240  1.00  0.00     0.293 HD
ENDBRANCH  16  19
BRANCH  18  21
ATOM     21  O   UNL     1     -35.102   5.261   5.844  1.00  0.00    -0.504 OA
ATOM     22  H   UNL     1     -36.047   5.334   5.487  1.00  0.00     0.293 HD
ENDBRANCH  18  21
ENDBRANCH   3  13
BRANCH   9  23
ATOM     23  O   UNL     1     -30.275  14.758   7.192  1.00  0.00    -0.507 OA
ATOM     24  H   UNL     1     -29.861  15.604   7.559  1.00  0.00     0.293 HD
ENDBRANCH   9  23
BRANCH   7  25
ATOM     25  O   UNL     1     -34.072  15.055  10.124  1.00  0.00    -0.508 OA
ATOM     26  H   UNL     1     -34.515  15.908   9.802  1.00  0.00     0.293 HD
ENDBRANCH   7  25
TORSDOF 6
ENDMDL
MODEL 7
REMARK VINA RESULT:    -4.859      2.476      3.656
REMARK INTER + INTRA:          -6.202
REMARK INTER:                  -6.236
REMARK INTRA:                   0.035
REMARK UNBOUND:                -0.348
REMARK SMILES Oc1cc(O)c2c(c1)O[C@@H](c1ccc(O)c(O)c1)[C@H](O)C2
REMARK SMILES IDX 21 1 19 2 10 3 9 4 7 5 8 6 2 7 3 8 4 9 6 10 20 11 11 13
REMARK SMILES IDX 18 14 12 15 16 16 13 17 14 18 17 19 15 21 5 23 1 25
REMARK H PARENT 20 12 17 20 15 22 5 24 1 26
REMARK Flexibility Score: inf
ROOT
ATOM      1  C   UNL     1     -31.548  11.354   7.771  1.00  0.00     0.079 C 
ATOM      2  C   UNL     1     -31.664   9.997   8.489  1.00  0.00     0.164 C 
ATOM      3  C   UNL     1     -32.567   9.051   7.678  1.00  0.00     0.232 C 
ATOM      4  O   UNL     1     -32.052   8.909   6.354  1.00  0.00    -0.482 OA
ATOM      5  C   UNL     1     -31.494   9.981   5.650  1.00  0.00     0.131 A 
ATOM      6  C   UNL     1     -31.185   9.816   4.297  1.00  0.00     0.093 A 
ATOM      7  C   UNL     1     -30.640  10.874   3.564  1.00  0.00     0.122 A 
ATOM      8  C   UNL     1     -30.414  12.105   4.186  1.00  0.00     0.092 A 
ATOM      9  C   UNL     1     -30.717  12.288   5.540  1.00  0.00     0.126 A 
ATOM     10  C   UNL     1     -31.228  11.207   6.297  1.00  0.00     0.039 A 
ENDROOT
BRANCH   2  11
ATOM     11  O   UNL     1     -32.203  10.182   9.772  1.00  0.00    -0.389 OA
ATOM     12  H   UNL     1     -32.007   9.354  10.286  1.00  0.00     0.211 HD
ENDBRANCH   2  11
BRANCH   3  13
ATOM     13  C   UNL     1     -32.664   7.694   8.333  1.00  0.00    -0.001 A 
ATOM     14  C   UNL     1     -33.652   6.777   7.934  1.00  0.00     0.057 A 
ATOM     15  C   UNL     1     -31.738   7.317   9.318  1.00  0.00     0.012 A 
ATOM     16  C   UNL     1     -33.726   5.507   8.524  1.00  0.00     0.157 A 
ATOM     17  C   UNL     1     -31.810   6.051   9.908  1.00  0.00     0.050 A 
ATOM     18  C   UNL     1     -32.801   5.145   9.517  1.00  0.00     0.157 A 
BRANCH  16  19
ATOM     19  O   UNL     1     -34.712   4.605   8.126  1.00  0.00    -0.504 OA
ATOM     20  H   UNL     1     -35.650   4.912   7.899  1.00  0.00     0.293 HD
ENDBRANCH  16  19
BRANCH  18  21
ATOM     21  O   UNL     1     -32.847   3.890  10.124  1.00  0.00    -0.504 OA
ATOM     22  H   UNL     1     -33.031   3.778  11.113  1.00  0.00     0.293 HD
ENDBRANCH  18  21
ENDBRANCH   3  13
BRANCH   9  23
ATOM     23  O   UNL     1     -30.511  13.553   6.094  1.00  0.00    -0.507 OA
ATOM     24  H   UNL     1     -30.811  13.808   7.025  1.00  0.00     0.293 HD
ENDBRANCH   9  23
BRANCH   7  25
ATOM     25  O   UNL     1     -30.327  10.718   2.216  1.00  0.00    -0.508 OA
ATOM     26  H   UNL     1     -31.047  10.553   1.521  1.00  0.00     0.293 HD
ENDBRANCH   7  25
TORSDOF 6
ENDMDL
MODEL 8
REMARK VINA RESULT:    -4.501      3.067      4.361
REMARK INTER + INTRA:          -5.770
REMARK INTER:                  -5.996
REMARK INTRA:                   0.226
REMARK UNBOUND:                -0.348
REMARK SMILES Oc1cc(O)c2c(c1)O[C@@H](c1ccc(O)c(O)c1)[C@H](O)C2
REMARK SMILES IDX 21 1 19 2 10 3 9 4 7 5 8 6 2 7 3 8 4 9 6 10 20 11 11 13
REMARK SMILES IDX 18 14 12 15 16 16 13 17 14 18 17 19 15 21 5 23 1 25
REMARK H PARENT 20 12 17 20 15 22 5 24 1 26
REMARK Flexibility Score: inf
ROOT
ATOM      1  C   UNL     1     -31.811  11.636   6.189  1.00  0.00     0.079 C 
ATOM      2  C   UNL     1     -32.460  10.665   7.191  1.00  0.00     0.164 C 
ATOM      3  C   UNL     1     -33.458   9.749   6.460  1.00  0.00     0.232 C 
ATOM      4  O   UNL     1     -32.793   9.056   5.404  1.00  0.00    -0.482 OA
ATOM      5  C   UNL     1     -31.820   9.666   4.606  1.00  0.00     0.131 A 
ATOM      6  C   UNL     1     -31.349   8.991   3.476  1.00  0.00     0.093 A 
ATOM      7  C   UNL     1     -30.387   9.583   2.652  1.00  0.00     0.122 A 
ATOM      8  C   UNL     1     -29.903  10.858   2.955  1.00  0.00     0.092 A 
ATOM      9  C   UNL     1     -30.363  11.548   4.083  1.00  0.00     0.126 A 
ATOM     10  C   UNL     1     -31.304  10.936   4.945  1.00  0.00     0.039 A 
ENDROOT
BRANCH   2  11
ATOM     11  O   UNL     1     -33.129  11.389   8.191  1.00  0.00    -0.389 OA
ATOM     12  H   UNL     1     -33.759  10.757   8.628  1.00  0.00     0.211 HD
ENDBRANCH   2  11
BRANCH   3  13
ATOM     13  C   UNL     1     -34.080   8.752   7.409  1.00  0.00    -0.001 A 
ATOM     14  C   UNL     1     -33.931   7.371   7.193  1.00  0.00     0.057 A 
ATOM     15  C   UNL     1     -34.776   9.196   8.545  1.00  0.00     0.012 A 
ATOM     16  C   UNL     1     -34.486   6.446   8.089  1.00  0.00     0.157 A 
ATOM     17  C   UNL     1     -35.330   8.276   9.438  1.00  0.00     0.050 A 
ATOM     18  C   UNL     1     -35.190   6.902   9.216  1.00  0.00     0.157 A 
BRANCH  16  19
ATOM     19  O   UNL     1     -34.338   5.078   7.865  1.00  0.00    -0.504 OA
ATOM     20  H   UNL     1     -33.561   4.558   8.257  1.00  0.00     0.293 HD
ENDBRANCH  16  19
BRANCH  18  21
ATOM     21  O   UNL     1     -35.755   6.008  10.125  1.00  0.00    -0.504 OA
ATOM     22  H   UNL     1     -36.724   6.072  10.411  1.00  0.00     0.293 HD
ENDBRANCH  18  21
ENDBRANCH   3  13
BRANCH   9  23
ATOM     23  O   UNL     1     -29.875  12.837   4.309  1.00  0.00    -0.507 OA
ATOM     24  H   UNL     1     -30.085  13.374   5.139  1.00  0.00     0.293 HD
ENDBRANCH   9  23
BRANCH   7  25
ATOM     25  O   UNL     1     -29.912   8.918   1.524  1.00  0.00    -0.508 OA
ATOM     26  H   UNL     1     -29.474   9.419   0.759  1.00  0.00     0.293 HD
ENDBRANCH   7  25
TORSDOF 6
ENDMDL
MODEL 9
REMARK VINA RESULT:    -4.472      1.915      7.213
REMARK INTER + INTRA:          -5.736
REMARK INTER:                  -5.477
REMARK INTRA:                  -0.259
REMARK UNBOUND:                -0.348
REMARK SMILES Oc1cc(O)c2c(c1)O[C@@H](c1ccc(O)c(O)c1)[C@H](O)C2
REMARK SMILES IDX 21 1 19 2 10 3 9 4 7 5 8 6 2 7 3 8 4 9 6 10 20 11 11 13
REMARK SMILES IDX 18 14 12 15 16 16 13 17 14 18 17 19 15 21 5 23 1 25
REMARK H PARENT 20 12 17 20 15 22 5 24 1 26
REMARK Flexibility Score: inf
ROOT
ATOM      1  C   UNL     1     -32.448   8.757   6.259  1.00  0.00     0.079 C 
ATOM      2  C   UNL     1     -31.666   9.951   6.835  1.00  0.00     0.164 C 
ATOM      3  C   UNL     1     -32.631  10.915   7.548  1.00  0.00     0.232 C 
ATOM      4  O   UNL     1     -33.353  10.215   8.561  1.00  0.00    -0.482 OA
ATOM      5  C   UNL     1     -33.810   8.905   8.383  1.00  0.00     0.131 A 
ATOM      6  C   UNL     1     -34.668   8.351   9.338  1.00  0.00     0.093 A 
ATOM      7  C   UNL     1     -35.153   7.050   9.178  1.00  0.00     0.122 A 
ATOM      8  C   UNL     1     -34.786   6.305   8.054  1.00  0.00     0.092 A 
ATOM      9  C   UNL     1     -33.928   6.844   7.089  1.00  0.00     0.126 A 
ATOM     10  C   UNL     1     -33.399   8.144   7.267  1.00  0.00     0.039 A 
ENDROOT
BRANCH   2  11
ATOM     11  O   UNL     1     -31.000  10.628   5.801  1.00  0.00    -0.389 OA
ATOM     12  H   UNL     1     -30.344  11.236   6.233  1.00  0.00     0.211 HD
ENDBRANCH   2  11
BRANCH   3  13
ATOM     13  C   UNL     1     -31.887  12.076   8.164  1.00  0.00    -0.001 A 
ATOM     14  C   UNL     1     -31.782  13.300   7.481  1.00  0.00     0.057 A 
ATOM     15  C   UNL     1     -31.332  11.959   9.448  1.00  0.00     0.012 A 
ATOM     16  C   UNL     1     -31.115  14.387   8.065  1.00  0.00     0.157 A 
ATOM     17  C   UNL     1     -30.667  13.040  10.031  1.00  0.00     0.050 A 
ATOM     18  C   UNL     1     -30.553  14.254   9.346  1.00  0.00     0.157 A 
BRANCH  16  19
ATOM     19  O   UNL     1     -31.010  15.596   7.379  1.00  0.00    -0.504 OA
ATOM     20  H   UNL     1     -30.191  15.825   6.829  1.00  0.00     0.293 HD
ENDBRANCH  16  19
BRANCH  18  21
ATOM     21  O   UNL     1     -29.883  15.315   9.954  1.00  0.00    -0.504 OA
ATOM     22  H   UNL     1     -28.874  15.398   9.928  1.00  0.00     0.293 HD
ENDBRANCH  18  21
ENDBRANCH   3  13
BRANCH   9  23
ATOM     23  O   UNL     1     -33.634   6.068   5.966  1.00  0.00    -0.507 OA
ATOM     24  H   UNL     1     -34.049   6.224   5.057  1.00  0.00     0.293 HD
ENDBRANCH   9  23
BRANCH   7  25
ATOM     25  O   UNL     1     -36.008   6.489  10.125  1.00  0.00    -0.508 OA
ATOM     26  H   UNL     1     -36.003   5.495  10.319  1.00  0.00     0.293 HD
ENDBRANCH   7  25
TORSDOF 6
ENDMDL
