MODEL 1
REMARK VINA RESULT:    -3.708      0.000      0.000
REMARK INTER + INTRA:          -4.456
REMARK INTER:                  -4.359
REMARK INTRA:                  -0.097
REMARK UNBOUND:                -0.097
REMARK SMILES O=C([O-])CCC(=O)[O-]
REMARK SMILES IDX 4 1 2 2 1 3 3 4 5 5 6 6 7 7 8 8
REMARK H PARENT
REMARK Flexibility Score: inf
ROOT
ATOM      1  C   UNL     1       3.188  22.596  43.846  1.00  0.00     0.059 C 
ENDROOT
BRANCH   1   2
ATOM      2  C   UNL     1       2.334  21.899  42.832  1.00  0.00     0.042 C 
ATOM      3  O   UNL     1       2.558  22.054  41.602  1.00  0.00    -0.550 OA
ATOM      4  O   UNL     1       1.316  21.049  43.245  1.00  0.00    -0.550 OA
ENDBRANCH   1   2
BRANCH   1   5
ATOM      5  C   UNL     1       2.483  22.698  45.203  1.00  0.00     0.059 C 
BRANCH   5   6
ATOM      6  C   UNL     1       1.748  23.997  45.348  1.00  0.00     0.042 C 
ATOM      7  O   UNL     1       0.927  24.157  46.288  1.00  0.00    -0.550 OA
ATOM      8  O   UNL     1       2.002  25.042  44.469  1.00  0.00    -0.550 OA
ENDBRANCH   5   6
ENDBRANCH   1   5
TORSDOF 3
ENDMDL
MODEL 2
REMARK VINA RESULT:    -3.680      0.098      3.755
REMARK INTER + INTRA:          -4.423
REMARK INTER:                  -4.330
REMARK INTRA:                  -0.093
REMARK UNBOUND:                -0.097
REMARK SMILES O=C([O-])CCC(=O)[O-]
REMARK SMILES IDX 4 1 2 2 1 3 3 4 5 5 6 6 7 7 8 8
REMARK H PARENT
REMARK Flexibility Score: inf
ROOT
ATOM      1  C   UNL     1       2.415  22.667  45.156  1.00  0.00     0.059 C 
ENDROOT
BRANCH   1   2
ATOM      2  C   UNL     1       1.751  23.994  45.355  1.00  0.00     0.042 C 
ATOM      3  O   UNL     1       0.981  24.177  46.334  1.00  0.00    -0.550 OA
ATOM      4  O   UNL     1       2.012  25.041  44.479  1.00  0.00    -0.550 OA
ENDBRANCH   1   2
BRANCH   1   5
ATOM      5  C   UNL     1       3.113  22.582  43.794  1.00  0.00     0.059 C 
BRANCH   5   6
ATOM      6  C   UNL     1       2.287  21.829  42.796  1.00  0.00     0.042 C 
ATOM      7  O   UNL     1       1.326  21.112  43.182  1.00  0.00    -0.550 OA
ATOM      8  O   UNL     1       2.551  21.951  41.438  1.00  0.00    -0.550 OA
ENDBRANCH   5   6
ENDBRANCH   1   5
TORSDOF 3
ENDMDL
MODEL 3
REMARK VINA RESULT:    -3.448     12.817     13.847
REMARK INTER + INTRA:          -4.150
REMARK INTER:                  -4.063
REMARK INTRA:                  -0.087
REMARK UNBOUND:                -0.097
REMARK SMILES O=C([O-])CCC(=O)[O-]
REMARK SMILES IDX 4 1 2 2 1 3 3 4 5 5 6 6 7 7 8 8
REMARK H PARENT
REMARK Flexibility Score: inf
ROOT
ATOM      1  C   UNL     1      11.403  25.650  52.061  1.00  0.00     0.059 C 
ENDROOT
BRANCH   1   2
ATOM      2  C   UNL     1      10.393  26.614  52.602  1.00  0.00     0.042 C 
ATOM      3  O   UNL     1      10.551  27.124  53.743  1.00  0.00    -0.550 OA
ATOM      4  O   UNL     1       9.296  26.980  51.830  1.00  0.00    -0.550 OA
ENDBRANCH   1   2
BRANCH   1   5
ATOM      5  C   UNL     1      12.710  25.693  52.860  1.00  0.00     0.059 C 
BRANCH   5   6
ATOM      6  C   UNL     1      13.803  26.377  52.096  1.00  0.00     0.042 C 
ATOM      7  O   UNL     1      13.524  27.104  51.106  1.00  0.00    -0.550 OA
ATOM      8  O   UNL     1      15.125  26.244  52.501  1.00  0.00    -0.550 OA
ENDBRANCH   5   6
ENDBRANCH   1   5
TORSDOF 3
ENDMDL
MODEL 4
REMARK VINA RESULT:    -3.287      1.409      4.382
REMARK INTER + INTRA:          -3.960
REMARK INTER:                  -3.933
REMARK INTRA:                  -0.027
REMARK UNBOUND:                -0.097
REMARK SMILES O=C([O-])CCC(=O)[O-]
REMARK SMILES IDX 4 1 2 2 1 3 3 4 5 5 6 6 7 7 8 8
REMARK H PARENT
REMARK Flexibility Score: inf
ROOT
ATOM      1  C   UNL     1       1.317  23.884  45.616  1.00  0.00     0.059 C 
ENDROOT
BRANCH   1   2
ATOM      2  C   UNL     1       1.580  24.749  46.810  1.00  0.00     0.042 C 
ATOM      3  O   UNL     1       1.130  24.423  47.940  1.00  0.00    -0.550 OA
ATOM      4  O   UNL     1       2.354  25.896  46.681  1.00  0.00    -0.550 OA
ENDBRANCH   1   2
BRANCH   1   5
ATOM      5  C   UNL     1       2.416  22.832  45.427  1.00  0.00     0.059 C 
BRANCH   5   6
ATOM      6  C   UNL     1       2.482  22.350  44.010  1.00  0.00     0.042 C 
ATOM      7  O   UNL     1       3.394  22.760  43.244  1.00  0.00    -0.550 OA
ATOM      8  O   UNL     1       1.563  21.417  43.547  1.00  0.00    -0.550 OA
ENDBRANCH   5   6
ENDBRANCH   1   5
TORSDOF 3
ENDMDL
MODEL 5
REMARK VINA RESULT:    -3.279      1.462      1.780
REMARK INTER + INTRA:          -3.952
REMARK INTER:                  -3.925
REMARK INTRA:                  -0.027
REMARK UNBOUND:                -0.097
REMARK SMILES O=C([O-])CCC(=O)[O-]
REMARK SMILES IDX 4 1 2 2 1 3 3 4 5 5 6 6 7 7 8 8
REMARK H PARENT
REMARK Flexibility Score: inf
ROOT
ATOM      1  C   UNL     1       2.409  22.810  45.489  1.00  0.00     0.059 C 
ENDROOT
BRANCH   1   2
ATOM      2  C   UNL     1       2.522  22.360  44.065  1.00  0.00     0.042 C 
ATOM      3  O   UNL     1       3.458  22.786  43.339  1.00  0.00    -0.550 OA
ATOM      4  O   UNL     1       1.615  21.441  43.552  1.00  0.00    -0.550 OA
ENDBRANCH   1   2
BRANCH   1   5
ATOM      5  C   UNL     1       1.401  23.955  45.643  1.00  0.00     0.059 C 
BRANCH   5   6
ATOM      6  C   UNL     1       1.654  24.750  46.887  1.00  0.00     0.042 C 
ATOM      7  O   UNL     1       1.366  24.269  48.015  1.00  0.00    -0.550 OA
ATOM      8  O   UNL     1       2.244  26.005  46.805  1.00  0.00    -0.550 OA
ENDBRANCH   5   6
ENDBRANCH   1   5
TORSDOF 3
ENDMDL
MODEL 6
REMARK VINA RESULT:    -3.198      1.000      3.707
REMARK INTER + INTRA:          -3.856
REMARK INTER:                  -3.764
REMARK INTRA:                  -0.092
REMARK UNBOUND:                -0.097
REMARK SMILES O=C([O-])CCC(=O)[O-]
REMARK SMILES IDX 4 1 2 2 1 3 3 4 5 5 6 6 7 7 8 8
REMARK H PARENT
REMARK Flexibility Score: inf
ROOT
ATOM      1  C   UNL     1       3.506  23.978  43.666  1.00  0.00     0.059 C 
ENDROOT
BRANCH   1   2
ATOM      2  C   UNL     1       2.549  24.998  44.202  1.00  0.00     0.042 C 
ATOM      3  O   UNL     1       2.624  26.197  43.824  1.00  0.00    -0.550 OA
ATOM      4  O   UNL     1       1.551  24.617  45.091  1.00  0.00    -0.550 OA
ENDBRANCH   1   2
BRANCH   1   5
ATOM      5  C   UNL     1       3.083  22.554  44.044  1.00  0.00     0.059 C 
BRANCH   5   6
ATOM      6  C   UNL     1       2.302  21.900  42.945  1.00  0.00     0.042 C 
ATOM      7  O   UNL     1       2.574  22.148  41.741  1.00  0.00    -0.550 OA
ATOM      8  O   UNL     1       1.303  20.984  43.250  1.00  0.00    -0.550 OA
ENDBRANCH   5   6
ENDBRANCH   1   5
TORSDOF 3
ENDMDL
MODEL 7
REMARK VINA RESULT:    -3.182      1.014      1.263
REMARK INTER + INTRA:          -3.837
REMARK INTER:                  -3.750
REMARK INTRA:                  -0.087
REMARK UNBOUND:                -0.097
REMARK SMILES O=C([O-])CCC(=O)[O-]
REMARK SMILES IDX 4 1 2 2 1 3 3 4 5 5 6 6 7 7 8 8
REMARK H PARENT
REMARK Flexibility Score: inf
ROOT
ATOM      1  C   UNL     1       3.071  22.584  44.071  1.00  0.00     0.059 C 
ENDROOT
BRANCH   1   2
ATOM      2  C   UNL     1       2.310  21.921  42.964  1.00  0.00     0.042 C 
ATOM      3  O   UNL     1       2.582  22.185  41.763  1.00  0.00    -0.550 OA
ATOM      4  O   UNL     1       1.328  20.984  43.259  1.00  0.00    -0.550 OA
ENDBRANCH   1   2
BRANCH   1   5
ATOM      5  C   UNL     1       3.481  24.013  43.699  1.00  0.00     0.059 C 
BRANCH   5   6
ATOM      6  C   UNL     1       2.517  25.024  44.241  1.00  0.00     0.042 C 
ATOM      7  O   UNL     1       1.607  24.667  45.036  1.00  0.00    -0.550 OA
ATOM      8  O   UNL     1       2.649  26.365  43.903  1.00  0.00    -0.550 OA
ENDBRANCH   5   6
ENDBRANCH   1   5
TORSDOF 3
ENDMDL
MODEL 8
REMARK VINA RESULT:    -3.021      7.502      8.628
REMARK INTER + INTRA:          -3.648
REMARK INTER:                  -3.617
REMARK INTRA:                  -0.031
REMARK UNBOUND:                -0.097
REMARK SMILES O=C([O-])CCC(=O)[O-]
REMARK SMILES IDX 4 1 2 2 1 3 3 4 5 5 6 6 7 7 8 8
REMARK H PARENT
REMARK Flexibility Score: inf
ROOT
ATOM      1  C   UNL     1       5.142  22.960  50.934  1.00  0.00     0.059 C 
ENDROOT
BRANCH   1   2
ATOM      2  C   UNL     1       6.204  23.958  51.279  1.00  0.00     0.042 C 
ATOM      3  O   UNL     1       6.862  23.839  52.345  1.00  0.00    -0.550 OA
ATOM      4  O   UNL     1       6.492  24.998  50.403  1.00  0.00    -0.550 OA
ENDBRANCH   1   2
BRANCH   1   5
ATOM      5  C   UNL     1       4.345  22.532  52.171  1.00  0.00     0.059 C 
BRANCH   5   6
ATOM      6  C   UNL     1       3.304  21.508  51.832  1.00  0.00     0.042 C 
ATOM      7  O   UNL     1       2.342  21.811  51.079  1.00  0.00    -0.550 OA
ATOM      8  O   UNL     1       3.420  20.210  52.312  1.00  0.00    -0.550 OA
ENDBRANCH   5   6
ENDBRANCH   1   5
TORSDOF 3
ENDMDL
MODEL 9
REMARK VINA RESULT:    -2.979      7.351      8.101
REMARK INTER + INTRA:          -3.598
REMARK INTER:                  -3.485
REMARK INTRA:                  -0.113
REMARK UNBOUND:                -0.097
REMARK SMILES O=C([O-])CCC(=O)[O-]
REMARK SMILES IDX 4 1 2 2 1 3 3 4 5 5 6 6 7 7 8 8
REMARK H PARENT
REMARK Flexibility Score: inf
ROOT
ATOM      1  C   UNL     1       3.417  23.078  50.736  1.00  0.00     0.059 C 
ENDROOT
BRANCH   1   2
ATOM      2  C   UNL     1       4.774  22.986  51.361  1.00  0.00     0.042 C 
ATOM      3  O   UNL     1       5.807  23.057  50.646  1.00  0.00    -0.550 OA
ATOM      4  O   UNL     1       4.898  22.860  52.740  1.00  0.00    -0.550 OA
ENDBRANCH   1   2
BRANCH   1   5
ATOM      5  C   UNL     1       2.550  21.862  51.084  1.00  0.00     0.059 C 
BRANCH   5   6
ATOM      6  C   UNL     1       1.479  22.212  52.072  1.00  0.00     0.042 C 
ATOM      7  O   UNL     1       1.703  22.114  53.308  1.00  0.00    -0.550 OA
ATOM      8  O   UNL     1       0.250  22.685  51.630  1.00  0.00    -0.550 OA
ENDBRANCH   5   6
ENDBRANCH   1   5
TORSDOF 3
ENDMDL
