MODEL 1
REMARK VINA RESULT:    -3.534      0.000      0.000
REMARK INTER + INTRA:          -8.617
REMARK INTER:                  -6.426
REMARK INTRA:                  -2.191
REMARK UNBOUND:                -2.191
REMARK SMILES CCCCCCCCCCCCCCCC(=O)[O-]
REMARK SMILES IDX 9 1 10 2 11 3 12 4 13 5 14 6 15 7 16 8 17 9 18 10 8 11 7 12
REMARK SMILES IDX 6 13 5 14 4 15 3 16 2 17 1 18
REMARK H PARENT
REMARK Flexibility Score: inf
ROOT
ATOM      1  C   UNL     1      -7.043  -5.786   0.590  1.00  0.00     0.000 C 
ENDROOT
BRANCH   1   2
ATOM      2  C   UNL     1      -8.490  -5.666   1.090  1.00  0.00     0.000 C 
BRANCH   2   3
ATOM      3  C   UNL     1      -8.612  -5.831   2.616  1.00  0.00     0.000 C 
BRANCH   3   4
ATOM      4  C   UNL     1      -7.642  -4.967   3.447  1.00  0.00     0.000 C 
BRANCH   4   5
ATOM      5  C   UNL     1      -8.266  -3.712   4.080  1.00  0.00     0.000 C 
BRANCH   5   6
ATOM      6  C   UNL     1      -7.706  -2.405   3.493  1.00  0.00     0.006 C 
BRANCH   6   7
ATOM      7  C   UNL     1      -6.483  -2.650   2.601  1.00  0.00     0.053 C 
BRANCH   7   8
ATOM      8  C   UNL     1      -6.727  -2.207   1.190  1.00  0.00     0.041 C 
ATOM      9  O   UNL     1      -5.756  -1.971   0.424  1.00  0.00    -0.550 OA
ATOM     10  O   UNL     1      -8.026  -2.092   0.711  1.00  0.00    -0.550 OA
ENDBRANCH   7   8
ENDBRANCH   6   7
ENDBRANCH   5   6
ENDBRANCH   4   5
ENDBRANCH   3   4
ENDBRANCH   2   3
ENDBRANCH   1   2
BRANCH   1  11
ATOM     11  C   UNL     1      -6.991  -6.487  -0.776  1.00  0.00     0.000 C 
BRANCH  11  12
ATOM     12  C   UNL     1      -7.889  -7.733  -0.839  1.00  0.00    -0.000 C 
BRANCH  12  13
ATOM     13  C   UNL     1      -7.254  -8.954  -0.153  1.00  0.00    -0.000 C 
BRANCH  13  14
ATOM     14  C   UNL     1      -8.100  -9.477   1.020  1.00  0.00    -0.000 C 
BRANCH  14  15
ATOM     15  C   UNL     1      -7.360  -9.393   2.365  1.00  0.00    -0.000 C 
BRANCH  15  16
ATOM     16  C   UNL     1      -5.954  -8.779   2.237  1.00  0.00    -0.000 C 
BRANCH  16  17
ATOM     17  C   UNL     1      -5.126  -8.775   3.535  1.00  0.00    -0.003 C 
ATOM     18  C   UNL     1      -5.336  -7.515   4.376  1.00  0.00     0.004 C 
ENDBRANCH  16  17
ENDBRANCH  15  16
ENDBRANCH  14  15
ENDBRANCH  13  14
ENDBRANCH  12  13
ENDBRANCH  11  12
ENDBRANCH   1  11
TORSDOF 14
ENDMDL
MODEL 2
REMARK VINA RESULT:    -3.442     10.952     13.644
REMARK INTER + INTRA:          -8.450
REMARK INTER:                  -7.130
REMARK INTRA:                  -1.320
REMARK UNBOUND:                -2.191
REMARK SMILES CCCCCCCCCCCCCCCC(=O)[O-]
REMARK SMILES IDX 9 1 10 2 11 3 12 4 13 5 14 6 15 7 16 8 17 9 18 10 8 11 7 12
REMARK SMILES IDX 6 13 5 14 4 15 3 16 2 17 1 18
REMARK H PARENT
REMARK Flexibility Score: inf
ROOT
ATOM      1  C   UNL     1       0.591  -5.165  -7.882  1.00  0.00     0.000 C 
ENDROOT
BRANCH   1   2
ATOM      2  C   UNL     1       0.548  -5.420  -9.396  1.00  0.00     0.000 C 
BRANCH   2   3
ATOM      3  C   UNL     1       0.255  -6.890  -9.748  1.00  0.00     0.000 C 
BRANCH   3   4
ATOM      4  C   UNL     1      -0.981  -7.496  -9.054  1.00  0.00     0.000 C 
BRANCH   4   5
ATOM      5  C   UNL     1      -2.204  -7.704  -9.964  1.00  0.00     0.000 C 
BRANCH   5   6
ATOM      6  C   UNL     1      -3.397  -6.816  -9.575  1.00  0.00     0.006 C 
BRANCH   6   7
ATOM      7  C   UNL     1      -4.679  -7.630  -9.361  1.00  0.00     0.053 C 
BRANCH   7   8
ATOM      8  C   UNL     1      -4.996  -7.795  -7.906  1.00  0.00     0.041 C 
ATOM      9  O   UNL     1      -4.363  -8.634  -7.211  1.00  0.00    -0.550 OA
ATOM     10  O   UNL     1      -5.962  -6.996  -7.308  1.00  0.00    -0.550 OA
ENDBRANCH   7   8
ENDBRANCH   6   7
ENDBRANCH   5   6
ENDBRANCH   4   5
ENDBRANCH   3   4
ENDBRANCH   2   3
ENDBRANCH   1   2
BRANCH   1  11
ATOM     11  C   UNL     1       2.021  -4.847  -7.421  1.00  0.00     0.000 C 
BRANCH  11  12
ATOM     12  C   UNL     1       2.090  -4.437  -5.941  1.00  0.00    -0.000 C 
BRANCH  12  13
ATOM     13  C   UNL     1       1.264  -3.175  -5.637  1.00  0.00    -0.000 C 
BRANCH  13  14
ATOM     14  C   UNL     1       1.797  -1.932  -6.369  1.00  0.00    -0.000 C 
BRANCH  14  15
ATOM     15  C   UNL     1       0.695  -1.179  -7.132  1.00  0.00    -0.000 C 
BRANCH  15  16
ATOM     16  C   UNL     1       0.989  -1.054  -8.639  1.00  0.00    -0.000 C 
BRANCH  16  17
ATOM     17  C   UNL     1       2.315  -1.690  -9.095  1.00  0.00    -0.003 C 
ATOM     18  C   UNL     1       3.240  -0.700  -9.804  1.00  0.00     0.004 C 
ENDBRANCH  16  17
ENDBRANCH  15  16
ENDBRANCH  14  15
ENDBRANCH  13  14
ENDBRANCH  12  13
ENDBRANCH  11  12
ENDBRANCH   1  11
TORSDOF 14
ENDMDL
MODEL 3
REMARK VINA RESULT:    -3.430      1.815      5.669
REMARK INTER + INTRA:          -8.428
REMARK INTER:                  -6.523
REMARK INTRA:                  -1.905
REMARK UNBOUND:                -2.191
REMARK SMILES CCCCCCCCCCCCCCCC(=O)[O-]
REMARK SMILES IDX 9 1 10 2 11 3 12 4 13 5 14 6 15 7 16 8 17 9 18 10 8 11 7 12
REMARK SMILES IDX 6 13 5 14 4 15 3 16 2 17 1 18
REMARK H PARENT
REMARK Flexibility Score: inf
ROOT
ATOM      1  C   UNL     1      -5.609  -7.086   4.809  1.00  0.00     0.000 C 
ENDROOT
BRANCH   1   2
ATOM      2  C   UNL     1      -5.666  -8.596   4.535  1.00  0.00     0.000 C 
BRANCH   2   3
ATOM      3  C   UNL     1      -4.931  -8.999   3.243  1.00  0.00     0.000 C 
BRANCH   3   4
ATOM      4  C   UNL     1      -5.715  -8.748   1.939  1.00  0.00     0.000 C 
BRANCH   4   5
ATOM      5  C   UNL     1      -7.202  -9.137   1.987  1.00  0.00     0.000 C 
BRANCH   5   6
ATOM      6  C   UNL     1      -8.037  -8.438   0.901  1.00  0.00     0.006 C 
BRANCH   6   7
ATOM      7  C   UNL     1      -7.213  -8.136  -0.357  1.00  0.00     0.053 C 
BRANCH   7   8
ATOM      8  C   UNL     1      -7.525  -6.779  -0.912  1.00  0.00     0.041 C 
ATOM      9  O   UNL     1      -8.581  -6.593  -1.571  1.00  0.00    -0.550 OA
ATOM     10  O   UNL     1      -6.669  -5.713  -0.669  1.00  0.00    -0.550 OA
ENDBRANCH   7   8
ENDBRANCH   6   7
ENDBRANCH   5   6
ENDBRANCH   4   5
ENDBRANCH   3   4
ENDBRANCH   2   3
ENDBRANCH   1   2
BRANCH   1  11
ATOM     11  C   UNL     1      -6.973  -6.563   5.283  1.00  0.00     0.000 C 
BRANCH  11  12
ATOM     12  C   UNL     1      -7.941  -6.287   4.121  1.00  0.00    -0.000 C 
BRANCH  12  13
ATOM     13  C   UNL     1      -7.286  -5.484   2.984  1.00  0.00    -0.000 C 
BRANCH  13  14
ATOM     14  C   UNL     1      -8.252  -4.473   2.343  1.00  0.00    -0.000 C 
BRANCH  14  15
ATOM     15  C   UNL     1      -8.065  -3.049   2.892  1.00  0.00    -0.000 C 
BRANCH  15  16
ATOM     16  C   UNL     1      -6.584  -2.655   3.040  1.00  0.00    -0.000 C 
BRANCH  16  17
ATOM     17  C   UNL     1      -6.108  -1.550   2.079  1.00  0.00    -0.003 C 
ATOM     18  C   UNL     1      -5.806  -2.068   0.673  1.00  0.00     0.004 C 
ENDBRANCH  16  17
ENDBRANCH  15  16
ENDBRANCH  14  15
ENDBRANCH  13  14
ENDBRANCH  12  13
ENDBRANCH  11  12
ENDBRANCH   1  11
TORSDOF 14
ENDMDL
MODEL 4
REMARK VINA RESULT:    -3.417     11.288     13.730
REMARK INTER + INTRA:          -8.404
REMARK INTER:                  -7.090
REMARK INTRA:                  -1.314
REMARK UNBOUND:                -2.191
REMARK SMILES CCCCCCCCCCCCCCCC(=O)[O-]
REMARK SMILES IDX 9 1 10 2 11 3 12 4 13 5 14 6 15 7 16 8 17 9 18 10 8 11 7 12
REMARK SMILES IDX 6 13 5 14 4 15 3 16 2 17 1 18
REMARK H PARENT
REMARK Flexibility Score: inf
ROOT
ATOM      1  C   UNL     1       0.041  -0.960  -7.541  1.00  0.00     0.000 C 
ENDROOT
BRANCH   1   2
ATOM      2  C   UNL     1       1.111  -0.785  -6.453  1.00  0.00     0.000 C 
BRANCH   2   3
ATOM      3  C   UNL     1       2.012  -2.023  -6.294  1.00  0.00     0.000 C 
BRANCH   3   4
ATOM      4  C   UNL     1       1.335  -3.246  -5.642  1.00  0.00     0.000 C 
BRANCH   4   5
ATOM      5  C   UNL     1       1.530  -4.575  -6.391  1.00  0.00     0.000 C 
BRANCH   5   6
ATOM      6  C   UNL     1       0.738  -4.641  -7.707  1.00  0.00     0.006 C 
BRANCH   6   7
ATOM      7  C   UNL     1       1.639  -4.461  -8.935  1.00  0.00     0.053 C 
BRANCH   7   8
ATOM      8  C   UNL     1       2.499  -5.665  -9.174  1.00  0.00     0.041 C 
ATOM      9  O   UNL     1       3.707  -5.660  -8.820  1.00  0.00    -0.550 OA
ATOM     10  O   UNL     1       1.956  -6.805  -9.752  1.00  0.00    -0.550 OA
ENDBRANCH   7   8
ENDBRANCH   6   7
ENDBRANCH   5   6
ENDBRANCH   4   5
ENDBRANCH   3   4
ENDBRANCH   2   3
ENDBRANCH   1   2
BRANCH   1  11
ATOM     11  C   UNL     1       0.670  -0.909  -8.941  1.00  0.00     0.000 C 
BRANCH  11  12
ATOM     12  C   UNL     1      -0.371  -1.037 -10.065  1.00  0.00    -0.000 C 
BRANCH  12  13
ATOM     13  C   UNL     1      -1.667  -1.719  -9.596  1.00  0.00    -0.000 C 
BRANCH  13  14
ATOM     14  C   UNL     1      -2.928  -1.014 -10.124  1.00  0.00    -0.000 C 
BRANCH  14  15
ATOM     15  C   UNL     1      -4.048  -0.942  -9.073  1.00  0.00    -0.000 C 
BRANCH  15  16
ATOM     16  C   UNL     1      -5.127  -2.022  -9.272  1.00  0.00    -0.000 C 
BRANCH  16  17
ATOM     17  C   UNL     1      -6.067  -2.229  -8.071  1.00  0.00    -0.003 C 
ATOM     18  C   UNL     1      -6.408  -3.699  -7.824  1.00  0.00     0.004 C 
ENDBRANCH  16  17
ENDBRANCH  15  16
ENDBRANCH  14  15
ENDBRANCH  13  14
ENDBRANCH  12  13
ENDBRANCH  11  12
ENDBRANCH   1  11
TORSDOF 14
ENDMDL
MODEL 5
REMARK VINA RESULT:    -3.385      1.172      3.716
REMARK INTER + INTRA:          -8.346
REMARK INTER:                  -6.399
REMARK INTRA:                  -1.947
REMARK UNBOUND:                -2.191
REMARK SMILES CCCCCCCCCCCCCCCC(=O)[O-]
REMARK SMILES IDX 9 1 10 2 11 3 12 4 13 5 14 6 15 7 16 8 17 9 18 10 8 11 7 12
REMARK SMILES IDX 6 13 5 14 4 15 3 16 2 17 1 18
REMARK H PARENT
REMARK Flexibility Score: inf
ROOT
ATOM      1  C   UNL     1      -6.252  -7.251   5.728  1.00  0.00     0.000 C 
ENDROOT
BRANCH   1   2
ATOM      2  C   UNL     1      -5.439  -6.160   5.016  1.00  0.00     0.000 C 
BRANCH   2   3
ATOM      3  C   UNL     1      -6.159  -4.799   4.985  1.00  0.00     0.000 C 
BRANCH   3   4
ATOM      4  C   UNL     1      -7.352  -4.712   4.012  1.00  0.00     0.000 C 
BRANCH   4   5
ATOM      5  C   UNL     1      -7.167  -5.467   2.684  1.00  0.00     0.000 C 
BRANCH   5   6
ATOM      6  C   UNL     1      -7.272  -4.547   1.456  1.00  0.00     0.006 C 
BRANCH   6   7
ATOM      7  C   UNL     1      -7.537  -3.088   1.846  1.00  0.00     0.053 C 
BRANCH   7   8
ATOM      8  C   UNL     1      -6.375  -2.203   1.511  1.00  0.00     0.041 C 
ATOM      9  O   UNL     1      -6.040  -1.275   2.292  1.00  0.00    -0.550 OA
ATOM     10  O   UNL     1      -5.639  -2.428   0.355  1.00  0.00    -0.550 OA
ENDBRANCH   7   8
ENDBRANCH   6   7
ENDBRANCH   5   6
ENDBRANCH   4   5
ENDBRANCH   3   4
ENDBRANCH   2   3
ENDBRANCH   1   2
BRANCH   1  11
ATOM     11  C   UNL     1      -6.118  -8.597   5.000  1.00  0.00     0.000 C 
BRANCH  11  12
ATOM     12  C   UNL     1      -5.088  -8.556   3.860  1.00  0.00    -0.000 C 
BRANCH  12  13
ATOM     13  C   UNL     1      -5.707  -8.891   2.492  1.00  0.00    -0.000 C 
BRANCH  13  14
ATOM     14  C   UNL     1      -7.199  -9.251   2.593  1.00  0.00    -0.000 C 
BRANCH  14  15
ATOM     15  C   UNL     1      -7.989  -8.850   1.336  1.00  0.00    -0.000 C 
BRANCH  15  16
ATOM     16  C   UNL     1      -7.108  -8.770   0.076  1.00  0.00    -0.000 C 
BRANCH  16  17
ATOM     17  C   UNL     1      -7.145  -7.416  -0.656  1.00  0.00    -0.003 C 
ATOM     18  C   UNL     1      -8.546  -7.030  -1.132  1.00  0.00     0.004 C 
ENDBRANCH  16  17
ENDBRANCH  15  16
ENDBRANCH  14  15
ENDBRANCH  13  14
ENDBRANCH  12  13
ENDBRANCH  11  12
ENDBRANCH   1  11
TORSDOF 14
ENDMDL
MODEL 6
REMARK VINA RESULT:    -3.373      1.103      3.146
REMARK INTER + INTRA:          -8.324
REMARK INTER:                  -6.348
REMARK INTRA:                  -1.977
REMARK UNBOUND:                -2.191
REMARK SMILES CCCCCCCCCCCCCCCC(=O)[O-]
REMARK SMILES IDX 9 1 10 2 11 3 12 4 13 5 14 6 15 7 16 8 17 9 18 10 8 11 7 12
REMARK SMILES IDX 6 13 5 14 4 15 3 16 2 17 1 18
REMARK H PARENT
REMARK Flexibility Score: inf
ROOT
ATOM      1  C   UNL     1      -5.166  -8.421   3.786  1.00  0.00     0.000 C 
ENDROOT
BRANCH   1   2
ATOM      2  C   UNL     1      -6.071  -7.315   4.351  1.00  0.00     0.000 C 
BRANCH   2   3
ATOM      3  C   UNL     1      -5.277  -6.123   4.916  1.00  0.00     0.000 C 
BRANCH   3   4
ATOM      4  C   UNL     1      -6.136  -4.988   5.510  1.00  0.00     0.000 C 
BRANCH   4   5
ATOM      5  C   UNL     1      -6.008  -3.632   4.795  1.00  0.00     0.000 C 
BRANCH   5   6
ATOM      6  C   UNL     1      -7.209  -3.319   3.888  1.00  0.00     0.006 C 
BRANCH   6   7
ATOM      7  C   UNL     1      -7.107  -1.926   3.252  1.00  0.00     0.053 C 
BRANCH   7   8
ATOM      8  C   UNL     1      -6.445  -1.977   1.909  1.00  0.00     0.041 C 
ATOM      9  O   UNL     1      -5.204  -1.785   1.808  1.00  0.00    -0.550 OA
ATOM     10  O   UNL     1      -7.190  -2.273   0.775  1.00  0.00    -0.550 OA
ENDBRANCH   7   8
ENDBRANCH   6   7
ENDBRANCH   5   6
ENDBRANCH   4   5
ENDBRANCH   3   4
ENDBRANCH   2   3
ENDBRANCH   1   2
BRANCH   1  11
ATOM     11  C   UNL     1      -5.712  -8.945   2.449  1.00  0.00     0.000 C 
BRANCH  11  12
ATOM     12  C   UNL     1      -7.215  -9.263   2.504  1.00  0.00    -0.000 C 
BRANCH  12  13
ATOM     13  C   UNL     1      -7.828  -9.465   1.108  1.00  0.00    -0.000 C 
BRANCH  13  14
ATOM     14  C   UNL     1      -6.983  -8.823  -0.005  1.00  0.00    -0.000 C 
BRANCH  14  15
ATOM     15  C   UNL     1      -7.668  -7.598  -0.635  1.00  0.00    -0.000 C 
BRANCH  15  16
ATOM     16  C   UNL     1      -6.932  -6.280  -0.333  1.00  0.00    -0.000 C 
BRANCH  16  17
ATOM     17  C   UNL     1      -7.111  -5.751   1.102  1.00  0.00    -0.003 C 
ATOM     18  C   UNL     1      -8.566  -5.772   1.571  1.00  0.00     0.004 C 
ENDBRANCH  16  17
ENDBRANCH  15  16
ENDBRANCH  14  15
ENDBRANCH  13  14
ENDBRANCH  12  13
ENDBRANCH  11  12
ENDBRANCH   1  11
TORSDOF 14
ENDMDL
MODEL 7
REMARK VINA RESULT:    -3.368     10.573     12.780
REMARK INTER + INTRA:          -8.316
REMARK INTER:                  -6.996
REMARK INTRA:                  -1.320
REMARK UNBOUND:                -2.191
REMARK SMILES CCCCCCCCCCCCCCCC(=O)[O-]
REMARK SMILES IDX 9 1 10 2 11 3 12 4 13 5 14 6 15 7 16 8 17 9 18 10 8 11 7 12
REMARK SMILES IDX 6 13 5 14 4 15 3 16 2 17 1 18
REMARK H PARENT
REMARK Flexibility Score: inf
ROOT
ATOM      1  C   UNL     1       0.074  -0.644  -9.517  1.00  0.00     0.000 C 
ENDROOT
BRANCH   1   2
ATOM      2  C   UNL     1      -1.164  -1.513  -9.248  1.00  0.00     0.000 C 
BRANCH   2   3
ATOM      3  C   UNL     1      -2.437  -0.963  -9.916  1.00  0.00     0.000 C 
BRANCH   3   4
ATOM      4  C   UNL     1      -3.698  -1.833  -9.735  1.00  0.00     0.000 C 
BRANCH   4   5
ATOM      5  C   UNL     1      -4.851  -1.158  -8.972  1.00  0.00     0.000 C 
BRANCH   5   6
ATOM      6  C   UNL     1      -6.029  -2.110  -8.706  1.00  0.00     0.006 C 
BRANCH   6   7
ATOM      7  C   UNL     1      -5.659  -3.576  -8.969  1.00  0.00     0.053 C 
BRANCH   7   8
ATOM      8  C   UNL     1      -6.384  -4.505  -8.044  1.00  0.00     0.041 C 
ATOM      9  O   UNL     1      -6.622  -5.690  -8.396  1.00  0.00    -0.550 OA
ATOM     10  O   UNL     1      -6.763  -4.074  -6.778  1.00  0.00    -0.550 OA
ENDBRANCH   7   8
ENDBRANCH   6   7
ENDBRANCH   5   6
ENDBRANCH   4   5
ENDBRANCH   3   4
ENDBRANCH   2   3
ENDBRANCH   1   2
BRANCH   1  11
ATOM     11  C   UNL     1       1.205  -0.983  -8.534  1.00  0.00     0.000 C 
BRANCH  11  12
ATOM     12  C   UNL     1       0.719  -1.081  -7.079  1.00  0.00    -0.000 C 
BRANCH  12  13
ATOM     13  C   UNL     1       1.841  -1.485  -6.107  1.00  0.00    -0.000 C 
BRANCH  13  14
ATOM     14  C   UNL     1       2.530  -2.798  -6.517  1.00  0.00    -0.000 C 
BRANCH  14  15
ATOM     15  C   UNL     1       1.858  -4.035  -5.898  1.00  0.00    -0.000 C 
BRANCH  15  16
ATOM     16  C   UNL     1       0.783  -4.651  -6.811  1.00  0.00    -0.000 C 
BRANCH  16  17
ATOM     17  C   UNL     1       1.186  -4.784  -8.291  1.00  0.00    -0.003 C 
ATOM     18  C   UNL     1      -0.007  -5.013  -9.219  1.00  0.00     0.004 C 
ENDBRANCH  16  17
ENDBRANCH  15  16
ENDBRANCH  14  15
ENDBRANCH  13  14
ENDBRANCH  12  13
ENDBRANCH  11  12
ENDBRANCH   1  11
TORSDOF 14
ENDMDL
MODEL 8
REMARK VINA RESULT:    -3.336     17.728     19.886
REMARK INTER + INTRA:          -8.256
REMARK INTER:                  -7.109
REMARK INTRA:                  -1.147
REMARK UNBOUND:                -2.191
REMARK SMILES CCCCCCCCCCCCCCCC(=O)[O-]
REMARK SMILES IDX 9 1 10 2 11 3 12 4 13 5 14 6 15 7 16 8 17 9 18 10 8 11 7 12
REMARK SMILES IDX 6 13 5 14 4 15 3 16 2 17 1 18
REMARK H PARENT
REMARK Flexibility Score: inf
ROOT
ATOM      1  C   UNL     1       8.037   3.739   5.163  1.00  0.00     0.000 C 
ENDROOT
BRANCH   1   2
ATOM      2  C   UNL     1       8.997   3.475   3.993  1.00  0.00     0.000 C 
BRANCH   2   3
ATOM      3  C   UNL     1       9.913   4.674   3.687  1.00  0.00     0.000 C 
BRANCH   3   4
ATOM      4  C   UNL     1       9.651   5.932   4.540  1.00  0.00     0.000 C 
BRANCH   4   5
ATOM      5  C   UNL     1       9.664   7.260   3.764  1.00  0.00     0.000 C 
BRANCH   5   6
ATOM      6  C   UNL     1       8.950   8.397   4.514  1.00  0.00     0.006 C 
BRANCH   6   7
ATOM      7  C   UNL     1       9.246   9.771   3.899  1.00  0.00     0.053 C 
BRANCH   7   8
ATOM      8  C   UNL     1       8.736   9.872   2.494  1.00  0.00     0.041 C 
ATOM      9  O   UNL     1       7.500   9.958   2.274  1.00  0.00    -0.550 OA
ATOM     10  O   UNL     1       9.628   9.909   1.430  1.00  0.00    -0.550 OA
ENDBRANCH   7   8
ENDBRANCH   6   7
ENDBRANCH   5   6
ENDBRANCH   4   5
ENDBRANCH   3   4
ENDBRANCH   2   3
ENDBRANCH   1   2
BRANCH   1  11
ATOM     11  C   UNL     1       8.135   2.624   6.214  1.00  0.00     0.000 C 
BRANCH  11  12
ATOM     12  C   UNL     1       9.586   2.220   6.520  1.00  0.00    -0.000 C 
BRANCH  12  13
ATOM     13  C   UNL     1      10.103   2.825   7.837  1.00  0.00    -0.000 C 
BRANCH  13  14
ATOM     14  C   UNL     1       9.388   2.250   9.071  1.00  0.00    -0.000 C 
BRANCH  14  15
ATOM     15  C   UNL     1       9.589   0.732   9.215  1.00  0.00    -0.000 C 
BRANCH  15  16
ATOM     16  C   UNL     1       8.266  -0.031   9.412  1.00  0.00    -0.000 C 
BRANCH  16  17
ATOM     17  C   UNL     1       7.005   0.730   8.960  1.00  0.00    -0.003 C 
ATOM     18  C   UNL     1       6.082   1.101  10.121  1.00  0.00     0.004 C 
ENDBRANCH  16  17
ENDBRANCH  15  16
ENDBRANCH  14  15
ENDBRANCH  13  14
ENDBRANCH  12  13
ENDBRANCH  11  12
ENDBRANCH   1  11
TORSDOF 14
ENDMDL
MODEL 9
REMARK VINA RESULT:    -3.304     10.166     12.521
REMARK INTER + INTRA:          -8.200
REMARK INTER:                  -7.098
REMARK INTRA:                  -1.102
REMARK UNBOUND:                -2.191
REMARK SMILES CCCCCCCCCCCCCCCC(=O)[O-]
REMARK SMILES IDX 9 1 10 2 11 3 12 4 13 5 14 6 15 7 16 8 17 9 18 10 8 11 7 12
REMARK SMILES IDX 6 13 5 14 4 15 3 16 2 17 1 18
REMARK H PARENT
REMARK Flexibility Score: inf
ROOT
ATOM      1  C   UNL     1      -0.761  -6.327  -8.590  1.00  0.00     0.000 C 
ENDROOT
BRANCH   1   2
ATOM      2  C   UNL     1      -1.255  -7.582  -9.325  1.00  0.00     0.000 C 
BRANCH   2   3
ATOM      3  C   UNL     1      -2.784  -7.609  -9.503  1.00  0.00     0.000 C 
BRANCH   3   4
ATOM      4  C   UNL     1      -3.581  -8.049  -8.258  1.00  0.00     0.000 C 
BRANCH   4   5
ATOM      5  C   UNL     1      -4.970  -7.404  -8.112  1.00  0.00     0.000 C 
BRANCH   5   6
ATOM      6  C   UNL     1      -5.365  -6.556  -9.332  1.00  0.00     0.006 C 
BRANCH   6   7
ATOM      7  C   UNL     1      -5.583  -5.082  -8.967  1.00  0.00     0.053 C 
BRANCH   7   8
ATOM      8  C   UNL     1      -6.793  -4.898  -8.102  1.00  0.00     0.041 C 
ATOM      9  O   UNL     1      -6.667  -4.507  -6.912  1.00  0.00    -0.550 OA
ATOM     10  O   UNL     1      -8.062  -5.122  -8.621  1.00  0.00    -0.550 OA
ENDBRANCH   7   8
ENDBRANCH   6   7
ENDBRANCH   5   6
ENDBRANCH   4   5
ENDBRANCH   3   4
ENDBRANCH   2   3
ENDBRANCH   1   2
BRANCH   1  11
ATOM     11  C   UNL     1       0.472  -5.734  -9.286  1.00  0.00     0.000 C 
BRANCH  11  12
ATOM     12  C   UNL     1       1.339  -4.887  -8.341  1.00  0.00    -0.000 C 
BRANCH  12  13
ATOM     13  C   UNL     1       0.778  -4.837  -6.910  1.00  0.00    -0.000 C 
BRANCH  13  14
ATOM     14  C   UNL     1       1.747  -4.168  -5.920  1.00  0.00    -0.000 C 
BRANCH  14  15
ATOM     15  C   UNL     1       2.498  -2.979  -6.542  1.00  0.00    -0.000 C 
BRANCH  15  16
ATOM     16  C   UNL     1       1.902  -1.618  -6.138  1.00  0.00    -0.000 C 
BRANCH  16  17
ATOM     17  C   UNL     1       0.776  -1.105  -7.054  1.00  0.00    -0.003 C 
ATOM     18  C   UNL     1       1.144  -1.152  -8.538  1.00  0.00     0.004 C 
ENDBRANCH  16  17
ENDBRANCH  15  16
ENDBRANCH  14  15
ENDBRANCH  13  14
ENDBRANCH  12  13
ENDBRANCH  11  12
ENDBRANCH   1  11
TORSDOF 14
ENDMDL
