MODEL 1
REMARK VINA RESULT:    -5.038      0.000      0.000
REMARK INTER + INTRA:          -5.038
REMARK INTER:                  -5.038
REMARK INTRA:                   0.000
REMARK UNBOUND:                 0.000
REMARK SMILES O=c1ccc2ccccc2o1
REMARK SMILES IDX 7 1 8 2 9 3 10 4 5 5 6 6 4 7 3 8 2 9 1 10 11 11
REMARK H PARENT
REMARK Flexibility Score: inf
ROOT
ATOM      1  C   UNL     1     -13.873 -24.882 -19.053  1.00  0.00     0.001 A 
ATOM      2  C   UNL     1     -12.750 -25.470 -19.645  1.00  0.00     0.004 A 
ATOM      3  C   UNL     1     -12.793 -26.803 -20.067  1.00  0.00     0.048 A 
ATOM      4  C   UNL     1     -13.961 -27.554 -19.899  1.00  0.00     0.138 A 
ATOM      5  C   UNL     1     -15.096 -26.961 -19.301  1.00  0.00     0.018 A 
ATOM      6  C   UNL     1     -15.046 -25.624 -18.879  1.00  0.00     0.012 A 
ATOM      7  C   UNL     1     -16.249 -27.736 -19.146  1.00  0.00     0.019 A 
ATOM      8  C   UNL     1     -16.247 -29.061 -19.582  1.00  0.00     0.094 A 
ATOM      9  C   UNL     1     -15.086 -29.581 -20.165  1.00  0.00     0.336 A 
ATOM     10  O   UNL     1     -15.065 -30.775 -20.564  1.00  0.00    -0.246 OA
ATOM     11  O   UNL     1     -14.002 -28.822 -20.300  1.00  0.00    -0.423 OA
ENDROOT
TORSDOF 0
ENDMDL
MODEL 2
REMARK VINA RESULT:    -4.939      1.033      2.160
REMARK INTER + INTRA:          -4.939
REMARK INTER:                  -4.939
REMARK INTRA:                   0.000
REMARK UNBOUND:                 0.000
REMARK SMILES O=c1ccc2ccccc2o1
REMARK SMILES IDX 7 1 8 2 9 3 10 4 5 5 6 6 4 7 3 8 2 9 1 10 11 11
REMARK H PARENT
REMARK Flexibility Score: inf
ROOT
ATOM      1  C   UNL     1     -13.257 -25.011 -19.358  1.00  0.00     0.001 A 
ATOM      2  C   UNL     1     -14.528 -25.164 -18.794  1.00  0.00     0.004 A 
ATOM      3  C   UNL     1     -15.185 -26.398 -18.864  1.00  0.00     0.048 A 
ATOM      4  C   UNL     1     -14.572 -27.483 -19.499  1.00  0.00     0.138 A 
ATOM      5  C   UNL     1     -13.288 -27.328 -20.069  1.00  0.00     0.018 A 
ATOM      6  C   UNL     1     -12.635 -26.089 -19.995  1.00  0.00     0.012 A 
ATOM      7  C   UNL     1     -12.699 -28.430 -20.697  1.00  0.00     0.019 A 
ATOM      8  C   UNL     1     -13.391 -29.641 -20.743  1.00  0.00     0.094 A 
ATOM      9  C   UNL     1     -14.659 -29.720 -20.157  1.00  0.00     0.336 A 
ATOM     10  O   UNL     1     -15.298 -30.805 -20.190  1.00  0.00    -0.246 OA
ATOM     11  O   UNL     1     -15.196 -28.656 -19.566  1.00  0.00    -0.423 OA
ENDROOT
TORSDOF 0
ENDMDL
MODEL 3
REMARK VINA RESULT:    -4.932     15.462     16.422
REMARK INTER + INTRA:          -4.932
REMARK INTER:                  -4.932
REMARK INTRA:                   0.000
REMARK UNBOUND:                 0.000
REMARK SMILES O=c1ccc2ccccc2o1
REMARK SMILES IDX 7 1 8 2 9 3 10 4 5 5 6 6 4 7 3 8 2 9 1 10 11 11
REMARK H PARENT
REMARK Flexibility Score: inf
ROOT
ATOM      1  C   UNL     1      -1.516 -25.754 -30.514  1.00  0.00     0.001 A 
ATOM      2  C   UNL     1      -0.905 -24.537 -30.193  1.00  0.00     0.004 A 
ATOM      3  C   UNL     1      -1.646 -23.351 -30.211  1.00  0.00     0.048 A 
ATOM      4  C   UNL     1      -3.003 -23.377 -30.552  1.00  0.00     0.138 A 
ATOM      5  C   UNL     1      -3.620 -24.606 -30.876  1.00  0.00     0.018 A 
ATOM      6  C   UNL     1      -2.872 -25.792 -30.856  1.00  0.00     0.012 A 
ATOM      7  C   UNL     1      -4.978 -24.602 -31.212  1.00  0.00     0.019 A 
ATOM      8  C   UNL     1      -5.677 -23.395 -31.217  1.00  0.00     0.094 A 
ATOM      9  C   UNL     1      -5.000 -22.217 -30.885  1.00  0.00     0.336 A 
ATOM     10  O   UNL     1      -5.615 -21.118 -30.885  1.00  0.00    -0.246 OA
ATOM     11  O   UNL     1      -3.708 -22.248 -30.569  1.00  0.00    -0.423 OA
ENDROOT
TORSDOF 0
ENDMDL
MODEL 4
REMARK VINA RESULT:    -4.920      1.793      2.473
REMARK INTER + INTRA:          -4.920
REMARK INTER:                  -4.920
REMARK INTRA:                   0.000
REMARK UNBOUND:                 0.000
REMARK SMILES O=c1ccc2ccccc2o1
REMARK SMILES IDX 7 1 8 2 9 3 10 4 5 5 6 6 4 7 3 8 2 9 1 10 11 11
REMARK H PARENT
REMARK Flexibility Score: inf
ROOT
ATOM      1  C   UNL     1     -15.106 -25.455 -18.871  1.00  0.00     0.001 A 
ATOM      2  C   UNL     1     -13.926 -24.756 -19.145  1.00  0.00     0.004 A 
ATOM      3  C   UNL     1     -12.826 -25.421 -19.697  1.00  0.00     0.048 A 
ATOM      4  C   UNL     1     -12.902 -26.790 -19.976  1.00  0.00     0.138 A 
ATOM      5  C   UNL     1     -14.095 -27.497 -19.699  1.00  0.00     0.018 A 
ATOM      6  C   UNL     1     -15.194 -26.823 -19.146  1.00  0.00     0.012 A 
ATOM      7  C   UNL     1     -14.142 -28.863 -19.989  1.00  0.00     0.019 A 
ATOM      8  C   UNL     1     -13.021 -29.486 -20.539  1.00  0.00     0.094 A 
ATOM      9  C   UNL     1     -11.875 -28.723 -20.786  1.00  0.00     0.336 A 
ATOM     10  O   UNL     1     -10.854 -29.267 -21.282  1.00  0.00    -0.246 OA
ATOM     11  O   UNL     1     -11.856 -27.423 -20.501  1.00  0.00    -0.423 OA
ENDROOT
TORSDOF 0
ENDMDL
MODEL 5
REMARK VINA RESULT:    -4.862      1.730      2.773
REMARK INTER + INTRA:          -4.862
REMARK INTER:                  -4.862
REMARK INTRA:                   0.000
REMARK UNBOUND:                 0.000
REMARK SMILES O=c1ccc2ccccc2o1
REMARK SMILES IDX 7 1 8 2 9 3 10 4 5 5 6 6 4 7 3 8 2 9 1 10 11 11
REMARK H PARENT
REMARK Flexibility Score: inf
ROOT
ATOM      1  C   UNL     1     -10.869 -27.627 -20.497  1.00  0.00     0.001 A 
ATOM      2  C   UNL     1     -11.152 -28.993 -20.601  1.00  0.00     0.004 A 
ATOM      3  C   UNL     1     -12.451 -29.461 -20.381  1.00  0.00     0.048 A 
ATOM      4  C   UNL     1     -13.474 -28.564 -20.055  1.00  0.00     0.138 A 
ATOM      5  C   UNL     1     -13.188 -27.184 -19.950  1.00  0.00     0.018 A 
ATOM      6  C   UNL     1     -11.883 -26.721 -20.173  1.00  0.00     0.012 A 
ATOM      7  C   UNL     1     -14.230 -26.310 -19.624  1.00  0.00     0.019 A 
ATOM      8  C   UNL     1     -15.510 -26.821 -19.413  1.00  0.00     0.094 A 
ATOM      9  C   UNL     1     -15.719 -28.199 -19.534  1.00  0.00     0.336 A 
ATOM     10  O   UNL     1     -16.868 -28.678 -19.346  1.00  0.00    -0.246 OA
ATOM     11  O   UNL     1     -14.710 -29.009 -19.845  1.00  0.00    -0.423 OA
ENDROOT
TORSDOF 0
ENDMDL
MODEL 6
REMARK VINA RESULT:    -4.810      2.339      3.891
REMARK INTER + INTRA:          -4.810
REMARK INTER:                  -4.810
REMARK INTRA:                   0.000
REMARK UNBOUND:                 0.000
REMARK SMILES O=c1ccc2ccccc2o1
REMARK SMILES IDX 7 1 8 2 9 3 10 4 5 5 6 6 4 7 3 8 2 9 1 10 11 11
REMARK H PARENT
REMARK Flexibility Score: inf
ROOT
ATOM      1  C   UNL     1     -12.700 -29.433 -20.407  1.00  0.00     0.001 A 
ATOM      2  C   UNL     1     -11.570 -28.641 -20.637  1.00  0.00     0.004 A 
ATOM      3  C   UNL     1     -11.628 -27.258 -20.439  1.00  0.00     0.048 A 
ATOM      4  C   UNL     1     -12.817 -26.660 -20.010  1.00  0.00     0.138 A 
ATOM      5  C   UNL     1     -13.959 -27.460 -19.777  1.00  0.00     0.018 A 
ATOM      6  C   UNL     1     -13.894 -28.847 -19.978  1.00  0.00     0.012 A 
ATOM      7  C   UNL     1     -15.134 -26.835 -19.348  1.00  0.00     0.019 A 
ATOM      8  C   UNL     1     -15.146 -25.453 -19.164  1.00  0.00     0.094 A 
ATOM      9  C   UNL     1     -13.978 -24.725 -19.414  1.00  0.00     0.336 A 
ATOM     10  O   UNL     1     -13.970 -23.477 -19.254  1.00  0.00    -0.246 OA
ATOM     11  O   UNL     1     -12.873 -25.344 -19.822  1.00  0.00    -0.423 OA
ENDROOT
TORSDOF 0
ENDMDL
MODEL 7
REMARK VINA RESULT:    -4.798      1.438      3.772
REMARK INTER + INTRA:          -4.798
REMARK INTER:                  -4.798
REMARK INTRA:                   0.000
REMARK UNBOUND:                 0.000
REMARK SMILES O=c1ccc2ccccc2o1
REMARK SMILES IDX 7 1 8 2 9 3 10 4 5 5 6 6 4 7 3 8 2 9 1 10 11 11
REMARK H PARENT
REMARK Flexibility Score: inf
ROOT
ATOM      1  C   UNL     1     -16.528 -29.210 -19.428  1.00  0.00     0.001 A 
ATOM      2  C   UNL     1     -15.429 -29.913 -19.933  1.00  0.00     0.004 A 
ATOM      3  C   UNL     1     -14.217 -29.252 -20.163  1.00  0.00     0.048 A 
ATOM      4  C   UNL     1     -14.101 -27.885 -19.890  1.00  0.00     0.138 A 
ATOM      5  C   UNL     1     -15.212 -27.175 -19.380  1.00  0.00     0.018 A 
ATOM      6  C   UNL     1     -16.424 -27.844 -19.151  1.00  0.00     0.012 A 
ATOM      7  C   UNL     1     -15.067 -25.810 -19.115  1.00  0.00     0.019 A 
ATOM      8  C   UNL     1     -13.840 -25.193 -19.360  1.00  0.00     0.094 A 
ATOM      9  C   UNL     1     -12.784 -25.959 -19.866  1.00  0.00     0.336 A 
ATOM     10  O   UNL     1     -11.670 -25.419 -20.093  1.00  0.00    -0.246 OA
ATOM     11  O   UNL     1     -12.949 -27.256 -20.109  1.00  0.00    -0.423 OA
ENDROOT
TORSDOF 0
ENDMDL
MODEL 8
REMARK VINA RESULT:    -4.757      1.981      4.296
REMARK INTER + INTRA:          -4.757
REMARK INTER:                  -4.757
REMARK INTRA:                   0.000
REMARK UNBOUND:                 0.000
REMARK SMILES O=c1ccc2ccccc2o1
REMARK SMILES IDX 7 1 8 2 9 3 10 4 5 5 6 6 4 7 3 8 2 9 1 10 11 11
REMARK H PARENT
REMARK Flexibility Score: inf
ROOT
ATOM      1  C   UNL     1     -14.036 -29.778 -20.693  1.00  0.00     0.001 A 
ATOM      2  C   UNL     1     -15.261 -29.729 -20.018  1.00  0.00     0.004 A 
ATOM      3  C   UNL     1     -15.654 -28.561 -19.356  1.00  0.00     0.048 A 
ATOM      4  C   UNL     1     -14.822 -27.436 -19.367  1.00  0.00     0.138 A 
ATOM      5  C   UNL     1     -13.586 -27.484 -20.049  1.00  0.00     0.018 A 
ATOM      6  C   UNL     1     -13.198 -28.659 -20.711  1.00  0.00     0.012 A 
ATOM      7  C   UNL     1     -12.776 -26.345 -20.043  1.00  0.00     0.019 A 
ATOM      8  C   UNL     1     -13.208 -25.202 -19.370  1.00  0.00     0.094 A 
ATOM      9  C   UNL     1     -14.444 -25.227 -18.716  1.00  0.00     0.336 A 
ATOM     10  O   UNL     1     -14.851 -24.205 -18.103  1.00  0.00    -0.246 OA
ATOM     11  O   UNL     1     -15.196 -26.325 -18.737  1.00  0.00    -0.423 OA
ENDROOT
TORSDOF 0
ENDMDL
MODEL 9
REMARK VINA RESULT:    -4.700      1.802      3.538
REMARK INTER + INTRA:          -4.700
REMARK INTER:                  -4.700
REMARK INTRA:                   0.000
REMARK UNBOUND:                 0.000
REMARK SMILES O=c1ccc2ccccc2o1
REMARK SMILES IDX 7 1 8 2 9 3 10 4 5 5 6 6 4 7 3 8 2 9 1 10 11 11
REMARK H PARENT
REMARK Flexibility Score: inf
ROOT
ATOM      1  C   UNL     1     -15.518 -26.805 -19.476  1.00  0.00     0.001 A 
ATOM      2  C   UNL     1     -15.701 -28.191 -19.532  1.00  0.00     0.004 A 
ATOM      3  C   UNL     1     -14.618 -29.034 -19.803  1.00  0.00     0.048 A 
ATOM      4  C   UNL     1     -13.346 -28.493 -20.020  1.00  0.00     0.138 A 
ATOM      5  C   UNL     1     -13.161 -27.093 -19.963  1.00  0.00     0.018 A 
ATOM      6  C   UNL     1     -14.252 -26.253 -19.691  1.00  0.00     0.012 A 
ATOM      7  C   UNL     1     -11.879 -26.580 -20.184  1.00  0.00     0.019 A 
ATOM      8  C   UNL     1     -10.828 -27.458 -20.450  1.00  0.00     0.094 A 
ATOM      9  C   UNL     1     -11.086 -28.832 -20.491  1.00  0.00     0.336 A 
ATOM     10  O   UNL     1     -10.150 -29.639 -20.731  1.00  0.00    -0.246 OA
ATOM     11  O   UNL     1     -12.316 -29.294 -20.278  1.00  0.00    -0.423 OA
ENDROOT
TORSDOF 0
ENDMDL
