MODEL 1
REMARK VINA RESULT:    35.577      0.000      0.000
REMARK INTER + INTRA:          43.630
REMARK INTER:                  43.896
REMARK INTRA:                  -0.266
REMARK UNBOUND:                -0.266
REMARK SMILES COc1cc(-c2oc3cc(O)cc(O)c3c(=O)c2O)ccc1O
REMARK SMILES IDX 6 1 18 2 16 3 17 4 15 5 13 6 12 7 10 8 9 9 8 10 7 11 5 12
REMARK SMILES IDX 3 13 22 14 4 15 21 16 20 17 2 18 1 19 23 20 19 22 14 24
REMARK SMILES IDX 11 26
REMARK H PARENT 23 21 19 23 14 25 11 27
REMARK Flexibility Score: inf
ROOT
ATOM      1  C   UNL     1      -2.087  -0.557   2.690  1.00  0.00     0.180 A 
ATOM      2  C   UNL     1      -2.998   0.078   3.558  1.00  0.00     0.208 A 
ATOM      3  C   UNL     1      -4.373  -0.075   3.326  1.00  0.00     0.238 A 
ATOM      4  O   UNL     1      -5.199   0.479   4.103  1.00  0.00    -0.285 OA
ATOM      5  C   UNL     1      -4.815  -0.838   2.225  1.00  0.00     0.111 A 
ATOM      6  C   UNL     1      -6.183  -1.037   1.920  1.00  0.00     0.134 A 
ATOM      7  C   UNL     1      -6.542  -1.802   0.800  1.00  0.00     0.093 A 
ATOM      8  C   UNL     1      -5.563  -2.370  -0.018  1.00  0.00     0.123 A 
ATOM      9  C   UNL     1      -4.209  -2.178   0.279  1.00  0.00     0.094 A 
ATOM     10  C   UNL     1      -3.832  -1.419   1.391  1.00  0.00     0.146 A 
ATOM     11  O   UNL     1      -2.540  -1.256   1.653  1.00  0.00    -0.452 OA
ENDROOT
BRANCH   1  12
ATOM     12  C   UNL     1      -0.622  -0.458   2.878  1.00  0.00     0.025 A 
ATOM     13  C   UNL     1       1.362  -0.954   4.220  1.00  0.00     0.161 A 
ATOM     14  C   UNL     1       2.152  -0.239   3.302  1.00  0.00     0.157 A 
ATOM     15  C   UNL     1      -0.027  -1.052   4.003  1.00  0.00     0.062 A 
ATOM     16  C   UNL     1       1.557   0.371   2.193  1.00  0.00     0.051 A 
ATOM     17  C   UNL     1       0.181   0.269   1.984  1.00  0.00     0.016 A 
BRANCH  13  18
ATOM     18  O   UNL     1       1.985  -1.548   5.330  1.00  0.00    -0.493 OA
ATOM     19  C   UNL     1       2.330  -2.927   5.420  1.00  0.00     0.278 C 
ENDBRANCH  13  18
BRANCH  14  20
ATOM     20  O   UNL     1       3.530  -0.118   3.477  1.00  0.00    -0.504 OA
ATOM     21  H   UNL     1       4.033  -0.645   4.181  1.00  0.00     0.293 HD
ENDBRANCH  14  20
ENDBRANCH   1  12
BRANCH   2  22
ATOM     22  O   UNL     1      -2.534   0.868   4.612  1.00  0.00    -0.502 OA
ATOM     23  H   UNL     1      -2.725   1.861   4.670  1.00  0.00     0.293 HD
ENDBRANCH   2  22
BRANCH   6  24
ATOM     24  O   UNL     1      -7.185  -0.482   2.717  1.00  0.00    -0.507 OA
ATOM     25  H   UNL     1      -7.971  -1.031   3.045  1.00  0.00     0.293 HD
ENDBRANCH   6  24
BRANCH   8  26
ATOM     26  O   UNL     1      -5.946  -3.125  -1.124  1.00  0.00    -0.508 OA
ATOM     27  H   UNL     1      -6.175  -4.109  -1.041  1.00  0.00     0.293 HD
ENDBRANCH   8  26
TORSDOF 6
ENDMDL
MODEL 2
REMARK VINA RESULT:    38.399      0.928      1.899
REMARK INTER + INTRA:          47.112
REMARK INTER:                  46.932
REMARK INTRA:                   0.180
REMARK UNBOUND:                -0.266
REMARK SMILES COc1cc(-c2oc3cc(O)cc(O)c3c(=O)c2O)ccc1O
REMARK SMILES IDX 6 1 18 2 16 3 17 4 15 5 13 6 12 7 10 8 9 9 8 10 7 11 5 12
REMARK SMILES IDX 3 13 22 14 4 15 21 16 20 17 2 18 1 19 23 20 19 22 14 24
REMARK SMILES IDX 11 26
REMARK H PARENT 23 21 19 23 14 25 11 27
REMARK Flexibility Score: inf
ROOT
ATOM      1  C   UNL     1      -2.218  -0.549   2.732  1.00  0.00     0.180 A 
ATOM      2  C   UNL     1      -3.138   0.085   3.589  1.00  0.00     0.208 A 
ATOM      3  C   UNL     1      -4.511  -0.069   3.343  1.00  0.00     0.238 A 
ATOM      4  O   UNL     1      -5.346   0.485   4.111  1.00  0.00    -0.285 OA
ATOM      5  C   UNL     1      -4.941  -0.833   2.238  1.00  0.00     0.111 A 
ATOM      6  C   UNL     1      -6.305  -1.034   1.919  1.00  0.00     0.134 A 
ATOM      7  C   UNL     1      -6.651  -1.801   0.796  1.00  0.00     0.093 A 
ATOM      8  C   UNL     1      -5.663  -2.368  -0.011  1.00  0.00     0.123 A 
ATOM      9  C   UNL     1      -4.313  -2.174   0.300  1.00  0.00     0.094 A 
ATOM     10  C   UNL     1      -3.948  -1.415   1.415  1.00  0.00     0.146 A 
ATOM     11  O   UNL     1      -2.659  -1.250   1.691  1.00  0.00    -0.452 OA
ENDROOT
BRANCH   1  12
ATOM     12  C   UNL     1      -0.755  -0.449   2.936  1.00  0.00     0.025 A 
ATOM     13  C   UNL     1       1.504  -0.503   2.000  1.00  0.00     0.161 A 
ATOM     14  C   UNL     1       2.034  -0.326   3.291  1.00  0.00     0.157 A 
ATOM     15  C   UNL     1       0.107  -0.570   1.834  1.00  0.00     0.062 A 
ATOM     16  C   UNL     1       1.177  -0.226   4.392  1.00  0.00     0.051 A 
ATOM     17  C   UNL     1      -0.206  -0.294   4.219  1.00  0.00     0.016 A 
BRANCH  13  18
ATOM     18  O   UNL     1       2.389  -0.609   0.915  1.00  0.00    -0.493 OA
ATOM     19  C   UNL     1       2.044  -0.328  -0.439  1.00  0.00     0.278 C 
ENDBRANCH  13  18
BRANCH  14  20
ATOM     20  O   UNL     1       3.411  -0.252   3.502  1.00  0.00    -0.504 OA
ATOM     21  H   UNL     1       4.078  -0.355   2.748  1.00  0.00     0.293 HD
ENDBRANCH  14  20
ENDBRANCH   1  12
BRANCH   2  22
ATOM     22  O   UNL     1      -2.687   0.877   4.648  1.00  0.00    -0.502 OA
ATOM     23  H   UNL     1      -1.991   0.555   5.309  1.00  0.00     0.293 HD
ENDBRANCH   2  22
BRANCH   6  24
ATOM     24  O   UNL     1      -7.316  -0.479   2.705  1.00  0.00    -0.507 OA
ATOM     25  H   UNL     1      -7.449   0.524   2.772  1.00  0.00     0.293 HD
ENDBRANCH   6  24
BRANCH   8  26
ATOM     26  O   UNL     1      -6.033  -3.125  -1.121  1.00  0.00    -0.508 OA
ATOM     27  H   UNL     1      -5.345  -3.604  -1.689  1.00  0.00     0.293 HD
ENDBRANCH   8  26
TORSDOF 6
ENDMDL
