MODEL 1
REMARK VINA RESULT:    -2.978      0.000      0.000
REMARK INTER + INTRA:         -12.861
REMARK INTER:                  -7.503
REMARK INTRA:                  -5.357
REMARK UNBOUND:                -5.357
REMARK SMILES CCCCCCCCCCCCCCCCCCCCCCCCCCCC(=O)[O-]
REMARK SMILES IDX 15 1 16 2 17 3 18 4 19 5 20 6 21 7 22 8 23 9 24 10 25 11
REMARK SMILES IDX 26 12 27 13 28 14 29 15 30 16 14 17 13 18 12 19 11 20 10 21
REMARK SMILES IDX 9 22 8 23 7 24 6 25 5 26 4 27 3 28 2 29 1 30
REMARK H PARENT
REMARK Flexibility Score: inf
ROOT
ATOM      1  C   UNL     1     144.862 141.358 148.056  1.00  0.00     0.000 C 
ENDROOT
BRANCH   1   2
ATOM      2  C   UNL     1     145.100 141.605 146.560  1.00  0.00     0.000 C 
BRANCH   2   3
ATOM      3  C   UNL     1     144.370 140.591 145.661  1.00  0.00     0.000 C 
BRANCH   3   4
ATOM      4  C   UNL     1     143.144 141.149 144.908  1.00  0.00     0.000 C 
BRANCH   4   5
ATOM      5  C   UNL     1     141.779 140.776 145.518  1.00  0.00     0.000 C 
BRANCH   5   6
ATOM      6  C   UNL     1     140.910 141.976 145.944  1.00  0.00     0.000 C 
BRANCH   6   7
ATOM      7  C   UNL     1     141.087 142.422 147.410  1.00  0.00     0.000 C 
BRANCH   7   8
ATOM      8  C   UNL     1     142.071 143.587 147.628  1.00  0.00     0.000 C 
BRANCH   8   9
ATOM      9  C   UNL     1     142.015 144.634 146.504  1.00  0.00     0.000 C 
BRANCH   9  10
ATOM     10  C   UNL     1     143.344 144.755 145.734  1.00  0.00     0.000 C 
BRANCH  10  11
ATOM     11  C   UNL     1     143.216 145.219 144.269  1.00  0.00     0.000 C 
BRANCH  11  12
ATOM     12  C   UNL     1     144.045 144.412 143.250  1.00  0.00     0.006 C 
BRANCH  12  13
ATOM     13  C   UNL     1     145.431 143.984 143.757  1.00  0.00     0.053 C 
BRANCH  13  14
ATOM     14  C   UNL     1     146.068 142.973 142.854  1.00  0.00     0.041 C 
ATOM     15  O   UNL     1     146.554 141.913 143.329  1.00  0.00    -0.550 OA
ATOM     16  O   UNL     1     146.156 143.218 141.490  1.00  0.00    -0.550 OA
ENDBRANCH  13  14
ENDBRANCH  12  13
ENDBRANCH  11  12
ENDBRANCH  10  11
ENDBRANCH   9  10
ENDBRANCH   8   9
ENDBRANCH   7   8
ENDBRANCH   6   7
ENDBRANCH   5   6
ENDBRANCH   4   5
ENDBRANCH   3   4
ENDBRANCH   2   3
ENDBRANCH   1   2
BRANCH   1  17
ATOM     17  C   UNL     1     144.303 139.947 148.297  1.00  0.00     0.000 C 
BRANCH  17  18
ATOM     18  C   UNL     1     143.029 139.955 149.158  1.00  0.00     0.000 C 
BRANCH  18  19
ATOM     19  C   UNL     1     143.092 140.983 150.300  1.00  0.00     0.000 C 
BRANCH  19  20
ATOM     20  C   UNL     1     143.754 140.420 151.567  1.00  0.00     0.000 C 
BRANCH  20  21
ATOM     21  C   UNL     1     144.982 141.239 152.006  1.00  0.00     0.000 C 
BRANCH  21  22
ATOM     22  C   UNL     1     144.949 142.683 151.479  1.00  0.00    -0.000 C 
BRANCH  22  23
ATOM     23  C   UNL     1     144.899 143.724 152.607  1.00  0.00    -0.000 C 
BRANCH  23  24
ATOM     24  C   UNL     1     143.454 144.132 152.915  1.00  0.00    -0.000 C 
BRANCH  24  25
ATOM     25  C   UNL     1     142.599 144.136 151.639  1.00  0.00    -0.000 C 
BRANCH  25  26
ATOM     26  C   UNL     1     141.353 145.026 151.765  1.00  0.00    -0.000 C 
BRANCH  26  27
ATOM     27  C   UNL     1     140.043 144.240 151.582  1.00  0.00    -0.000 C 
BRANCH  27  28
ATOM     28  C   UNL     1     140.212 142.739 151.867  1.00  0.00    -0.000 C 
BRANCH  28  29
ATOM     29  C   UNL     1     139.916 142.380 153.330  1.00  0.00    -0.003 C 
ATOM     30  C   UNL     1     141.032 141.524 153.922  1.00  0.00     0.004 C 
ENDBRANCH  28  29
ENDBRANCH  27  28
ENDBRANCH  26  27
ENDBRANCH  25  26
ENDBRANCH  24  25
ENDBRANCH  23  24
ENDBRANCH  22  23
ENDBRANCH  21  22
ENDBRANCH  20  21
ENDBRANCH  19  20
ENDBRANCH  18  19
ENDBRANCH  17  18
ENDBRANCH   1  17
TORSDOF 26
ENDMDL
MODEL 2
REMARK VINA RESULT:    -2.608      2.306      6.287
REMARK INTER + INTRA:         -11.929
REMARK INTER:                  -7.051
REMARK INTRA:                  -4.878
REMARK UNBOUND:                -5.357
REMARK SMILES CCCCCCCCCCCCCCCCCCCCCCCCCCCC(=O)[O-]
REMARK SMILES IDX 15 1 16 2 17 3 18 4 19 5 20 6 21 7 22 8 23 9 24 10 25 11
REMARK SMILES IDX 26 12 27 13 28 14 29 15 30 16 14 17 13 18 12 19 11 20 10 21
REMARK SMILES IDX 9 22 8 23 7 24 6 25 5 26 4 27 3 28 2 29 1 30
REMARK H PARENT
REMARK Flexibility Score: inf
ROOT
ATOM      1  C   UNL     1     143.184 141.852 151.632  1.00  0.00     0.000 C 
ENDROOT
BRANCH   1   2
ATOM      2  C   UNL     1     143.057 140.730 150.593  1.00  0.00     0.000 C 
BRANCH   2   3
ATOM      3  C   UNL     1     144.387 139.998 150.335  1.00  0.00     0.000 C 
BRANCH   3   4
ATOM      4  C   UNL     1     145.625 140.642 150.994  1.00  0.00     0.000 C 
BRANCH   4   5
ATOM      5  C   UNL     1     146.703 141.138 150.011  1.00  0.00     0.000 C 
BRANCH   5   6
ATOM      6  C   UNL     1     146.460 142.549 149.441  1.00  0.00     0.000 C 
BRANCH   6   7
ATOM      7  C   UNL     1     145.956 142.588 147.984  1.00  0.00     0.000 C 
BRANCH   7   8
ATOM      8  C   UNL     1     146.837 143.384 147.005  1.00  0.00     0.000 C 
BRANCH   8   9
ATOM      9  C   UNL     1     147.995 142.552 146.430  1.00  0.00     0.000 C 
BRANCH   9  10
ATOM     10  C   UNL     1     147.663 141.051 146.339  1.00  0.00     0.000 C 
BRANCH  10  11
ATOM     11  C   UNL     1     148.605 140.221 145.443  1.00  0.00     0.000 C 
BRANCH  11  12
ATOM     12  C   UNL     1     148.381 140.384 143.926  1.00  0.00     0.006 C 
BRANCH  12  13
ATOM     13  C   UNL     1     149.555 141.037 143.179  1.00  0.00     0.053 C 
BRANCH  13  14
ATOM     14  C   UNL     1     149.402 140.924 141.694  1.00  0.00     0.041 C 
ATOM     15  O   UNL     1     148.703 141.759 141.062  1.00  0.00    -0.550 OA
ATOM     16  O   UNL     1     150.005 139.875 141.010  1.00  0.00    -0.550 OA
ENDBRANCH  13  14
ENDBRANCH  12  13
ENDBRANCH  11  12
ENDBRANCH  10  11
ENDBRANCH   9  10
ENDBRANCH   8   9
ENDBRANCH   7   8
ENDBRANCH   6   7
ENDBRANCH   5   6
ENDBRANCH   4   5
ENDBRANCH   3   4
ENDBRANCH   2   3
ENDBRANCH   1   2
BRANCH   1  17
ATOM     17  C   UNL     1     141.839 142.566 151.836  1.00  0.00     0.000 C 
BRANCH  17  18
ATOM     18  C   UNL     1     141.810 143.965 151.200  1.00  0.00     0.000 C 
BRANCH  18  19
ATOM     19  C   UNL     1     143.175 144.385 150.627  1.00  0.00     0.000 C 
BRANCH  19  20
ATOM     20  C   UNL     1     143.130 144.626 149.110  1.00  0.00     0.000 C 
BRANCH  20  21
ATOM     21  C   UNL     1     141.714 144.465 148.527  1.00  0.00     0.000 C 
BRANCH  21  22
ATOM     22  C   UNL     1     141.712 143.743 147.170  1.00  0.00    -0.000 C 
BRANCH  22  23
ATOM     23  C   UNL     1     141.205 142.296 147.270  1.00  0.00    -0.000 C 
BRANCH  23  24
ATOM     24  C   UNL     1     140.914 141.720 145.879  1.00  0.00    -0.000 C 
BRANCH  24  25
ATOM     25  C   UNL     1     141.708 140.426 145.643  1.00  0.00    -0.000 C 
BRANCH  25  26
ATOM     26  C   UNL     1     142.837 140.229 146.666  1.00  0.00    -0.000 C 
BRANCH  26  27
ATOM     27  C   UNL     1     144.229 140.199 146.013  1.00  0.00    -0.000 C 
BRANCH  27  28
ATOM     28  C   UNL     1     144.173 140.439 144.496  1.00  0.00    -0.000 C 
BRANCH  28  29
ATOM     29  C   UNL     1     144.916 141.716 144.074  1.00  0.00    -0.003 C 
ATOM     30  C   UNL     1     144.165 142.964 144.530  1.00  0.00     0.004 C 
ENDBRANCH  28  29
ENDBRANCH  27  28
ENDBRANCH  26  27
ENDBRANCH  25  26
ENDBRANCH  24  25
ENDBRANCH  23  24
ENDBRANCH  22  23
ENDBRANCH  21  22
ENDBRANCH  20  21
ENDBRANCH  19  20
ENDBRANCH  18  19
ENDBRANCH  17  18
ENDBRANCH   1  17
TORSDOF 26
ENDMDL
MODEL 3
REMARK VINA RESULT:    -2.561      1.795      2.790
REMARK INTER + INTRA:         -11.811
REMARK INTER:                  -7.253
REMARK INTRA:                  -4.559
REMARK UNBOUND:                -5.357
REMARK SMILES CCCCCCCCCCCCCCCCCCCCCCCCCCCC(=O)[O-]
REMARK SMILES IDX 15 1 16 2 17 3 18 4 19 5 20 6 21 7 22 8 23 9 24 10 25 11
REMARK SMILES IDX 26 12 27 13 28 14 29 15 30 16 14 17 13 18 12 19 11 20 10 21
REMARK SMILES IDX 9 22 8 23 7 24 6 25 5 26 4 27 3 28 2 29 1 30
REMARK H PARENT
REMARK Flexibility Score: inf
ROOT
ATOM      1  C   UNL     1     144.667 141.456 148.177  1.00  0.00     0.000 C 
ENDROOT
BRANCH   1   2
ATOM      2  C   UNL     1     145.069 141.438 146.696  1.00  0.00     0.000 C 
BRANCH   2   3
ATOM      3  C   UNL     1     144.511 140.220 145.938  1.00  0.00     0.000 C 
BRANCH   3   4
ATOM      4  C   UNL     1     143.369 140.534 144.949  1.00  0.00     0.000 C 
BRANCH   4   5
ATOM      5  C   UNL     1     141.949 140.273 145.488  1.00  0.00     0.000 C 
BRANCH   5   6
ATOM      6  C   UNL     1     141.057 141.526 145.597  1.00  0.00     0.000 C 
BRANCH   6   7
ATOM      7  C   UNL     1     140.980 142.153 147.003  1.00  0.00     0.000 C 
BRANCH   7   8
ATOM      8  C   UNL     1     141.732 143.486 147.170  1.00  0.00     0.000 C 
BRANCH   8   9
ATOM      9  C   UNL     1     142.296 144.024 145.845  1.00  0.00     0.000 C 
BRANCH   9  10
ATOM     10  C   UNL     1     143.617 144.796 146.028  1.00  0.00     0.000 C 
BRANCH  10  11
ATOM     11  C   UNL     1     144.633 144.642 144.879  1.00  0.00     0.000 C 
BRANCH  11  12
ATOM     12  C   UNL     1     144.130 143.846 143.658  1.00  0.00     0.006 C 
BRANCH  12  13
ATOM     13  C   UNL     1     145.176 143.659 142.548  1.00  0.00     0.053 C 
BRANCH  13  14
ATOM     14  C   UNL     1     146.411 142.978 143.054  1.00  0.00     0.041 C 
ATOM     15  O   UNL     1     146.374 141.765 143.391  1.00  0.00    -0.550 OA
ATOM     16  O   UNL     1     147.594 143.692 143.185  1.00  0.00    -0.550 OA
ENDBRANCH  13  14
ENDBRANCH  12  13
ENDBRANCH  11  12
ENDBRANCH  10  11
ENDBRANCH   9  10
ENDBRANCH   8   9
ENDBRANCH   7   8
ENDBRANCH   6   7
ENDBRANCH   5   6
ENDBRANCH   4   5
ENDBRANCH   3   4
ENDBRANCH   2   3
ENDBRANCH   1   2
BRANCH   1  17
ATOM     17  C   UNL     1     144.046 140.115 148.594  1.00  0.00     0.000 C 
BRANCH  17  18
ATOM     18  C   UNL     1     142.801 140.288 149.478  1.00  0.00     0.000 C 
BRANCH  18  19
ATOM     19  C   UNL     1     143.062 141.184 150.701  1.00  0.00     0.000 C 
BRANCH  19  20
ATOM     20  C   UNL     1     142.180 142.443 150.710  1.00  0.00     0.000 C 
BRANCH  20  21
ATOM     21  C   UNL     1     140.764 142.168 151.249  1.00  0.00     0.000 C 
BRANCH  21  22
ATOM     22  C   UNL     1     140.729 142.042 152.781  1.00  0.00    -0.000 C 
BRANCH  22  23
ATOM     23  C   UNL     1     140.479 143.387 153.480  1.00  0.00    -0.000 C 
BRANCH  23  24
ATOM     24  C   UNL     1     141.571 143.679 154.515  1.00  0.00    -0.000 C 
BRANCH  24  25
ATOM     25  C   UNL     1     142.663 144.582 153.923  1.00  0.00    -0.000 C 
BRANCH  25  26
ATOM     26  C   UNL     1     142.130 145.507 152.818  1.00  0.00    -0.000 C 
BRANCH  26  27
ATOM     27  C   UNL     1     141.984 146.966 153.286  1.00  0.00    -0.000 C 
BRANCH  27  28
ATOM     28  C   UNL     1     143.088 147.382 154.270  1.00  0.00    -0.000 C 
BRANCH  28  29
ATOM     29  C   UNL     1     142.547 148.199 155.452  1.00  0.00    -0.003 C 
ATOM     30  C   UNL     1     142.515 147.364 156.729  1.00  0.00     0.004 C 
ENDBRANCH  28  29
ENDBRANCH  27  28
ENDBRANCH  26  27
ENDBRANCH  25  26
ENDBRANCH  24  25
ENDBRANCH  23  24
ENDBRANCH  22  23
ENDBRANCH  21  22
ENDBRANCH  20  21
ENDBRANCH  19  20
ENDBRANCH  18  19
ENDBRANCH  17  18
ENDBRANCH   1  17
TORSDOF 26
ENDMDL
MODEL 4
REMARK VINA RESULT:    -2.543      1.771      4.479
REMARK INTER + INTRA:         -11.766
REMARK INTER:                  -6.435
REMARK INTRA:                  -5.331
REMARK UNBOUND:                -5.357
REMARK SMILES CCCCCCCCCCCCCCCCCCCCCCCCCCCC(=O)[O-]
REMARK SMILES IDX 15 1 16 2 17 3 18 4 19 5 20 6 21 7 22 8 23 9 24 10 25 11
REMARK SMILES IDX 26 12 27 13 28 14 29 15 30 16 14 17 13 18 12 19 11 20 10 21
REMARK SMILES IDX 9 22 8 23 7 24 6 25 5 26 4 27 3 28 2 29 1 30
REMARK H PARENT
REMARK Flexibility Score: inf
ROOT
ATOM      1  C   UNL     1     145.761 146.353 146.877  1.00  0.00     0.000 C 
ENDROOT
BRANCH   1   2
ATOM      2  C   UNL     1     145.360 145.521 148.103  1.00  0.00     0.000 C 
BRANCH   2   3
ATOM      3  C   UNL     1     144.931 144.087 147.741  1.00  0.00     0.000 C 
BRANCH   3   4
ATOM      4  C   UNL     1     143.716 143.551 148.526  1.00  0.00     0.000 C 
BRANCH   4   5
ATOM      5  C   UNL     1     143.682 142.022 148.711  1.00  0.00     0.000 C 
BRANCH   5   6
ATOM      6  C   UNL     1     142.324 141.362 148.399  1.00  0.00     0.000 C 
BRANCH   6   7
ATOM      7  C   UNL     1     141.372 142.204 147.526  1.00  0.00     0.000 C 
BRANCH   7   8
ATOM      8  C   UNL     1     141.397 141.875 146.022  1.00  0.00     0.000 C 
BRANCH   8   9
ATOM      9  C   UNL     1     142.130 140.560 145.710  1.00  0.00     0.000 C 
BRANCH   9  10
ATOM     10  C   UNL     1     143.302 140.748 144.729  1.00  0.00     0.000 C 
BRANCH  10  11
ATOM     11  C   UNL     1     144.126 142.036 144.927  1.00  0.00     0.000 C 
BRANCH  11  12
ATOM     12  C   UNL     1     144.386 142.852 143.645  1.00  0.00     0.006 C 
BRANCH  12  13
ATOM     13  C   UNL     1     145.867 142.946 143.244  1.00  0.00     0.053 C 
BRANCH  13  14
ATOM     14  C   UNL     1     146.035 143.476 141.853  1.00  0.00     0.041 C 
ATOM     15  O   UNL     1     146.789 142.885 141.036  1.00  0.00    -0.550 OA
ATOM     16  O   UNL     1     145.385 144.642 141.469  1.00  0.00    -0.550 OA
ENDBRANCH  13  14
ENDBRANCH  12  13
ENDBRANCH  11  12
ENDBRANCH  10  11
ENDBRANCH   9  10
ENDBRANCH   8   9
ENDBRANCH   7   8
ENDBRANCH   6   7
ENDBRANCH   5   6
ENDBRANCH   4   5
ENDBRANCH   3   4
ENDBRANCH   2   3
ENDBRANCH   1   2
BRANCH   1  17
ATOM     17  C   UNL     1     145.327 145.658 145.577  1.00  0.00     0.000 C 
BRANCH  17  18
ATOM     18  C   UNL     1     144.670 146.626 144.580  1.00  0.00     0.000 C 
BRANCH  18  19
ATOM     19  C   UNL     1     143.189 146.893 144.901  1.00  0.00     0.000 C 
BRANCH  19  20
ATOM     20  C   UNL     1     142.398 145.600 145.156  1.00  0.00     0.000 C 
BRANCH  20  21
ATOM     21  C   UNL     1     141.660 145.615 146.507  1.00  0.00     0.000 C 
BRANCH  21  22
ATOM     22  C   UNL     1     142.063 146.809 147.387  1.00  0.00    -0.000 C 
BRANCH  22  23
ATOM     23  C   UNL     1     141.634 146.637 148.852  1.00  0.00    -0.000 C 
BRANCH  23  24
ATOM     24  C   UNL     1     140.384 145.755 148.958  1.00  0.00    -0.000 C 
BRANCH  24  25
ATOM     25  C   UNL     1     140.209 145.216 150.386  1.00  0.00    -0.000 C 
BRANCH  25  26
ATOM     26  C   UNL     1     141.248 144.142 150.743  1.00  0.00    -0.000 C 
BRANCH  26  27
ATOM     27  C   UNL     1     141.825 144.323 152.158  1.00  0.00    -0.000 C 
BRANCH  27  28
ATOM     28  C   UNL     1     142.596 143.086 152.643  1.00  0.00    -0.000 C 
BRANCH  28  29
ATOM     29  C   UNL     1     141.685 141.868 152.854  1.00  0.00    -0.003 C 
ATOM     30  C   UNL     1     140.627 142.153 153.917  1.00  0.00     0.004 C 
ENDBRANCH  28  29
ENDBRANCH  27  28
ENDBRANCH  26  27
ENDBRANCH  25  26
ENDBRANCH  24  25
ENDBRANCH  23  24
ENDBRANCH  22  23
ENDBRANCH  21  22
ENDBRANCH  20  21
ENDBRANCH  19  20
ENDBRANCH  18  19
ENDBRANCH  17  18
ENDBRANCH   1  17
TORSDOF 26
ENDMDL
MODEL 5
REMARK VINA RESULT:    -2.539      3.524      8.264
REMARK INTER + INTRA:         -11.755
REMARK INTER:                  -7.588
REMARK INTRA:                  -4.167
REMARK UNBOUND:                -5.357
REMARK SMILES CCCCCCCCCCCCCCCCCCCCCCCCCCCC(=O)[O-]
REMARK SMILES IDX 15 1 16 2 17 3 18 4 19 5 20 6 21 7 22 8 23 9 24 10 25 11
REMARK SMILES IDX 26 12 27 13 28 14 29 15 30 16 14 17 13 18 12 19 11 20 10 21
REMARK SMILES IDX 9 22 8 23 7 24 6 25 5 26 4 27 3 28 2 29 1 30
REMARK H PARENT
REMARK Flexibility Score: inf
ROOT
ATOM      1  C   UNL     1     141.517 146.574 148.014  1.00  0.00     0.000 C 
ENDROOT
BRANCH   1   2
ATOM      2  C   UNL     1     141.168 145.115 148.344  1.00  0.00     0.000 C 
BRANCH   2   3
ATOM      3  C   UNL     1     142.374 144.166 148.216  1.00  0.00     0.000 C 
BRANCH   3   4
ATOM      4  C   UNL     1     142.671 143.679 146.782  1.00  0.00     0.000 C 
BRANCH   4   5
ATOM      5  C   UNL     1     141.463 143.091 146.029  1.00  0.00     0.000 C 
BRANCH   5   6
ATOM      6  C   UNL     1     141.635 141.630 145.568  1.00  0.00     0.000 C 
BRANCH   6   7
ATOM      7  C   UNL     1     142.311 140.696 146.592  1.00  0.00     0.000 C 
BRANCH   7   8
ATOM      8  C   UNL     1     143.519 139.902 146.061  1.00  0.00     0.000 C 
BRANCH   8   9
ATOM      9  C   UNL     1     143.817 140.188 144.580  1.00  0.00     0.000 C 
BRANCH   9  10
ATOM     10  C   UNL     1     145.202 140.826 144.362  1.00  0.00     0.000 C 
BRANCH  10  11
ATOM     11  C   UNL     1     145.244 142.363 144.483  1.00  0.00     0.000 C 
BRANCH  11  12
ATOM     12  C   UNL     1     144.379 143.127 143.461  1.00  0.00     0.006 C 
BRANCH  12  13
ATOM     13  C   UNL     1     145.145 144.178 142.643  1.00  0.00     0.053 C 
BRANCH  13  14
ATOM     14  C   UNL     1     145.869 143.564 141.484  1.00  0.00     0.041 C 
ATOM     15  O   UNL     1     145.490 143.794 140.305  1.00  0.00    -0.550 OA
ATOM     16  O   UNL     1     146.940 142.709 141.707  1.00  0.00    -0.550 OA
ENDBRANCH  13  14
ENDBRANCH  12  13
ENDBRANCH  11  12
ENDBRANCH  10  11
ENDBRANCH   9  10
ENDBRANCH   8   9
ENDBRANCH   7   8
ENDBRANCH   6   7
ENDBRANCH   5   6
ENDBRANCH   4   5
ENDBRANCH   3   4
ENDBRANCH   2   3
ENDBRANCH   1   2
BRANCH   1  17
ATOM     17  C   UNL     1     140.308 147.305 147.413  1.00  0.00     0.000 C 
BRANCH  17  18
ATOM     18  C   UNL     1     140.693 148.223 146.242  1.00  0.00     0.000 C 
BRANCH  18  19
ATOM     19  C   UNL     1     140.070 147.777 144.909  1.00  0.00     0.000 C 
BRANCH  19  20
ATOM     20  C   UNL     1     140.641 146.442 144.407  1.00  0.00     0.000 C 
BRANCH  20  21
ATOM     21  C   UNL     1     142.177 146.460 144.296  1.00  0.00     0.000 C 
BRANCH  21  22
ATOM     22  C   UNL     1     142.670 147.199 143.042  1.00  0.00    -0.000 C 
BRANCH  22  23
ATOM     23  C   UNL     1     142.069 146.634 141.746  1.00  0.00    -0.000 C 
BRANCH  23  24
ATOM     24  C   UNL     1     142.329 147.575 140.565  1.00  0.00    -0.000 C 
BRANCH  24  25
ATOM     25  C   UNL     1     142.604 149.006 141.050  1.00  0.00    -0.000 C 
BRANCH  25  26
ATOM     26  C   UNL     1     141.884 150.067 140.203  1.00  0.00    -0.000 C 
BRANCH  26  27
ATOM     27  C   UNL     1     140.724 150.740 140.956  1.00  0.00    -0.000 C 
BRANCH  27  28
ATOM     28  C   UNL     1     140.531 150.170 142.371  1.00  0.00    -0.000 C 
BRANCH  28  29
ATOM     29  C   UNL     1     141.037 151.123 143.464  1.00  0.00    -0.003 C 
ATOM     30  C   UNL     1     140.686 152.571 143.136  1.00  0.00     0.004 C 
ENDBRANCH  28  29
ENDBRANCH  27  28
ENDBRANCH  26  27
ENDBRANCH  25  26
ENDBRANCH  24  25
ENDBRANCH  23  24
ENDBRANCH  22  23
ENDBRANCH  21  22
ENDBRANCH  20  21
ENDBRANCH  19  20
ENDBRANCH  18  19
ENDBRANCH  17  18
ENDBRANCH   1  17
TORSDOF 26
ENDMDL
MODEL 6
REMARK VINA RESULT:    -2.525      1.738      3.937
REMARK INTER + INTRA:         -11.719
REMARK INTER:                  -7.279
REMARK INTRA:                  -4.440
REMARK UNBOUND:                -5.357
REMARK SMILES CCCCCCCCCCCCCCCCCCCCCCCCCCCC(=O)[O-]
REMARK SMILES IDX 15 1 16 2 17 3 18 4 19 5 20 6 21 7 22 8 23 9 24 10 25 11
REMARK SMILES IDX 26 12 27 13 28 14 29 15 30 16 14 17 13 18 12 19 11 20 10 21
REMARK SMILES IDX 9 22 8 23 7 24 6 25 5 26 4 27 3 28 2 29 1 30
REMARK H PARENT
REMARK Flexibility Score: inf
ROOT
ATOM      1  C   UNL     1     144.726 143.701 148.610  1.00  0.00     0.000 C 
ENDROOT
BRANCH   1   2
ATOM      2  C   UNL     1     143.857 144.772 149.285  1.00  0.00     0.000 C 
BRANCH   2   3
ATOM      3  C   UNL     1     142.627 145.162 148.446  1.00  0.00     0.000 C 
BRANCH   3   4
ATOM      4  C   UNL     1     142.869 145.225 146.923  1.00  0.00     0.000 C 
BRANCH   4   5
ATOM      5  C   UNL     1     141.967 144.303 146.081  1.00  0.00     0.000 C 
BRANCH   5   6
ATOM      6  C   UNL     1     141.695 142.919 146.701  1.00  0.00     0.000 C 
BRANCH   6   7
ATOM      7  C   UNL     1     140.795 141.991 145.861  1.00  0.00     0.000 C 
BRANCH   7   8
ATOM      8  C   UNL     1     141.468 140.699 145.361  1.00  0.00     0.000 C 
BRANCH   8   9
ATOM      9  C   UNL     1     142.974 140.652 145.669  1.00  0.00     0.000 C 
BRANCH   9  10
ATOM     10  C   UNL     1     143.846 140.848 144.415  1.00  0.00     0.000 C 
BRANCH  10  11
ATOM     11  C   UNL     1     145.066 141.773 144.599  1.00  0.00     0.000 C 
BRANCH  11  12
ATOM     12  C   UNL     1     144.822 143.257 144.260  1.00  0.00     0.006 C 
BRANCH  12  13
ATOM     13  C   UNL     1     144.752 143.560 142.756  1.00  0.00     0.053 C 
BRANCH  13  14
ATOM     14  C   UNL     1     146.115 143.722 142.156  1.00  0.00     0.041 C 
ATOM     15  O   UNL     1     146.801 144.748 142.406  1.00  0.00    -0.550 OA
ATOM     16  O   UNL     1     146.614 142.756 141.292  1.00  0.00    -0.550 OA
ENDBRANCH  13  14
ENDBRANCH  12  13
ENDBRANCH  11  12
ENDBRANCH  10  11
ENDBRANCH   9  10
ENDBRANCH   8   9
ENDBRANCH   7   8
ENDBRANCH   6   7
ENDBRANCH   5   6
ENDBRANCH   4   5
ENDBRANCH   3   4
ENDBRANCH   2   3
ENDBRANCH   1   2
BRANCH   1  17
ATOM     17  C   UNL     1     144.856 142.458 149.503  1.00  0.00     0.000 C 
BRANCH  17  18
ATOM     18  C   UNL     1     144.016 141.275 148.996  1.00  0.00     0.000 C 
BRANCH  18  19
ATOM     19  C   UNL     1     142.983 140.796 150.030  1.00  0.00     0.000 C 
BRANCH  19  20
ATOM     20  C   UNL     1     141.544 141.175 149.646  1.00  0.00     0.000 C 
BRANCH  20  21
ATOM     21  C   UNL     1     141.068 142.465 150.340  1.00  0.00     0.000 C 
BRANCH  21  22
ATOM     22  C   UNL     1     140.248 142.185 151.610  1.00  0.00    -0.000 C 
BRANCH  22  23
ATOM     23  C   UNL     1     140.860 142.829 152.863  1.00  0.00    -0.000 C 
BRANCH  23  24
ATOM     24  C   UNL     1     142.348 143.134 152.653  1.00  0.00    -0.000 C 
BRANCH  24  25
ATOM     25  C   UNL     1     143.205 142.468 153.741  1.00  0.00    -0.000 C 
BRANCH  25  26
ATOM     26  C   UNL     1     144.591 142.049 153.227  1.00  0.00    -0.000 C 
BRANCH  26  27
ATOM     27  C   UNL     1     144.768 140.521 153.181  1.00  0.00    -0.000 C 
BRANCH  27  28
ATOM     28  C   UNL     1     146.217 140.087 153.455  1.00  0.00    -0.000 C 
BRANCH  28  29
ATOM     29  C   UNL     1     146.859 140.872 154.607  1.00  0.00    -0.003 C 
ATOM     30  C   UNL     1     147.213 139.950 155.771  1.00  0.00     0.004 C 
ENDBRANCH  28  29
ENDBRANCH  27  28
ENDBRANCH  26  27
ENDBRANCH  25  26
ENDBRANCH  24  25
ENDBRANCH  23  24
ENDBRANCH  22  23
ENDBRANCH  21  22
ENDBRANCH  20  21
ENDBRANCH  19  20
ENDBRANCH  18  19
ENDBRANCH  17  18
ENDBRANCH   1  17
TORSDOF 26
ENDMDL
MODEL 7
REMARK VINA RESULT:    -2.509      2.390      5.447
REMARK INTER + INTRA:         -11.681
REMARK INTER:                  -6.353
REMARK INTRA:                  -5.327
REMARK UNBOUND:                -5.357
REMARK SMILES CCCCCCCCCCCCCCCCCCCCCCCCCCCC(=O)[O-]
REMARK SMILES IDX 15 1 16 2 17 3 18 4 19 5 20 6 21 7 22 8 23 9 24 10 25 11
REMARK SMILES IDX 26 12 27 13 28 14 29 15 30 16 14 17 13 18 12 19 11 20 10 21
REMARK SMILES IDX 9 22 8 23 7 24 6 25 5 26 4 27 3 28 2 29 1 30
REMARK H PARENT
REMARK Flexibility Score: inf
ROOT
ATOM      1  C   UNL     1     144.601 144.687 145.473  1.00  0.00     0.000 C 
ENDROOT
BRANCH   1   2
ATOM      2  C   UNL     1     143.964 146.012 145.917  1.00  0.00     0.000 C 
BRANCH   2   3
ATOM      3  C   UNL     1     142.483 145.863 146.310  1.00  0.00     0.000 C 
BRANCH   3   4
ATOM      4  C   UNL     1     141.528 146.885 145.658  1.00  0.00     0.000 C 
BRANCH   4   5
ATOM      5  C   UNL     1     140.902 146.434 144.324  1.00  0.00     0.000 C 
BRANCH   5   6
ATOM      6  C   UNL     1     141.159 147.381 143.135  1.00  0.00     0.000 C 
BRANCH   6   7
ATOM      7  C   UNL     1     141.630 148.798 143.517  1.00  0.00     0.000 C 
BRANCH   7   8
ATOM      8  C   UNL     1     142.971 149.234 142.898  1.00  0.00     0.000 C 
BRANCH   8   9
ATOM      9  C   UNL     1     144.187 148.759 143.711  1.00  0.00     0.000 C 
BRANCH   9  10
ATOM     10  C   UNL     1     145.353 148.290 142.822  1.00  0.00     0.000 C 
BRANCH  10  11
ATOM     11  C   UNL     1     145.357 146.786 142.481  1.00  0.00     0.000 C 
BRANCH  11  12
ATOM     12  C   UNL     1     144.379 146.362 141.367  1.00  0.00     0.006 C 
BRANCH  12  13
ATOM     13  C   UNL     1     145.055 145.768 140.122  1.00  0.00     0.053 C 
BRANCH  13  14
ATOM     14  C   UNL     1     145.982 144.645 140.473  1.00  0.00     0.041 C 
ATOM     15  O   UNL     1     145.526 143.567 140.938  1.00  0.00    -0.550 OA
ATOM     16  O   UNL     1     147.353 144.801 140.320  1.00  0.00    -0.550 OA
ENDBRANCH  13  14
ENDBRANCH  12  13
ENDBRANCH  11  12
ENDBRANCH  10  11
ENDBRANCH   9  10
ENDBRANCH   8   9
ENDBRANCH   7   8
ENDBRANCH   6   7
ENDBRANCH   5   6
ENDBRANCH   4   5
ENDBRANCH   3   4
ENDBRANCH   2   3
ENDBRANCH   1   2
BRANCH   1  17
ATOM     17  C   UNL     1     143.738 143.993 144.408  1.00  0.00     0.000 C 
BRANCH  17  18
ATOM     18  C   UNL     1     144.293 142.619 144.001  1.00  0.00     0.000 C 
BRANCH  18  19
ATOM     19  C   UNL     1     145.055 141.925 145.143  1.00  0.00     0.000 C 
BRANCH  19  20
ATOM     20  C   UNL     1     144.590 140.479 145.372  1.00  0.00     0.000 C 
BRANCH  20  21
ATOM     21  C   UNL     1     143.231 140.184 144.710  1.00  0.00     0.000 C 
BRANCH  21  22
ATOM     22  C   UNL     1     142.072 140.176 145.720  1.00  0.00    -0.000 C 
BRANCH  22  23
ATOM     23  C   UNL     1     141.049 141.291 145.454  1.00  0.00    -0.000 C 
BRANCH  23  24
ATOM     24  C   UNL     1     141.126 142.376 146.535  1.00  0.00    -0.000 C 
BRANCH  24  25
ATOM     25  C   UNL     1     141.842 141.853 147.789  1.00  0.00    -0.000 C 
BRANCH  25  26
ATOM     26  C   UNL     1     143.061 142.706 148.172  1.00  0.00    -0.000 C 
BRANCH  26  27
ATOM     27  C   UNL     1     143.030 143.156 149.643  1.00  0.00    -0.000 C 
BRANCH  27  28
ATOM     28  C   UNL     1     142.513 144.594 149.808  1.00  0.00    -0.000 C 
BRANCH  28  29
ATOM     29  C   UNL     1     141.012 144.648 150.128  1.00  0.00    -0.003 C 
ATOM     30  C   UNL     1     140.281 145.594 149.180  1.00  0.00     0.004 C 
ENDBRANCH  28  29
ENDBRANCH  27  28
ENDBRANCH  26  27
ENDBRANCH  25  26
ENDBRANCH  24  25
ENDBRANCH  23  24
ENDBRANCH  22  23
ENDBRANCH  21  22
ENDBRANCH  20  21
ENDBRANCH  19  20
ENDBRANCH  18  19
ENDBRANCH  17  18
ENDBRANCH   1  17
TORSDOF 26
ENDMDL
MODEL 8
REMARK VINA RESULT:    -2.494      2.400      4.873
REMARK INTER + INTRA:         -11.642
REMARK INTER:                  -6.346
REMARK INTRA:                  -5.296
REMARK UNBOUND:                -5.357
REMARK SMILES CCCCCCCCCCCCCCCCCCCCCCCCCCCC(=O)[O-]
REMARK SMILES IDX 15 1 16 2 17 3 18 4 19 5 20 6 21 7 22 8 23 9 24 10 25 11
REMARK SMILES IDX 26 12 27 13 28 14 29 15 30 16 14 17 13 18 12 19 11 20 10 21
REMARK SMILES IDX 9 22 8 23 7 24 6 25 5 26 4 27 3 28 2 29 1 30
REMARK H PARENT
REMARK Flexibility Score: inf
ROOT
ATOM      1  C   UNL     1     141.302 145.933 148.552  1.00  0.00     0.000 C 
ENDROOT
BRANCH   1   2
ATOM      2  C   UNL     1     141.013 144.429 148.657  1.00  0.00     0.000 C 
BRANCH   2   3
ATOM      3  C   UNL     1     141.586 143.625 147.475  1.00  0.00     0.000 C 
BRANCH   3   4
ATOM      4  C   UNL     1     141.008 142.204 147.312  1.00  0.00     0.000 C 
BRANCH   4   5
ATOM      5  C   UNL     1     140.770 141.760 145.856  1.00  0.00     0.000 C 
BRANCH   5   6
ATOM      6  C   UNL     1     141.711 140.645 145.356  1.00  0.00     0.000 C 
BRANCH   6   7
ATOM      7  C   UNL     1     142.889 140.315 146.294  1.00  0.00     0.000 C 
BRANCH   7   8
ATOM      8  C   UNL     1     144.284 140.377 145.644  1.00  0.00     0.000 C 
BRANCH   8   9
ATOM      9  C   UNL     1     144.378 141.434 144.532  1.00  0.00     0.000 C 
BRANCH   9  10
ATOM     10  C   UNL     1     144.629 142.853 145.075  1.00  0.00     0.000 C 
BRANCH  10  11
ATOM     11  C   UNL     1     144.105 144.001 144.188  1.00  0.00     0.000 C 
BRANCH  11  12
ATOM     12  C   UNL     1     142.893 144.767 144.755  1.00  0.00     0.006 C 
BRANCH  12  13
ATOM     13  C   UNL     1     143.222 146.173 145.280  1.00  0.00     0.053 C 
BRANCH  13  14
ATOM     14  C   UNL     1     142.081 147.123 145.083  1.00  0.00     0.041 C 
ATOM     15  O   UNL     1     142.267 148.366 145.167  1.00  0.00    -0.550 OA
ATOM     16  O   UNL     1     140.803 146.635 144.842  1.00  0.00    -0.550 OA
ENDBRANCH  13  14
ENDBRANCH  12  13
ENDBRANCH  11  12
ENDBRANCH  10  11
ENDBRANCH   9  10
ENDBRANCH   8   9
ENDBRANCH   7   8
ENDBRANCH   6   7
ENDBRANCH   5   6
ENDBRANCH   4   5
ENDBRANCH   3   4
ENDBRANCH   2   3
ENDBRANCH   1   2
BRANCH   1  17
ATOM     17  C   UNL     1     142.008 146.446 149.817  1.00  0.00     0.000 C 
BRANCH  17  18
ATOM     18  C   UNL     1     141.521 145.742 151.093  1.00  0.00     0.000 C 
BRANCH  18  19
ATOM     19  C   UNL     1     142.617 145.635 152.167  1.00  0.00     0.000 C 
BRANCH  19  20
ATOM     20  C   UNL     1     142.053 145.302 153.557  1.00  0.00     0.000 C 
BRANCH  20  21
ATOM     21  C   UNL     1     142.362 143.857 153.990  1.00  0.00     0.000 C 
BRANCH  21  22
ATOM     22  C   UNL     1     141.093 143.005 154.154  1.00  0.00    -0.000 C 
BRANCH  22  23
ATOM     23  C   UNL     1     141.057 141.806 153.194  1.00  0.00    -0.000 C 
BRANCH  23  24
ATOM     24  C   UNL     1     140.788 142.262 151.755  1.00  0.00    -0.000 C 
BRANCH  24  25
ATOM     25  C   UNL     1     141.826 141.674 150.788  1.00  0.00    -0.000 C 
BRANCH  25  26
ATOM     26  C   UNL     1     143.102 141.204 151.505  1.00  0.00    -0.000 C 
BRANCH  26  27
ATOM     27  C   UNL     1     144.385 141.653 150.784  1.00  0.00    -0.000 C 
BRANCH  27  28
ATOM     28  C   UNL     1     144.270 143.072 150.206  1.00  0.00    -0.000 C 
BRANCH  28  29
ATOM     29  C   UNL     1     144.892 143.191 148.807  1.00  0.00    -0.003 C 
ATOM     30  C   UNL     1     144.953 144.647 148.355  1.00  0.00     0.004 C 
ENDBRANCH  28  29
ENDBRANCH  27  28
ENDBRANCH  26  27
ENDBRANCH  25  26
ENDBRANCH  24  25
ENDBRANCH  23  24
ENDBRANCH  22  23
ENDBRANCH  21  22
ENDBRANCH  20  21
ENDBRANCH  19  20
ENDBRANCH  18  19
ENDBRANCH  17  18
ENDBRANCH   1  17
TORSDOF 26
ENDMDL
MODEL 9
REMARK VINA RESULT:    -2.489      3.488      7.376
REMARK INTER + INTRA:         -11.629
REMARK INTER:                  -6.431
REMARK INTRA:                  -5.197
REMARK UNBOUND:                -5.357
REMARK SMILES CCCCCCCCCCCCCCCCCCCCCCCCCCCC(=O)[O-]
REMARK SMILES IDX 15 1 16 2 17 3 18 4 19 5 20 6 21 7 22 8 23 9 24 10 25 11
REMARK SMILES IDX 26 12 27 13 28 14 29 15 30 16 14 17 13 18 12 19 11 20 10 21
REMARK SMILES IDX 9 22 8 23 7 24 6 25 5 26 4 27 3 28 2 29 1 30
REMARK H PARENT
REMARK Flexibility Score: inf
ROOT
ATOM      1  C   UNL     1     145.511 143.659 145.903  1.00  0.00     0.000 C 
ENDROOT
BRANCH   1   2
ATOM      2  C   UNL     1     145.144 143.064 147.270  1.00  0.00     0.000 C 
BRANCH   2   3
ATOM      3  C   UNL     1     145.823 141.708 147.536  1.00  0.00     0.000 C 
BRANCH   3   4
ATOM      4  C   UNL     1     144.858 140.513 147.683  1.00  0.00     0.000 C 
BRANCH   4   5
ATOM      5  C   UNL     1     144.392 139.883 146.356  1.00  0.00     0.000 C 
BRANCH   5   6
ATOM      6  C   UNL     1     142.872 139.944 146.108  1.00  0.00     0.000 C 
BRANCH   6   7
ATOM      7  C   UNL     1     142.407 141.078 145.172  1.00  0.00     0.000 C 
BRANCH   7   8
ATOM      8  C   UNL     1     141.795 142.303 145.877  1.00  0.00     0.000 C 
BRANCH   8   9
ATOM      9  C   UNL     1     141.005 141.931 147.142  1.00  0.00     0.000 C 
BRANCH   9  10
ATOM     10  C   UNL     1     141.632 142.502 148.428  1.00  0.00     0.000 C 
BRANCH  10  11
ATOM     11  C   UNL     1     141.751 141.508 149.600  1.00  0.00     0.000 C 
BRANCH  11  12
ATOM     12  C   UNL     1     142.522 142.031 150.829  1.00  0.00     0.006 C 
BRANCH  12  13
ATOM     13  C   UNL     1     141.648 142.752 151.866  1.00  0.00     0.053 C 
BRANCH  13  14
ATOM     14  C   UNL     1     141.870 142.220 153.249  1.00  0.00     0.041 C 
ATOM     15  O   UNL     1     142.329 141.059 153.416  1.00  0.00    -0.550 OA
ATOM     16  O   UNL     1     141.536 142.993 154.353  1.00  0.00    -0.550 OA
ENDBRANCH  13  14
ENDBRANCH  12  13
ENDBRANCH  11  12
ENDBRANCH  10  11
ENDBRANCH   9  10
ENDBRANCH   8   9
ENDBRANCH   7   8
ENDBRANCH   6   7
ENDBRANCH   5   6
ENDBRANCH   4   5
ENDBRANCH   3   4
ENDBRANCH   2   3
ENDBRANCH   1   2
BRANCH   1  17
ATOM     17  C   UNL     1     146.437 142.712 145.124  1.00  0.00     0.000 C 
BRANCH  17  18
ATOM     18  C   UNL     1     145.828 142.257 143.788  1.00  0.00     0.000 C 
BRANCH  18  19
ATOM     19  C   UNL     1     144.757 143.228 143.263  1.00  0.00     0.000 C 
BRANCH  19  20
ATOM     20  C   UNL     1     145.204 143.974 141.996  1.00  0.00     0.000 C 
BRANCH  20  21
ATOM     21  C   UNL     1     145.747 145.382 142.299  1.00  0.00     0.000 C 
BRANCH  21  22
ATOM     22  C   UNL     1     144.774 146.494 141.877  1.00  0.00    -0.000 C 
BRANCH  22  23
ATOM     23  C   UNL     1     144.214 147.278 143.074  1.00  0.00    -0.000 C 
BRANCH  23  24
ATOM     24  C   UNL     1     142.707 147.043 143.228  1.00  0.00    -0.000 C 
BRANCH  24  25
ATOM     25  C   UNL     1     142.425 145.885 144.196  1.00  0.00    -0.000 C 
BRANCH  25  26
ATOM     26  C   UNL     1     141.181 146.128 145.063  1.00  0.00    -0.000 C 
BRANCH  26  27
ATOM     27  C   UNL     1     141.533 146.510 146.511  1.00  0.00    -0.000 C 
BRANCH  27  28
ATOM     28  C   UNL     1     142.640 145.622 147.102  1.00  0.00    -0.000 C 
BRANCH  28  29
ATOM     29  C   UNL     1     143.395 146.307 148.251  1.00  0.00    -0.003 C 
ATOM     30  C   UNL     1     142.772 145.962 149.600  1.00  0.00     0.004 C 
ENDBRANCH  28  29
ENDBRANCH  27  28
ENDBRANCH  26  27
ENDBRANCH  25  26
ENDBRANCH  24  25
ENDBRANCH  23  24
ENDBRANCH  22  23
ENDBRANCH  21  22
ENDBRANCH  20  21
ENDBRANCH  19  20
ENDBRANCH  18  19
ENDBRANCH  17  18
ENDBRANCH   1  17
TORSDOF 26
ENDMDL
