MODEL 1
REMARK VINA RESULT:    -5.038      0.000      0.000
REMARK INTER + INTRA:         -11.036
REMARK INTER:                  -9.455
REMARK INTRA:                  -1.581
REMARK UNBOUND:                -1.581
REMARK SMILES O=C([O-])CCCCCCCCCCCCCCC(=O)[O-]
REMARK SMILES IDX 10 1 9 2 8 3 7 4 6 5 5 6 4 7 2 8 1 9 3 10 11 11 12 12 13 13
REMARK SMILES IDX 14 14 15 15 16 16 17 17 18 18 19 19 20 20
REMARK H PARENT
REMARK Flexibility Score: inf
ROOT
ATOM      1  C   UNL     1       4.284 -38.329  21.636  1.00  0.00     0.000 C 
ENDROOT
BRANCH   1   2
ATOM      2  C   UNL     1       5.290 -37.690  20.663  1.00  0.00     0.000 C 
BRANCH   2   3
ATOM      3  C   UNL     1       4.655 -37.327  19.310  1.00  0.00     0.000 C 
BRANCH   3   4
ATOM      4  C   UNL     1       3.135 -37.123  19.403  1.00  0.00     0.000 C 
BRANCH   4   5
ATOM      5  C   UNL     1       2.432 -37.667  18.153  1.00  0.00     0.000 C 
BRANCH   5   6
ATOM      6  C   UNL     1       2.040 -36.527  17.201  1.00  0.00     0.006 C 
BRANCH   6   7
ATOM      7  C   UNL     1       3.187 -36.137  16.259  1.00  0.00     0.053 C 
BRANCH   7   8
ATOM      8  C   UNL     1       3.064 -36.810  14.926  1.00  0.00     0.041 C 
ATOM      9  O   UNL     1       2.192 -36.428  14.102  1.00  0.00    -0.550 OA
ATOM     10  O   UNL     1       3.931 -37.839  14.582  1.00  0.00    -0.550 OA
ENDBRANCH   7   8
ENDBRANCH   6   7
ENDBRANCH   5   6
ENDBRANCH   4   5
ENDBRANCH   3   4
ENDBRANCH   2   3
ENDBRANCH   1   2
BRANCH   1  11
ATOM     11  C   UNL     1       4.920 -39.428  22.502  1.00  0.00     0.000 C 
BRANCH  11  12
ATOM     12  C   UNL     1       4.955 -39.061  23.996  1.00  0.00     0.000 C 
BRANCH  12  13
ATOM     13  C   UNL     1       4.287 -37.707  24.290  1.00  0.00     0.000 C 
BRANCH  13  14
ATOM     14  C   UNL     1       5.251 -36.706  24.950  1.00  0.00     0.000 C 
BRANCH  14  15
ATOM     15  C   UNL     1       6.011 -35.852  23.921  1.00  0.00     0.000 C 
BRANCH  15  16
ATOM     16  C   UNL     1       5.108 -34.830  23.214  1.00  0.00     0.006 C 
BRANCH  16  17
ATOM     17  C   UNL     1       5.670 -34.464  21.836  1.00  0.00     0.053 C 
BRANCH  17  18
ATOM     18  C   UNL     1       4.595 -33.896  20.965  1.00  0.00     0.041 C 
ATOM     19  O   UNL     1       3.518 -33.490  21.472  1.00  0.00    -0.550 OA
ATOM     20  O   UNL     1       4.765 -33.859  19.587  1.00  0.00    -0.550 OA
ENDBRANCH  17  18
ENDBRANCH  16  17
ENDBRANCH  15  16
ENDBRANCH  14  15
ENDBRANCH  13  14
ENDBRANCH  12  13
ENDBRANCH  11  12
ENDBRANCH   1  11
TORSDOF 15
ENDMDL
MODEL 2
REMARK VINA RESULT:    -5.029      2.072      6.542
REMARK INTER + INTRA:         -11.020
REMARK INTER:                 -10.117
REMARK INTRA:                  -0.903
REMARK UNBOUND:                -1.581
REMARK SMILES O=C([O-])CCCCCCCCCCCCCCC(=O)[O-]
REMARK SMILES IDX 10 1 9 2 8 3 7 4 6 5 5 6 4 7 2 8 1 9 3 10 11 11 12 12 13 13
REMARK SMILES IDX 14 14 15 15 16 16 17 17 18 18 19 19 20 20
REMARK H PARENT
REMARK Flexibility Score: inf
ROOT
ATOM      1  C   UNL     1       5.189 -33.440  22.740  1.00  0.00     0.000 C 
ENDROOT
BRANCH   1   2
ATOM      2  C   UNL     1       6.096 -34.148  23.762  1.00  0.00     0.000 C 
BRANCH   2   3
ATOM      3  C   UNL     1       6.124 -35.674  23.568  1.00  0.00     0.000 C 
BRANCH   3   4
ATOM      4  C   UNL     1       5.852 -36.443  24.870  1.00  0.00     0.000 C 
BRANCH   4   5
ATOM      5  C   UNL     1       4.538 -37.228  24.779  1.00  0.00     0.000 C 
BRANCH   5   6
ATOM      6  C   UNL     1       4.771 -38.627  24.189  1.00  0.00     0.006 C 
BRANCH   6   7
ATOM      7  C   UNL     1       4.251 -38.745  22.750  1.00  0.00     0.053 C 
BRANCH   7   8
ATOM      8  C   UNL     1       5.340 -39.132  21.796  1.00  0.00     0.041 C 
ATOM      9  O   UNL     1       5.853 -40.279  21.853  1.00  0.00    -0.550 OA
ATOM     10  O   UNL     1       5.766 -38.235  20.825  1.00  0.00    -0.550 OA
ENDBRANCH   7   8
ENDBRANCH   6   7
ENDBRANCH   5   6
ENDBRANCH   4   5
ENDBRANCH   3   4
ENDBRANCH   2   3
ENDBRANCH   1   2
BRANCH   1  11
ATOM     11  C   UNL     1       4.611 -34.408  21.696  1.00  0.00     0.000 C 
BRANCH  11  12
ATOM     12  C   UNL     1       5.509 -34.543  20.452  1.00  0.00     0.000 C 
BRANCH  12  13
ATOM     13  C   UNL     1       4.743 -35.056  19.221  1.00  0.00     0.000 C 
BRANCH  13  14
ATOM     14  C   UNL     1       3.689 -36.117  19.582  1.00  0.00     0.000 C 
BRANCH  14  15
ATOM     15  C   UNL     1       3.545 -37.199  18.499  1.00  0.00     0.000 C 
BRANCH  15  16
ATOM     16  C   UNL     1       2.512 -36.828  17.424  1.00  0.00     0.006 C 
BRANCH  16  17
ATOM     17  C   UNL     1       3.161 -36.013  16.300  1.00  0.00     0.053 C 
BRANCH  17  18
ATOM     18  C   UNL     1       2.989 -36.705  14.984  1.00  0.00     0.041 C 
ATOM     19  O   UNL     1       3.830 -37.559  14.603  1.00  0.00    -0.550 OA
ATOM     20  O   UNL     1       1.924 -36.371  14.157  1.00  0.00    -0.550 OA
ENDBRANCH  17  18
ENDBRANCH  16  17
ENDBRANCH  15  16
ENDBRANCH  14  15
ENDBRANCH  13  14
ENDBRANCH  12  13
ENDBRANCH  11  12
ENDBRANCH   1  11
TORSDOF 15
ENDMDL
MODEL 3
REMARK VINA RESULT:    -4.952      0.854      5.944
REMARK INTER + INTRA:         -10.876
REMARK INTER:                  -9.548
REMARK INTRA:                  -1.328
REMARK UNBOUND:                -1.581
REMARK SMILES O=C([O-])CCCCCCCCCCCCCCC(=O)[O-]
REMARK SMILES IDX 10 1 9 2 8 3 7 4 6 5 5 6 4 7 2 8 1 9 3 10 11 11 12 12 13 13
REMARK SMILES IDX 14 14 15 15 16 16 17 17 18 18 19 19 20 20
REMARK H PARENT
REMARK Flexibility Score: inf
ROOT
ATOM      1  C   UNL     1       4.271 -37.758  23.960  1.00  0.00     0.000 C 
ENDROOT
BRANCH   1   2
ATOM      2  C   UNL     1       4.629 -37.469  25.429  1.00  0.00     0.000 C 
BRANCH   2   3
ATOM      3  C   UNL     1       5.762 -36.439  25.568  1.00  0.00     0.000 C 
BRANCH   3   4
ATOM      4  C   UNL     1       6.125 -35.770  24.234  1.00  0.00     0.000 C 
BRANCH   4   5
ATOM      5  C   UNL     1       6.104 -34.242  24.364  1.00  0.00     0.000 C 
BRANCH   5   6
ATOM      6  C   UNL     1       5.756 -33.579  23.023  1.00  0.00     0.006 C 
BRANCH   6   7
ATOM      7  C   UNL     1       4.548 -34.238  22.345  1.00  0.00     0.053 C 
BRANCH   7   8
ATOM      8  C   UNL     1       4.164 -33.529  21.082  1.00  0.00     0.041 C 
ATOM      9  O   UNL     1       4.743 -33.807  20.000  1.00  0.00    -0.550 OA
ATOM     10  O   UNL     1       3.147 -32.583  21.095  1.00  0.00    -0.550 OA
ENDBRANCH   7   8
ENDBRANCH   6   7
ENDBRANCH   5   6
ENDBRANCH   4   5
ENDBRANCH   3   4
ENDBRANCH   2   3
ENDBRANCH   1   2
BRANCH   1  11
ATOM     11  C   UNL     1       4.820 -39.110  23.477  1.00  0.00     0.000 C 
BRANCH  11  12
ATOM     12  C   UNL     1       5.177 -39.104  21.980  1.00  0.00     0.000 C 
BRANCH  12  13
ATOM     13  C   UNL     1       4.860 -37.762  21.299  1.00  0.00     0.000 C 
BRANCH  13  14
ATOM     14  C   UNL     1       4.416 -37.933  19.836  1.00  0.00     0.000 C 
BRANCH  14  15
ATOM     15  C   UNL     1       3.495 -36.797  19.362  1.00  0.00     0.000 C 
BRANCH  15  16
ATOM     16  C   UNL     1       2.779 -37.124  18.043  1.00  0.00     0.006 C 
BRANCH  16  17
ATOM     17  C   UNL     1       3.149 -36.112  16.953  1.00  0.00     0.053 C 
BRANCH  17  18
ATOM     18  C   UNL     1       3.030 -36.734  15.597  1.00  0.00     0.041 C 
ATOM     19  O   UNL     1       2.328 -36.185  14.708  1.00  0.00    -0.550 OA
ATOM     20  O   UNL     1       3.654 -37.945  15.331  1.00  0.00    -0.550 OA
ENDBRANCH  17  18
ENDBRANCH  16  17
ENDBRANCH  15  16
ENDBRANCH  14  15
ENDBRANCH  13  14
ENDBRANCH  12  13
ENDBRANCH  11  12
ENDBRANCH   1  11
TORSDOF 15
ENDMDL
MODEL 4
REMARK VINA RESULT:    -4.945      2.213      3.788
REMARK INTER + INTRA:         -10.862
REMARK INTER:                  -9.507
REMARK INTRA:                  -1.355
REMARK UNBOUND:                -1.581
REMARK SMILES O=C([O-])CCCCCCCCCCCCCCC(=O)[O-]
REMARK SMILES IDX 10 1 9 2 8 3 7 4 6 5 5 6 4 7 2 8 1 9 3 10 11 11 12 12 13 13
REMARK SMILES IDX 14 14 15 15 16 16 17 17 18 18 19 19 20 20
REMARK H PARENT
REMARK Flexibility Score: inf
ROOT
ATOM      1  C   UNL     1       4.904 -33.462  22.459  1.00  0.00     0.000 C 
ENDROOT
BRANCH   1   2
ATOM      2  C   UNL     1       4.099 -34.005  21.265  1.00  0.00     0.000 C 
BRANCH   2   3
ATOM      3  C   UNL     1       4.905 -34.998  20.412  1.00  0.00     0.000 C 
BRANCH   3   4
ATOM      4  C   UNL     1       5.200 -34.468  19.001  1.00  0.00     0.000 C 
BRANCH   4   5
ATOM      5  C   UNL     1       4.378 -35.224  17.949  1.00  0.00     0.000 C 
BRANCH   5   6
ATOM      6  C   UNL     1       3.515 -36.313  18.602  1.00  0.00     0.006 C 
BRANCH   6   7
ATOM      7  C   UNL     1       3.120 -37.415  17.610  1.00  0.00     0.053 C 
BRANCH   7   8
ATOM      8  C   UNL     1       2.763 -36.852  16.268  1.00  0.00     0.041 C 
ATOM      9  O   UNL     1       3.473 -37.114  15.263  1.00  0.00    -0.550 OA
ATOM     10  O   UNL     1       1.629 -36.063  16.123  1.00  0.00    -0.550 OA
ENDBRANCH   7   8
ENDBRANCH   6   7
ENDBRANCH   5   6
ENDBRANCH   4   5
ENDBRANCH   3   4
ENDBRANCH   2   3
ENDBRANCH   1   2
BRANCH   1  11
ATOM     11  C   UNL     1       6.023 -34.419  22.897  1.00  0.00     0.000 C 
BRANCH  11  12
ATOM     12  C   UNL     1       6.125 -34.552  24.427  1.00  0.00     0.000 C 
BRANCH  12  13
ATOM     13  C   UNL     1       5.982 -36.006  24.907  1.00  0.00     0.000 C 
BRANCH  13  14
ATOM     14  C   UNL     1       4.646 -36.638  24.480  1.00  0.00     0.000 C 
BRANCH  14  15
ATOM     15  C   UNL     1       4.581 -38.144  24.784  1.00  0.00     0.000 C 
BRANCH  15  16
ATOM     16  C   UNL     1       4.692 -39.010  23.520  1.00  0.00     0.006 C 
BRANCH  16  17
ATOM     17  C   UNL     1       5.018 -38.150  22.294  1.00  0.00     0.053 C 
BRANCH  17  18
ATOM     18  C   UNL     1       5.609 -38.990  21.206  1.00  0.00     0.041 C 
ATOM     19  O   UNL     1       5.991 -40.164  21.449  1.00  0.00    -0.550 OA
ATOM     20  O   UNL     1       5.782 -38.459  19.935  1.00  0.00    -0.550 OA
ENDBRANCH  17  18
ENDBRANCH  16  17
ENDBRANCH  15  16
ENDBRANCH  14  15
ENDBRANCH  13  14
ENDBRANCH  12  13
ENDBRANCH  11  12
ENDBRANCH   1  11
TORSDOF 15
ENDMDL
MODEL 5
REMARK VINA RESULT:    -4.521      2.014      6.903
REMARK INTER + INTRA:         -10.067
REMARK INTER:                  -8.958
REMARK INTRA:                  -1.109
REMARK UNBOUND:                -1.581
REMARK SMILES O=C([O-])CCCCCCCCCCCCCCC(=O)[O-]
REMARK SMILES IDX 10 1 9 2 8 3 7 4 6 5 5 6 4 7 2 8 1 9 3 10 11 11 12 12 13 13
REMARK SMILES IDX 14 14 15 15 16 16 17 17 18 18 19 19 20 20
REMARK H PARENT
REMARK Flexibility Score: inf
ROOT
ATOM      1  C   UNL     1       5.237 -35.086  21.561  1.00  0.00     0.000 C 
ENDROOT
BRANCH   1   2
ATOM      2  C   UNL     1       5.569 -33.894  22.475  1.00  0.00     0.000 C 
BRANCH   2   3
ATOM      3  C   UNL     1       5.775 -34.313  23.940  1.00  0.00     0.000 C 
BRANCH   3   4
ATOM      4  C   UNL     1       6.118 -35.803  24.089  1.00  0.00     0.000 C 
BRANCH   4   5
ATOM      5  C   UNL     1       5.157 -36.491  25.067  1.00  0.00     0.000 C 
BRANCH   5   6
ATOM      6  C   UNL     1       4.479 -37.703  24.411  1.00  0.00     0.006 C 
BRANCH   6   7
ATOM      7  C   UNL     1       5.465 -38.552  23.598  1.00  0.00     0.053 C 
BRANCH   7   8
ATOM      8  C   UNL     1       4.953 -38.825  22.216  1.00  0.00     0.041 C 
ATOM      9  O   UNL     1       3.721 -38.750  21.971  1.00  0.00    -0.550 OA
ATOM     10  O   UNL     1       5.841 -39.134  21.193  1.00  0.00    -0.550 OA
ENDBRANCH   7   8
ENDBRANCH   6   7
ENDBRANCH   5   6
ENDBRANCH   4   5
ENDBRANCH   3   4
ENDBRANCH   2   3
ENDBRANCH   1   2
BRANCH   1  11
ATOM     11  C   UNL     1       5.722 -34.873  20.118  1.00  0.00     0.000 C 
BRANCH  11  12
ATOM     12  C   UNL     1       4.665 -35.271  19.072  1.00  0.00     0.000 C 
BRANCH  12  13
ATOM     13  C   UNL     1       4.142 -36.703  19.273  1.00  0.00     0.000 C 
BRANCH  13  14
ATOM     14  C   UNL     1       3.170 -37.137  18.162  1.00  0.00     0.000 C 
BRANCH  14  15
ATOM     15  C   UNL     1       3.117 -36.133  16.998  1.00  0.00     0.000 C 
BRANCH  15  16
ATOM     16  C   UNL     1       1.937 -36.386  16.048  1.00  0.00     0.006 C 
BRANCH  16  17
ATOM     17  C   UNL     1       2.405 -36.414  14.589  1.00  0.00     0.053 C 
BRANCH  17  18
ATOM     18  C   UNL     1       3.640 -37.246  14.450  1.00  0.00     0.041 C 
ATOM     19  O   UNL     1       4.660 -36.775  13.883  1.00  0.00    -0.550 OA
ATOM     20  O   UNL     1       3.649 -38.558  14.904  1.00  0.00    -0.550 OA
ENDBRANCH  17  18
ENDBRANCH  16  17
ENDBRANCH  15  16
ENDBRANCH  14  15
ENDBRANCH  13  14
ENDBRANCH  12  13
ENDBRANCH  11  12
ENDBRANCH   1  11
TORSDOF 15
ENDMDL
MODEL 6
REMARK VINA RESULT:    -4.340      1.933      5.766
REMARK INTER + INTRA:          -9.727
REMARK INTER:                  -8.270
REMARK INTRA:                  -1.456
REMARK UNBOUND:                -1.581
REMARK SMILES O=C([O-])CCCCCCCCCCCCCCC(=O)[O-]
REMARK SMILES IDX 10 1 9 2 8 3 7 4 6 5 5 6 4 7 2 8 1 9 3 10 11 11 12 12 13 13
REMARK SMILES IDX 14 14 15 15 16 16 17 17 18 18 19 19 20 20
REMARK H PARENT
REMARK Flexibility Score: inf
ROOT
ATOM      1  C   UNL     1       6.080 -35.059  23.425  1.00  0.00     0.000 C 
ENDROOT
BRANCH   1   2
ATOM      2  C   UNL     1       6.120 -35.340  24.937  1.00  0.00     0.000 C 
BRANCH   2   3
ATOM      3  C   UNL     1       5.268 -36.558  25.334  1.00  0.00     0.000 C 
BRANCH   3   4
ATOM      4  C   UNL     1       4.530 -37.181  24.140  1.00  0.00     0.000 C 
BRANCH   4   5
ATOM      5  C   UNL     1       4.590 -38.713  24.197  1.00  0.00     0.000 C 
BRANCH   5   6
ATOM      6  C   UNL     1       4.936 -39.303  22.822  1.00  0.00     0.006 C 
BRANCH   6   7
ATOM      7  C   UNL     1       5.569 -38.264  21.886  1.00  0.00     0.053 C 
BRANCH   7   8
ATOM      8  C   UNL     1       4.813 -38.144  20.598  1.00  0.00     0.041 C 
ATOM      9  O   UNL     1       5.400 -38.331  19.500  1.00  0.00    -0.550 OA
ATOM     10  O   UNL     1       3.455 -37.856  20.611  1.00  0.00    -0.550 OA
ENDBRANCH   7   8
ENDBRANCH   6   7
ENDBRANCH   5   6
ENDBRANCH   4   5
ENDBRANCH   3   4
ENDBRANCH   2   3
ENDBRANCH   1   2
BRANCH   1  11
ATOM     11  C   UNL     1       5.687 -33.607  23.107  1.00  0.00     0.000 C 
BRANCH  11  12
ATOM     12  C   UNL     1       4.483 -33.513  22.153  1.00  0.00     0.000 C 
BRANCH  12  13
ATOM     13  C   UNL     1       4.503 -34.598  21.063  1.00  0.00     0.000 C 
BRANCH  13  14
ATOM     14  C   UNL     1       5.602 -34.359  20.014  1.00  0.00     0.000 C 
BRANCH  14  15
ATOM     15  C   UNL     1       5.063 -34.392  18.575  1.00  0.00     0.000 C 
BRANCH  15  16
ATOM     16  C   UNL     1       4.011 -35.491  18.360  1.00  0.00     0.006 C 
BRANCH  16  17
ATOM     17  C   UNL     1       3.486 -35.473  16.920  1.00  0.00     0.053 C 
BRANCH  17  18
ATOM     18  C   UNL     1       3.030 -36.838  16.512  1.00  0.00     0.041 C 
ATOM     19  O   UNL     1       3.006 -37.160  15.295  1.00  0.00    -0.550 OA
ATOM     20  O   UNL     1       2.585 -37.738  17.471  1.00  0.00    -0.550 OA
ENDBRANCH  17  18
ENDBRANCH  16  17
ENDBRANCH  15  16
ENDBRANCH  14  15
ENDBRANCH  13  14
ENDBRANCH  12  13
ENDBRANCH  11  12
ENDBRANCH   1  11
TORSDOF 15
ENDMDL
MODEL 7
REMARK VINA RESULT:    -4.198      2.896      6.252
REMARK INTER + INTRA:          -9.460
REMARK INTER:                  -7.615
REMARK INTRA:                  -1.845
REMARK UNBOUND:                -1.581
REMARK SMILES O=C([O-])CCCCCCCCCCCCCCC(=O)[O-]
REMARK SMILES IDX 10 1 9 2 8 3 7 4 6 5 5 6 4 7 2 8 1 9 3 10 11 11 12 12 13 13
REMARK SMILES IDX 14 14 15 15 16 16 17 17 18 18 19 19 20 20
REMARK H PARENT
REMARK Flexibility Score: inf
ROOT
ATOM      1  C   UNL     1       1.941 -37.556  18.600  1.00  0.00     0.000 C 
ENDROOT
BRANCH   1   2
ATOM      2  C   UNL     1       2.793 -37.611  19.880  1.00  0.00     0.000 C 
BRANCH   2   3
ATOM      3  C   UNL     1       4.271 -37.924  19.592  1.00  0.00     0.000 C 
BRANCH   3   4
ATOM      4  C   UNL     1       5.084 -38.180  20.870  1.00  0.00     0.000 C 
BRANCH   4   5
ATOM      5  C   UNL     1       4.192 -38.743  21.984  1.00  0.00     0.000 C 
BRANCH   5   6
ATOM      6  C   UNL     1       4.821 -38.512  23.365  1.00  0.00     0.006 C 
BRANCH   6   7
ATOM      7  C   UNL     1       5.489 -37.135  23.476  1.00  0.00     0.053 C 
BRANCH   7   8
ATOM      8  C   UNL     1       5.252 -36.509  24.817  1.00  0.00     0.041 C 
ATOM      9  O   UNL     1       5.767 -35.395  25.096  1.00  0.00    -0.550 OA
ATOM     10  O   UNL     1       4.436 -37.142  25.747  1.00  0.00    -0.550 OA
ENDBRANCH   7   8
ENDBRANCH   6   7
ENDBRANCH   5   6
ENDBRANCH   4   5
ENDBRANCH   3   4
ENDBRANCH   2   3
ENDBRANCH   1   2
BRANCH   1  11
ATOM     11  C   UNL     1       2.797 -37.452  17.328  1.00  0.00     0.000 C 
BRANCH  11  12
ATOM     12  C   UNL     1       2.864 -36.019  16.772  1.00  0.00     0.000 C 
BRANCH  12  13
ATOM     13  C   UNL     1       4.227 -35.351  17.016  1.00  0.00     0.000 C 
BRANCH  13  14
ATOM     14  C   UNL     1       4.257 -34.528  18.316  1.00  0.00     0.000 C 
BRANCH  14  15
ATOM     15  C   UNL     1       5.687 -34.230  18.794  1.00  0.00     0.000 C 
BRANCH  15  16
ATOM     16  C   UNL     1       5.915 -34.617  20.263  1.00  0.00     0.006 C 
BRANCH  16  17
ATOM     17  C   UNL     1       4.581 -34.768  21.002  1.00  0.00     0.053 C 
BRANCH  17  18
ATOM     18  C   UNL     1       4.257 -33.519  21.759  1.00  0.00     0.041 C 
ATOM     19  O   UNL     1       3.302 -32.785  21.390  1.00  0.00    -0.550 OA
ATOM     20  O   UNL     1       5.039 -33.139  22.842  1.00  0.00    -0.550 OA
ENDBRANCH  17  18
ENDBRANCH  16  17
ENDBRANCH  15  16
ENDBRANCH  14  15
ENDBRANCH  13  14
ENDBRANCH  12  13
ENDBRANCH  11  12
ENDBRANCH   1  11
TORSDOF 15
ENDMDL
MODEL 8
REMARK VINA RESULT:    -4.096      1.073      2.067
REMARK INTER + INTRA:          -9.269
REMARK INTER:                  -8.796
REMARK INTRA:                  -0.472
REMARK UNBOUND:                -1.581
REMARK SMILES O=C([O-])CCCCCCCCCCCCCCC(=O)[O-]
REMARK SMILES IDX 10 1 9 2 8 3 7 4 6 5 5 6 4 7 2 8 1 9 3 10 11 11 12 12 13 13
REMARK SMILES IDX 14 14 15 15 16 16 17 17 18 18 19 19 20 20
REMARK H PARENT
REMARK Flexibility Score: inf
ROOT
ATOM      1  C   UNL     1       4.346 -38.254  23.416  1.00  0.00     0.000 C 
ENDROOT
BRANCH   1   2
ATOM      2  C   UNL     1       4.608 -37.546  22.075  1.00  0.00     0.000 C 
BRANCH   2   3
ATOM      3  C   UNL     1       4.494 -38.497  20.873  1.00  0.00     0.000 C 
BRANCH   3   4
ATOM      4  C   UNL     1       4.550 -37.761  19.525  1.00  0.00     0.000 C 
BRANCH   4   5
ATOM      5  C   UNL     1       3.156 -37.274  19.109  1.00  0.00     0.000 C 
BRANCH   5   6
ATOM      6  C   UNL     1       2.862 -37.633  17.645  1.00  0.00     0.006 C 
BRANCH   6   7
ATOM      7  C   UNL     1       3.058 -36.438  16.702  1.00  0.00     0.053 C 
BRANCH   7   8
ATOM      8  C   UNL     1       3.149 -36.870  15.270  1.00  0.00     0.041 C 
ATOM      9  O   UNL     1       3.576 -38.018  14.982  1.00  0.00    -0.550 OA
ATOM     10  O   UNL     1       2.736 -36.015  14.257  1.00  0.00    -0.550 OA
ENDBRANCH   7   8
ENDBRANCH   6   7
ENDBRANCH   5   6
ENDBRANCH   4   5
ENDBRANCH   3   4
ENDBRANCH   2   3
ENDBRANCH   1   2
BRANCH   1  11
ATOM     11  C   UNL     1       4.887 -37.460  24.616  1.00  0.00     0.000 C 
BRANCH  11  12
ATOM     12  C   UNL     1       6.071 -36.552  24.241  1.00  0.00     0.000 C 
BRANCH  12  13
ATOM     13  C   UNL     1       6.125 -35.268  25.086  1.00  0.00     0.000 C 
BRANCH  13  14
ATOM     14  C   UNL     1       6.073 -33.994  24.225  1.00  0.00     0.000 C 
BRANCH  14  15
ATOM     15  C   UNL     1       5.794 -34.293  22.743  1.00  0.00     0.000 C 
BRANCH  15  16
ATOM     16  C   UNL     1       4.492 -33.650  22.242  1.00  0.00     0.006 C 
BRANCH  16  17
ATOM     17  C   UNL     1       4.011 -34.323  20.951  1.00  0.00     0.053 C 
BRANCH  17  18
ATOM     18  C   UNL     1       5.120 -34.388  19.949  1.00  0.00     0.041 C 
ATOM     19  O   UNL     1       5.124 -33.613  18.957  1.00  0.00    -0.550 OA
ATOM     20  O   UNL     1       6.125 -35.337  20.085  1.00  0.00    -0.550 OA
ENDBRANCH  17  18
ENDBRANCH  16  17
ENDBRANCH  15  16
ENDBRANCH  14  15
ENDBRANCH  13  14
ENDBRANCH  12  13
ENDBRANCH  11  12
ENDBRANCH   1  11
TORSDOF 15
ENDMDL
MODEL 9
REMARK VINA RESULT:    -3.614      2.071      3.549
REMARK INTER + INTRA:          -8.364
REMARK INTER:                  -7.344
REMARK INTRA:                  -1.020
REMARK UNBOUND:                -1.581
REMARK SMILES O=C([O-])CCCCCCCCCCCCCCC(=O)[O-]
REMARK SMILES IDX 10 1 9 2 8 3 7 4 6 5 5 6 4 7 2 8 1 9 3 10 11 11 12 12 13 13
REMARK SMILES IDX 14 14 15 15 16 16 17 17 18 18 19 19 20 20
REMARK H PARENT
REMARK Flexibility Score: inf
ROOT
ATOM      1  C   UNL     1       4.559 -34.153  21.107  1.00  0.00     0.000 C 
ENDROOT
BRANCH   1   2
ATOM      2  C   UNL     1       5.751 -34.893  20.473  1.00  0.00     0.000 C 
BRANCH   2   3
ATOM      3  C   UNL     1       5.309 -35.989  19.489  1.00  0.00     0.000 C 
BRANCH   3   4
ATOM      4  C   UNL     1       3.875 -35.784  18.976  1.00  0.00     0.000 C 
BRANCH   4   5
ATOM      5  C   UNL     1       3.239 -37.123  18.582  1.00  0.00     0.000 C 
BRANCH   5   6
ATOM      6  C   UNL     1       2.375 -36.973  17.321  1.00  0.00     0.006 C 
BRANCH   6   7
ATOM      7  C   UNL     1       3.053 -36.105  16.252  1.00  0.00     0.053 C 
BRANCH   7   8
ATOM      8  C   UNL     1       2.961 -36.727  14.892  1.00  0.00     0.041 C 
ATOM      9  O   UNL     1       2.013 -36.425  14.121  1.00  0.00    -0.550 OA
ATOM     10  O   UNL     1       3.939 -37.616  14.465  1.00  0.00    -0.550 OA
ENDBRANCH   7   8
ENDBRANCH   6   7
ENDBRANCH   5   6
ENDBRANCH   4   5
ENDBRANCH   3   4
ENDBRANCH   2   3
ENDBRANCH   1   2
BRANCH   1  11
ATOM     11  C   UNL     1       4.887 -33.598  22.503  1.00  0.00     0.000 C 
BRANCH  11  12
ATOM     12  C   UNL     1       6.125 -34.263  23.130  1.00  0.00     0.000 C 
BRANCH  12  13
ATOM     13  C   UNL     1       6.026 -34.376  24.661  1.00  0.00     0.000 C 
BRANCH  13  14
ATOM     14  C   UNL     1       5.478 -35.740  25.117  1.00  0.00     0.000 C 
BRANCH  14  15
ATOM     15  C   UNL     1       5.411 -36.763  23.971  1.00  0.00     0.000 C 
BRANCH  15  16
ATOM     16  C   UNL     1       4.454 -37.926  24.269  1.00  0.00     0.006 C 
BRANCH  16  17
ATOM     17  C   UNL     1       5.040 -39.256  23.783  1.00  0.00     0.053 C 
BRANCH  17  18
ATOM     18  C   UNL     1       5.045 -39.312  22.288  1.00  0.00     0.041 C 
ATOM     19  O   UNL     1       5.896 -40.015  21.683  1.00  0.00    -0.550 OA
ATOM     20  O   UNL     1       4.140 -38.550  21.561  1.00  0.00    -0.550 OA
ENDBRANCH  17  18
ENDBRANCH  16  17
ENDBRANCH  15  16
ENDBRANCH  14  15
ENDBRANCH  13  14
ENDBRANCH  12  13
ENDBRANCH  11  12
ENDBRANCH   1  11
TORSDOF 15
ENDMDL
