MODEL 1
REMARK VINA RESULT:    -4.034      0.000      0.000
REMARK INTER + INTRA:          -7.723
REMARK INTER:                  -6.392
REMARK INTRA:                  -1.332
REMARK UNBOUND:                -1.332
REMARK SMILES CCCCCCCCCCCC(=O)[O-]
REMARK SMILES IDX 7 1 8 2 9 3 10 4 11 5 12 6 13 7 14 8 6 9 5 10 4 11 3 12 2 13
REMARK SMILES IDX 1 14
REMARK H PARENT
REMARK Flexibility Score: inf
ROOT
ATOM      1  C   UNL     1     113.500 110.047 121.031  1.00  0.00     0.000 C 
ENDROOT
BRANCH   1   2
ATOM      2  C   UNL     1     112.087 109.961 121.621  1.00  0.00     0.000 C 
BRANCH   2   3
ATOM      3  C   UNL     1     111.818 111.128 122.579  1.00  0.00     0.000 C 
BRANCH   3   4
ATOM      4  C   UNL     1     111.990 112.477 121.864  1.00  0.00     0.006 C 
BRANCH   4   5
ATOM      5  C   UNL     1     110.685 112.962 121.219  1.00  0.00     0.053 C 
BRANCH   5   6
ATOM      6  C   UNL     1     110.651 112.677 119.748  1.00  0.00     0.041 C 
ATOM      7  O   UNL     1     109.549 112.589 119.146  1.00  0.00    -0.550 OA
ATOM      8  O   UNL     1     111.837 112.544 119.038  1.00  0.00    -0.550 OA
ENDBRANCH   5   6
ENDBRANCH   4   5
ENDBRANCH   3   4
ENDBRANCH   2   3
ENDBRANCH   1   2
BRANCH   1   9
ATOM      9  C   UNL     1     114.492 109.213 121.852  1.00  0.00     0.000 C 
BRANCH   9  10
ATOM     10  C   UNL     1     115.790 109.993 122.103  1.00  0.00    -0.000 C 
BRANCH  10  11
ATOM     11  C   UNL     1     115.549 111.329 122.823  1.00  0.00    -0.000 C 
BRANCH  11  12
ATOM     12  C   UNL     1     116.306 112.497 122.175  1.00  0.00    -0.000 C 
BRANCH  12  13
ATOM     13  C   UNL     1     115.372 113.335 121.294  1.00  0.00    -0.003 C 
ATOM     14  C   UNL     1     115.515 112.959 119.823  1.00  0.00     0.004 C 
ENDBRANCH  12  13
ENDBRANCH  11  12
ENDBRANCH  10  11
ENDBRANCH   9  10
ENDBRANCH   1   9
TORSDOF 10
ENDMDL
MODEL 2
REMARK VINA RESULT:    -3.942      1.483      4.131
REMARK INTER + INTRA:          -7.577
REMARK INTER:                  -6.291
REMARK INTRA:                  -1.287
REMARK UNBOUND:                -1.332
REMARK SMILES CCCCCCCCCCCC(=O)[O-]
REMARK SMILES IDX 7 1 8 2 9 3 10 4 11 5 12 6 13 7 14 8 6 9 5 10 4 11 3 12 2 13
REMARK SMILES IDX 1 14
REMARK H PARENT
REMARK Flexibility Score: inf
ROOT
ATOM      1  C   UNL     1     114.487 109.290 121.627  1.00  0.00     0.000 C 
ENDROOT
BRANCH   1   2
ATOM      2  C   UNL     1     115.737 110.178 121.585  1.00  0.00     0.000 C 
BRANCH   2   3
ATOM      3  C   UNL     1     115.718 111.211 122.717  1.00  0.00     0.000 C 
BRANCH   3   4
ATOM      4  C   UNL     1     115.799 112.640 122.160  1.00  0.00     0.006 C 
BRANCH   4   5
ATOM      5  C   UNL     1     116.145 112.661 120.665  1.00  0.00     0.053 C 
BRANCH   5   6
ATOM      6  C   UNL     1     115.256 113.594 119.901  1.00  0.00     0.041 C 
ATOM      7  O   UNL     1     115.468 114.835 119.928  1.00  0.00    -0.550 OA
ATOM      8  O   UNL     1     114.216 113.090 119.132  1.00  0.00    -0.550 OA
ENDBRANCH   5   6
ENDBRANCH   4   5
ENDBRANCH   3   4
ENDBRANCH   2   3
ENDBRANCH   1   2
BRANCH   1   9
ATOM      9  C   UNL     1     113.318 109.951 120.888  1.00  0.00     0.000 C 
BRANCH   9  10
ATOM     10  C   UNL     1     112.032 109.890 121.726  1.00  0.00    -0.000 C 
BRANCH  10  11
ATOM     11  C   UNL     1     111.821 111.150 122.581  1.00  0.00    -0.000 C 
BRANCH  11  12
ATOM     12  C   UNL     1     112.126 112.444 121.813  1.00  0.00    -0.000 C 
BRANCH  12  13
ATOM     13  C   UNL     1     110.835 113.101 121.311  1.00  0.00    -0.003 C 
ATOM     14  C   UNL     1     110.482 112.622 119.907  1.00  0.00     0.004 C 
ENDBRANCH  12  13
ENDBRANCH  11  12
ENDBRANCH  10  11
ENDBRANCH   9  10
ENDBRANCH   1   9
TORSDOF 10
ENDMDL
MODEL 3
REMARK VINA RESULT:    -3.863      2.676      5.157
REMARK INTER + INTRA:          -7.453
REMARK INTER:                  -6.251
REMARK INTRA:                  -1.202
REMARK UNBOUND:                -1.332
REMARK SMILES CCCCCCCCCCCC(=O)[O-]
REMARK SMILES IDX 7 1 8 2 9 3 10 4 11 5 12 6 13 7 14 8 6 9 5 10 4 11 3 12 2 13
REMARK SMILES IDX 1 14
REMARK H PARENT
REMARK Flexibility Score: inf
ROOT
ATOM      1  C   UNL     1     112.349 109.953 122.004  1.00  0.00     0.000 C 
ENDROOT
BRANCH   1   2
ATOM      2  C   UNL     1     113.670 110.444 121.400  1.00  0.00     0.000 C 
BRANCH   2   3
ATOM      3  C   UNL     1     114.771 109.388 121.550  1.00  0.00     0.000 C 
BRANCH   3   4
ATOM      4  C   UNL     1     115.937 109.923 122.394  1.00  0.00     0.006 C 
BRANCH   4   5
ATOM      5  C   UNL     1     115.645 111.315 122.971  1.00  0.00     0.053 C 
BRANCH   5   6
ATOM      6  C   UNL     1     116.720 112.299 122.624  1.00  0.00     0.041 C 
ATOM      7  O   UNL     1     117.838 112.245 123.201  1.00  0.00    -0.550 OA
ATOM      8  O   UNL     1     116.499 113.252 121.638  1.00  0.00    -0.550 OA
ENDBRANCH   5   6
ENDBRANCH   4   5
ENDBRANCH   3   4
ENDBRANCH   2   3
ENDBRANCH   1   2
BRANCH   1   9
ATOM      9  C   UNL     1     111.535 111.121 122.574  1.00  0.00     0.000 C 
BRANCH   9  10
ATOM     10  C   UNL     1     112.092 112.467 122.090  1.00  0.00    -0.000 C 
BRANCH  10  11
ATOM     11  C   UNL     1     111.038 113.318 121.363  1.00  0.00    -0.000 C 
BRANCH  11  12
ATOM     12  C   UNL     1     110.410 112.589 120.166  1.00  0.00    -0.000 C 
BRANCH  12  13
ATOM     13  C   UNL     1     111.439 112.383 119.048  1.00  0.00    -0.003 C 
ATOM     14  C   UNL     1     111.381 110.962 118.499  1.00  0.00     0.004 C 
ENDBRANCH  12  13
ENDBRANCH  11  12
ENDBRANCH  10  11
ENDBRANCH   9  10
ENDBRANCH   1   9
TORSDOF 10
ENDMDL
MODEL 4
REMARK VINA RESULT:    -3.845      1.302      2.215
REMARK INTER + INTRA:          -7.425
REMARK INTER:                  -6.315
REMARK INTRA:                  -1.110
REMARK UNBOUND:                -1.332
REMARK SMILES CCCCCCCCCCCC(=O)[O-]
REMARK SMILES IDX 7 1 8 2 9 3 10 4 11 5 12 6 13 7 14 8 6 9 5 10 4 11 3 12 2 13
REMARK SMILES IDX 1 14
REMARK H PARENT
REMARK Flexibility Score: inf
ROOT
ATOM      1  C   UNL     1     114.624 109.311 121.822  1.00  0.00     0.000 C 
ENDROOT
BRANCH   1   2
ATOM      2  C   UNL     1     114.251 109.689 120.383  1.00  0.00     0.000 C 
BRANCH   2   3
ATOM      3  C   UNL     1     113.029 110.615 120.356  1.00  0.00     0.000 C 
BRANCH   3   4
ATOM      4  C   UNL     1     112.093 110.327 121.538  1.00  0.00     0.006 C 
BRANCH   4   5
ATOM      5  C   UNL     1     111.901 111.553 122.439  1.00  0.00     0.053 C 
BRANCH   5   6
ATOM      6  C   UNL     1     111.393 112.735 121.671  1.00  0.00     0.041 C 
ATOM      7  O   UNL     1     111.955 113.856 121.790  1.00  0.00    -0.550 OA
ATOM      8  O   UNL     1     110.322 112.591 120.799  1.00  0.00    -0.550 OA
ENDBRANCH   5   6
ENDBRANCH   4   5
ENDBRANCH   3   4
ENDBRANCH   2   3
ENDBRANCH   1   2
BRANCH   1   9
ATOM      9  C   UNL     1     115.931 109.990 122.249  1.00  0.00     0.000 C 
BRANCH   9  10
ATOM     10  C   UNL     1     115.670 111.413 122.763  1.00  0.00    -0.000 C 
BRANCH  10  11
ATOM     11  C   UNL     1     116.321 112.491 121.881  1.00  0.00    -0.000 C 
BRANCH  11  12
ATOM     12  C   UNL     1     115.290 113.389 121.184  1.00  0.00    -0.000 C 
BRANCH  12  13
ATOM     13  C   UNL     1     115.956 114.259 120.112  1.00  0.00    -0.003 C 
ATOM     14  C   UNL     1     117.461 114.360 120.339  1.00  0.00     0.004 C 
ENDBRANCH  12  13
ENDBRANCH  11  12
ENDBRANCH  10  11
ENDBRANCH   9  10
ENDBRANCH   1   9
TORSDOF 10
ENDMDL
MODEL 5
REMARK VINA RESULT:    -3.783      3.086      4.891
REMARK INTER + INTRA:          -7.326
REMARK INTER:                  -5.696
REMARK INTRA:                  -1.631
REMARK UNBOUND:                -1.332
REMARK SMILES CCCCCCCCCCCC(=O)[O-]
REMARK SMILES IDX 7 1 8 2 9 3 10 4 11 5 12 6 13 7 14 8 6 9 5 10 4 11 3 12 2 13
REMARK SMILES IDX 1 14
REMARK H PARENT
REMARK Flexibility Score: inf
ROOT
ATOM      1  C   UNL     1     113.357 109.321 121.694  1.00  0.00     0.000 C 
ENDROOT
BRANCH   1   2
ATOM      2  C   UNL     1     114.280 109.430 120.475  1.00  0.00     0.000 C 
BRANCH   2   3
ATOM      3  C   UNL     1     115.600 110.117 120.843  1.00  0.00     0.000 C 
BRANCH   3   4
ATOM      4  C   UNL     1     115.845 110.063 122.358  1.00  0.00     0.006 C 
BRANCH   4   5
ATOM      5  C   UNL     1     116.088 111.455 122.957  1.00  0.00     0.053 C 
BRANCH   5   6
ATOM      6  C   UNL     1     117.451 111.977 122.619  1.00  0.00     0.041 C 
ATOM      7  O   UNL     1     117.598 113.174 122.259  1.00  0.00    -0.550 OA
ATOM      8  O   UNL     1     118.561 111.152 122.736  1.00  0.00    -0.550 OA
ENDBRANCH   5   6
ENDBRANCH   4   5
ENDBRANCH   3   4
ENDBRANCH   2   3
ENDBRANCH   1   2
BRANCH   1   9
ATOM      9  C   UNL     1     112.138 110.239 121.547  1.00  0.00     0.000 C 
BRANCH   9  10
ATOM     10  C   UNL     1     112.282 111.490 122.426  1.00  0.00    -0.000 C 
BRANCH  10  11
ATOM     11  C   UNL     1     112.343 112.788 121.605  1.00  0.00    -0.000 C 
BRANCH  11  12
ATOM     12  C   UNL     1     112.365 112.532 120.092  1.00  0.00    -0.000 C 
BRANCH  12  13
ATOM     13  C   UNL     1     113.738 112.871 119.498  1.00  0.00    -0.003 C 
ATOM     14  C   UNL     1     114.569 113.702 120.470  1.00  0.00     0.004 C 
ENDBRANCH  12  13
ENDBRANCH  11  12
ENDBRANCH  10  11
ENDBRANCH   9  10
ENDBRANCH   1   9
TORSDOF 10
ENDMDL
MODEL 6
REMARK VINA RESULT:    -3.759      1.500      2.750
REMARK INTER + INTRA:          -7.288
REMARK INTER:                  -5.995
REMARK INTRA:                  -1.293
REMARK UNBOUND:                -1.332
REMARK SMILES CCCCCCCCCCCC(=O)[O-]
REMARK SMILES IDX 7 1 8 2 9 3 10 4 11 5 12 6 13 7 14 8 6 9 5 10 4 11 3 12 2 13
REMARK SMILES IDX 1 14
REMARK H PARENT
REMARK Flexibility Score: inf
ROOT
ATOM      1  C   UNL     1     113.745 111.251 119.318  1.00  0.00     0.000 C 
ENDROOT
BRANCH   1   2
ATOM      2  C   UNL     1     113.722 109.807 119.833  1.00  0.00     0.000 C 
BRANCH   2   3
ATOM      3  C   UNL     1     113.258 109.750 121.293  1.00  0.00     0.000 C 
BRANCH   3   4
ATOM      4  C   UNL     1     111.853 110.349 121.449  1.00  0.00     0.006 C 
BRANCH   4   5
ATOM      5  C   UNL     1     111.839 111.561 122.390  1.00  0.00     0.053 C 
BRANCH   5   6
ATOM      6  C   UNL     1     111.516 112.829 121.661  1.00  0.00     0.041 C 
ATOM      7  O   UNL     1     110.671 112.826 120.728  1.00  0.00    -0.550 OA
ATOM      8  O   UNL     1     112.123 114.020 122.036  1.00  0.00    -0.550 OA
ENDBRANCH   5   6
ENDBRANCH   4   5
ENDBRANCH   3   4
ENDBRANCH   2   3
ENDBRANCH   1   2
BRANCH   1   9
ATOM      9  C   UNL     1     115.144 111.864 119.460  1.00  0.00     0.000 C 
BRANCH   9  10
ATOM     10  C   UNL     1     115.182 112.886 120.606  1.00  0.00    -0.000 C 
BRANCH  10  11
ATOM     11  C   UNL     1     116.346 112.642 121.580  1.00  0.00    -0.000 C 
BRANCH  11  12
ATOM     12  C   UNL     1     115.990 111.644 122.691  1.00  0.00    -0.000 C 
BRANCH  12  13
ATOM     13  C   UNL     1     116.612 110.270 122.414  1.00  0.00    -0.003 C 
ATOM     14  C   UNL     1     118.129 110.365 122.290  1.00  0.00     0.004 C 
ENDBRANCH  12  13
ENDBRANCH  11  12
ENDBRANCH  10  11
ENDBRANCH   9  10
ENDBRANCH   1   9
TORSDOF 10
ENDMDL
MODEL 7
REMARK VINA RESULT:    -3.630      1.963      2.810
REMARK INTER + INTRA:          -7.084
REMARK INTER:                  -5.612
REMARK INTRA:                  -1.472
REMARK UNBOUND:                -1.332
REMARK SMILES CCCCCCCCCCCC(=O)[O-]
REMARK SMILES IDX 7 1 8 2 9 3 10 4 11 5 12 6 13 7 14 8 6 9 5 10 4 11 3 12 2 13
REMARK SMILES IDX 1 14
REMARK H PARENT
REMARK Flexibility Score: inf
ROOT
ATOM      1  C   UNL     1     114.288 109.292 119.940  1.00  0.00     0.000 C 
ENDROOT
BRANCH   1   2
ATOM      2  C   UNL     1     113.565 110.398 119.161  1.00  0.00     0.000 C 
BRANCH   2   3
ATOM      3  C   UNL     1     114.439 111.651 119.043  1.00  0.00     0.000 C 
BRANCH   3   4
ATOM      4  C   UNL     1     113.801 112.839 119.779  1.00  0.00     0.006 C 
BRANCH   4   5
ATOM      5  C   UNL     1     112.355 112.551 120.201  1.00  0.00     0.053 C 
BRANCH   5   6
ATOM      6  C   UNL     1     112.106 112.927 121.630  1.00  0.00     0.041 C 
ATOM      7  O   UNL     1     111.811 112.041 122.476  1.00  0.00    -0.550 OA
ATOM      8  O   UNL     1     112.233 114.249 122.034  1.00  0.00    -0.550 OA
ENDBRANCH   5   6
ENDBRANCH   4   5
ENDBRANCH   3   4
ENDBRANCH   2   3
ENDBRANCH   1   2
BRANCH   1   9
ATOM      9  C   UNL     1     114.016 109.409 121.444  1.00  0.00     0.000 C 
BRANCH   9  10
ATOM     10  C   UNL     1     115.304 109.741 122.212  1.00  0.00    -0.000 C 
BRANCH  10  11
ATOM     11  C   UNL     1     115.323 111.184 122.743  1.00  0.00    -0.000 C 
BRANCH  11  12
ATOM     12  C   UNL     1     116.544 111.978 122.257  1.00  0.00    -0.000 C 
BRANCH  12  13
ATOM     13  C   UNL     1     117.587 111.050 121.625  1.00  0.00    -0.003 C 
ATOM     14  C   UNL     1     118.756 110.805 122.573  1.00  0.00     0.004 C 
ENDBRANCH  12  13
ENDBRANCH  11  12
ENDBRANCH  10  11
ENDBRANCH   9  10
ENDBRANCH   1   9
TORSDOF 10
ENDMDL
MODEL 8
REMARK VINA RESULT:    -3.626      3.127      5.234
REMARK INTER + INTRA:          -7.078
REMARK INTER:                  -5.547
REMARK INTRA:                  -1.531
REMARK UNBOUND:                -1.332
REMARK SMILES CCCCCCCCCCCC(=O)[O-]
REMARK SMILES IDX 7 1 8 2 9 3 10 4 11 5 12 6 13 7 14 8 6 9 5 10 4 11 3 12 2 13
REMARK SMILES IDX 1 14
REMARK H PARENT
REMARK Flexibility Score: inf
ROOT
ATOM      1  C   UNL     1     112.234 113.550 121.433  1.00  0.00     0.000 C 
ENDROOT
BRANCH   1   2
ATOM      2  C   UNL     1     113.651 113.171 121.879  1.00  0.00     0.000 C 
BRANCH   2   3
ATOM      3  C   UNL     1     114.676 113.482 120.782  1.00  0.00     0.000 C 
BRANCH   3   4
ATOM      4  C   UNL     1     116.087 113.047 121.207  1.00  0.00     0.006 C 
BRANCH   4   5
ATOM      5  C   UNL     1     116.079 112.254 122.520  1.00  0.00     0.053 C 
BRANCH   5   6
ATOM      6  C   UNL     1     117.292 111.385 122.654  1.00  0.00     0.041 C 
ATOM      7  O   UNL     1     118.348 111.847 123.161  1.00  0.00    -0.550 OA
ATOM      8  O   UNL     1     117.245 110.057 122.251  1.00  0.00    -0.550 OA
ENDBRANCH   5   6
ENDBRANCH   4   5
ENDBRANCH   3   4
ENDBRANCH   2   3
ENDBRANCH   1   2
BRANCH   1   9
ATOM      9  C   UNL     1     111.253 112.398 121.678  1.00  0.00     0.000 C 
BRANCH   9  10
ATOM     10  C   UNL     1     111.912 111.278 122.497  1.00  0.00    -0.000 C 
BRANCH  10  11
ATOM     11  C   UNL     1     112.137 109.998 121.677  1.00  0.00    -0.000 C 
BRANCH  11  12
ATOM     12  C   UNL     1     113.578 109.477 121.774  1.00  0.00    -0.000 C 
BRANCH  12  13
ATOM     13  C   UNL     1     114.316 109.653 120.442  1.00  0.00    -0.003 C 
ATOM     14  C   UNL     1     113.383 110.185 119.360  1.00  0.00     0.004 C 
ENDBRANCH  12  13
ENDBRANCH  11  12
ENDBRANCH  10  11
ENDBRANCH   9  10
ENDBRANCH   1   9
TORSDOF 10
ENDMDL
MODEL 9
REMARK VINA RESULT:    -3.614      1.506      2.680
REMARK INTER + INTRA:          -7.059
REMARK INTER:                  -5.738
REMARK INTRA:                  -1.320
REMARK UNBOUND:                -1.332
REMARK SMILES CCCCCCCCCCCC(=O)[O-]
REMARK SMILES IDX 7 1 8 2 9 3 10 4 11 5 12 6 13 7 14 8 6 9 5 10 4 11 3 12 2 13
REMARK SMILES IDX 1 14
REMARK H PARENT
REMARK Flexibility Score: inf
ROOT
ATOM      1  C   UNL     1     112.141 111.681 122.403  1.00  0.00     0.000 C 
ENDROOT
BRANCH   1   2
ATOM      2  C   UNL     1     111.973 112.601 121.187  1.00  0.00     0.000 C 
BRANCH   2   3
ATOM      3  C   UNL     1     110.493 112.898 120.921  1.00  0.00     0.000 C 
BRANCH   3   4
ATOM      4  C   UNL     1     110.145 112.678 119.442  1.00  0.00     0.006 C 
BRANCH   4   5
ATOM      5  C   UNL     1     111.203 111.838 118.715  1.00  0.00     0.053 C 
BRANCH   5   6
ATOM      6  C   UNL     1     110.709 110.456 118.416  1.00  0.00     0.041 C 
ATOM      7  O   UNL     1     109.848 109.917 119.161  1.00  0.00    -0.550 OA
ATOM      8  O   UNL     1     111.173 109.777 117.297  1.00  0.00    -0.550 OA
ENDBRANCH   5   6
ENDBRANCH   4   5
ENDBRANCH   3   4
ENDBRANCH   2   3
ENDBRANCH   1   2
BRANCH   1   9
ATOM      9  C   UNL     1     112.119 110.206 121.984  1.00  0.00     0.000 C 
BRANCH   9  10
ATOM     10  C   UNL     1     113.267 109.893 121.014  1.00  0.00    -0.000 C 
BRANCH  10  11
ATOM     11  C   UNL     1     114.421 109.132 121.686  1.00  0.00    -0.000 C 
BRANCH  11  12
ATOM     12  C   UNL     1     115.582 110.051 122.090  1.00  0.00    -0.000 C 
BRANCH  12  13
ATOM     13  C   UNL     1     115.686 111.253 121.144  1.00  0.00    -0.003 C 
ATOM     14  C   UNL     1     115.794 112.561 121.921  1.00  0.00     0.004 C 
ENDBRANCH  12  13
ENDBRANCH  11  12
ENDBRANCH  10  11
ENDBRANCH   9  10
ENDBRANCH   1   9
TORSDOF 10
ENDMDL
