MODEL 1
REMARK VINA RESULT:    -4.465      0.000      0.000
REMARK INTER + INTRA:          -5.176
REMARK INTER:                  -4.987
REMARK INTRA:                  -0.189
REMARK UNBOUND:                -0.189
REMARK SMILES O=C([O-])c1ccccc1C(=O)[O-]
REMARK SMILES IDX 4 1 9 2 5 3 8 4 6 5 7 6 2 7 1 8 3 9 10 10 11 11 12 12
REMARK H PARENT
REMARK Flexibility Score: inf
ROOT
ATOM      1  C   UNL     1      -5.415  -2.594 -25.593  1.00  0.00     0.006 A 
ATOM      2  C   UNL     1      -6.539  -1.763 -25.853  1.00  0.00     0.006 A 
ATOM      3  C   UNL     1      -4.808  -3.276 -26.665  1.00  0.00     0.010 A 
ATOM      4  C   UNL     1      -6.976  -1.593 -27.181  1.00  0.00     0.010 A 
ATOM      5  C   UNL     1      -5.270  -3.111 -27.971  1.00  0.00     0.001 A 
ATOM      6  C   UNL     1      -6.344  -2.263 -28.229  1.00  0.00     0.001 A 
ENDROOT
BRANCH   1   7
ATOM      7  C   UNL     1      -4.805  -2.716 -24.250  1.00  0.00     0.072 C 
ATOM      8  O   UNL     1      -3.982  -1.853 -23.845  1.00  0.00    -0.545 OA
ATOM      9  O   UNL     1      -5.178  -3.746 -23.394  1.00  0.00    -0.545 OA
ENDBRANCH   1   7
BRANCH   2  10
ATOM     10  C   UNL     1      -7.324  -1.121 -24.772  1.00  0.00     0.072 C 
ATOM     11  O   UNL     1      -6.943  -0.028 -24.276  1.00  0.00    -0.545 OA
ATOM     12  O   UNL     1      -8.519  -1.679 -24.336  1.00  0.00    -0.545 OA
ENDBRANCH   2  10
TORSDOF 2
ENDMDL
MODEL 2
REMARK VINA RESULT:    -4.443      0.142      3.026
REMARK INTER + INTRA:          -5.152
REMARK INTER:                  -4.957
REMARK INTRA:                  -0.194
REMARK UNBOUND:                -0.189
REMARK SMILES O=C([O-])c1ccccc1C(=O)[O-]
REMARK SMILES IDX 4 1 9 2 5 3 8 4 6 5 7 6 2 7 1 8 3 9 10 10 11 11 12 12
REMARK H PARENT
REMARK Flexibility Score: inf
ROOT
ATOM      1  C   UNL     1      -6.518  -1.766 -25.881  1.00  0.00     0.006 A 
ATOM      2  C   UNL     1      -5.428  -2.653 -25.665  1.00  0.00     0.006 A 
ATOM      3  C   UNL     1      -6.946  -1.516 -27.198  1.00  0.00     0.010 A 
ATOM      4  C   UNL     1      -4.848  -3.308 -26.769  1.00  0.00     0.010 A 
ATOM      5  C   UNL     1      -6.342  -2.158 -28.280  1.00  0.00     0.001 A 
ATOM      6  C   UNL     1      -5.304  -3.061 -28.064  1.00  0.00     0.001 A 
ENDROOT
BRANCH   1   7
ATOM      7  C   UNL     1      -7.275  -1.146 -24.770  1.00  0.00     0.072 C 
ATOM      8  O   UNL     1      -6.868  -0.077 -24.243  1.00  0.00    -0.545 OA
ATOM      9  O   UNL     1      -8.476  -1.696 -24.336  1.00  0.00    -0.545 OA
ENDBRANCH   1   7
BRANCH   2  10
ATOM     10  C   UNL     1      -4.823  -2.865 -24.329  1.00  0.00     0.072 C 
ATOM     11  O   UNL     1      -5.061  -3.922 -23.687  1.00  0.00    -0.545 OA
ATOM     12  O   UNL     1      -3.938  -1.936 -23.797  1.00  0.00    -0.545 OA
ENDBRANCH   2  10
TORSDOF 2
ENDMDL
MODEL 3
REMARK VINA RESULT:    -4.372     11.201     12.993
REMARK INTER + INTRA:          -5.072
REMARK INTER:                  -4.910
REMARK INTRA:                  -0.163
REMARK UNBOUND:                -0.189
REMARK SMILES O=C([O-])c1ccccc1C(=O)[O-]
REMARK SMILES IDX 4 1 9 2 5 3 8 4 6 5 7 6 2 7 1 8 3 9 10 10 11 11 12 12
REMARK H PARENT
REMARK Flexibility Score: inf
ROOT
ATOM      1  C   UNL     1     -18.859   0.551 -23.144  1.00  0.00     0.006 A 
ATOM      2  C   UNL     1     -17.586  -0.011 -23.436  1.00  0.00     0.006 A 
ATOM      3  C   UNL     1     -19.742   0.832 -24.204  1.00  0.00     0.010 A 
ATOM      4  C   UNL     1     -17.267  -0.331 -24.770  1.00  0.00     0.010 A 
ATOM      5  C   UNL     1     -19.396   0.528 -25.521  1.00  0.00     0.001 A 
ATOM      6  C   UNL     1     -18.167  -0.063 -25.802  1.00  0.00     0.001 A 
ENDROOT
BRANCH   1   7
ATOM      7  C   UNL     1     -19.330   0.787 -21.760  1.00  0.00     0.072 C 
ATOM      8  O   UNL     1     -19.722  -0.177 -21.051  1.00  0.00    -0.545 OA
ATOM      9  O   UNL     1     -19.285   2.059 -21.204  1.00  0.00    -0.545 OA
ENDBRANCH   1   7
BRANCH   2  10
ATOM     10  C   UNL     1     -16.544  -0.209 -22.401  1.00  0.00     0.072 C 
ATOM     11  O   UNL     1     -15.952   0.784 -21.901  1.00  0.00    -0.545 OA
ATOM     12  O   UNL     1     -16.251  -1.480 -21.924  1.00  0.00    -0.545 OA
ENDBRANCH   2  10
TORSDOF 2
ENDMDL
MODEL 4
REMARK VINA RESULT:    -4.370      1.691      2.706
REMARK INTER + INTRA:          -5.069
REMARK INTER:                  -4.867
REMARK INTRA:                  -0.202
REMARK UNBOUND:                -0.189
REMARK SMILES O=C([O-])c1ccccc1C(=O)[O-]
REMARK SMILES IDX 4 1 9 2 5 3 8 4 6 5 7 6 2 7 1 8 3 9 10 10 11 11 12 12
REMARK H PARENT
REMARK Flexibility Score: inf
ROOT
ATOM      1  C   UNL     1      -6.382  -1.543 -26.433  1.00  0.00     0.006 A 
ATOM      2  C   UNL     1      -5.440  -0.497 -26.635  1.00  0.00     0.006 A 
ATOM      3  C   UNL     1      -6.879  -2.241 -27.550  1.00  0.00     0.010 A 
ATOM      4  C   UNL     1      -4.981  -0.230 -27.939  1.00  0.00     0.010 A 
ATOM      5  C   UNL     1      -6.427  -1.945 -28.836  1.00  0.00     0.001 A 
ATOM      6  C   UNL     1      -5.472  -0.951 -29.028  1.00  0.00     0.001 A 
ENDROOT
BRANCH   1   7
ATOM      7  C   UNL     1      -6.811  -1.982 -25.085  1.00  0.00     0.072 C 
ATOM      8  O   UNL     1      -6.040  -2.672 -24.368  1.00  0.00    -0.545 OA
ATOM      9  O   UNL     1      -8.040  -1.587 -24.569  1.00  0.00    -0.545 OA
ENDBRANCH   1   7
BRANCH   2  10
ATOM     10  C   UNL     1      -4.972   0.379 -25.536  1.00  0.00     0.072 C 
ATOM     11  O   UNL     1      -5.602   1.433 -25.254  1.00  0.00    -0.545 OA
ATOM     12  O   UNL     1      -3.875   0.021 -24.761  1.00  0.00    -0.545 OA
ENDBRANCH   2  10
TORSDOF 2
ENDMDL
MODEL 5
REMARK VINA RESULT:    -4.305     11.213     12.728
REMARK INTER + INTRA:          -4.997
REMARK INTER:                  -4.838
REMARK INTRA:                  -0.159
REMARK UNBOUND:                -0.189
REMARK SMILES O=C([O-])c1ccccc1C(=O)[O-]
REMARK SMILES IDX 4 1 9 2 5 3 8 4 6 5 7 6 2 7 1 8 3 9 10 10 11 11 12 12
REMARK H PARENT
REMARK Flexibility Score: inf
ROOT
ATOM      1  C   UNL     1     -17.617  -0.043 -23.371  1.00  0.00     0.006 A 
ATOM      2  C   UNL     1     -18.858   0.565 -23.035  1.00  0.00     0.006 A 
ATOM      3  C   UNL     1     -17.371  -0.399 -24.711  1.00  0.00     0.010 A 
ATOM      4  C   UNL     1     -19.780   0.853 -24.059  1.00  0.00     0.010 A 
ATOM      5  C   UNL     1     -18.308  -0.124 -25.707  1.00  0.00     0.001 A 
ATOM      6  C   UNL     1     -19.505   0.511 -25.383  1.00  0.00     0.001 A 
ENDROOT
BRANCH   1   7
ATOM      7  C   UNL     1     -16.536  -0.253 -22.382  1.00  0.00     0.072 C 
ATOM      8  O   UNL     1     -15.895   0.731 -21.924  1.00  0.00    -0.545 OA
ATOM      9  O   UNL     1     -16.256  -1.525 -21.896  1.00  0.00    -0.545 OA
ENDBRANCH   1   7
BRANCH   2  10
ATOM     10  C   UNL     1     -19.257   0.843 -21.635  1.00  0.00     0.072 C 
ATOM     11  O   UNL     1     -19.641  -0.095 -20.888  1.00  0.00    -0.545 OA
ATOM     12  O   UNL     1     -19.153   2.125 -21.110  1.00  0.00    -0.545 OA
ENDBRANCH   2  10
TORSDOF 2
ENDMDL
MODEL 6
REMARK VINA RESULT:    -4.235      2.724      3.415
REMARK INTER + INTRA:          -4.919
REMARK INTER:                  -4.706
REMARK INTRA:                  -0.214
REMARK UNBOUND:                -0.189
REMARK SMILES O=C([O-])c1ccccc1C(=O)[O-]
REMARK SMILES IDX 4 1 9 2 5 3 8 4 6 5 7 6 2 7 1 8 3 9 10 10 11 11 12 12
REMARK H PARENT
REMARK Flexibility Score: inf
ROOT
ATOM      1  C   UNL     1      -5.856  -0.642 -27.513  1.00  0.00     0.006 A 
ATOM      2  C   UNL     1      -5.887   0.189 -26.360  1.00  0.00     0.006 A 
ATOM      3  C   UNL     1      -5.528  -0.073 -28.759  1.00  0.00     0.010 A 
ATOM      4  C   UNL     1      -5.527   1.545 -26.482  1.00  0.00     0.010 A 
ATOM      5  C   UNL     1      -5.196   1.278 -28.861  1.00  0.00     0.001 A 
ATOM      6  C   UNL     1      -5.184   2.082 -27.724  1.00  0.00     0.001 A 
ENDROOT
BRANCH   1   7
ATOM      7  C   UNL     1      -6.083  -2.104 -27.450  1.00  0.00     0.072 C 
ATOM      8  O   UNL     1      -7.240  -2.574 -27.618  1.00  0.00    -0.545 OA
ATOM      9  O   UNL     1      -5.019  -2.980 -27.270  1.00  0.00    -0.545 OA
ENDBRANCH   1   7
BRANCH   2  10
ATOM     10  C   UNL     1      -6.356  -0.293 -25.040  1.00  0.00     0.072 C 
ATOM     11  O   UNL     1      -5.528  -0.527 -24.121  1.00  0.00    -0.545 OA
ATOM     12  O   UNL     1      -7.714  -0.432 -24.778  1.00  0.00    -0.545 OA
ENDBRANCH   2  10
TORSDOF 2
ENDMDL
MODEL 7
REMARK VINA RESULT:    -4.089      1.780      3.176
REMARK INTER + INTRA:          -4.756
REMARK INTER:                  -4.527
REMARK INTRA:                  -0.229
REMARK UNBOUND:                -0.189
REMARK SMILES O=C([O-])c1ccccc1C(=O)[O-]
REMARK SMILES IDX 4 1 9 2 5 3 8 4 6 5 7 6 2 7 1 8 3 9 10 10 11 11 12 12
REMARK H PARENT
REMARK Flexibility Score: inf
ROOT
ATOM      1  C   UNL     1      -5.604  -2.550 -26.245  1.00  0.00     0.006 A 
ATOM      2  C   UNL     1      -5.965  -2.290 -24.895  1.00  0.00     0.006 A 
ATOM      3  C   UNL     1      -4.651  -3.550 -26.517  1.00  0.00     0.010 A 
ATOM      4  C   UNL     1      -5.410  -3.081 -23.871  1.00  0.00     0.010 A 
ATOM      5  C   UNL     1      -4.096  -4.308 -25.485  1.00  0.00     0.001 A 
ATOM      6  C   UNL     1      -4.484  -4.082 -24.167  1.00  0.00     0.001 A 
ENDROOT
BRANCH   1   7
ATOM      7  C   UNL     1      -6.243  -1.862 -27.390  1.00  0.00     0.072 C 
ATOM      8  O   UNL     1      -7.266  -2.354 -27.935  1.00  0.00    -0.545 OA
ATOM      9  O   UNL     1      -5.763  -0.637 -27.838  1.00  0.00    -0.545 OA
ENDBRANCH   1   7
BRANCH   2  10
ATOM     10  C   UNL     1      -6.850  -1.166 -24.508  1.00  0.00     0.072 C 
ATOM     11  O   UNL     1      -6.360  -0.039 -24.233  1.00  0.00    -0.545 OA
ATOM     12  O   UNL     1      -8.231  -1.320 -24.504  1.00  0.00    -0.545 OA
ENDBRANCH   2  10
TORSDOF 2
ENDMDL
MODEL 8
REMARK VINA RESULT:    -4.078      1.788      3.373
REMARK INTER + INTRA:          -4.744
REMARK INTER:                  -4.514
REMARK INTRA:                  -0.230
REMARK UNBOUND:                -0.189
REMARK SMILES O=C([O-])c1ccccc1C(=O)[O-]
REMARK SMILES IDX 4 1 9 2 5 3 8 4 6 5 7 6 2 7 1 8 3 9 10 10 11 11 12 12
REMARK H PARENT
REMARK Flexibility Score: inf
ROOT
ATOM      1  C   UNL     1      -5.953  -2.253 -24.787  1.00  0.00     0.006 A 
ATOM      2  C   UNL     1      -5.581  -2.561 -26.125  1.00  0.00     0.006 A 
ATOM      3  C   UNL     1      -5.435  -3.034 -23.737  1.00  0.00     0.010 A 
ATOM      4  C   UNL     1      -4.655  -3.595 -26.359  1.00  0.00     0.010 A 
ATOM      5  C   UNL     1      -4.536  -4.070 -23.993  1.00  0.00     0.001 A 
ATOM      6  C   UNL     1      -4.138  -4.341 -25.299  1.00  0.00     0.001 A 
ENDROOT
BRANCH   1   7
ATOM      7  C   UNL     1      -6.809  -1.095 -24.442  1.00  0.00     0.072 C 
ATOM      8  O   UNL     1      -6.291   0.029 -24.207  1.00  0.00    -0.545 OA
ATOM      9  O   UNL     1      -8.194  -1.214 -24.436  1.00  0.00    -0.545 OA
ENDBRANCH   1   7
BRANCH   2  10
ATOM     10  C   UNL     1      -6.184  -1.885 -27.297  1.00  0.00     0.072 C 
ATOM     11  O   UNL     1      -7.210  -2.366 -27.847  1.00  0.00    -0.545 OA
ATOM     12  O   UNL     1      -5.670  -0.681 -27.764  1.00  0.00    -0.545 OA
ENDBRANCH   2  10
TORSDOF 2
ENDMDL
MODEL 9
REMARK VINA RESULT:    -4.032     18.153     19.116
REMARK INTER + INTRA:          -4.693
REMARK INTER:                  -4.466
REMARK INTRA:                  -0.227
REMARK UNBOUND:                -0.189
REMARK SMILES O=C([O-])c1ccccc1C(=O)[O-]
REMARK SMILES IDX 4 1 9 2 5 3 8 4 6 5 7 6 2 7 1 8 3 9 10 10 11 11 12 12
REMARK H PARENT
REMARK Flexibility Score: inf
ROOT
ATOM      1  C   UNL     1     -18.840 -13.925 -17.523  1.00  0.00     0.006 A 
ATOM      2  C   UNL     1     -18.798 -12.573 -17.084  1.00  0.00     0.006 A 
ATOM      3  C   UNL     1     -18.215 -14.270 -18.736  1.00  0.00     0.010 A 
ATOM      4  C   UNL     1     -18.078 -11.628 -17.840  1.00  0.00     0.010 A 
ATOM      5  C   UNL     1     -17.525 -13.313 -19.482  1.00  0.00     0.001 A 
ATOM      6  C   UNL     1     -17.447 -11.999 -19.029  1.00  0.00     0.001 A 
ENDROOT
BRANCH   1   7
ATOM      7  C   UNL     1     -19.453 -15.007 -16.719  1.00  0.00     0.072 C 
ATOM      8  O   UNL     1     -18.776 -15.609 -15.845  1.00  0.00    -0.545 OA
ATOM      9  O   UNL     1     -20.797 -15.328 -16.871  1.00  0.00    -0.545 OA
ENDBRANCH   1   7
BRANCH   2  10
ATOM     10  C   UNL     1     -19.545 -12.095 -15.897  1.00  0.00     0.072 C 
ATOM     11  O   UNL     1     -18.939 -11.870 -14.816  1.00  0.00    -0.545 OA
ATOM     12  O   UNL     1     -20.906 -11.828 -15.977  1.00  0.00    -0.545 OA
ENDBRANCH   2  10
TORSDOF 2
ENDMDL
