MODEL 1
REMARK VINA RESULT:     9.240      0.000      0.000
REMARK INTER + INTRA:          15.713
REMARK INTER:                  12.481
REMARK INTRA:                   3.233
REMARK UNBOUND:                 3.233
REMARK SMILES CC[C@@H](CC[C@H](C)[C@H]1CC[C@H]2[C@H]3CC(=O)C4=CC(=O)CC[C@@]4(C)[C@@H]3CC[C@]12C)C(C)C
REMARK SMILES IDX 4 1 3 2 2 3 1 4 29 5 30 6 31 7 5 8 6 9 7 10 8 11 9 12 27 13
REMARK SMILES IDX 10 14 11 15 26 16 28 17 12 18 25 19 24 20 13 21 22 22 14 23
REMARK SMILES IDX 16 24 21 25 23 26 15 27 17 28 20 29 18 30 19 31
REMARK H PARENT
REMARK Flexibility Score: inf
ROOT
ATOM      1  C   UNL     1       7.874 -36.504  16.835  1.00  0.00     0.004 C 
ENDROOT
BRANCH   1   2
ATOM      2  C   UNL     1       7.623 -35.969  18.284  1.00  0.00    -0.009 C 
BRANCH   2   3
ATOM      3  C   UNL     1       8.548 -34.756  18.585  1.00  0.00     0.000 C 
ATOM      4  C   UNL     1       7.838 -33.634  19.350  1.00  0.00     0.004 C 
ENDBRANCH   2   3
BRANCH   2   5
ATOM      5  C   UNL     1       7.773 -37.125  19.333  1.00  0.00    -0.014 C 
ATOM      6  C   UNL     1       9.107 -37.086  20.101  1.00  0.00     0.007 C 
ATOM      7  C   UNL     1       6.622 -37.088  20.360  1.00  0.00     0.007 C 
ENDBRANCH   2   5
ENDBRANCH   1   2
BRANCH   1   8
ATOM      8  C   UNL     1       6.549 -36.774  16.094  1.00  0.00     0.004 C 
BRANCH   8   9
ATOM      9  C   UNL     1       6.493 -36.247  14.635  1.00  0.00    -0.011 C 
ATOM     10  C   UNL     1       7.356 -37.125  13.705  1.00  0.00     0.008 C 
BRANCH   9  11
ATOM     11  C   UNL     1       6.743 -34.697  14.537  1.00  0.00    -0.002 C 
ATOM     12  C   UNL     1       5.929 -33.781  15.492  1.00  0.00     0.005 C 
ATOM     13  C   UNL     1       8.214 -34.214  14.697  1.00  0.00    -0.026 C 
ATOM     14  C   UNL     1       6.783 -32.518  15.718  1.00  0.00     0.005 C 
ATOM     15  C   UNL     1       7.976 -32.698  14.785  1.00  0.00    -0.001 C 
ATOM     16  C   UNL     1       9.126 -34.519  13.461  1.00  0.00     0.007 C 
ATOM     17  C   UNL     1       8.834 -34.803  16.003  1.00  0.00     0.012 C 
ATOM     18  C   UNL     1       9.249 -31.815  14.938  1.00  0.00     0.004 C 
ATOM     19  C   UNL     1      10.057 -33.339  13.046  1.00  0.00     0.005 C 
ATOM     20  C   UNL     1      10.493 -32.475  14.262  1.00  0.00     0.003 C 
ATOM     21  C   UNL     1       9.602 -31.373  16.359  1.00  0.00     0.085 C 
ATOM     22  C   UNL     1      11.640 -31.427  14.013  1.00  0.00    -0.000 C 
ATOM     23  C   UNL     1      10.826 -30.496  16.347  1.00  0.00     0.159 C 
ATOM     24  C   UNL     1      11.912 -30.675  15.332  1.00  0.00     0.005 C 
ATOM     25  C   UNL     1      12.942 -32.174  13.575  1.00  0.00     0.020 C 
ATOM     26  C   UNL     1      11.253 -30.400  12.914  1.00  0.00     0.017 C 
ATOM     27  O   UNL     1      10.954 -29.642  17.268  1.00  0.00    -0.295 OA
ATOM     28  C   UNL     1      13.125 -30.143  15.579  1.00  0.00     0.055 C 
ATOM     29  C   UNL     1      14.174 -31.259  13.496  1.00  0.00     0.081 C 
ATOM     30  C   UNL     1      14.276 -30.366  14.692  1.00  0.00     0.156 C 
ATOM     31  O   UNL     1      15.366 -29.782  14.935  1.00  0.00    -0.295 OA
ENDBRANCH   9  11
ENDBRANCH   8   9
ENDBRANCH   1   8
TORSDOF 6
ENDMDL
MODEL 2
REMARK VINA RESULT:    10.852      0.665      1.498
REMARK INTER + INTRA:          17.892
REMARK INTER:                  12.615
REMARK INTRA:                   5.277
REMARK UNBOUND:                 3.233
REMARK SMILES CC[C@@H](CC[C@H](C)[C@H]1CC[C@H]2[C@H]3CC(=O)C4=CC(=O)CC[C@@]4(C)[C@@H]3CC[C@]12C)C(C)C
REMARK SMILES IDX 4 1 3 2 2 3 1 4 29 5 30 6 31 7 5 8 6 9 7 10 8 11 9 12 27 13
REMARK SMILES IDX 10 14 11 15 26 16 28 17 12 18 25 19 24 20 13 21 22 22 14 23
REMARK SMILES IDX 16 24 21 25 23 26 15 27 17 28 20 29 18 30 19 31
REMARK H PARENT
REMARK Flexibility Score: inf
ROOT
ATOM      1  C   UNL     1       6.475 -35.518  16.476  1.00  0.00     0.004 C 
ENDROOT
BRANCH   1   2
ATOM      2  C   UNL     1       7.568 -35.766  17.570  1.00  0.00    -0.009 C 
BRANCH   2   3
ATOM      3  C   UNL     1       7.077 -36.818  18.603  1.00  0.00     0.000 C 
ATOM      4  C   UNL     1       8.102 -37.101  19.706  1.00  0.00     0.004 C 
ENDBRANCH   2   3
BRANCH   2   5
ATOM      5  C   UNL     1       7.998 -34.413  18.235  1.00  0.00    -0.014 C 
ATOM      6  C   UNL     1       7.775 -34.380  19.758  1.00  0.00     0.007 C 
ATOM      7  C   UNL     1       9.487 -34.113  17.959  1.00  0.00     0.007 C 
ENDBRANCH   2   5
ENDBRANCH   1   2
BRANCH   1   8
ATOM      8  C   UNL     1       6.541 -36.579  15.360  1.00  0.00     0.004 C 
BRANCH   8   9
ATOM      9  C   UNL     1       6.761 -36.015  13.930  1.00  0.00    -0.011 C 
ATOM     10  C   UNL     1       7.787 -36.871  13.159  1.00  0.00     0.008 C 
BRANCH   9  11
ATOM     11  C   UNL     1       7.021 -34.464  13.920  1.00  0.00    -0.002 C 
ATOM     12  C   UNL     1       6.102 -33.580  14.808  1.00  0.00     0.005 C 
ATOM     13  C   UNL     1       8.463 -33.993  14.268  1.00  0.00    -0.026 C 
ATOM     14  C   UNL     1       6.923 -32.330  15.179  1.00  0.00     0.005 C 
ATOM     15  C   UNL     1       8.217 -32.480  14.385  1.00  0.00    -0.001 C 
ATOM     16  C   UNL     1       9.513 -34.257  13.137  1.00  0.00     0.007 C 
ATOM     17  C   UNL     1       8.928 -34.634  15.614  1.00  0.00     0.012 C 
ATOM     18  C   UNL     1       9.463 -31.610  14.718  1.00  0.00     0.004 C 
ATOM     19  C   UNL     1      10.487 -33.065  12.876  1.00  0.00     0.005 C 
ATOM     20  C   UNL     1      10.778 -32.249  14.166  1.00  0.00     0.003 C 
ATOM     21  C   UNL     1       9.649 -31.223  16.186  1.00  0.00     0.085 C 
ATOM     22  C   UNL     1      11.947 -31.198  14.092  1.00  0.00    -0.000 C 
ATOM     23  C   UNL     1      10.866 -30.352  16.349  1.00  0.00     0.159 C 
ATOM     24  C   UNL     1      12.063 -30.497  15.461  1.00  0.00     0.005 C 
ATOM     25  C   UNL     1      13.290 -31.934  13.781  1.00  0.00     0.020 C 
ATOM     26  C   UNL     1      11.690 -30.130  12.995  1.00  0.00     0.017 C 
ATOM     27  O   UNL     1      10.886 -29.533  17.310  1.00  0.00    -0.295 OA
ATOM     28  C   UNL     1      13.239 -29.980  15.867  1.00  0.00     0.055 C 
ATOM     29  C   UNL     1      14.523 -31.023  13.880  1.00  0.00     0.081 C 
ATOM     30  C   UNL     1      14.485 -30.175  15.112  1.00  0.00     0.156 C 
ATOM     31  O   UNL     1      15.540 -29.605  15.502  1.00  0.00    -0.295 OA
ENDBRANCH   9  11
ENDBRANCH   8   9
ENDBRANCH   1   8
TORSDOF 6
ENDMDL
