MODEL 1
REMARK VINA RESULT:    -5.939      0.000      0.000
REMARK INTER + INTRA:          -9.161
REMARK INTER:                  -8.022
REMARK INTRA:                  -1.140
REMARK UNBOUND:                -1.140
REMARK SMILES CC(=O)CCC=C(C)CCC=C(C)C
REMARK SMILES IDX 7 1 6 2 8 3 9 4 10 5 11 6 13 7 12 8 14 9 5 10 4 11 2 12 3 13
REMARK SMILES IDX 1 14
REMARK H PARENT
REMARK Flexibility Score: inf
ROOT
ATOM      1  C   UNL     1      -3.008  13.320 -27.786  1.00  0.00    -0.077 C 
ATOM      2  C   UNL     1      -1.991  13.960 -28.409  1.00  0.00    -0.028 C 
ATOM      3  C   UNL     1      -2.869  11.901 -27.285  1.00  0.00     0.039 C 
ENDROOT
BRANCH   1   4
ATOM      4  C   UNL     1      -4.327  14.042 -27.596  1.00  0.00     0.034 C 
BRANCH   4   5
ATOM      5  C   UNL     1      -5.375  13.599 -28.628  1.00  0.00     0.032 C 
BRANCH   5   6
ATOM      6  C   UNL     1      -5.292  14.412 -29.898  1.00  0.00    -0.028 C 
ATOM      7  C   UNL     1      -4.009  12.656 -31.142  1.00  0.00     0.039 C 
ATOM      8  C   UNL     1      -4.710  13.990 -31.042  1.00  0.00    -0.080 C 
ATOM      9  C   UNL     1      -4.753  14.897 -32.245  1.00  0.00     0.039 C 
ENDBRANCH   5   6
ENDBRANCH   4   5
ENDBRANCH   1   4
BRANCH   2  10
ATOM     10  C   UNL     1      -0.612  13.382 -28.602  1.00  0.00     0.035 C 
BRANCH  10  11
ATOM     11  C   UNL     1      -0.134  13.595 -30.041  1.00  0.00     0.079 C 
BRANCH  11  12
ATOM     12  C   UNL     1      -0.038  12.282 -30.770  1.00  0.00     0.130 C 
ATOM     13  O   UNL     1       0.703  12.183 -31.737  1.00  0.00    -0.300 OA
ATOM     14  C   UNL     1      -0.843  11.090 -30.344  1.00  0.00     0.087 C 
ENDBRANCH  11  12
ENDBRANCH  10  11
ENDBRANCH   2  10
TORSDOF 6
ENDMDL
MODEL 2
REMARK VINA RESULT:    -5.938      2.917      5.385
REMARK INTER + INTRA:          -9.160
REMARK INTER:                  -8.296
REMARK INTRA:                  -0.864
REMARK UNBOUND:                -1.140
REMARK SMILES CC(=O)CCC=C(C)CCC=C(C)C
REMARK SMILES IDX 7 1 6 2 8 3 9 4 10 5 11 6 13 7 12 8 14 9 5 10 4 11 2 12 3 13
REMARK SMILES IDX 1 14
REMARK H PARENT
REMARK Flexibility Score: inf
ROOT
ATOM      1  C   UNL     1      -3.653  12.245 -28.259  1.00  0.00    -0.077 C 
ATOM      2  C   UNL     1      -4.310  13.426 -28.191  1.00  0.00    -0.028 C 
ATOM      3  C   UNL     1      -4.313  10.995 -28.794  1.00  0.00     0.039 C 
ENDROOT
BRANCH   1   4
ATOM      4  C   UNL     1      -2.219  12.171 -27.774  1.00  0.00     0.034 C 
BRANCH   4   5
ATOM      5  C   UNL     1      -1.350  13.275 -28.393  1.00  0.00     0.032 C 
BRANCH   5   6
ATOM      6  C   UNL     1      -0.385  12.724 -29.416  1.00  0.00    -0.028 C 
ATOM      7  C   UNL     1      -1.854  13.298 -31.362  1.00  0.00     0.039 C 
ATOM      8  C   UNL     1      -0.583  12.755 -30.752  1.00  0.00    -0.080 C 
ATOM      9  C   UNL     1       0.498  12.211 -31.651  1.00  0.00     0.039 C 
ENDBRANCH   5   6
ENDBRANCH   4   5
ENDBRANCH   1   4
BRANCH   2  10
ATOM     10  C   UNL     1      -5.712  13.652 -28.700  1.00  0.00     0.035 C 
BRANCH  10  11
ATOM     11  C   UNL     1      -5.779  14.925 -29.549  1.00  0.00     0.079 C 
BRANCH  11  12
ATOM     12  C   UNL     1      -6.915  15.805 -29.101  1.00  0.00     0.130 C 
ATOM     13  O   UNL     1      -6.792  17.019 -29.151  1.00  0.00    -0.300 OA
ATOM     14  C   UNL     1      -8.196  15.222 -28.580  1.00  0.00     0.087 C 
ENDBRANCH  11  12
ENDBRANCH  10  11
ENDBRANCH   2  10
TORSDOF 6
ENDMDL
MODEL 3
REMARK VINA RESULT:    -5.830      1.592      2.546
REMARK INTER + INTRA:          -9.015
REMARK INTER:                  -8.023
REMARK INTRA:                  -0.992
REMARK UNBOUND:                -1.140
REMARK SMILES CC(=O)CCC=C(C)CCC=C(C)C
REMARK SMILES IDX 7 1 6 2 8 3 9 4 10 5 11 6 13 7 12 8 14 9 5 10 4 11 2 12 3 13
REMARK SMILES IDX 1 14
REMARK H PARENT
REMARK Flexibility Score: inf
ROOT
ATOM      1  C   UNL     1      -3.257  11.653 -28.241  1.00  0.00    -0.077 C 
ATOM      2  C   UNL     1      -2.036  11.592 -28.821  1.00  0.00    -0.028 C 
ATOM      3  C   UNL     1      -4.426  10.847 -28.757  1.00  0.00     0.039 C 
ENDROOT
BRANCH   1   4
ATOM      4  C   UNL     1      -3.461  12.565 -27.047  1.00  0.00     0.034 C 
BRANCH   4   5
ATOM      5  C   UNL     1      -3.658  14.027 -27.473  1.00  0.00     0.032 C 
BRANCH   5   6
ATOM      6  C   UNL     1      -5.121  14.395 -27.556  1.00  0.00    -0.028 C 
ATOM      7  C   UNL     1      -5.173  14.317 -30.060  1.00  0.00     0.039 C 
ATOM      8  C   UNL     1      -5.821  14.499 -28.707  1.00  0.00    -0.080 C 
ATOM      9  C   UNL     1      -7.290  14.825 -28.626  1.00  0.00     0.039 C 
ENDBRANCH   5   6
ENDBRANCH   4   5
ENDBRANCH   1   4
BRANCH   2  10
ATOM     10  C   UNL     1      -1.683  10.679 -29.968  1.00  0.00     0.035 C 
BRANCH  10  11
ATOM     11  C   UNL     1      -1.818  11.414 -31.305  1.00  0.00     0.079 C 
BRANCH  11  12
ATOM     12  C   UNL     1      -0.804  12.523 -31.407  1.00  0.00     0.130 C 
ATOM     13  O   UNL     1      -1.185  13.680 -31.489  1.00  0.00    -0.300 OA
ATOM     14  C   UNL     1       0.668  12.237 -31.424  1.00  0.00     0.087 C 
ENDBRANCH  11  12
ENDBRANCH  10  11
ENDBRANCH   2  10
TORSDOF 6
ENDMDL
MODEL 4
REMARK VINA RESULT:    -5.661      1.542      2.462
REMARK INTER + INTRA:          -8.786
REMARK INTER:                  -7.971
REMARK INTRA:                  -0.815
REMARK UNBOUND:                -1.140
REMARK SMILES CC(=O)CCC=C(C)CCC=C(C)C
REMARK SMILES IDX 7 1 6 2 8 3 9 4 10 5 11 6 13 7 12 8 14 9 5 10 4 11 2 12 3 13
REMARK SMILES IDX 1 14
REMARK H PARENT
REMARK Flexibility Score: inf
ROOT
ATOM      1  C   UNL     1      -3.394  11.972 -29.051  1.00  0.00    -0.077 C 
ATOM      2  C   UNL     1      -3.217  12.837 -30.076  1.00  0.00    -0.028 C 
ATOM      3  C   UNL     1      -2.810  10.578 -29.073  1.00  0.00     0.039 C 
ENDROOT
BRANCH   1   4
ATOM      4  C   UNL     1      -4.211  12.409 -27.851  1.00  0.00     0.034 C 
BRANCH   4   5
ATOM      5  C   UNL     1      -4.324  13.938 -27.764  1.00  0.00     0.032 C 
BRANCH   5   6
ATOM      6  C   UNL     1      -5.763  14.395 -27.740  1.00  0.00    -0.028 C 
ATOM      7  C   UNL     1      -5.846  14.830 -30.206  1.00  0.00     0.039 C 
ATOM      8  C   UNL     1      -6.468  14.768 -28.831  1.00  0.00    -0.080 C 
ATOM      9  C   UNL     1      -7.915  15.150 -28.653  1.00  0.00     0.039 C 
ENDBRANCH   5   6
ENDBRANCH   4   5
ENDBRANCH   1   4
BRANCH   2  10
ATOM     10  C   UNL     1      -2.373  12.552 -31.294  1.00  0.00     0.035 C 
BRANCH  10  11
ATOM     11  C   UNL     1      -1.164  13.492 -31.343  1.00  0.00     0.079 C 
BRANCH  11  12
ATOM     12  C   UNL     1       0.022  12.871 -30.654  1.00  0.00     0.130 C 
ATOM     13  O   UNL     1       0.813  12.204 -31.303  1.00  0.00    -0.300 OA
ATOM     14  C   UNL     1       0.247  13.041 -29.180  1.00  0.00     0.087 C 
ENDBRANCH  11  12
ENDBRANCH  10  11
ENDBRANCH   2  10
TORSDOF 6
ENDMDL
MODEL 5
REMARK VINA RESULT:    -5.643      1.558      2.190
REMARK INTER + INTRA:          -8.762
REMARK INTER:                  -8.022
REMARK INTRA:                  -0.740
REMARK UNBOUND:                -1.140
REMARK SMILES CC(=O)CCC=C(C)CCC=C(C)C
REMARK SMILES IDX 7 1 6 2 8 3 9 4 10 5 11 6 13 7 12 8 14 9 5 10 4 11 2 12 3 13
REMARK SMILES IDX 1 14
REMARK H PARENT
REMARK Flexibility Score: inf
ROOT
ATOM      1  C   UNL     1      -2.837  12.208 -28.396  1.00  0.00    -0.077 C 
ATOM      2  C   UNL     1      -1.890  13.174 -28.351  1.00  0.00    -0.028 C 
ATOM      3  C   UNL     1      -2.528  10.810 -28.877  1.00  0.00     0.039 C 
ENDROOT
BRANCH   1   4
ATOM      4  C   UNL     1      -4.250  12.543 -27.963  1.00  0.00     0.034 C 
BRANCH   4   5
ATOM      5  C   UNL     1      -4.391  14.019 -27.566  1.00  0.00     0.032 C 
BRANCH   5   6
ATOM      6  C   UNL     1      -5.821  14.495 -27.670  1.00  0.00    -0.028 C 
ATOM      7  C   UNL     1      -5.735  14.751 -30.160  1.00  0.00     0.039 C 
ATOM      8  C   UNL     1      -6.446  14.798 -28.829  1.00  0.00    -0.080 C 
ATOM      9  C   UNL     1      -7.895  15.210 -28.776  1.00  0.00     0.039 C 
ENDBRANCH   5   6
ENDBRANCH   4   5
ENDBRANCH   1   4
BRANCH   2  10
ATOM     10  C   UNL     1      -0.436  12.957 -28.689  1.00  0.00     0.035 C 
BRANCH  10  11
ATOM     11  C   UNL     1      -0.044  13.762 -29.932  1.00  0.00     0.079 C 
BRANCH  11  12
ATOM     12  C   UNL     1      -0.641  13.151 -31.172  1.00  0.00     0.130 C 
ATOM     13  O   UNL     1      -1.588  13.699 -31.716  1.00  0.00    -0.300 OA
ATOM     14  C   UNL     1      -0.107  11.873 -31.749  1.00  0.00     0.087 C 
ENDBRANCH  11  12
ENDBRANCH  10  11
ENDBRANCH   2  10
TORSDOF 6
ENDMDL
MODEL 6
REMARK VINA RESULT:    -5.547      1.695      3.404
REMARK INTER + INTRA:          -8.633
REMARK INTER:                  -7.856
REMARK INTRA:                  -0.777
REMARK UNBOUND:                -1.140
REMARK SMILES CC(=O)CCC=C(C)CCC=C(C)C
REMARK SMILES IDX 7 1 6 2 8 3 9 4 10 5 11 6 13 7 12 8 14 9 5 10 4 11 2 12 3 13
REMARK SMILES IDX 1 14
REMARK H PARENT
REMARK Flexibility Score: inf
ROOT
ATOM      1  C   UNL     1      -3.056  12.960 -31.434  1.00  0.00    -0.077 C 
ATOM      2  C   UNL     1      -1.744  13.265 -31.307  1.00  0.00    -0.028 C 
ATOM      3  C   UNL     1      -3.608  11.617 -31.015  1.00  0.00     0.039 C 
ENDROOT
BRANCH   1   4
ATOM      4  C   UNL     1      -3.998  13.991 -32.024  1.00  0.00     0.034 C 
BRANCH   4   5
ATOM      5  C   UNL     1      -5.150  14.326 -31.067  1.00  0.00     0.032 C 
BRANCH   5   6
ATOM      6  C   UNL     1      -4.704  14.311 -29.623  1.00  0.00    -0.028 C 
ATOM      7  C   UNL     1      -6.999  14.774 -28.731  1.00  0.00     0.039 C 
ATOM      8  C   UNL     1      -5.527  14.479 -28.564  1.00  0.00    -0.080 C 
ATOM      9  C   UNL     1      -4.940  14.385 -27.179  1.00  0.00     0.039 C 
ENDBRANCH   5   6
ENDBRANCH   4   5
ENDBRANCH   1   4
BRANCH   2  10
ATOM     10  C   UNL     1      -0.717  12.359 -30.676  1.00  0.00     0.035 C 
BRANCH  10  11
ATOM     11  C   UNL     1      -0.162  12.983 -29.392  1.00  0.00     0.079 C 
BRANCH  11  12
ATOM     12  C   UNL     1      -1.270  13.248 -28.408  1.00  0.00     0.130 C 
ATOM     13  O   UNL     1      -1.501  14.395 -28.056  1.00  0.00    -0.300 OA
ATOM     14  C   UNL     1      -2.092  12.130 -27.836  1.00  0.00     0.087 C 
ENDBRANCH  11  12
ENDBRANCH  10  11
ENDBRANCH   2  10
TORSDOF 6
ENDMDL
MODEL 7
REMARK VINA RESULT:    -5.531      2.536      5.477
REMARK INTER + INTRA:          -8.611
REMARK INTER:                  -7.649
REMARK INTRA:                  -0.962
REMARK UNBOUND:                -1.140
REMARK SMILES CC(=O)CCC=C(C)CCC=C(C)C
REMARK SMILES IDX 7 1 6 2 8 3 9 4 10 5 11 6 13 7 12 8 14 9 5 10 4 11 2 12 3 13
REMARK SMILES IDX 1 14
REMARK H PARENT
REMARK Flexibility Score: inf
ROOT
ATOM      1  C   UNL     1      -3.969  12.226 -30.126  1.00  0.00    -0.077 C 
ATOM      2  C   UNL     1      -4.221  12.625 -28.858  1.00  0.00    -0.028 C 
ATOM      3  C   UNL     1      -3.909  13.207 -31.274  1.00  0.00     0.039 C 
ENDROOT
BRANCH   1   4
ATOM      4  C   UNL     1      -3.753  10.752 -30.405  1.00  0.00     0.034 C 
BRANCH   4   5
ATOM      5  C   UNL     1      -2.349  10.292 -29.986  1.00  0.00     0.032 C 
BRANCH   5   6
ATOM      6  C   UNL     1      -1.280  10.851 -30.895  1.00  0.00    -0.028 C 
ATOM      7  C   UNL     1      -0.489  12.532 -29.215  1.00  0.00     0.039 C 
ATOM      8  C   UNL     1      -0.418  11.834 -30.552  1.00  0.00    -0.080 C 
ATOM      9  C   UNL     1       0.630  12.250 -31.552  1.00  0.00     0.039 C 
ENDBRANCH   5   6
ENDBRANCH   4   5
ENDBRANCH   1   4
BRANCH   2  10
ATOM     10  C   UNL     1      -4.387  14.064 -28.435  1.00  0.00     0.035 C 
BRANCH  10  11
ATOM     11  C   UNL     1      -5.796  14.305 -27.884  1.00  0.00     0.079 C 
BRANCH  11  12
ATOM     12  C   UNL     1      -6.655  15.001 -28.906  1.00  0.00     0.130 C 
ATOM     13  O   UNL     1      -6.155  15.382 -29.953  1.00  0.00    -0.300 OA
ATOM     14  C   UNL     1      -8.114  15.249 -28.661  1.00  0.00     0.087 C 
ENDBRANCH  11  12
ENDBRANCH  10  11
ENDBRANCH   2  10
TORSDOF 6
ENDMDL
MODEL 8
REMARK VINA RESULT:    -5.308      2.178      4.094
REMARK INTER + INTRA:          -8.310
REMARK INTER:                  -6.975
REMARK INTRA:                  -1.335
REMARK UNBOUND:                -1.140
REMARK SMILES CC(=O)CCC=C(C)CCC=C(C)C
REMARK SMILES IDX 7 1 6 2 8 3 9 4 10 5 11 6 13 7 12 8 14 9 5 10 4 11 2 12 3 13
REMARK SMILES IDX 1 14
REMARK H PARENT
REMARK Flexibility Score: inf
ROOT
ATOM      1  C   UNL     1      -0.856  13.216 -28.979  1.00  0.00    -0.077 C 
ATOM      2  C   UNL     1      -1.599  12.137 -28.641  1.00  0.00    -0.028 C 
ATOM      3  C   UNL     1      -0.712  14.405 -28.059  1.00  0.00     0.039 C 
ENDROOT
BRANCH   1   4
ATOM      4  C   UNL     1      -0.157  13.236 -30.324  1.00  0.00     0.034 C 
BRANCH   4   5
ATOM      5  C   UNL     1      -1.064  12.712 -31.447  1.00  0.00     0.032 C 
BRANCH   5   6
ATOM      6  C   UNL     1      -2.202  13.662 -31.739  1.00  0.00    -0.028 C 
ATOM      7  C   UNL     1      -3.974  11.978 -31.189  1.00  0.00     0.039 C 
ATOM      8  C   UNL     1      -3.511  13.356 -31.598  1.00  0.00    -0.080 C 
ATOM      9  C   UNL     1      -4.531  14.429 -31.879  1.00  0.00     0.039 C 
ENDBRANCH   5   6
ENDBRANCH   4   5
ENDBRANCH   1   4
BRANCH   2  10
ATOM     10  C   UNL     1      -2.289  11.961 -27.311  1.00  0.00     0.035 C 
BRANCH  10  11
ATOM     11  C   UNL     1      -3.810  12.035 -27.478  1.00  0.00     0.079 C 
BRANCH  11  12
ATOM     12  C   UNL     1      -4.287  13.460 -27.390  1.00  0.00     0.130 C 
ATOM     13  O   UNL     1      -3.835  14.193 -26.523  1.00  0.00    -0.300 OA
ATOM     14  C   UNL     1      -5.317  14.000 -28.337  1.00  0.00     0.087 C 
ENDBRANCH  11  12
ENDBRANCH  10  11
ENDBRANCH   2  10
TORSDOF 6
ENDMDL
MODEL 9
REMARK VINA RESULT:    -5.274      2.295      4.675
REMARK INTER + INTRA:          -8.264
REMARK INTER:                  -7.596
REMARK INTRA:                  -0.669
REMARK UNBOUND:                -1.140
REMARK SMILES CC(=O)CCC=C(C)CCC=C(C)C
REMARK SMILES IDX 7 1 6 2 8 3 9 4 10 5 11 6 13 7 12 8 14 9 5 10 4 11 2 12 3 13
REMARK SMILES IDX 1 14
REMARK H PARENT
REMARK Flexibility Score: inf
ROOT
ATOM      1  C   UNL     1      -4.241  13.132 -30.309  1.00  0.00    -0.077 C 
ATOM      2  C   UNL     1      -3.941  11.849 -30.002  1.00  0.00    -0.028 C 
ATOM      3  C   UNL     1      -5.026  14.015 -29.367  1.00  0.00     0.039 C 
ENDROOT
BRANCH   1   4
ATOM      4  C   UNL     1      -3.786  13.697 -31.640  1.00  0.00     0.034 C 
BRANCH   4   5
ATOM      5  C   UNL     1      -2.259  13.639 -31.793  1.00  0.00     0.032 C 
BRANCH   5   6
ATOM      6  C   UNL     1      -1.559  13.670 -30.455  1.00  0.00    -0.028 C 
ATOM      7  C   UNL     1       0.379  12.292 -31.244  1.00  0.00     0.039 C 
ATOM      8  C   UNL     1      -0.361  13.097 -30.202  1.00  0.00    -0.080 C 
ATOM      9  C   UNL     1       0.235  13.259 -28.828  1.00  0.00     0.039 C 
ENDBRANCH   5   6
ENDBRANCH   4   5
ENDBRANCH   1   4
BRANCH   2  10
ATOM     10  C   UNL     1      -4.274  11.187 -28.688  1.00  0.00     0.035 C 
BRANCH  10  11
ATOM     11  C   UNL     1      -3.003  10.951 -27.866  1.00  0.00     0.079 C 
BRANCH  11  12
ATOM     12  C   UNL     1      -3.069  11.696 -26.559  1.00  0.00     0.130 C 
ATOM     13  O   UNL     1      -2.837  11.103 -25.517  1.00  0.00    -0.300 OA
ATOM     14  C   UNL     1      -3.426  13.152 -26.507  1.00  0.00     0.087 C 
ENDBRANCH  11  12
ENDBRANCH  10  11
ENDBRANCH   2  10
TORSDOF 6
ENDMDL
