MODEL 1
REMARK VINA RESULT:    -8.192      0.000      0.000
REMARK INTER + INTRA:         -10.978
REMARK INTER:                 -11.065
REMARK INTRA:                   0.087
REMARK UNBOUND:                 0.087
REMARK SMILES O=c1c(-c2ccc(O)cc2)coc2c([C@H]3O[C@H](CO)[C@H](O)[C@@H](O)[C@@H]3O)c(O)ccc12
REMARK SMILES IDX 3 1 11 2 12 3 13 4 30 5 2 6 1 7 29 8 28 9 26 10 14 11 4 12
REMARK SMILES IDX 5 13 6 14 7 15 10 16 9 17 8 18 15 20 24 21 16 22 22 23 17 24
REMARK SMILES IDX 20 25 25 26 23 28 18 30 19 31 21 33 27 35
REMARK H PARENT 8 19 25 27 23 29 19 32 21 34 27 36
REMARK Flexibility Score: inf
ROOT
ATOM      1  C   UNL     1      23.855  26.296  34.218  1.00  0.00     0.065 A 
ATOM      2  C   UNL     1      25.126  26.479  34.772  1.00  0.00     0.208 A 
ATOM      3  O   UNL     1      25.944  25.450  34.952  1.00  0.00    -0.463 OA
ATOM      4  C   UNL     1      25.642  24.198  34.634  1.00  0.00     0.147 A 
ATOM      5  C   UNL     1      24.359  23.923  34.093  1.00  0.00     0.066 A 
ATOM      6  C   UNL     1      23.471  24.991  33.868  1.00  0.00     0.200 A 
ATOM      7  O   UNL     1      22.342  24.782  33.343  1.00  0.00    -0.288 OA
ATOM      8  C   UNL     1      23.994  22.602  33.805  1.00  0.00     0.020 A 
ATOM      9  C   UNL     1      24.854  21.559  34.112  1.00  0.00     0.047 A 
ATOM     10  C   UNL     1      26.109  21.804  34.669  1.00  0.00     0.125 A 
ATOM     11  C   UNL     1      26.578  23.140  34.844  1.00  0.00     0.069 A 
ENDROOT
BRANCH   1  12
ATOM     12  C   UNL     1      22.958  27.462  34.019  1.00  0.00    -0.011 A 
ATOM     13  C   UNL     1      23.484  28.766  34.005  1.00  0.00     0.013 A 
ATOM     14  C   UNL     1      22.642  29.868  33.826  1.00  0.00     0.047 A 
ATOM     15  C   UNL     1      21.266  29.682  33.665  1.00  0.00     0.115 A 
ATOM     16  C   UNL     1      21.572  27.284  33.863  1.00  0.00     0.013 A 
ATOM     17  C   UNL     1      20.732  28.387  33.685  1.00  0.00     0.047 A 
BRANCH  15  18
ATOM     18  O   UNL     1      20.438  30.789  33.488  1.00  0.00    -0.508 OA
ATOM     19  H   UNL     1      19.865  30.893  32.659  1.00  0.00     0.293 HD
ENDBRANCH  15  18
ENDBRANCH   1  12
BRANCH  11  20
ATOM     20  C   UNL     1      28.054  23.341  35.274  1.00  0.00     0.188 C 
ATOM     21  C   UNL     1      28.730  24.747  35.222  1.00  0.00     0.179 C 
ATOM     22  O   UNL     1      28.904  22.392  34.637  1.00  0.00    -0.362 OA
ATOM     23  C   UNL     1      29.140  25.145  33.779  1.00  0.00     0.177 C 
ATOM     24  C   UNL     1      29.056  22.671  33.254  1.00  0.00     0.176 C 
ATOM     25  C   UNL     1      29.846  23.983  33.049  1.00  0.00     0.177 C 
BRANCH  21  26
ATOM     26  O   UNL     1      29.879  24.703  36.033  1.00  0.00    -0.387 OA
ATOM     27  H   UNL     1      29.584  24.461  36.951  1.00  0.00     0.211 HD
ENDBRANCH  21  26
BRANCH  23  28
ATOM     28  O   UNL     1      28.007  25.536  33.050  1.00  0.00    -0.387 OA
ATOM     29  H   UNL     1      28.135  25.220  32.118  1.00  0.00     0.211 HD
ENDBRANCH  23  28
BRANCH  24  30
ATOM     30  C   UNL     1      29.759  21.485  32.579  1.00  0.00     0.191 C 
BRANCH  30  31
ATOM     31  O   UNL     1      29.158  21.200  31.344  1.00  0.00    -0.394 OA
ATOM     32  H   UNL     1      29.711  20.496  30.913  1.00  0.00     0.210 HD
ENDBRANCH  30  31
ENDBRANCH  24  30
BRANCH  25  33
ATOM     33  O   UNL     1      31.190  23.874  33.458  1.00  0.00    -0.388 OA
ATOM     34  H   UNL     1      31.210  23.673  34.428  1.00  0.00     0.211 HD
ENDBRANCH  25  33
ENDBRANCH  11  20
BRANCH  10  35
ATOM     35  O   UNL     1      26.854  20.686  35.055  1.00  0.00    -0.507 OA
ATOM     36  H   UNL     1      26.663  20.142  35.886  1.00  0.00     0.293 HD
ENDBRANCH  10  35
TORSDOF 9
ENDMDL
MODEL 2
REMARK VINA RESULT:    -7.797      1.905      3.339
REMARK INTER + INTRA:         -10.445
REMARK INTER:                 -11.217
REMARK INTRA:                   0.772
REMARK UNBOUND:                 0.087
REMARK SMILES O=c1c(-c2ccc(O)cc2)coc2c([C@H]3O[C@H](CO)[C@H](O)[C@@H](O)[C@@H]3O)c(O)ccc12
REMARK SMILES IDX 3 1 11 2 12 3 13 4 30 5 2 6 1 7 29 8 28 9 26 10 14 11 4 12
REMARK SMILES IDX 5 13 6 14 7 15 10 16 9 17 8 18 15 20 24 21 16 22 22 23 17 24
REMARK SMILES IDX 20 25 25 26 23 28 18 30 19 31 21 33 27 35
REMARK H PARENT 8 19 25 27 23 29 19 32 21 34 27 36
REMARK Flexibility Score: inf
ROOT
ATOM      1  C   UNL     1      22.792  25.383  34.398  1.00  0.00     0.065 A 
ATOM      2  C   UNL     1      23.851  24.858  33.650  1.00  0.00     0.208 A 
ATOM      3  O   UNL     1      24.298  23.629  33.873  1.00  0.00    -0.463 OA
ATOM      4  C   UNL     1      23.798  22.814  34.794  1.00  0.00     0.147 A 
ATOM      5  C   UNL     1      22.739  23.281  35.615  1.00  0.00     0.066 A 
ATOM      6  C   UNL     1      22.224  24.572  35.394  1.00  0.00     0.200 A 
ATOM      7  O   UNL     1      21.251  24.996  36.078  1.00  0.00    -0.288 OA
ATOM      8  C   UNL     1      22.235  22.463  36.632  1.00  0.00     0.020 A 
ATOM      9  C   UNL     1      22.813  21.228  36.884  1.00  0.00     0.047 A 
ATOM     10  C   UNL     1      23.872  20.760  36.106  1.00  0.00     0.125 A 
ATOM     11  C   UNL     1      24.321  21.497  34.970  1.00  0.00     0.069 A 
ENDROOT
BRANCH   1  12
ATOM     12  C   UNL     1      22.303  26.758  34.126  1.00  0.00    -0.011 A 
ATOM     13  C   UNL     1      20.934  26.994  33.910  1.00  0.00     0.013 A 
ATOM     14  C   UNL     1      20.471  28.287  33.645  1.00  0.00     0.047 A 
ATOM     15  C   UNL     1      21.368  29.357  33.586  1.00  0.00     0.115 A 
ATOM     16  C   UNL     1      23.200  27.839  34.058  1.00  0.00     0.013 A 
ATOM     17  C   UNL     1      22.735  29.130  33.793  1.00  0.00     0.047 A 
BRANCH  15  18
ATOM     18  O   UNL     1      20.892  30.639  33.321  1.00  0.00    -0.508 OA
ATOM     19  H   UNL     1      20.072  30.791  32.746  1.00  0.00     0.293 HD
ENDBRANCH  15  18
ENDBRANCH   1  12
BRANCH  11  20
ATOM     20  C   UNL     1      25.358  20.827  34.033  1.00  0.00     0.188 C 
ATOM     21  C   UNL     1      26.333  19.726  34.555  1.00  0.00     0.179 C 
ATOM     22  O   UNL     1      26.103  21.806  33.316  1.00  0.00    -0.362 OA
ATOM     23  C   UNL     1      27.514  20.328  35.363  1.00  0.00     0.177 C 
ATOM     24  C   UNL     1      27.010  22.496  34.161  1.00  0.00     0.176 C 
ATOM     25  C   UNL     1      28.130  21.547  34.646  1.00  0.00     0.177 C 
BRANCH  21  26
ATOM     26  O   UNL     1      26.841  19.036  33.440  1.00  0.00    -0.387 OA
ATOM     27  H   UNL     1      26.948  18.084  33.705  1.00  0.00     0.211 HD
ENDBRANCH  21  26
BRANCH  23  28
ATOM     28  O   UNL     1      27.076  20.708  36.641  1.00  0.00    -0.387 OA
ATOM     29  H   UNL     1      26.111  20.927  36.566  1.00  0.00     0.211 HD
ENDBRANCH  23  28
BRANCH  24  30
ATOM     30  C   UNL     1      27.588  23.698  33.400  1.00  0.00     0.191 C 
BRANCH  30  31
ATOM     31  O   UNL     1      26.879  23.908  32.208  1.00  0.00    -0.394 OA
ATOM     32  H   UNL     1      26.129  23.256  32.204  1.00  0.00     0.210 HD
ENDBRANCH  30  31
ENDBRANCH  24  30
BRANCH  25  33
ATOM     33  O   UNL     1      28.982  21.139  33.601  1.00  0.00    -0.388 OA
ATOM     34  H   UNL     1      29.883  21.518  33.762  1.00  0.00     0.211 HD
ENDBRANCH  25  33
ENDBRANCH  11  20
BRANCH  10  35
ATOM     35  O   UNL     1      24.467  19.561  36.510  1.00  0.00    -0.507 OA
ATOM     36  H   UNL     1      25.357  19.508  36.988  1.00  0.00     0.293 HD
ENDBRANCH  10  35
TORSDOF 9
ENDMDL
MODEL 3
REMARK VINA RESULT:    -7.748      1.463      1.861
REMARK INTER + INTRA:         -10.379
REMARK INTER:                 -10.628
REMARK INTRA:                   0.250
REMARK UNBOUND:                 0.087
REMARK SMILES O=c1c(-c2ccc(O)cc2)coc2c([C@H]3O[C@H](CO)[C@H](O)[C@@H](O)[C@@H]3O)c(O)ccc12
REMARK SMILES IDX 3 1 11 2 12 3 13 4 30 5 2 6 1 7 29 8 28 9 26 10 14 11 4 12
REMARK SMILES IDX 5 13 6 14 7 15 10 16 9 17 8 18 15 20 24 21 16 22 22 23 17 24
REMARK SMILES IDX 20 25 25 26 23 28 18 30 19 31 21 33 27 35
REMARK H PARENT 8 19 25 27 23 29 19 32 21 34 27 36
REMARK Flexibility Score: inf
ROOT
ATOM      1  C   UNL     1      23.183  26.436  34.534  1.00  0.00     0.065 A 
ATOM      2  C   UNL     1      24.578  26.407  34.640  1.00  0.00     0.208 A 
ATOM      3  O   UNL     1      25.214  25.284  34.945  1.00  0.00    -0.463 OA
ATOM      4  C   UNL     1      24.607  24.124  35.169  1.00  0.00     0.147 A 
ATOM      5  C   UNL     1      23.190  24.075  35.108  1.00  0.00     0.066 A 
ATOM      6  C   UNL     1      22.481  25.241  34.767  1.00  0.00     0.200 A 
ATOM      7  O   UNL     1      21.223  25.215  34.658  1.00  0.00    -0.288 OA
ATOM      8  C   UNL     1      22.522  22.879  35.397  1.00  0.00     0.020 A 
ATOM      9  C   UNL     1      23.237  21.765  35.810  1.00  0.00     0.047 A 
ATOM     10  C   UNL     1      24.629  21.799  35.902  1.00  0.00     0.125 A 
ATOM     11  C   UNL     1      25.357  22.950  35.479  1.00  0.00     0.069 A 
ENDROOT
BRANCH   1  12
ATOM     12  C   UNL     1      22.492  27.702  34.185  1.00  0.00    -0.011 A 
ATOM     13  C   UNL     1      23.210  28.910  34.133  1.00  0.00     0.013 A 
ATOM     14  C   UNL     1      22.560  30.106  33.813  1.00  0.00     0.047 A 
ATOM     15  C   UNL     1      21.188  30.112  33.547  1.00  0.00     0.115 A 
ATOM     16  C   UNL     1      21.110  27.718  33.923  1.00  0.00     0.013 A 
ATOM     17  C   UNL     1      20.464  28.915  33.604  1.00  0.00     0.047 A 
BRANCH  15  18
ATOM     18  O   UNL     1      20.555  31.312  33.230  1.00  0.00    -0.508 OA
ATOM     19  H   UNL     1      21.025  32.203  33.339  1.00  0.00     0.293 HD
ENDBRANCH  15  18
ENDBRANCH   1  12
BRANCH  11  20
ATOM     20  C   UNL     1      26.903  22.848  35.415  1.00  0.00     0.188 C 
ATOM     21  C   UNL     1      27.748  23.856  34.575  1.00  0.00     0.179 C 
ATOM     22  O   UNL     1      27.313  21.522  35.099  1.00  0.00    -0.362 OA
ATOM     23  C   UNL     1      27.706  23.533  33.058  1.00  0.00     0.177 C 
ATOM     24  C   UNL     1      27.033  21.194  33.748  1.00  0.00     0.176 C 
ATOM     25  C   UNL     1      27.916  22.028  32.792  1.00  0.00     0.177 C 
BRANCH  21  26
ATOM     26  O   UNL     1      29.079  23.783  35.026  1.00  0.00    -0.387 OA
ATOM     27  H   UNL     1      29.051  23.572  35.997  1.00  0.00     0.211 HD
ENDBRANCH  21  26
BRANCH  23  28
ATOM     28  O   UNL     1      26.476  23.937  32.516  1.00  0.00    -0.387 OA
ATOM     29  H   UNL     1      26.641  24.184  31.569  1.00  0.00     0.211 HD
ENDBRANCH  23  28
BRANCH  24  30
ATOM     30  C   UNL     1      27.254  19.689  33.541  1.00  0.00     0.191 C 
BRANCH  30  31
ATOM     31  O   UNL     1      26.041  19.054  33.237  1.00  0.00    -0.394 OA
ATOM     32  H   UNL     1      25.989  18.247  33.814  1.00  0.00     0.210 HD
ENDBRANCH  30  31
ENDBRANCH  24  30
BRANCH  25  33
ATOM     33  O   UNL     1      29.280  21.686  32.881  1.00  0.00    -0.388 OA
ATOM     34  H   UNL     1      29.354  20.787  33.292  1.00  0.00     0.211 HD
ENDBRANCH  25  33
ENDBRANCH  11  20
BRANCH  10  35
ATOM     35  O   UNL     1      25.250  20.669  36.443  1.00  0.00    -0.507 OA
ATOM     36  H   UNL     1      25.849  20.692  37.258  1.00  0.00     0.293 HD
ENDBRANCH  10  35
TORSDOF 9
ENDMDL
MODEL 4
REMARK VINA RESULT:    -7.551      2.247      4.073
REMARK INTER + INTRA:         -10.112
REMARK INTER:                  -9.377
REMARK INTRA:                  -0.735
REMARK UNBOUND:                 0.087
REMARK SMILES O=c1c(-c2ccc(O)cc2)coc2c([C@H]3O[C@H](CO)[C@H](O)[C@@H](O)[C@@H]3O)c(O)ccc12
REMARK SMILES IDX 3 1 11 2 12 3 13 4 30 5 2 6 1 7 29 8 28 9 26 10 14 11 4 12
REMARK SMILES IDX 5 13 6 14 7 15 10 16 9 17 8 18 15 20 24 21 16 22 22 23 17 24
REMARK SMILES IDX 20 25 25 26 23 28 18 30 19 31 21 33 27 35
REMARK H PARENT 8 19 25 27 23 29 19 32 21 34 27 36
REMARK Flexibility Score: inf
ROOT
ATOM      1  C   UNL     1      22.961  25.031  33.974  1.00  0.00     0.065 A 
ATOM      2  C   UNL     1      23.091  23.693  33.587  1.00  0.00     0.208 A 
ATOM      3  O   UNL     1      24.275  23.094  33.595  1.00  0.00    -0.463 OA
ATOM      4  C   UNL     1      25.404  23.689  33.958  1.00  0.00     0.147 A 
ATOM      5  C   UNL     1      25.363  25.056  34.338  1.00  0.00     0.066 A 
ATOM      6  C   UNL     1      24.122  25.719  34.362  1.00  0.00     0.200 A 
ATOM      7  O   UNL     1      24.050  26.921  34.742  1.00  0.00    -0.288 OA
ATOM      8  C   UNL     1      26.549  25.722  34.668  1.00  0.00     0.020 A 
ATOM      9  C   UNL     1      27.768  25.071  34.557  1.00  0.00     0.047 A 
ATOM     10  C   UNL     1      27.834  23.735  34.161  1.00  0.00     0.125 A 
ATOM     11  C   UNL     1      26.643  22.978  33.955  1.00  0.00     0.069 A 
ENDROOT
BRANCH   1  12
ATOM     12  C   UNL     1      21.626  25.679  33.964  1.00  0.00    -0.011 A 
ATOM     13  C   UNL     1      20.999  26.027  35.173  1.00  0.00     0.013 A 
ATOM     14  C   UNL     1      19.737  26.630  35.169  1.00  0.00     0.047 A 
ATOM     15  C   UNL     1      19.084  26.885  33.959  1.00  0.00     0.115 A 
ATOM     16  C   UNL     1      20.959  25.933  32.752  1.00  0.00     0.013 A 
ATOM     17  C   UNL     1      19.698  26.534  32.750  1.00  0.00     0.047 A 
BRANCH  15  18
ATOM     18  O   UNL     1      17.826  27.486  33.970  1.00  0.00    -0.508 OA
ATOM     19  H   UNL     1      17.631  28.294  34.550  1.00  0.00     0.293 HD
ENDBRANCH  15  18
ENDBRANCH   1  12
BRANCH  11  20
ATOM     20  C   UNL     1      26.783  21.453  33.717  1.00  0.00     0.188 C 
ATOM     21  C   UNL     1      25.556  20.496  33.838  1.00  0.00     0.179 C 
ATOM     22  O   UNL     1      27.866  20.917  34.471  1.00  0.00    -0.362 OA
ATOM     23  C   UNL     1      25.197  20.190  35.316  1.00  0.00     0.177 C 
ATOM     24  C   UNL     1      27.570  20.879  35.858  1.00  0.00     0.176 C 
ATOM     25  C   UNL     1      26.452  19.851  36.146  1.00  0.00     0.177 C 
BRANCH  21  26
ATOM     26  O   UNL     1      25.881  19.294  33.183  1.00  0.00    -0.387 OA
ATOM     27  H   UNL     1      25.155  19.107  32.530  1.00  0.00     0.211 HD
ENDBRANCH  21  26
BRANCH  23  28
ATOM     28  O   UNL     1      24.540  21.290  35.887  1.00  0.00    -0.387 OA
ATOM     29  H   UNL     1      23.700  20.951  36.292  1.00  0.00     0.211 HD
ENDBRANCH  23  28
BRANCH  24  30
ATOM     30  C   UNL     1      28.851  20.543  36.634  1.00  0.00     0.191 C 
BRANCH  30  31
ATOM     31  O   UNL     1      29.961  21.155  36.033  1.00  0.00    -0.394 OA
ATOM     32  H   UNL     1      30.437  21.650  36.751  1.00  0.00     0.210 HD
ENDBRANCH  30  31
ENDBRANCH  24  30
BRANCH  25  33
ATOM     33  O   UNL     1      26.866  18.525  35.916  1.00  0.00    -0.388 OA
ATOM     34  H   UNL     1      27.835  18.527  35.707  1.00  0.00     0.211 HD
ENDBRANCH  25  33
ENDBRANCH  11  20
BRANCH  10  35
ATOM     35  O   UNL     1      29.111  23.202  33.961  1.00  0.00    -0.507 OA
ATOM     36  H   UNL     1      29.963  23.743  34.025  1.00  0.00     0.293 HD
ENDBRANCH  10  35
TORSDOF 9
ENDMDL
MODEL 5
REMARK VINA RESULT:    -7.508      4.004      5.650
REMARK INTER + INTRA:         -10.054
REMARK INTER:                  -9.452
REMARK INTRA:                  -0.602
REMARK UNBOUND:                 0.087
REMARK SMILES O=c1c(-c2ccc(O)cc2)coc2c([C@H]3O[C@H](CO)[C@H](O)[C@@H](O)[C@@H]3O)c(O)ccc12
REMARK SMILES IDX 3 1 11 2 12 3 13 4 30 5 2 6 1 7 29 8 28 9 26 10 14 11 4 12
REMARK SMILES IDX 5 13 6 14 7 15 10 16 9 17 8 18 15 20 24 21 16 22 22 23 17 24
REMARK SMILES IDX 20 25 25 26 23 28 18 30 19 31 21 33 27 35
REMARK H PARENT 8 19 25 27 23 29 19 32 21 34 27 36
REMARK Flexibility Score: inf
ROOT
ATOM      1  C   UNL     1      25.996  22.512  35.295  1.00  0.00     0.065 A 
ATOM      2  C   UNL     1      27.148  22.619  36.081  1.00  0.00     0.208 A 
ATOM      3  O   UNL     1      28.274  23.104  35.575  1.00  0.00    -0.463 OA
ATOM      4  C   UNL     1      28.405  23.518  34.320  1.00  0.00     0.147 A 
ATOM      5  C   UNL     1      27.290  23.417  33.449  1.00  0.00     0.066 A 
ATOM      6  C   UNL     1      26.072  22.926  33.955  1.00  0.00     0.200 A 
ATOM      7  O   UNL     1      25.050  22.870  33.216  1.00  0.00    -0.288 OA
ATOM      8  C   UNL     1      27.419  23.792  32.106  1.00  0.00     0.020 A 
ATOM      9  C   UNL     1      28.650  24.194  31.611  1.00  0.00     0.047 A 
ATOM     10  C   UNL     1      29.766  24.276  32.444  1.00  0.00     0.125 A 
ATOM     11  C   UNL     1      29.646  24.043  33.845  1.00  0.00     0.069 A 
ENDROOT
BRANCH   1  12
ATOM     12  C   UNL     1      24.745  21.972  35.885  1.00  0.00    -0.011 A 
ATOM     13  C   UNL     1      23.729  22.845  36.312  1.00  0.00     0.013 A 
ATOM     14  C   UNL     1      22.553  22.341  36.876  1.00  0.00     0.047 A 
ATOM     15  C   UNL     1      22.379  20.962  37.026  1.00  0.00     0.115 A 
ATOM     16  C   UNL     1      24.566  20.586  36.045  1.00  0.00     0.013 A 
ATOM     17  C   UNL     1      23.389  20.085  36.610  1.00  0.00     0.047 A 
BRANCH  15  18
ATOM     18  O   UNL     1      21.202  20.474  37.589  1.00  0.00    -0.508 OA
ATOM     19  H   UNL     1      20.821  19.574  37.322  1.00  0.00     0.293 HD
ENDBRANCH  15  18
ENDBRANCH   1  12
BRANCH  11  20
ATOM     20  C   UNL     1      30.874  24.349  34.741  1.00  0.00     0.188 C 
ATOM     21  C   UNL     1      30.754  24.392  36.296  1.00  0.00     0.179 C 
ATOM     22  O   UNL     1      31.551  25.519  34.294  1.00  0.00    -0.362 OA
ATOM     23  C   UNL     1      30.113  25.714  36.796  1.00  0.00     0.177 C 
ATOM     24  C   UNL     1      30.803  26.694  34.568  1.00  0.00     0.176 C 
ATOM     25  C   UNL     1      30.723  26.943  36.091  1.00  0.00     0.177 C 
BRANCH  21  26
ATOM     26  O   UNL     1      32.050  24.276  36.832  1.00  0.00    -0.387 OA
ATOM     27  H   UNL     1      32.305  25.169  37.186  1.00  0.00     0.211 HD
ENDBRANCH  21  26
BRANCH  23  28
ATOM     28  O   UNL     1      28.727  25.688  36.576  1.00  0.00    -0.387 OA
ATOM     29  H   UNL     1      28.570  25.135  35.767  1.00  0.00     0.211 HD
ENDBRANCH  23  28
BRANCH  24  30
ATOM     30  C   UNL     1      31.451  27.881  33.841  1.00  0.00     0.191 C 
BRANCH  30  31
ATOM     31  O   UNL     1      31.630  28.955  34.725  1.00  0.00    -0.394 OA
ATOM     32  H   UNL     1      30.921  29.619  34.514  1.00  0.00     0.210 HD
ENDBRANCH  30  31
ENDBRANCH  24  30
BRANCH  25  33
ATOM     33  O   UNL     1      31.973  27.275  36.650  1.00  0.00    -0.388 OA
ATOM     34  H   UNL     1      32.679  26.779  36.164  1.00  0.00     0.211 HD
ENDBRANCH  25  33
ENDBRANCH  11  20
BRANCH  10  35
ATOM     35  O   UNL     1      30.986  24.573  31.830  1.00  0.00    -0.507 OA
ATOM     36  H   UNL     1      31.384  24.030  31.075  1.00  0.00     0.293 HD
ENDBRANCH  10  35
TORSDOF 9
ENDMDL
MODEL 6
REMARK VINA RESULT:    -7.478      1.968      2.389
REMARK INTER + INTRA:         -10.013
REMARK INTER:                  -9.251
REMARK INTRA:                  -0.762
REMARK UNBOUND:                 0.087
REMARK SMILES O=c1c(-c2ccc(O)cc2)coc2c([C@H]3O[C@H](CO)[C@H](O)[C@@H](O)[C@@H]3O)c(O)ccc12
REMARK SMILES IDX 3 1 11 2 12 3 13 4 30 5 2 6 1 7 29 8 28 9 26 10 14 11 4 12
REMARK SMILES IDX 5 13 6 14 7 15 10 16 9 17 8 18 15 20 24 21 16 22 22 23 17 24
REMARK SMILES IDX 20 25 25 26 23 28 18 30 19 31 21 33 27 35
REMARK H PARENT 8 19 25 27 23 29 19 32 21 34 27 36
REMARK Flexibility Score: inf
ROOT
ATOM      1  C   UNL     1      23.798  24.665  34.384  1.00  0.00     0.065 A 
ATOM      2  C   UNL     1      24.916  25.503  34.313  1.00  0.00     0.208 A 
ATOM      3  O   UNL     1      26.113  25.076  34.691  1.00  0.00    -0.463 OA
ATOM      4  C   UNL     1      26.351  23.855  35.155  1.00  0.00     0.147 A 
ATOM      5  C   UNL     1      25.265  22.951  35.284  1.00  0.00     0.066 A 
ATOM      6  C   UNL     1      23.984  23.362  34.874  1.00  0.00     0.200 A 
ATOM      7  O   UNL     1      23.008  22.562  34.933  1.00  0.00    -0.288 OA
ATOM      8  C   UNL     1      25.480  21.678  35.826  1.00  0.00     0.020 A 
ATOM      9  C   UNL     1      26.735  21.325  36.299  1.00  0.00     0.047 A 
ATOM     10  C   UNL     1      27.811  22.208  36.206  1.00  0.00     0.125 A 
ATOM     11  C   UNL     1      27.670  23.457  35.531  1.00  0.00     0.069 A 
ENDROOT
BRANCH   1  12
ATOM     12  C   UNL     1      22.469  25.163  33.948  1.00  0.00    -0.011 A 
ATOM     13  C   UNL     1      21.916  24.732  32.730  1.00  0.00     0.013 A 
ATOM     14  C   UNL     1      20.668  25.206  32.312  1.00  0.00     0.047 A 
ATOM     15  C   UNL     1      19.962  26.118  33.101  1.00  0.00     0.115 A 
ATOM     16  C   UNL     1      21.756  26.086  34.733  1.00  0.00     0.013 A 
ATOM     17  C   UNL     1      20.510  26.559  34.313  1.00  0.00     0.047 A 
BRANCH  15  18
ATOM     18  O   UNL     1      18.720  26.582  32.672  1.00  0.00    -0.508 OA
ATOM     19  H   UNL     1      18.273  26.208  31.843  1.00  0.00     0.293 HD
ENDBRANCH  15  18
ENDBRANCH   1  12
BRANCH  11  20
ATOM     20  C   UNL     1      28.949  24.297  35.284  1.00  0.00     0.188 C 
ATOM     21  C   UNL     1      28.951  25.499  34.288  1.00  0.00     0.179 C 
ATOM     22  O   UNL     1      30.064  23.457  35.002  1.00  0.00    -0.362 OA
ATOM     23  C   UNL     1      29.023  25.032  32.810  1.00  0.00     0.177 C 
ATOM     24  C   UNL     1      29.960  22.864  33.717  1.00  0.00     0.176 C 
ATOM     25  C   UNL     1      30.091  23.937  32.612  1.00  0.00     0.177 C 
BRANCH  21  26
ATOM     26  O   UNL     1      30.075  26.295  34.575  1.00  0.00    -0.387 OA
ATOM     27  H   UNL     1      30.787  26.047  33.928  1.00  0.00     0.211 HD
ENDBRANCH  21  26
BRANCH  23  28
ATOM     28  O   UNL     1      27.772  24.546  32.400  1.00  0.00    -0.387 OA
ATOM     29  H   UNL     1      27.107  25.259  32.583  1.00  0.00     0.211 HD
ENDBRANCH  23  28
BRANCH  24  30
ATOM     30  C   UNL     1      31.041  21.783  33.576  1.00  0.00     0.191 C 
BRANCH  30  31
ATOM     31  O   UNL     1      31.296  21.521  32.222  1.00  0.00    -0.394 OA
ATOM     32  H   UNL     1      31.077  22.354  31.725  1.00  0.00     0.210 HD
ENDBRANCH  30  31
ENDBRANCH  24  30
BRANCH  25  33
ATOM     33  O   UNL     1      31.382  24.497  32.553  1.00  0.00    -0.388 OA
ATOM     34  H   UNL     1      31.309  25.475  32.694  1.00  0.00     0.211 HD
ENDBRANCH  25  33
ENDBRANCH  11  20
BRANCH  10  35
ATOM     35  O   UNL     1      29.004  21.811  36.818  1.00  0.00    -0.507 OA
ATOM     36  H   UNL     1      29.047  21.328  37.706  1.00  0.00     0.293 HD
ENDBRANCH  10  35
TORSDOF 9
ENDMDL
MODEL 7
REMARK VINA RESULT:    -7.148      2.080      3.083
REMARK INTER + INTRA:          -9.568
REMARK INTER:                 -10.065
REMARK INTRA:                   0.497
REMARK UNBOUND:                 0.087
REMARK SMILES O=c1c(-c2ccc(O)cc2)coc2c([C@H]3O[C@H](CO)[C@H](O)[C@@H](O)[C@@H]3O)c(O)ccc12
REMARK SMILES IDX 3 1 11 2 12 3 13 4 30 5 2 6 1 7 29 8 28 9 26 10 14 11 4 12
REMARK SMILES IDX 5 13 6 14 7 15 10 16 9 17 8 18 15 20 24 21 16 22 22 23 17 24
REMARK SMILES IDX 20 25 25 26 23 28 18 30 19 31 21 33 27 35
REMARK H PARENT 8 19 25 27 23 29 19 32 21 34 27 36
REMARK Flexibility Score: inf
ROOT
ATOM      1  C   UNL     1      23.552  23.765  33.819  1.00  0.00     0.065 A 
ATOM      2  C   UNL     1      24.711  23.868  33.042  1.00  0.00     0.208 A 
ATOM      3  O   UNL     1      25.698  22.992  33.171  1.00  0.00    -0.463 OA
ATOM      4  C   UNL     1      25.678  21.972  34.020  1.00  0.00     0.147 A 
ATOM      5  C   UNL     1      24.550  21.812  34.866  1.00  0.00     0.066 A 
ATOM      6  C   UNL     1      23.473  22.709  34.743  1.00  0.00     0.200 A 
ATOM      7  O   UNL     1      22.437  22.562  35.450  1.00  0.00    -0.288 OA
ATOM      8  C   UNL     1      24.529  20.779  35.810  1.00  0.00     0.020 A 
ATOM      9  C   UNL     1      25.636  19.958  35.968  1.00  0.00     0.047 A 
ATOM     10  C   UNL     1      26.765  20.114  35.165  1.00  0.00     0.125 A 
ATOM     11  C   UNL     1      26.772  21.058  34.096  1.00  0.00     0.069 A 
ENDROOT
BRANCH   1  12
ATOM     12  C   UNL     1      22.457  24.752  33.653  1.00  0.00    -0.011 A 
ATOM     13  C   UNL     1      22.284  25.784  34.592  1.00  0.00     0.013 A 
ATOM     14  C   UNL     1      21.247  26.711  34.443  1.00  0.00     0.047 A 
ATOM     15  C   UNL     1      20.369  26.615  33.361  1.00  0.00     0.115 A 
ATOM     16  C   UNL     1      21.564  24.659  32.570  1.00  0.00     0.013 A 
ATOM     17  C   UNL     1      20.529  25.586  32.425  1.00  0.00     0.047 A 
BRANCH  15  18
ATOM     18  O   UNL     1      19.340  27.546  33.226  1.00  0.00    -0.508 OA
ATOM     19  H   UNL     1      19.057  28.137  33.998  1.00  0.00     0.293 HD
ENDBRANCH  15  18
ENDBRANCH   1  12
BRANCH  11  20
ATOM     20  C   UNL     1      27.975  21.039  33.118  1.00  0.00     0.188 C 
ATOM     21  C   UNL     1      29.379  20.527  33.567  1.00  0.00     0.179 C 
ATOM     22  O   UNL     1      28.124  22.299  32.471  1.00  0.00    -0.362 OA
ATOM     23  C   UNL     1      30.140  21.579  34.416  1.00  0.00     0.177 C 
ATOM     24  C   UNL     1      28.605  23.292  33.363  1.00  0.00     0.176 C 
ATOM     25  C   UNL     1      30.060  22.984  33.785  1.00  0.00     0.177 C 
BRANCH  21  26
ATOM     26  O   UNL     1      30.125  20.242  32.408  1.00  0.00    -0.387 OA
ATOM     27  H   UNL     1      30.326  19.268  32.418  1.00  0.00     0.211 HD
ENDBRANCH  21  26
BRANCH  23  28
ATOM     28  O   UNL     1      29.612  21.618  35.716  1.00  0.00    -0.387 OA
ATOM     29  H   UNL     1      28.720  21.186  35.682  1.00  0.00     0.211 HD
ENDBRANCH  23  28
BRANCH  24  30
ATOM     30  C   UNL     1      28.499  24.666  32.686  1.00  0.00     0.191 C 
BRANCH  30  31
ATOM     31  O   UNL     1      27.762  24.569  31.497  1.00  0.00    -0.394 OA
ATOM     32  H   UNL     1      27.130  25.336  31.490  1.00  0.00     0.210 HD
ENDBRANCH  30  31
ENDBRANCH  24  30
BRANCH  25  33
ATOM     33  O   UNL     1      30.970  23.110  32.717  1.00  0.00    -0.388 OA
ATOM     34  H   UNL     1      31.501  23.936  32.850  1.00  0.00     0.211 HD
ENDBRANCH  25  33
ENDBRANCH  11  20
BRANCH  10  35
ATOM     35  O   UNL     1      27.874  19.322  35.479  1.00  0.00    -0.507 OA
ATOM     36  H   UNL     1      28.357  18.740  34.808  1.00  0.00     0.293 HD
ENDBRANCH  10  35
TORSDOF 9
ENDMDL
MODEL 8
REMARK VINA RESULT:    -6.987      3.644      6.722
REMARK INTER + INTRA:          -9.351
REMARK INTER:                  -8.633
REMARK INTRA:                  -0.718
REMARK UNBOUND:                 0.087
REMARK SMILES O=c1c(-c2ccc(O)cc2)coc2c([C@H]3O[C@H](CO)[C@H](O)[C@@H](O)[C@@H]3O)c(O)ccc12
REMARK SMILES IDX 3 1 11 2 12 3 13 4 30 5 2 6 1 7 29 8 28 9 26 10 14 11 4 12
REMARK SMILES IDX 5 13 6 14 7 15 10 16 9 17 8 18 15 20 24 21 16 22 22 23 17 24
REMARK SMILES IDX 20 25 25 26 23 28 18 30 19 31 21 33 27 35
REMARK H PARENT 8 19 25 27 23 29 19 32 21 34 27 36
REMARK Flexibility Score: inf
ROOT
ATOM      1  C   UNL     1      28.695  24.589  34.581  1.00  0.00     0.065 A 
ATOM      2  C   UNL     1      27.310  24.762  34.672  1.00  0.00     0.208 A 
ATOM      3  O   UNL     1      26.487  23.724  34.600  1.00  0.00    -0.463 OA
ATOM      4  C   UNL     1      26.890  22.469  34.441  1.00  0.00     0.147 A 
ATOM      5  C   UNL     1      28.279  22.210  34.312  1.00  0.00     0.066 A 
ATOM      6  C   UNL     1      29.184  23.284  34.404  1.00  0.00     0.200 A 
ATOM      7  O   UNL     1      30.428  23.077  34.341  1.00  0.00    -0.288 OA
ATOM      8  C   UNL     1      28.725  20.903  34.084  1.00  0.00     0.020 A 
ATOM      9  C   UNL     1      27.810  19.875  33.915  1.00  0.00     0.047 A 
ATOM     10  C   UNL     1      26.439  20.111  34.012  1.00  0.00     0.125 A 
ATOM     11  C   UNL     1      25.948  21.397  34.385  1.00  0.00     0.069 A 
ENDROOT
BRANCH   1  12
ATOM     12  C   UNL     1      29.596  25.764  34.672  1.00  0.00    -0.011 A 
ATOM     13  C   UNL     1      29.922  26.313  35.925  1.00  0.00     0.013 A 
ATOM     14  C   UNL     1      30.765  27.425  36.013  1.00  0.00     0.047 A 
ATOM     15  C   UNL     1      31.286  28.007  34.854  1.00  0.00     0.115 A 
ATOM     16  C   UNL     1      30.119  26.360  33.509  1.00  0.00     0.013 A 
ATOM     17  C   UNL     1      30.960  27.472  33.601  1.00  0.00     0.047 A 
BRANCH  15  18
ATOM     18  O   UNL     1      32.124  29.116  34.958  1.00  0.00    -0.508 OA
ATOM     19  H   UNL     1      33.132  29.018  34.954  1.00  0.00     0.293 HD
ENDBRANCH  15  18
ENDBRANCH   1  12
BRANCH  11  20
ATOM     20  C   UNL     1      24.431  21.540  34.673  1.00  0.00     0.188 C 
ATOM     21  C   UNL     1      23.847  22.832  35.327  1.00  0.00     0.179 C 
ATOM     22  O   UNL     1      23.936  20.402  35.371  1.00  0.00    -0.362 OA
ATOM     23  C   UNL     1      24.100  22.879  36.857  1.00  0.00     0.177 C 
ATOM     24  C   UNL     1      24.395  20.370  36.714  1.00  0.00     0.176 C 
ATOM     25  C   UNL     1      23.774  21.528  37.527  1.00  0.00     0.177 C 
BRANCH  21  26
ATOM     26  O   UNL     1      22.461  22.847  35.087  1.00  0.00    -0.387 OA
ATOM     27  H   UNL     1      22.301  23.453  34.316  1.00  0.00     0.211 HD
ENDBRANCH  21  26
BRANCH  23  28
ATOM     28  O   UNL     1      25.438  23.218  37.111  1.00  0.00    -0.387 OA
ATOM     29  H   UNL     1      25.990  22.769  36.419  1.00  0.00     0.211 HD
ENDBRANCH  23  28
BRANCH  24  30
ATOM     30  C   UNL     1      24.049  19.007  37.329  1.00  0.00     0.191 C 
BRANCH  30  31
ATOM     31  O   UNL     1      23.048  18.373  36.579  1.00  0.00    -0.394 OA
ATOM     32  H   UNL     1      22.365  19.066  36.372  1.00  0.00     0.210 HD
ENDBRANCH  30  31
ENDBRANCH  24  30
BRANCH  25  33
ATOM     33  O   UNL     1      22.385  21.377  37.708  1.00  0.00    -0.388 OA
ATOM     34  H   UNL     1      22.022  20.859  36.945  1.00  0.00     0.211 HD
ENDBRANCH  25  33
ENDBRANCH  11  20
BRANCH  10  35
ATOM     35  O   UNL     1      25.594  19.040  33.707  1.00  0.00    -0.507 OA
ATOM     36  H   UNL     1      24.607  19.022  33.928  1.00  0.00     0.293 HD
ENDBRANCH  10  35
TORSDOF 9
ENDMDL
MODEL 9
REMARK VINA RESULT:    -6.910      2.153      2.581
REMARK INTER + INTRA:          -9.247
REMARK INTER:                  -9.029
REMARK INTRA:                  -0.217
REMARK UNBOUND:                 0.087
REMARK SMILES O=c1c(-c2ccc(O)cc2)coc2c([C@H]3O[C@H](CO)[C@H](O)[C@@H](O)[C@@H]3O)c(O)ccc12
REMARK SMILES IDX 3 1 11 2 12 3 13 4 30 5 2 6 1 7 29 8 28 9 26 10 14 11 4 12
REMARK SMILES IDX 5 13 6 14 7 15 10 16 9 17 8 18 15 20 24 21 16 22 22 23 17 24
REMARK SMILES IDX 20 25 25 26 23 28 18 30 19 31 21 33 27 35
REMARK H PARENT 8 19 25 27 23 29 19 32 21 34 27 36
REMARK Flexibility Score: inf
ROOT
ATOM      1  C   UNL     1      22.511  25.264  35.184  1.00  0.00     0.065 A 
ATOM      2  C   UNL     1      23.711  25.823  34.733  1.00  0.00     0.208 A 
ATOM      3  O   UNL     1      24.874  25.243  34.998  1.00  0.00    -0.463 OA
ATOM      4  C   UNL     1      25.000  24.118  35.691  1.00  0.00     0.147 A 
ATOM      5  C   UNL     1      23.832  23.502  36.208  1.00  0.00     0.066 A 
ATOM      6  C   UNL     1      22.578  24.076  35.931  1.00  0.00     0.200 A 
ATOM      7  O   UNL     1      21.518  23.523  36.338  1.00  0.00    -0.288 OA
ATOM      8  C   UNL     1      23.943  22.347  36.992  1.00  0.00     0.020 A 
ATOM      9  C   UNL     1      25.193  21.846  37.321  1.00  0.00     0.047 A 
ATOM     10  C   UNL     1      26.356  22.451  36.844  1.00  0.00     0.125 A 
ATOM     11  C   UNL     1      26.285  23.541  35.927  1.00  0.00     0.069 A 
ENDROOT
BRANCH   1  12
ATOM     12  C   UNL     1      21.220  25.927  34.869  1.00  0.00    -0.011 A 
ATOM     13  C   UNL     1      20.242  26.082  35.867  1.00  0.00     0.013 A 
ATOM     14  C   UNL     1      19.021  26.698  35.571  1.00  0.00     0.047 A 
ATOM     15  C   UNL     1      18.761  27.160  34.278  1.00  0.00     0.115 A 
ATOM     16  C   UNL     1      20.948  26.388  33.568  1.00  0.00     0.013 A 
ATOM     17  C   UNL     1      19.727  27.002  33.276  1.00  0.00     0.047 A 
BRANCH  15  18
ATOM     18  O   UNL     1      17.540  27.771  33.999  1.00  0.00    -0.508 OA
ATOM     19  H   UNL     1      17.112  27.703  33.083  1.00  0.00     0.293 HD
ENDBRANCH  15  18
ENDBRANCH   1  12
BRANCH  11  20
ATOM     20  C   UNL     1      27.605  24.033  35.279  1.00  0.00     0.188 C 
ATOM     21  C   UNL     1      27.597  24.999  34.054  1.00  0.00     0.179 C 
ATOM     22  O   UNL     1      28.475  22.940  35.004  1.00  0.00    -0.362 OA
ATOM     23  C   UNL     1      27.272  24.260  32.729  1.00  0.00     0.177 C 
ATOM     24  C   UNL     1      28.001  22.152  33.923  1.00  0.00     0.176 C 
ATOM     25  C   UNL     1      28.072  22.948  32.600  1.00  0.00     0.177 C 
BRANCH  21  26
ATOM     26  O   UNL     1      28.874  25.582  33.956  1.00  0.00    -0.387 OA
ATOM     27  H   UNL     1      28.755  26.493  33.578  1.00  0.00     0.211 HD
ENDBRANCH  21  26
BRANCH  23  28
ATOM     28  O   UNL     1      25.898  23.980  32.661  1.00  0.00    -0.387 OA
ATOM     29  H   UNL     1      25.567  23.916  33.595  1.00  0.00     0.211 HD
ENDBRANCH  23  28
BRANCH  24  30
ATOM     30  C   UNL     1      28.828  20.862  33.844  1.00  0.00     0.191 C 
BRANCH  30  31
ATOM     31  O   UNL     1      27.989  19.755  33.652  1.00  0.00    -0.394 OA
ATOM     32  H   UNL     1      27.783  19.393  34.555  1.00  0.00     0.210 HD
ENDBRANCH  30  31
ENDBRANCH  24  30
BRANCH  25  33
ATOM     33  O   UNL     1      29.397  23.204  32.194  1.00  0.00    -0.388 OA
ATOM     34  H   UNL     1      29.377  23.630  31.300  1.00  0.00     0.211 HD
ENDBRANCH  25  33
ENDBRANCH  11  20
BRANCH  10  35
ATOM     35  O   UNL     1      27.569  21.949  37.327  1.00  0.00    -0.507 OA
ATOM     36  H   UNL     1      28.272  22.517  37.780  1.00  0.00     0.293 HD
ENDBRANCH  10  35
TORSDOF 9
ENDMDL
