MODEL 1
REMARK VINA RESULT:    -4.952      0.000      0.000
REMARK INTER + INTRA:          -8.069
REMARK INTER:                  -7.557
REMARK INTRA:                  -0.512
REMARK UNBOUND:                -0.512
REMARK SMILES CCCCCCCCCCC(=O)[O-]
REMARK SMILES IDX 7 1 8 2 9 3 10 4 11 5 12 6 13 7 6 8 5 9 4 10 3 11 2 12 1 13
REMARK H PARENT
REMARK Flexibility Score: inf
ROOT
ATOM      1  C   UNL     1      -2.924  10.460  -8.779  1.00  0.00     0.000 C 
ENDROOT
BRANCH   1   2
ATOM      2  C   UNL     1      -3.106  11.148 -10.137  1.00  0.00     0.000 C 
BRANCH   2   3
ATOM      3  C   UNL     1      -4.216  10.475 -10.952  1.00  0.00     0.006 C 
BRANCH   3   4
ATOM      4  C   UNL     1      -3.921   8.987 -11.160  1.00  0.00     0.053 C 
BRANCH   4   5
ATOM      5  C   UNL     1      -5.174   8.182 -11.027  1.00  0.00     0.041 C 
ATOM      6  O   UNL     1      -5.237   7.022 -11.515  1.00  0.00    -0.550 OA
ATOM      7  O   UNL     1      -6.290   8.728 -10.406  1.00  0.00    -0.550 OA
ENDBRANCH   4   5
ENDBRANCH   3   4
ENDBRANCH   2   3
ENDBRANCH   1   2
BRANCH   1   8
ATOM      8  C   UNL     1      -1.439  10.354  -8.408  1.00  0.00     0.000 C 
BRANCH   8   9
ATOM      9  C   UNL     1      -0.776  11.736  -8.394  1.00  0.00    -0.000 C 
BRANCH   9  10
ATOM     10  C   UNL     1       0.752  11.613  -8.399  1.00  0.00    -0.000 C 
BRANCH  10  11
ATOM     11  C   UNL     1       1.186  10.147  -8.502  1.00  0.00    -0.000 C 
BRANCH  11  12
ATOM     12  C   UNL     1       2.709  10.014  -8.388  1.00  0.00    -0.003 C 
ATOM     13  C   UNL     1       3.321   9.532  -9.699  1.00  0.00     0.004 C 
ENDBRANCH  11  12
ENDBRANCH  10  11
ENDBRANCH   9  10
ENDBRANCH   8   9
ENDBRANCH   1   8
TORSDOF 9
ENDMDL
MODEL 2
REMARK VINA RESULT:    -4.872      3.748      6.653
REMARK INTER + INTRA:          -7.948
REMARK INTER:                  -7.336
REMARK INTRA:                  -0.612
REMARK UNBOUND:                -0.512
REMARK SMILES CCCCCCCCCCC(=O)[O-]
REMARK SMILES IDX 7 1 8 2 9 3 10 4 11 5 12 6 13 7 6 8 5 9 4 10 3 11 2 12 1 13
REMARK H PARENT
REMARK Flexibility Score: inf
ROOT
ATOM      1  C   UNL     1      -1.535  10.363  -8.297  1.00  0.00     0.000 C 
ENDROOT
BRANCH   1   2
ATOM      2  C   UNL     1      -0.867  11.727  -8.508  1.00  0.00     0.000 C 
BRANCH   2   3
ATOM      3  C   UNL     1       0.660  11.604  -8.478  1.00  0.00     0.006 C 
BRANCH   3   4
ATOM      4  C   UNL     1       1.095  10.137  -8.535  1.00  0.00     0.053 C 
BRANCH   4   5
ATOM      5  C   UNL     1       2.569  10.036  -8.764  1.00  0.00     0.041 C 
ATOM      6  O   UNL     1       3.013   9.505  -9.816  1.00  0.00    -0.550 OA
ATOM      7  O   UNL     1       3.456  10.485  -7.793  1.00  0.00    -0.550 OA
ENDBRANCH   4   5
ENDBRANCH   3   4
ENDBRANCH   2   3
ENDBRANCH   1   2
BRANCH   1   8
ATOM      8  C   UNL     1      -2.982  10.373  -8.808  1.00  0.00     0.000 C 
BRANCH   8   9
ATOM      9  C   UNL     1      -3.094  11.146 -10.127  1.00  0.00    -0.000 C 
BRANCH   9  10
ATOM     10  C   UNL     1      -4.198  10.560 -11.015  1.00  0.00    -0.000 C 
BRANCH  10  11
ATOM     11  C   UNL     1      -4.088   9.033 -11.096  1.00  0.00    -0.000 C 
BRANCH  11  12
ATOM     12  C   UNL     1      -5.407   8.363 -10.696  1.00  0.00    -0.003 C 
ATOM     13  C   UNL     1      -6.490   9.399 -10.415  1.00  0.00     0.004 C 
ENDBRANCH  11  12
ENDBRANCH  10  11
ENDBRANCH   9  10
ENDBRANCH   8   9
ENDBRANCH   1   8
TORSDOF 9
ENDMDL
MODEL 3
REMARK VINA RESULT:    -4.763      4.043      7.102
REMARK INTER + INTRA:          -7.781
REMARK INTER:                  -7.289
REMARK INTRA:                  -0.492
REMARK UNBOUND:                -0.512
REMARK SMILES CCCCCCCCCCC(=O)[O-]
REMARK SMILES IDX 7 1 8 2 9 3 10 4 11 5 12 6 13 7 6 8 5 9 4 10 3 11 2 12 1 13
REMARK H PARENT
REMARK Flexibility Score: inf
ROOT
ATOM      1  C   UNL     1      -1.723  11.517  -9.065  1.00  0.00     0.000 C 
ENDROOT
BRANCH   1   2
ATOM      2  C   UNL     1      -0.903  10.389  -8.426  1.00  0.00     0.000 C 
BRANCH   2   3
ATOM      3  C   UNL     1       0.580  10.765  -8.342  1.00  0.00     0.006 C 
BRANCH   3   4
ATOM      4  C   UNL     1       1.470   9.590  -8.756  1.00  0.00     0.053 C 
BRANCH   4   5
ATOM      5  C   UNL     1       2.911   9.987  -8.722  1.00  0.00     0.041 C 
ATOM      6  O   UNL     1       3.368  10.634  -7.742  1.00  0.00    -0.550 OA
ATOM      7  O   UNL     1       3.741   9.686  -9.795  1.00  0.00    -0.550 OA
ENDBRANCH   4   5
ENDBRANCH   3   4
ENDBRANCH   2   3
ENDBRANCH   1   2
BRANCH   1   8
ATOM      8  C   UNL     1      -3.184  11.094  -9.261  1.00  0.00     0.000 C 
BRANCH   8   9
ATOM      9  C   UNL     1      -3.274   9.727  -9.949  1.00  0.00    -0.000 C 
BRANCH   9  10
ATOM     10  C   UNL     1      -4.413   9.701 -10.975  1.00  0.00    -0.000 C 
BRANCH  10  11
ATOM     11  C   UNL     1      -5.168  11.035 -10.994  1.00  0.00    -0.000 C 
BRANCH  11  12
ATOM     12  C   UNL     1      -6.678  10.816 -10.850  1.00  0.00    -0.003 C 
ATOM     13  C   UNL     1      -6.981   9.665  -9.897  1.00  0.00     0.004 C 
ENDBRANCH  11  12
ENDBRANCH  10  11
ENDBRANCH   9  10
ENDBRANCH   8   9
ENDBRANCH   1   8
TORSDOF 9
ENDMDL
MODEL 4
REMARK VINA RESULT:    -4.761      3.829      6.740
REMARK INTER + INTRA:          -7.777
REMARK INTER:                  -7.113
REMARK INTRA:                  -0.664
REMARK UNBOUND:                -0.512
REMARK SMILES CCCCCCCCCCC(=O)[O-]
REMARK SMILES IDX 7 1 8 2 9 3 10 4 11 5 12 6 13 7 6 8 5 9 4 10 3 11 2 12 1 13
REMARK H PARENT
REMARK Flexibility Score: inf
ROOT
ATOM      1  C   UNL     1      -2.637  10.949  -9.762  1.00  0.00     0.000 C 
ENDROOT
BRANCH   1   2
ATOM      2  C   UNL     1      -1.988  11.051  -8.377  1.00  0.00     0.000 C 
BRANCH   2   3
ATOM      3  C   UNL     1      -0.472  11.250  -8.491  1.00  0.00     0.006 C 
BRANCH   3   4
ATOM      4  C   UNL     1       0.272   9.925  -8.304  1.00  0.00     0.053 C 
BRANCH   4   5
ATOM      5  C   UNL     1       1.748  10.132  -8.425  1.00  0.00     0.041 C 
ATOM      6  O   UNL     1       2.396   9.554  -9.338  1.00  0.00    -0.550 OA
ATOM      7  O   UNL     1       2.418  10.925  -7.502  1.00  0.00    -0.550 OA
ENDBRANCH   4   5
ENDBRANCH   3   4
ENDBRANCH   2   3
ENDBRANCH   1   2
BRANCH   1   8
ATOM      8  C   UNL     1      -3.311   9.584  -9.957  1.00  0.00     0.000 C 
BRANCH   8   9
ATOM      9  C   UNL     1      -4.324   9.630 -11.106  1.00  0.00    -0.000 C 
BRANCH   9  10
ATOM     10  C   UNL     1      -5.042  10.984 -11.152  1.00  0.00    -0.000 C 
BRANCH  10  11
ATOM     11  C   UNL     1      -6.484  10.861 -10.645  1.00  0.00    -0.000 C 
BRANCH  11  12
ATOM     12  C   UNL     1      -6.714  11.748  -9.417  1.00  0.00    -0.003 C 
ATOM     13  C   UNL     1      -5.646  12.832  -9.310  1.00  0.00     0.004 C 
ENDBRANCH  11  12
ENDBRANCH  10  11
ENDBRANCH   9  10
ENDBRANCH   8   9
ENDBRANCH   1   8
TORSDOF 9
ENDMDL
MODEL 5
REMARK VINA RESULT:    -4.650      3.866      6.534
REMARK INTER + INTRA:          -7.608
REMARK INTER:                  -6.993
REMARK INTRA:                  -0.616
REMARK UNBOUND:                -0.512
REMARK SMILES CCCCCCCCCCC(=O)[O-]
REMARK SMILES IDX 7 1 8 2 9 3 10 4 11 5 12 6 13 7 6 8 5 9 4 10 3 11 2 12 1 13
REMARK H PARENT
REMARK Flexibility Score: inf
ROOT
ATOM      1  C   UNL     1      -2.081  12.218  -8.874  1.00  0.00     0.000 C 
ENDROOT
BRANCH   1   2
ATOM      2  C   UNL     1      -1.304  10.902  -8.752  1.00  0.00     0.000 C 
BRANCH   2   3
ATOM      3  C   UNL     1       0.164  11.159  -8.394  1.00  0.00     0.006 C 
BRANCH   3   4
ATOM      4  C   UNL     1       0.919   9.844  -8.187  1.00  0.00     0.053 C 
BRANCH   4   5
ATOM      5  C   UNL     1       2.371  10.018  -8.501  1.00  0.00     0.041 C 
ATOM      6  O   UNL     1       3.112  10.681  -7.728  1.00  0.00    -0.550 OA
ATOM      7  O   UNL     1       2.898   9.488  -9.672  1.00  0.00    -0.550 OA
ENDBRANCH   4   5
ENDBRANCH   3   4
ENDBRANCH   2   3
ENDBRANCH   1   2
BRANCH   1   8
ATOM      8  C   UNL     1      -3.491  12.082  -8.286  1.00  0.00     0.000 C 
BRANCH   8   9
ATOM      9  C   UNL     1      -4.531  12.758  -9.187  1.00  0.00    -0.000 C 
BRANCH   9  10
ATOM     10  C   UNL     1      -5.619  11.766  -9.612  1.00  0.00    -0.000 C 
BRANCH  10  11
ATOM     11  C   UNL     1      -5.262  11.091 -10.942  1.00  0.00    -0.000 C 
BRANCH  11  12
ATOM     12  C   UNL     1      -5.289   9.564 -10.810  1.00  0.00    -0.003 C 
ATOM     13  C   UNL     1      -3.885   8.976 -10.900  1.00  0.00     0.004 C 
ENDBRANCH  11  12
ENDBRANCH  10  11
ENDBRANCH   9  10
ENDBRANCH   8   9
ENDBRANCH   1   8
TORSDOF 9
ENDMDL
MODEL 6
REMARK VINA RESULT:    -4.593      3.948      6.870
REMARK INTER + INTRA:          -7.522
REMARK INTER:                  -6.735
REMARK INTRA:                  -0.786
REMARK UNBOUND:                -0.512
REMARK SMILES CCCCCCCCCCC(=O)[O-]
REMARK SMILES IDX 7 1 8 2 9 3 10 4 11 5 12 6 13 7 6 8 5 9 4 10 3 11 2 12 1 13
REMARK H PARENT
REMARK Flexibility Score: inf
ROOT
ATOM      1  C   UNL     1      -2.040  11.580  -8.949  1.00  0.00     0.000 C 
ENDROOT
BRANCH   1   2
ATOM      2  C   UNL     1      -1.648  10.432  -8.011  1.00  0.00     0.000 C 
BRANCH   2   3
ATOM      3  C   UNL     1      -0.152  10.119  -8.117  1.00  0.00     0.006 C 
BRANCH   3   4
ATOM      4  C   UNL     1       0.661  11.394  -8.358  1.00  0.00     0.053 C 
BRANCH   4   5
ATOM      5  C   UNL     1       1.162  11.949  -7.062  1.00  0.00     0.041 C 
ATOM      6  O   UNL     1       2.230  11.514  -6.557  1.00  0.00    -0.550 OA
ATOM      7  O   UNL     1       0.424  12.914  -6.388  1.00  0.00    -0.550 OA
ENDBRANCH   4   5
ENDBRANCH   3   4
ENDBRANCH   2   3
ENDBRANCH   1   2
BRANCH   1   8
ATOM      8  C   UNL     1      -2.764  11.051 -10.194  1.00  0.00     0.000 C 
BRANCH   8   9
ATOM      9  C   UNL     1      -3.640   9.841  -9.849  1.00  0.00    -0.000 C 
BRANCH   9  10
ATOM     10  C   UNL     1      -4.791   9.692 -10.850  1.00  0.00    -0.000 C 
BRANCH  10  11
ATOM     11  C   UNL     1      -5.494  11.033 -11.086  1.00  0.00    -0.000 C 
BRANCH  11  12
ATOM     12  C   UNL     1      -6.391  11.402  -9.899  1.00  0.00    -0.003 C 
ATOM     13  C   UNL     1      -5.971  12.732  -9.281  1.00  0.00     0.004 C 
ENDBRANCH  11  12
ENDBRANCH  10  11
ENDBRANCH   9  10
ENDBRANCH   8   9
ENDBRANCH   1   8
TORSDOF 9
ENDMDL
MODEL 7
REMARK VINA RESULT:    -4.537      1.603      1.959
REMARK INTER + INTRA:          -7.436
REMARK INTER:                  -7.005
REMARK INTRA:                  -0.430
REMARK UNBOUND:                -0.512
REMARK SMILES CCCCCCCCCCC(=O)[O-]
REMARK SMILES IDX 7 1 8 2 9 3 10 4 11 5 12 6 13 7 6 8 5 9 4 10 3 11 2 12 1 13
REMARK H PARENT
REMARK Flexibility Score: inf
ROOT
ATOM      1  C   UNL     1      -2.806  11.781  -9.300  1.00  0.00     0.000 C 
ENDROOT
BRANCH   1   2
ATOM      2  C   UNL     1      -3.125  10.356  -9.766  1.00  0.00     0.000 C 
BRANCH   2   3
ATOM      3  C   UNL     1      -4.050  10.368 -10.987  1.00  0.00     0.006 C 
BRANCH   3   4
ATOM      4  C   UNL     1      -5.387   9.691 -10.673  1.00  0.00     0.053 C 
BRANCH   4   5
ATOM      5  C   UNL     1      -6.233  10.577  -9.816  1.00  0.00     0.041 C 
ATOM      6  O   UNL     1      -6.843  10.103  -8.821  1.00  0.00    -0.550 OA
ATOM      7  O   UNL     1      -6.389  11.919 -10.142  1.00  0.00    -0.550 OA
ENDBRANCH   4   5
ENDBRANCH   3   4
ENDBRANCH   2   3
ENDBRANCH   1   2
BRANCH   1   8
ATOM      8  C   UNL     1      -1.396  11.865  -8.703  1.00  0.00     0.000 C 
BRANCH   8   9
ATOM      9  C   UNL     1      -0.849  10.468  -8.387  1.00  0.00    -0.000 C 
BRANCH   9  10
ATOM     10  C   UNL     1       0.614  10.540  -7.933  1.00  0.00    -0.000 C 
BRANCH  10  11
ATOM     11  C   UNL     1       1.502   9.627  -8.786  1.00  0.00    -0.000 C 
BRANCH  11  12
ATOM     12  C   UNL     1       2.969  10.066  -8.719  1.00  0.00    -0.003 C 
ATOM     13  C   UNL     1       3.735   9.621  -9.961  1.00  0.00     0.004 C 
ENDBRANCH  11  12
ENDBRANCH  10  11
ENDBRANCH   9  10
ENDBRANCH   8   9
ENDBRANCH   1   8
TORSDOF 9
ENDMDL
MODEL 8
REMARK VINA RESULT:    -4.490      3.396      6.189
REMARK INTER + INTRA:          -7.365
REMARK INTER:                  -6.478
REMARK INTRA:                  -0.887
REMARK UNBOUND:                -0.512
REMARK SMILES CCCCCCCCCCC(=O)[O-]
REMARK SMILES IDX 7 1 8 2 9 3 10 4 11 5 12 6 13 7 6 8 5 9 4 10 3 11 2 12 1 13
REMARK H PARENT
REMARK Flexibility Score: inf
ROOT
ATOM      1  C   UNL     1      -4.338  12.684  -8.028  1.00  0.00     0.000 C 
ENDROOT
BRANCH   1   2
ATOM      2  C   UNL     1      -3.249  11.604  -7.993  1.00  0.00     0.000 C 
BRANCH   2   3
ATOM      3  C   UNL     1      -2.147  11.900  -9.016  1.00  0.00     0.006 C 
BRANCH   3   4
ATOM      4  C   UNL     1      -0.851  12.327  -8.321  1.00  0.00     0.053 C 
BRANCH   4   5
ATOM      5  C   UNL     1       0.159  11.225  -8.372  1.00  0.00     0.041 C 
ATOM      6  O   UNL     1      -0.216  10.026  -8.465  1.00  0.00    -0.550 OA
ATOM      7  O   UNL     1       1.513  11.517  -8.268  1.00  0.00    -0.550 OA
ENDBRANCH   4   5
ENDBRANCH   3   4
ENDBRANCH   2   3
ENDBRANCH   1   2
BRANCH   1   8
ATOM      8  C   UNL     1      -4.975  12.781  -9.420  1.00  0.00     0.000 C 
BRANCH   8   9
ATOM      9  C   UNL     1      -6.309  12.027  -9.468  1.00  0.00    -0.000 C 
BRANCH   9  10
ATOM     10  C   UNL     1      -6.307  10.977 -10.585  1.00  0.00    -0.000 C 
BRANCH  10  11
ATOM     11  C   UNL     1      -4.914  10.838 -11.209  1.00  0.00    -0.000 C 
BRANCH  11  12
ATOM     12  C   UNL     1      -4.305   9.466 -10.898  1.00  0.00    -0.003 C 
ATOM     13  C   UNL     1      -5.380   8.387 -10.827  1.00  0.00     0.004 C 
ENDBRANCH  11  12
ENDBRANCH  10  11
ENDBRANCH   9  10
ENDBRANCH   8   9
ENDBRANCH   1   8
TORSDOF 9
ENDMDL
MODEL 9
REMARK VINA RESULT:    -4.413      1.877      2.549
REMARK INTER + INTRA:          -7.247
REMARK INTER:                  -6.315
REMARK INTRA:                  -0.932
REMARK UNBOUND:                -0.512
REMARK SMILES CCCCCCCCCCC(=O)[O-]
REMARK SMILES IDX 7 1 8 2 9 3 10 4 11 5 12 6 13 7 6 8 5 9 4 10 3 11 2 12 1 13
REMARK H PARENT
REMARK Flexibility Score: inf
ROOT
ATOM      1  C   UNL     1      -2.272  12.666  -6.480  1.00  0.00     0.000 C 
ENDROOT
BRANCH   1   2
ATOM      2  C   UNL     1      -3.184  11.999  -7.517  1.00  0.00     0.000 C 
BRANCH   2   3
ATOM      3  C   UNL     1      -2.602  12.128  -8.928  1.00  0.00     0.006 C 
BRANCH   3   4
ATOM      4  C   UNL     1      -2.293  10.753  -9.525  1.00  0.00     0.053 C 
BRANCH   4   5
ATOM      5  C   UNL     1      -3.475  10.229 -10.276  1.00  0.00     0.041 C 
ATOM      6  O   UNL     1      -3.606   8.992 -10.470  1.00  0.00    -0.550 OA
ATOM      7  O   UNL     1      -4.409  11.111 -10.805  1.00  0.00    -0.550 OA
ENDBRANCH   4   5
ENDBRANCH   3   4
ENDBRANCH   2   3
ENDBRANCH   1   2
BRANCH   1   8
ATOM      8  C   UNL     1      -1.091  13.372  -7.158  1.00  0.00     0.000 C 
BRANCH   8   9
ATOM      9  C   UNL     1       0.232  13.013  -6.472  1.00  0.00    -0.000 C 
BRANCH   9  10
ATOM     10  C   UNL     1       0.650  11.575  -6.801  1.00  0.00    -0.000 C 
BRANCH  10  11
ATOM     11  C   UNL     1       1.129  11.459  -8.252  1.00  0.00    -0.000 C 
BRANCH  11  12
ATOM     12  C   UNL     1       1.455  10.004  -8.610  1.00  0.00    -0.003 C 
ATOM     13  C   UNL     1       2.906   9.856  -9.054  1.00  0.00     0.004 C 
ENDBRANCH  11  12
ENDBRANCH  10  11
ENDBRANCH   9  10
ENDBRANCH   8   9
ENDBRANCH   1   8
TORSDOF 9
ENDMDL
