MODEL 1
REMARK VINA RESULT:    -5.167      0.000      0.000
REMARK INTER + INTRA:          -9.290
REMARK INTER:                  -7.886
REMARK INTRA:                  -1.404
REMARK UNBOUND:                -1.404
REMARK SMILES OC[C@@H]1O[C@H](O[C@@]2(CO)O[C@H](CO)[C@H](O)[C@H]2O)[C@H](O)[C@@H](O)[C@H]1O
REMARK SMILES IDX 6 1 5 2 3 3 22 4 4 5 20 6 18 7 2 8 1 9 23 11 21 13 19 15
REMARK SMILES IDX 7 17 16 18 10 19 14 20 11 21 8 22 9 23 17 25 15 27 12 29
REMARK SMILES IDX 13 30
REMARK H PARENT 1 10 23 12 21 14 19 16 9 24 17 26 15 28 13 31
REMARK Flexibility Score: inf
ROOT
ATOM      1  O   UNL     1      13.033  27.200  -1.797  1.00  0.00    -0.313 OA
ENDROOT
BRANCH   1   2
ATOM      2  C   UNL     1      12.842  25.800  -1.652  1.00  0.00     0.285 C 
ATOM      3  C   UNL     1      12.147  24.095  -0.162  1.00  0.00     0.178 C 
ATOM      4  C   UNL     1      12.221  23.164  -1.430  1.00  0.00     0.177 C 
ATOM      5  O   UNL     1      12.219  25.493  -0.422  1.00  0.00    -0.341 OA
ATOM      6  C   UNL     1      11.524  23.834  -2.637  1.00  0.00     0.179 C 
ATOM      7  C   UNL     1      11.941  25.324  -2.808  1.00  0.00     0.202 C 
BRANCH   3   8
ATOM      8  C   UNL     1      10.847  23.839   0.622  1.00  0.00     0.191 C 
BRANCH   8   9
ATOM      9  O   UNL     1      10.111  25.030   0.755  1.00  0.00    -0.394 OA
ATOM     10  H   UNL     1      10.469  25.671   0.070  1.00  0.00     0.210 HD
ENDBRANCH   8   9
ENDBRANCH   3   8
BRANCH   4  11
ATOM     11  O   UNL     1      13.549  22.855  -1.784  1.00  0.00    -0.387 OA
ATOM     12  H   UNL     1      13.547  21.992  -2.297  1.00  0.00     0.211 HD
ENDBRANCH   4  11
BRANCH   6  13
ATOM     13  O   UNL     1      11.827  23.125  -3.821  1.00  0.00    -0.387 OA
ATOM     14  H   UNL     1      12.554  22.486  -3.626  1.00  0.00     0.211 HD
ENDBRANCH   6  13
BRANCH   7  15
ATOM     15  O   UNL     1      10.774  26.113  -2.842  1.00  0.00    -0.385 OA
ATOM     16  H   UNL     1      10.506  26.209  -3.783  1.00  0.00     0.211 HD
ENDBRANCH   7  15
ENDBRANCH   1   2
BRANCH   1  17
ATOM     17  C   UNL     1      14.383  27.634  -1.960  1.00  0.00     0.224 C 
ATOM     18  C   UNL     1      14.521  29.159  -1.711  1.00  0.00     0.208 C 
ATOM     19  O   UNL     1      14.732  27.385  -3.313  1.00  0.00    -0.337 OA
ATOM     20  C   UNL     1      15.423  29.628  -2.830  1.00  0.00     0.180 C 
ATOM     21  C   UNL     1      15.098  28.609  -3.922  1.00  0.00     0.179 C 
BRANCH  17  22
ATOM     22  C   UNL     1      15.404  26.842  -1.095  1.00  0.00     0.225 C 
BRANCH  22  23
ATOM     23  O   UNL     1      16.488  26.416  -1.876  1.00  0.00    -0.391 OA
ATOM     24  H   UNL     1      17.144  25.991  -1.256  1.00  0.00     0.210 HD
ENDBRANCH  22  23
ENDBRANCH  17  22
BRANCH  18  25
ATOM     25  O   UNL     1      13.283  29.834  -1.766  1.00  0.00    -0.385 OA
ATOM     26  H   UNL     1      13.333  30.512  -2.497  1.00  0.00     0.211 HD
ENDBRANCH  18  25
BRANCH  20  27
ATOM     27  O   UNL     1      16.772  29.540  -2.436  1.00  0.00    -0.387 OA
ATOM     28  H   UNL     1      17.151  28.756  -2.903  1.00  0.00     0.211 HD
ENDBRANCH  20  27
BRANCH  21  29
ATOM     29  C   UNL     1      16.237  28.370  -4.924  1.00  0.00     0.191 C 
BRANCH  29  30
ATOM     30  O   UNL     1      17.116  27.382  -4.441  1.00  0.00    -0.394 OA
ATOM     31  H   UNL     1      17.720  27.156  -5.192  1.00  0.00     0.210 HD
ENDBRANCH  29  30
ENDBRANCH  21  29
ENDBRANCH   1  17
TORSDOF 13
ENDMDL
MODEL 2
REMARK VINA RESULT:    -4.894      3.612      5.879
REMARK INTER + INTRA:          -8.874
REMARK INTER:                  -7.817
REMARK INTRA:                  -1.057
REMARK UNBOUND:                -1.404
REMARK SMILES OC[C@@H]1O[C@H](O[C@@]2(CO)O[C@H](CO)[C@H](O)[C@H]2O)[C@H](O)[C@@H](O)[C@H]1O
REMARK SMILES IDX 6 1 5 2 3 3 22 4 4 5 20 6 18 7 2 8 1 9 23 11 21 13 19 15
REMARK SMILES IDX 7 17 16 18 10 19 14 20 11 21 8 22 9 23 17 25 15 27 12 29
REMARK SMILES IDX 13 30
REMARK H PARENT 1 10 23 12 21 14 19 16 9 24 17 26 15 28 13 31
REMARK Flexibility Score: inf
ROOT
ATOM      1  O   UNL     1      12.342  29.232  -4.627  1.00  0.00    -0.313 OA
ENDROOT
BRANCH   1   2
ATOM      2  C   UNL     1      13.566  28.731  -4.110  1.00  0.00     0.285 C 
ATOM      3  C   UNL     1      15.644  29.337  -3.151  1.00  0.00     0.178 C 
ATOM      4  C   UNL     1      15.799  27.793  -2.878  1.00  0.00     0.177 C 
ATOM      5  O   UNL     1      14.344  29.764  -3.543  1.00  0.00    -0.341 OA
ATOM      6  C   UNL     1      14.501  27.218  -2.264  1.00  0.00     0.179 C 
ATOM      7  C   UNL     1      13.228  27.695  -3.020  1.00  0.00     0.202 C 
BRANCH   3   8
ATOM      8  C   UNL     1      16.039  30.149  -1.904  1.00  0.00     0.191 C 
BRANCH   8   9
ATOM      9  O   UNL     1      17.056  31.068  -2.219  1.00  0.00    -0.394 OA
ATOM     10  H   UNL     1      17.927  30.628  -1.985  1.00  0.00     0.210 HD
ENDBRANCH   8   9
ENDBRANCH   3   8
BRANCH   4  11
ATOM     11  O   UNL     1      16.105  27.076  -4.052  1.00  0.00    -0.387 OA
ATOM     12  H   UNL     1      16.949  27.456  -4.442  1.00  0.00     0.211 HD
ENDBRANCH   4  11
BRANCH   6  13
ATOM     13  O   UNL     1      14.550  25.806  -2.275  1.00  0.00    -0.387 OA
ATOM     14  H   UNL     1      13.676  25.461  -1.972  1.00  0.00     0.211 HD
ENDBRANCH   6  13
BRANCH   7  15
ATOM     15  O   UNL     1      12.345  28.277  -2.086  1.00  0.00    -0.385 OA
ATOM     16  H   UNL     1      11.591  27.657  -1.962  1.00  0.00     0.211 HD
ENDBRANCH   7  15
ENDBRANCH   1   2
BRANCH   1  17
ATOM     17  C   UNL     1      12.410  29.840  -5.918  1.00  0.00     0.224 C 
ATOM     18  C   UNL     1      11.174  29.473  -6.781  1.00  0.00     0.208 C 
ATOM     19  O   UNL     1      13.557  29.307  -6.560  1.00  0.00    -0.337 OA
ATOM     20  C   UNL     1      11.761  29.163  -8.140  1.00  0.00     0.180 C 
ATOM     21  C   UNL     1      13.154  28.665  -7.755  1.00  0.00     0.179 C 
BRANCH  17  22
ATOM     22  C   UNL     1      12.612  31.381  -5.874  1.00  0.00     0.225 C 
BRANCH  22  23
ATOM     23  O   UNL     1      13.976  31.702  -5.932  1.00  0.00    -0.391 OA
ATOM     24  H   UNL     1      14.452  31.051  -5.345  1.00  0.00     0.210 HD
ENDBRANCH  22  23
ENDBRANCH  17  22
BRANCH  18  25
ATOM     25  O   UNL     1      10.474  28.354  -6.283  1.00  0.00    -0.385 OA
ATOM     26  H   UNL     1       9.943  28.650  -5.490  1.00  0.00     0.211 HD
ENDBRANCH  18  25
BRANCH  20  27
ATOM     27  O   UNL     1      11.835  30.335  -8.916  1.00  0.00    -0.387 OA
ATOM     28  H   UNL     1      10.904  30.617  -9.091  1.00  0.00     0.211 HD
ENDBRANCH  20  27
BRANCH  21  29
ATOM     29  C   UNL     1      14.221  28.870  -8.840  1.00  0.00     0.191 C 
BRANCH  29  30
ATOM     30  O   UNL     1      13.730  28.462 -10.095  1.00  0.00    -0.394 OA
ATOM     31  H   UNL     1      13.027  29.112 -10.343  1.00  0.00     0.210 HD
ENDBRANCH  29  30
ENDBRANCH  21  29
ENDBRANCH   1  17
TORSDOF 13
ENDMDL
MODEL 3
REMARK VINA RESULT:    -4.847      3.231      5.140
REMARK INTER + INTRA:          -8.802
REMARK INTER:                  -7.611
REMARK INTRA:                  -1.191
REMARK UNBOUND:                -1.404
REMARK SMILES OC[C@@H]1O[C@H](O[C@@]2(CO)O[C@H](CO)[C@H](O)[C@H]2O)[C@H](O)[C@@H](O)[C@H]1O
REMARK SMILES IDX 6 1 5 2 3 3 22 4 4 5 20 6 18 7 2 8 1 9 23 11 21 13 19 15
REMARK SMILES IDX 7 17 16 18 10 19 14 20 11 21 8 22 9 23 17 25 15 27 12 29
REMARK SMILES IDX 13 30
REMARK H PARENT 1 10 23 12 21 14 19 16 9 24 17 26 15 28 13 31
REMARK Flexibility Score: inf
ROOT
ATOM      1  O   UNL     1      13.140  29.826  -3.777  1.00  0.00    -0.313 OA
ENDROOT
BRANCH   1   2
ATOM      2  C   UNL     1      13.523  28.632  -3.110  1.00  0.00     0.285 C 
ATOM      3  C   UNL     1      15.366  27.297  -2.457  1.00  0.00     0.178 C 
ATOM      4  C   UNL     1      14.298  26.498  -1.618  1.00  0.00     0.177 C 
ATOM      5  O   UNL     1      14.926  28.545  -2.979  1.00  0.00    -0.341 OA
ATOM      6  C   UNL     1      13.390  27.470  -0.829  1.00  0.00     0.179 C 
ATOM      7  C   UNL     1      12.884  28.650  -1.708  1.00  0.00     0.202 C 
BRANCH   3   8
ATOM      8  C   UNL     1      16.624  27.568  -1.613  1.00  0.00     0.191 C 
BRANCH   8   9
ATOM      9  O   UNL     1      16.984  26.419  -0.886  1.00  0.00    -0.394 OA
ATOM     10  H   UNL     1      17.495  26.733  -0.081  1.00  0.00     0.210 HD
ENDBRANCH   8   9
ENDBRANCH   3   8
BRANCH   4  11
ATOM     11  O   UNL     1      13.491  25.678  -2.432  1.00  0.00    -0.387 OA
ATOM     12  H   UNL     1      14.004  24.840  -2.641  1.00  0.00     0.211 HD
ENDBRANCH   4  11
BRANCH   6  13
ATOM     13  O   UNL     1      12.282  26.770  -0.302  1.00  0.00    -0.387 OA
ATOM     14  H   UNL     1      12.615  25.991   0.205  1.00  0.00     0.211 HD
ENDBRANCH   6  13
BRANCH   7  15
ATOM     15  O   UNL     1      13.215  29.860  -1.064  1.00  0.00    -0.385 OA
ATOM     16  H   UNL     1      14.106  29.751  -0.662  1.00  0.00     0.211 HD
ENDBRANCH   7  15
ENDBRANCH   1   2
BRANCH   1  17
ATOM     17  C   UNL     1      12.970  29.726  -5.191  1.00  0.00     0.224 C 
ATOM     18  C   UNL     1      12.142  30.914  -5.748  1.00  0.00     0.208 C 
ATOM     19  O   UNL     1      12.232  28.537  -5.431  1.00  0.00    -0.337 OA
ATOM     20  C   UNL     1      11.185  30.264  -6.721  1.00  0.00     0.180 C 
ATOM     21  C   UNL     1      11.034  28.872  -6.106  1.00  0.00     0.179 C 
BRANCH  17  22
ATOM     22  C   UNL     1      14.306  29.574  -5.973  1.00  0.00     0.225 C 
BRANCH  22  23
ATOM     23  O   UNL     1      14.153  28.678  -7.041  1.00  0.00    -0.391 OA
ATOM     24  H   UNL     1      13.961  29.224  -7.854  1.00  0.00     0.210 HD
ENDBRANCH  22  23
ENDBRANCH  17  22
BRANCH  18  25
ATOM     25  O   UNL     1      11.427  31.598  -4.741  1.00  0.00    -0.385 OA
ATOM     26  H   UNL     1      11.035  30.917  -4.124  1.00  0.00     0.211 HD
ENDBRANCH  18  25
BRANCH  20  27
ATOM     27  O   UNL     1      11.766  30.196  -8.001  1.00  0.00    -0.387 OA
ATOM     28  H   UNL     1      12.351  30.987  -8.088  1.00  0.00     0.211 HD
ENDBRANCH  20  27
BRANCH  21  29
ATOM     29  C   UNL     1      10.682  27.770  -7.115  1.00  0.00     0.191 C 
BRANCH  29  30
ATOM     30  O   UNL     1      11.784  27.494  -7.946  1.00  0.00    -0.394 OA
ATOM     31  H   UNL     1      11.785  28.193  -8.648  1.00  0.00     0.210 HD
ENDBRANCH  29  30
ENDBRANCH  21  29
ENDBRANCH   1  17
TORSDOF 13
ENDMDL
MODEL 4
REMARK VINA RESULT:    -4.832      3.952      6.198
REMARK INTER + INTRA:          -8.779
REMARK INTER:                  -7.412
REMARK INTRA:                  -1.366
REMARK UNBOUND:                -1.404
REMARK SMILES OC[C@@H]1O[C@H](O[C@@]2(CO)O[C@H](CO)[C@H](O)[C@H]2O)[C@H](O)[C@@H](O)[C@H]1O
REMARK SMILES IDX 6 1 5 2 3 3 22 4 4 5 20 6 18 7 2 8 1 9 23 11 21 13 19 15
REMARK SMILES IDX 7 17 16 18 10 19 14 20 11 21 8 22 9 23 17 25 15 27 12 29
REMARK SMILES IDX 13 30
REMARK H PARENT 1 10 23 12 21 14 19 16 9 24 17 26 15 28 13 31
REMARK Flexibility Score: inf
ROOT
ATOM      1  O   UNL     1      12.988  29.624  -4.662  1.00  0.00    -0.313 OA
ENDROOT
BRANCH   1   2
ATOM      2  C   UNL     1      12.387  29.214  -5.881  1.00  0.00     0.285 C 
ATOM      3  C   UNL     1      10.507  29.496  -7.293  1.00  0.00     0.178 C 
ATOM      4  C   UNL     1      11.342  28.647  -8.324  1.00  0.00     0.177 C 
ATOM      5  O   UNL     1      11.229  29.973  -6.164  1.00  0.00    -0.341 OA
ATOM      6  C   UNL     1      12.793  29.174  -8.412  1.00  0.00     0.179 C 
ATOM      7  C   UNL     1      13.417  29.424  -7.008  1.00  0.00     0.202 C 
BRANCH   3   8
ATOM      8  C   UNL     1       9.875  30.718  -7.985  1.00  0.00     0.191 C 
BRANCH   8   9
ATOM      9  O   UNL     1      10.572  31.890  -7.642  1.00  0.00    -0.394 OA
ATOM     10  H   UNL     1      11.319  31.989  -8.305  1.00  0.00     0.210 HD
ENDBRANCH   8   9
ENDBRANCH   3   8
BRANCH   4  11
ATOM     11  O   UNL     1      11.372  27.280  -7.983  1.00  0.00    -0.387 OA
ATOM     12  H   UNL     1      11.638  26.758  -8.799  1.00  0.00     0.211 HD
ENDBRANCH   4  11
BRANCH   6  13
ATOM     13  O   UNL     1      13.596  28.253  -9.123  1.00  0.00    -0.387 OA
ATOM     14  H   UNL     1      14.506  28.626  -9.200  1.00  0.00     0.211 HD
ENDBRANCH   6  13
BRANCH   7  15
ATOM     15  O   UNL     1      13.892  30.750  -6.961  1.00  0.00    -0.385 OA
ATOM     16  H   UNL     1      13.137  31.329  -6.708  1.00  0.00     0.211 HD
ENDBRANCH   7  15
ENDBRANCH   1   2
BRANCH   1  17
ATOM     17  C   UNL     1      12.838  28.731  -3.558  1.00  0.00     0.224 C 
ATOM     18  C   UNL     1      12.506  29.497  -2.250  1.00  0.00     0.208 C 
ATOM     19  O   UNL     1      14.092  28.092  -3.377  1.00  0.00    -0.337 OA
ATOM     20  C   UNL     1      13.385  28.837  -1.212  1.00  0.00     0.180 C 
ATOM     21  C   UNL     1      14.560  28.369  -2.070  1.00  0.00     0.179 C 
BRANCH  17  22
ATOM     22  C   UNL     1      11.803  27.597  -3.807  1.00  0.00     0.225 C 
BRANCH  22  23
ATOM     23  O   UNL     1      12.212  26.410  -3.182  1.00  0.00    -0.391 OA
ATOM     24  H   UNL     1      11.612  26.273  -2.397  1.00  0.00     0.210 HD
ENDBRANCH  22  23
ENDBRANCH  17  22
BRANCH  18  25
ATOM     25  O   UNL     1      12.800  30.874  -2.337  1.00  0.00    -0.385 OA
ATOM     26  H   UNL     1      13.639  30.978  -2.870  1.00  0.00     0.211 HD
ENDBRANCH  18  25
BRANCH  20  27
ATOM     27  O   UNL     1      12.712  27.746  -0.629  1.00  0.00    -0.387 OA
ATOM     28  H   UNL     1      13.282  26.952  -0.777  1.00  0.00     0.211 HD
ENDBRANCH  20  27
BRANCH  21  29
ATOM     29  C   UNL     1      15.300  27.144  -1.514  1.00  0.00     0.191 C 
BRANCH  29  30
ATOM     30  O   UNL     1      14.726  25.957  -2.008  1.00  0.00    -0.394 OA
ATOM     31  H   UNL     1      13.751  26.039  -1.864  1.00  0.00     0.210 HD
ENDBRANCH  29  30
ENDBRANCH  21  29
ENDBRANCH   1  17
TORSDOF 13
ENDMDL
MODEL 5
REMARK VINA RESULT:    -4.791      1.553      3.589
REMARK INTER + INTRA:          -8.716
REMARK INTER:                  -7.405
REMARK INTRA:                  -1.310
REMARK UNBOUND:                -1.404
REMARK SMILES OC[C@@H]1O[C@H](O[C@@]2(CO)O[C@H](CO)[C@H](O)[C@H]2O)[C@H](O)[C@@H](O)[C@H]1O
REMARK SMILES IDX 6 1 5 2 3 3 22 4 4 5 20 6 18 7 2 8 1 9 23 11 21 13 19 15
REMARK SMILES IDX 7 17 16 18 10 19 14 20 11 21 8 22 9 23 17 25 15 27 12 29
REMARK SMILES IDX 13 30
REMARK H PARENT 1 10 23 12 21 14 19 16 9 24 17 26 15 28 13 31
REMARK Flexibility Score: inf
ROOT
ATOM      1  O   UNL     1      13.841  26.855  -1.814  1.00  0.00    -0.313 OA
ENDROOT
BRANCH   1   2
ATOM      2  C   UNL     1      12.816  25.885  -1.651  1.00  0.00     0.285 C 
ATOM      3  C   UNL     1      12.201  23.641  -2.092  1.00  0.00     0.178 C 
ATOM      4  C   UNL     1      10.991  23.941  -1.129  1.00  0.00     0.177 C 
ATOM      5  O   UNL     1      13.242  24.612  -2.090  1.00  0.00    -0.341 OA
ATOM      6  C   UNL     1      11.482  24.648   0.155  1.00  0.00     0.179 C 
ATOM      7  C   UNL     1      12.468  25.813  -0.152  1.00  0.00     0.202 C 
BRANCH   3   8
ATOM      8  C   UNL     1      12.839  22.282  -1.753  1.00  0.00     0.191 C 
BRANCH   8   9
ATOM      9  O   UNL     1      14.134  22.198  -2.296  1.00  0.00    -0.394 OA
ATOM     10  H   UNL     1      14.629  21.508  -1.761  1.00  0.00     0.210 HD
ENDBRANCH   8   9
ENDBRANCH   3   8
BRANCH   4  11
ATOM     11  O   UNL     1      10.010  24.743  -1.745  1.00  0.00    -0.387 OA
ATOM     12  H   UNL     1       9.166  24.680  -1.204  1.00  0.00     0.211 HD
ENDBRANCH   4  11
BRANCH   6  13
ATOM     13  O   UNL     1      10.378  25.150   0.879  1.00  0.00    -0.387 OA
ATOM     14  H   UNL     1       9.559  24.994   0.349  1.00  0.00     0.211 HD
ENDBRANCH   6  13
BRANCH   7  15
ATOM     15  O   UNL     1      13.650  25.604   0.588  1.00  0.00    -0.385 OA
ATOM     16  H   UNL     1      13.572  24.732   1.036  1.00  0.00     0.211 HD
ENDBRANCH   7  15
ENDBRANCH   1   2
BRANCH   1  17
ATOM     17  C   UNL     1      13.548  27.932  -2.705  1.00  0.00     0.224 C 
ATOM     18  C   UNL     1      14.569  27.995  -3.871  1.00  0.00     0.208 C 
ATOM     19  O   UNL     1      13.676  29.130  -1.955  1.00  0.00    -0.337 OA
ATOM     20  C   UNL     1      14.885  29.468  -3.996  1.00  0.00     0.180 C 
ATOM     21  C   UNL     1      14.664  29.942  -2.559  1.00  0.00     0.179 C 
BRANCH  17  22
ATOM     22  C   UNL     1      12.091  27.914  -3.250  1.00  0.00     0.225 C 
BRANCH  22  23
ATOM     23  O   UNL     1      11.439  29.120  -2.955  1.00  0.00    -0.391 OA
ATOM     24  H   UNL     1      10.476  28.992  -3.181  1.00  0.00     0.210 HD
ENDBRANCH  22  23
ENDBRANCH  17  22
BRANCH  18  25
ATOM     25  O   UNL     1      15.745  27.262  -3.605  1.00  0.00    -0.385 OA
ATOM     26  H   UNL     1      15.492  26.302  -3.495  1.00  0.00     0.211 HD
ENDBRANCH  18  25
BRANCH  20  27
ATOM     27  O   UNL     1      13.982  30.085  -4.882  1.00  0.00    -0.387 OA
ATOM     28  H   UNL     1      14.514  30.697  -5.447  1.00  0.00     0.211 HD
ENDBRANCH  20  27
BRANCH  21  29
ATOM     29  C   UNL     1      14.267  31.421  -2.436  1.00  0.00     0.191 C 
BRANCH  29  30
ATOM     30  O   UNL     1      12.865  31.555  -2.451  1.00  0.00    -0.394 OA
ATOM     31  H   UNL     1      12.652  32.159  -3.205  1.00  0.00     0.210 HD
ENDBRANCH  29  30
ENDBRANCH  21  29
ENDBRANCH   1  17
TORSDOF 13
ENDMDL
MODEL 6
REMARK VINA RESULT:    -4.736      3.631      6.139
REMARK INTER + INTRA:          -8.633
REMARK INTER:                  -7.267
REMARK INTRA:                  -1.365
REMARK UNBOUND:                -1.404
REMARK SMILES OC[C@@H]1O[C@H](O[C@@]2(CO)O[C@H](CO)[C@H](O)[C@H]2O)[C@H](O)[C@@H](O)[C@H]1O
REMARK SMILES IDX 6 1 5 2 3 3 22 4 4 5 20 6 18 7 2 8 1 9 23 11 21 13 19 15
REMARK SMILES IDX 7 17 16 18 10 19 14 20 11 21 8 22 9 23 17 25 15 27 12 29
REMARK SMILES IDX 13 30
REMARK H PARENT 1 10 23 12 21 14 19 16 9 24 17 26 15 28 13 31
REMARK Flexibility Score: inf
ROOT
ATOM      1  O   UNL     1      14.229  29.788  -5.201  1.00  0.00    -0.313 OA
ENDROOT
BRANCH   1   2
ATOM      2  C   UNL     1      14.076  29.025  -4.013  1.00  0.00     0.285 C 
ATOM      3  C   UNL     1      14.986  27.254  -2.731  1.00  0.00     0.178 C 
ATOM      4  C   UNL     1      13.964  27.726  -1.630  1.00  0.00     0.177 C 
ATOM      5  O   UNL     1      15.167  28.148  -3.823  1.00  0.00    -0.341 OA
ATOM      6  C   UNL     1      14.018  29.262  -1.461  1.00  0.00     0.179 C 
ATOM      7  C   UNL     1      14.004  30.007  -2.828  1.00  0.00     0.202 C 
BRANCH   3   8
ATOM      8  C   UNL     1      16.371  26.999  -2.111  1.00  0.00     0.191 C 
BRANCH   8   9
ATOM      9  O   UNL     1      17.371  27.068  -3.097  1.00  0.00    -0.394 OA
ATOM     10  H   UNL     1      17.771  26.151  -3.170  1.00  0.00     0.210 HD
ENDBRANCH   8   9
ENDBRANCH   3   8
BRANCH   4  11
ATOM     11  O   UNL     1      12.642  27.347  -1.936  1.00  0.00    -0.387 OA
ATOM     12  H   UNL     1      12.189  28.120  -2.388  1.00  0.00     0.211 HD
ENDBRANCH   4  11
BRANCH   6  13
ATOM     13  O   UNL     1      12.925  29.698  -0.680  1.00  0.00    -0.387 OA
ATOM     14  H   UNL     1      13.040  29.356   0.239  1.00  0.00     0.211 HD
ENDBRANCH   6  13
BRANCH   7  15
ATOM     15  O   UNL     1      15.115  30.874  -2.876  1.00  0.00    -0.385 OA
ATOM     16  H   UNL     1      15.290  31.186  -1.959  1.00  0.00     0.211 HD
ENDBRANCH   7  15
ENDBRANCH   1   2
BRANCH   1  17
ATOM     17  C   UNL     1      13.360  29.446  -6.281  1.00  0.00     0.224 C 
ATOM     18  C   UNL     1      14.120  28.683  -7.399  1.00  0.00     0.208 C 
ATOM     19  O   UNL     1      12.894  30.667  -6.834  1.00  0.00    -0.337 OA
ATOM     20  C   UNL     1      13.613  29.313  -8.676  1.00  0.00     0.180 C 
ATOM     21  C   UNL     1      13.271  30.725  -8.197  1.00  0.00     0.179 C 
BRANCH  17  22
ATOM     22  C   UNL     1      12.094  28.657  -5.841  1.00  0.00     0.225 C 
BRANCH  22  23
ATOM     23  O   UNL     1      10.944  29.199  -6.432  1.00  0.00    -0.391 OA
ATOM     24  H   UNL     1      10.199  28.558  -6.260  1.00  0.00     0.210 HD
ENDBRANCH  22  23
ENDBRANCH  17  22
BRANCH  18  25
ATOM     25  O   UNL     1      15.519  28.829  -7.303  1.00  0.00    -0.385 OA
ATOM     26  H   UNL     1      15.824  28.350  -6.481  1.00  0.00     0.211 HD
ENDBRANCH  18  25
BRANCH  20  27
ATOM     27  O   UNL     1      12.464  28.637  -9.129  1.00  0.00    -0.387 OA
ATOM     28  H   UNL     1      11.947  28.388  -8.323  1.00  0.00     0.211 HD
ENDBRANCH  20  27
BRANCH  21  29
ATOM     29  C   UNL     1      12.171  31.420  -9.011  1.00  0.00     0.191 C 
BRANCH  29  30
ATOM     30  O   UNL     1      10.899  31.041  -8.542  1.00  0.00    -0.394 OA
ATOM     31  H   UNL     1      11.053  30.366  -7.835  1.00  0.00     0.210 HD
ENDBRANCH  29  30
ENDBRANCH  21  29
ENDBRANCH   1  17
TORSDOF 13
ENDMDL
MODEL 7
REMARK VINA RESULT:    -4.715      3.814      6.323
REMARK INTER + INTRA:          -8.601
REMARK INTER:                  -7.424
REMARK INTRA:                  -1.177
REMARK UNBOUND:                -1.404
REMARK SMILES OC[C@@H]1O[C@H](O[C@@]2(CO)O[C@H](CO)[C@H](O)[C@H]2O)[C@H](O)[C@@H](O)[C@H]1O
REMARK SMILES IDX 6 1 5 2 3 3 22 4 4 5 20 6 18 7 2 8 1 9 23 11 21 13 19 15
REMARK SMILES IDX 7 17 16 18 10 19 14 20 11 21 8 22 9 23 17 25 15 27 12 29
REMARK SMILES IDX 13 30
REMARK H PARENT 1 10 23 12 21 14 19 16 9 24 17 26 15 28 13 31
REMARK Flexibility Score: inf
ROOT
ATOM      1  O   UNL     1      13.821  28.575  -4.636  1.00  0.00    -0.313 OA
ENDROOT
BRANCH   1   2
ATOM      2  C   UNL     1      13.441  29.532  -5.613  1.00  0.00     0.285 C 
ATOM      3  C   UNL     1      13.381  29.994  -7.935  1.00  0.00     0.178 C 
ATOM      4  C   UNL     1      12.491  31.224  -7.515  1.00  0.00     0.177 C 
ATOM      5  O   UNL     1      13.600  29.021  -6.920  1.00  0.00    -0.341 OA
ATOM      6  C   UNL     1      11.395  30.785  -6.516  1.00  0.00     0.179 C 
ATOM      7  C   UNL     1      11.957  29.878  -5.383  1.00  0.00     0.202 C 
BRANCH   3   8
ATOM      8  C   UNL     1      12.763  29.268  -9.144  1.00  0.00     0.191 C 
BRANCH   8   9
ATOM      9  O   UNL     1      12.005  28.163  -8.717  1.00  0.00    -0.394 OA
ATOM     10  H   UNL     1      11.959  27.526  -9.491  1.00  0.00     0.210 HD
ENDBRANCH   8   9
ENDBRANCH   3   8
BRANCH   4  11
ATOM     11  O   UNL     1      13.254  32.255  -6.932  1.00  0.00    -0.387 OA
ATOM     12  H   UNL     1      13.081  32.254  -5.942  1.00  0.00     0.211 HD
ENDBRANCH   4  11
BRANCH   6  13
ATOM     13  O   UNL     1      10.783  31.923  -5.943  1.00  0.00    -0.387 OA
ATOM     14  H   UNL     1      10.291  31.641  -5.135  1.00  0.00     0.211 HD
ENDBRANCH   6  13
BRANCH   7  15
ATOM     15  O   UNL     1      11.204  28.688  -5.348  1.00  0.00    -0.385 OA
ATOM     16  H   UNL     1      11.738  27.983  -5.779  1.00  0.00     0.211 HD
ENDBRANCH   7  15
ENDBRANCH   1   2
BRANCH   1  17
ATOM     17  C   UNL     1      15.059  28.819  -3.969  1.00  0.00     0.224 C 
ATOM     18  C   UNL     1      14.932  28.595  -2.438  1.00  0.00     0.208 C 
ATOM     19  O   UNL     1      15.375  30.186  -4.179  1.00  0.00    -0.337 OA
ATOM     20  C   UNL     1      15.673  29.768  -1.838  1.00  0.00     0.180 C 
ATOM     21  C   UNL     1      15.479  30.829  -2.922  1.00  0.00     0.179 C 
BRANCH  17  22
ATOM     22  C   UNL     1      16.252  28.004  -4.545  1.00  0.00     0.225 C 
BRANCH  22  23
ATOM     23  O   UNL     1      16.870  27.251  -3.535  1.00  0.00    -0.391 OA
ATOM     24  H   UNL     1      16.176  27.071  -2.841  1.00  0.00     0.210 HD
ENDBRANCH  22  23
ENDBRANCH  17  22
BRANCH  18  25
ATOM     25  O   UNL     1      13.591  28.586  -1.999  1.00  0.00    -0.385 OA
ATOM     26  H   UNL     1      13.380  29.492  -1.635  1.00  0.00     0.211 HD
ENDBRANCH  18  25
BRANCH  20  27
ATOM     27  O   UNL     1      17.034  29.450  -1.673  1.00  0.00    -0.387 OA
ATOM     28  H   UNL     1      17.540  30.066  -2.259  1.00  0.00     0.211 HD
ENDBRANCH  20  27
BRANCH  21  29
ATOM     29  C   UNL     1      16.587  31.891  -2.973  1.00  0.00     0.191 C 
BRANCH  29  30
ATOM     30  O   UNL     1      17.020  32.211  -1.672  1.00  0.00    -0.394 OA
ATOM     31  H   UNL     1      16.276  32.704  -1.245  1.00  0.00     0.210 HD
ENDBRANCH  29  30
ENDBRANCH  21  29
ENDBRANCH   1  17
TORSDOF 13
ENDMDL
MODEL 8
REMARK VINA RESULT:    -4.674      4.652      6.655
REMARK INTER + INTRA:          -8.537
REMARK INTER:                  -7.332
REMARK INTRA:                  -1.205
REMARK UNBOUND:                -1.404
REMARK SMILES OC[C@@H]1O[C@H](O[C@@]2(CO)O[C@H](CO)[C@H](O)[C@H]2O)[C@H](O)[C@@H](O)[C@H]1O
REMARK SMILES IDX 6 1 5 2 3 3 22 4 4 5 20 6 18 7 2 8 1 9 23 11 21 13 19 15
REMARK SMILES IDX 7 17 16 18 10 19 14 20 11 21 8 22 9 23 17 25 15 27 12 29
REMARK SMILES IDX 13 30
REMARK H PARENT 1 10 23 12 21 14 19 16 9 24 17 26 15 28 13 31
REMARK Flexibility Score: inf
ROOT
ATOM      1  O   UNL     1      13.989  31.004  -5.599  1.00  0.00    -0.313 OA
ENDROOT
BRANCH   1   2
ATOM      2  C   UNL     1      13.648  30.266  -6.764  1.00  0.00     0.285 C 
ATOM      3  C   UNL     1      12.474  28.373  -7.570  1.00  0.00     0.178 C 
ATOM      4  C   UNL     1      12.765  28.985  -8.992  1.00  0.00     0.177 C 
ATOM      5  O   UNL     1      12.726  29.237  -6.467  1.00  0.00    -0.341 OA
ATOM      6  C   UNL     1      12.434  30.496  -9.010  1.00  0.00     0.179 C 
ATOM      7  C   UNL     1      13.009  31.242  -7.771  1.00  0.00     0.202 C 
BRANCH   3   8
ATOM      8  C   UNL     1      11.008  27.914  -7.468  1.00  0.00     0.191 C 
BRANCH   8   9
ATOM      9  O   UNL     1      10.535  27.502  -8.727  1.00  0.00    -0.394 OA
ATOM     10  H   UNL     1       9.632  27.922  -8.850  1.00  0.00     0.210 HD
ENDBRANCH   8   9
ENDBRANCH   3   8
BRANCH   4  11
ATOM     11  O   UNL     1      14.107  28.806  -9.380  1.00  0.00    -0.387 OA
ATOM     12  H   UNL     1      14.678  29.428  -8.837  1.00  0.00     0.211 HD
ENDBRANCH   4  11
BRANCH   6  13
ATOM     13  O   UNL     1      12.947  31.085 -10.188  1.00  0.00    -0.387 OA
ATOM     14  H   UNL     1      12.845  32.064 -10.118  1.00  0.00     0.211 HD
ENDBRANCH   6  13
BRANCH   7  15
ATOM     15  O   UNL     1      11.956  31.935  -7.140  1.00  0.00    -0.385 OA
ATOM     16  H   UNL     1      11.409  31.275  -6.658  1.00  0.00     0.211 HD
ENDBRANCH   7  15
ENDBRANCH   1   2
BRANCH   1  17
ATOM     17  C   UNL     1      15.055  30.474  -4.812  1.00  0.00     0.224 C 
ATOM     18  C   UNL     1      14.518  29.604  -3.644  1.00  0.00     0.208 C 
ATOM     19  O   UNL     1      15.735  31.583  -4.245  1.00  0.00    -0.337 OA
ATOM     20  C   UNL     1      15.359  30.027  -2.461  1.00  0.00     0.180 C 
ATOM     21  C   UNL     1      15.692  31.472  -2.835  1.00  0.00     0.179 C 
BRANCH  17  22
ATOM     22  C   UNL     1      16.114  29.690  -5.638  1.00  0.00     0.225 C 
BRANCH  22  23
ATOM     23  O   UNL     1      16.104  28.331  -5.291  1.00  0.00    -0.391 OA
ATOM     24  H   UNL     1      16.118  28.285  -4.295  1.00  0.00     0.210 HD
ENDBRANCH  22  23
ENDBRANCH  17  22
BRANCH  18  25
ATOM     25  O   UNL     1      13.151  29.832  -3.380  1.00  0.00    -0.385 OA
ATOM     26  H   UNL     1      12.934  29.417  -2.497  1.00  0.00     0.211 HD
ENDBRANCH  18  25
BRANCH  20  27
ATOM     27  O   UNL     1      16.523  29.238  -2.386  1.00  0.00    -0.387 OA
ATOM     28  H   UNL     1      16.337  28.413  -2.897  1.00  0.00     0.211 HD
ENDBRANCH  20  27
BRANCH  21  29
ATOM     29  C   UNL     1      17.006  31.993  -2.233  1.00  0.00     0.191 C 
BRANCH  29  30
ATOM     30  O   UNL     1      17.104  31.627  -0.877  1.00  0.00    -0.394 OA
ATOM     31  H   UNL     1      18.071  31.566  -0.676  1.00  0.00     0.210 HD
ENDBRANCH  29  30
ENDBRANCH  21  29
ENDBRANCH   1  17
TORSDOF 13
ENDMDL
MODEL 9
REMARK VINA RESULT:    -4.618      4.231      7.027
REMARK INTER + INTRA:          -8.452
REMARK INTER:                  -7.026
REMARK INTRA:                  -1.426
REMARK UNBOUND:                -1.404
REMARK SMILES OC[C@@H]1O[C@H](O[C@@]2(CO)O[C@H](CO)[C@H](O)[C@H]2O)[C@H](O)[C@@H](O)[C@H]1O
REMARK SMILES IDX 6 1 5 2 3 3 22 4 4 5 20 6 18 7 2 8 1 9 23 11 21 13 19 15
REMARK SMILES IDX 7 17 16 18 10 19 14 20 11 21 8 22 9 23 17 25 15 27 12 29
REMARK SMILES IDX 13 30
REMARK H PARENT 1 10 23 12 21 14 19 16 9 24 17 26 15 28 13 31
REMARK Flexibility Score: inf
ROOT
ATOM      1  O   UNL     1      14.837  29.790  -6.259  1.00  0.00    -0.313 OA
ENDROOT
BRANCH   1   2
ATOM      2  C   UNL     1      13.505  29.864  -6.747  1.00  0.00     0.285 C 
ATOM      3  C   UNL     1      11.919  31.261  -7.815  1.00  0.00     0.178 C 
ATOM      4  C   UNL     1      11.055  29.947  -7.919  1.00  0.00     0.177 C 
ATOM      5  O   UNL     1      13.279  31.072  -7.442  1.00  0.00    -0.341 OA
ATOM      6  C   UNL     1      11.916  28.771  -8.437  1.00  0.00     0.179 C 
ATOM      7  C   UNL     1      13.288  28.679  -7.708  1.00  0.00     0.202 C 
BRANCH   3   8
ATOM      8  C   UNL     1      11.909  32.022  -9.152  1.00  0.00     0.191 C 
BRANCH   8   9
ATOM      9  O   UNL     1      13.027  31.667  -9.927  1.00  0.00    -0.394 OA
ATOM     10  H   UNL     1      12.723  30.959 -10.570  1.00  0.00     0.210 HD
ENDBRANCH   8   9
ENDBRANCH   3   8
BRANCH   4  11
ATOM     11  O   UNL     1      10.487  29.587  -6.682  1.00  0.00    -0.387 OA
ATOM     12  H   UNL     1      10.762  28.645  -6.470  1.00  0.00     0.211 HD
ENDBRANCH   4  11
BRANCH   6  13
ATOM     13  O   UNL     1      11.216  27.555  -8.271  1.00  0.00    -0.387 OA
ATOM     14  H   UNL     1      10.253  27.756  -8.198  1.00  0.00     0.211 HD
ENDBRANCH   6  13
BRANCH   7  15
ATOM     15  O   UNL     1      14.310  28.677  -8.679  1.00  0.00    -0.385 OA
ATOM     16  H   UNL     1      15.070  29.185  -8.314  1.00  0.00     0.211 HD
ENDBRANCH   7  15
ENDBRANCH   1   2
BRANCH   1  17
ATOM     17  C   UNL     1      15.004  30.013  -4.859  1.00  0.00     0.224 C 
ATOM     18  C   UNL     1      15.796  28.857  -4.192  1.00  0.00     0.208 C 
ATOM     19  O   UNL     1      13.704  30.028  -4.289  1.00  0.00    -0.337 OA
ATOM     20  C   UNL     1      15.037  28.588  -2.913  1.00  0.00     0.180 C 
ATOM     21  C   UNL     1      13.622  29.006  -3.314  1.00  0.00     0.179 C 
BRANCH  17  22
ATOM     22  C   UNL     1      15.645  31.388  -4.516  1.00  0.00     0.225 C 
BRANCH  22  23
ATOM     23  O   UNL     1      14.980  31.987  -3.437  1.00  0.00    -0.391 OA
ATOM     24  H   UNL     1      14.597  31.249  -2.885  1.00  0.00     0.210 HD
ENDBRANCH  22  23
ENDBRANCH  17  22
BRANCH  18  25
ATOM     25  O   UNL     1      15.838  27.695  -4.991  1.00  0.00    -0.385 OA
ATOM     26  H   UNL     1      16.594  27.792  -5.638  1.00  0.00     0.211 HD
ENDBRANCH  18  25
BRANCH  20  27
ATOM     27  O   UNL     1      15.533  29.398  -1.874  1.00  0.00    -0.387 OA
ATOM     28  H   UNL     1      14.942  29.251  -1.095  1.00  0.00     0.211 HD
ENDBRANCH  20  27
BRANCH  21  29
ATOM     29  C   UNL     1      12.746  29.476  -2.143  1.00  0.00     0.191 C 
BRANCH  29  30
ATOM     30  O   UNL     1      12.779  30.879  -2.037  1.00  0.00    -0.394 OA
ATOM     31  H   UNL     1      12.122  31.121  -1.338  1.00  0.00     0.210 HD
ENDBRANCH  29  30
ENDBRANCH  21  29
ENDBRANCH   1  17
TORSDOF 13
ENDMDL
