MODEL 1
REMARK VINA RESULT:    -3.837      0.000      0.000
REMARK INTER + INTRA:          -5.764
REMARK INTER:                  -5.408
REMARK INTRA:                  -0.356
REMARK UNBOUND:                -0.356
REMARK SMILES CCCCCCCCC(=O)[O-]
REMARK SMILES IDX 6 1 7 2 8 3 9 4 10 5 11 6 5 7 4 8 3 9 2 10 1 11
REMARK H PARENT
REMARK Flexibility Score: inf
ROOT
ATOM      1  C   UNL     1      27.422  20.951  60.161  1.00  0.00     0.000 C 
ENDROOT
BRANCH   1   2
ATOM      2  C   UNL     1      27.374  21.690  58.818  1.00  0.00     0.006 C 
BRANCH   2   3
ATOM      3  C   UNL     1      26.208  21.193  57.958  1.00  0.00     0.053 C 
BRANCH   3   4
ATOM      4  C   UNL     1      26.586  19.939  57.237  1.00  0.00     0.041 C 
ATOM      5  O   UNL     1      26.276  18.815  57.713  1.00  0.00    -0.550 OA
ATOM      6  O   UNL     1      27.237  20.011  56.011  1.00  0.00    -0.550 OA
ENDBRANCH   3   4
ENDBRANCH   2   3
ENDBRANCH   1   2
BRANCH   1   7
ATOM      7  C   UNL     1      26.954  21.856  61.305  1.00  0.00     0.000 C 
BRANCH   7   8
ATOM      8  C   UNL     1      25.464  21.644  61.601  1.00  0.00    -0.000 C 
BRANCH   8   9
ATOM      9  C   UNL     1      25.236  21.335  63.085  1.00  0.00    -0.000 C 
BRANCH   9  10
ATOM     10  C   UNL     1      26.435  20.591  63.683  1.00  0.00    -0.003 C 
ATOM     11  C   UNL     1      26.065  19.159  64.057  1.00  0.00     0.004 C 
ENDBRANCH   9  10
ENDBRANCH   8   9
ENDBRANCH   7   8
ENDBRANCH   1   7
TORSDOF 7
ENDMDL
MODEL 2
REMARK VINA RESULT:    -3.788      0.210      0.998
REMARK INTER + INTRA:          -5.694
REMARK INTER:                  -5.330
REMARK INTRA:                  -0.364
REMARK UNBOUND:                -0.356
REMARK SMILES CCCCCCCCC(=O)[O-]
REMARK SMILES IDX 6 1 7 2 8 3 9 4 10 5 11 6 5 7 4 8 3 9 2 10 1 11
REMARK H PARENT
REMARK Flexibility Score: inf
ROOT
ATOM      1  C   UNL     1      27.409  20.991  60.032  1.00  0.00     0.000 C 
ENDROOT
BRANCH   1   2
ATOM      2  C   UNL     1      27.331  21.793  58.727  1.00  0.00     0.006 C 
BRANCH   2   3
ATOM      3  C   UNL     1      26.202  21.275  57.831  1.00  0.00     0.053 C 
BRANCH   3   4
ATOM      4  C   UNL     1      26.608  20.004  57.156  1.00  0.00     0.041 C 
ATOM      5  O   UNL     1      27.309  20.037  56.111  1.00  0.00    -0.550 OA
ATOM      6  O   UNL     1      26.255  18.779  57.710  1.00  0.00    -0.550 OA
ENDBRANCH   3   4
ENDBRANCH   2   3
ENDBRANCH   1   2
BRANCH   1   7
ATOM      7  C   UNL     1      26.967  21.842  61.228  1.00  0.00     0.000 C 
BRANCH   7   8
ATOM      8  C   UNL     1      25.443  21.807  61.394  1.00  0.00    -0.000 C 
BRANCH   8   9
ATOM      9  C   UNL     1      25.049  21.135  62.715  1.00  0.00    -0.000 C 
BRANCH   9  10
ATOM     10  C   UNL     1      26.290  20.737  63.522  1.00  0.00    -0.003 C 
ATOM     11  C   UNL     1      26.198  19.289  63.996  1.00  0.00     0.004 C 
ENDBRANCH   9  10
ENDBRANCH   8   9
ENDBRANCH   7   8
ENDBRANCH   1   7
TORSDOF 7
ENDMDL
MODEL 3
REMARK VINA RESULT:    -3.661      0.936      1.473
REMARK INTER + INTRA:          -5.515
REMARK INTER:                  -5.135
REMARK INTRA:                  -0.381
REMARK UNBOUND:                -0.356
REMARK SMILES CCCCCCCCC(=O)[O-]
REMARK SMILES IDX 6 1 7 2 8 3 9 4 10 5 11 6 5 7 4 8 3 9 2 10 1 11
REMARK H PARENT
REMARK Flexibility Score: inf
ROOT
ATOM      1  C   UNL     1      25.330  21.834  60.675  1.00  0.00     0.000 C 
ENDROOT
BRANCH   1   2
ATOM      2  C   UNL     1      25.300  21.363  59.216  1.00  0.00     0.006 C 
BRANCH   2   3
ATOM      3  C   UNL     1      26.691  20.918  58.753  1.00  0.00     0.053 C 
BRANCH   3   4
ATOM      4  C   UNL     1      26.581  19.934  57.632  1.00  0.00     0.041 C 
ATOM      5  O   UNL     1      25.834  18.927  57.743  1.00  0.00    -0.550 OA
ATOM      6  O   UNL     1      27.265  20.156  56.443  1.00  0.00    -0.550 OA
ENDBRANCH   3   4
ENDBRANCH   2   3
ENDBRANCH   1   2
BRANCH   1   7
ATOM      7  C   UNL     1      24.056  21.412  61.415  1.00  0.00     0.000 C 
BRANCH   7   8
ATOM      8  C   UNL     1      24.344  21.140  62.896  1.00  0.00    -0.000 C 
BRANCH   8   9
ATOM      9  C   UNL     1      25.773  21.558  63.265  1.00  0.00    -0.000 C 
BRANCH   9  10
ATOM     10  C   UNL     1      26.604  20.347  63.703  1.00  0.00    -0.003 C 
ATOM     11  C   UNL     1      25.708  19.173  64.088  1.00  0.00     0.004 C 
ENDBRANCH   9  10
ENDBRANCH   8   9
ENDBRANCH   7   8
ENDBRANCH   1   7
TORSDOF 7
ENDMDL
MODEL 4
REMARK VINA RESULT:    -3.519      1.429      1.839
REMARK INTER + INTRA:          -5.315
REMARK INTER:                  -5.062
REMARK INTRA:                  -0.253
REMARK UNBOUND:                -0.356
REMARK SMILES CCCCCCCCC(=O)[O-]
REMARK SMILES IDX 6 1 7 2 8 3 9 4 10 5 11 6 5 7 4 8 3 9 2 10 1 11
REMARK H PARENT
REMARK Flexibility Score: inf
ROOT
ATOM      1  C   UNL     1      27.060  21.108  58.597  1.00  0.00     0.000 C 
ENDROOT
BRANCH   1   2
ATOM      2  C   UNL     1      26.570  19.888  57.809  1.00  0.00     0.006 C 
BRANCH   2   3
ATOM      3  C   UNL     1      25.107  20.058  57.386  1.00  0.00     0.053 C 
BRANCH   3   4
ATOM      4  C   UNL     1      24.747  19.060  56.331  1.00  0.00     0.041 C 
ATOM      5  O   UNL     1      24.264  17.943  56.654  1.00  0.00    -0.550 OA
ATOM      6  O   UNL     1      24.896  19.384  54.988  1.00  0.00    -0.550 OA
ENDBRANCH   3   4
ENDBRANCH   2   3
ENDBRANCH   1   2
BRANCH   1   7
ATOM      7  C   UNL     1      27.454  20.719  60.026  1.00  0.00     0.000 C 
BRANCH   7   8
ATOM      8  C   UNL     1      27.114  21.839  61.016  1.00  0.00    -0.000 C 
BRANCH   8   9
ATOM      9  C   UNL     1      25.997  21.408  61.974  1.00  0.00    -0.000 C 
BRANCH   9  10
ATOM     10  C   UNL     1      26.545  21.171  63.386  1.00  0.00    -0.003 C 
ATOM     11  C   UNL     1      26.405  19.706  63.792  1.00  0.00     0.004 C 
ENDBRANCH   9  10
ENDBRANCH   8   9
ENDBRANCH   7   8
ENDBRANCH   1   7
TORSDOF 7
ENDMDL
MODEL 5
REMARK VINA RESULT:    -3.398      3.068      5.512
REMARK INTER + INTRA:          -5.144
REMARK INTER:                  -4.786
REMARK INTRA:                  -0.358
REMARK UNBOUND:                -0.356
REMARK SMILES CCCCCCCCC(=O)[O-]
REMARK SMILES IDX 6 1 7 2 8 3 9 4 10 5 11 6 5 7 4 8 3 9 2 10 1 11
REMARK H PARENT
REMARK Flexibility Score: inf
ROOT
ATOM      1  C   UNL     1      27.042  20.992  60.868  1.00  0.00     0.000 C 
ENDROOT
BRANCH   1   2
ATOM      2  C   UNL     1      26.617  21.986  61.955  1.00  0.00     0.006 C 
BRANCH   2   3
ATOM      3  C   UNL     1      26.688  21.346  63.345  1.00  0.00     0.053 C 
BRANCH   3   4
ATOM      4  C   UNL     1      25.500  20.468  63.579  1.00  0.00     0.041 C 
ATOM      5  O   UNL     1      25.632  19.216  63.601  1.00  0.00    -0.550 OA
ATOM      6  O   UNL     1      24.255  21.033  63.825  1.00  0.00    -0.550 OA
ENDBRANCH   3   4
ENDBRANCH   2   3
ENDBRANCH   1   2
BRANCH   1   7
ATOM      7  C   UNL     1      27.885  21.681  59.790  1.00  0.00     0.000 C 
BRANCH   7   8
ATOM      8  C   UNL     1      27.058  21.935  58.524  1.00  0.00    -0.000 C 
BRANCH   8   9
ATOM      9  C   UNL     1      26.008  20.836  58.321  1.00  0.00    -0.000 C 
BRANCH   9  10
ATOM     10  C   UNL     1      26.543  19.726  57.409  1.00  0.00    -0.003 C 
ATOM     11  C   UNL     1      26.673  20.211  55.968  1.00  0.00     0.004 C 
ENDBRANCH   9  10
ENDBRANCH   8   9
ENDBRANCH   7   8
ENDBRANCH   1   7
TORSDOF 7
ENDMDL
MODEL 6
REMARK VINA RESULT:    -3.287      3.115      5.645
REMARK INTER + INTRA:          -4.988
REMARK INTER:                  -4.638
REMARK INTRA:                  -0.349
REMARK UNBOUND:                -0.356
REMARK SMILES CCCCCCCCC(=O)[O-]
REMARK SMILES IDX 6 1 7 2 8 3 9 4 10 5 11 6 5 7 4 8 3 9 2 10 1 11
REMARK H PARENT
REMARK Flexibility Score: inf
ROOT
ATOM      1  C   UNL     1      27.328  21.006  60.670  1.00  0.00     0.000 C 
ENDROOT
BRANCH   1   2
ATOM      2  C   UNL     1      26.295  21.648  61.604  1.00  0.00     0.006 C 
BRANCH   2   3
ATOM      3  C   UNL     1      26.582  21.296  63.066  1.00  0.00     0.053 C 
BRANCH   3   4
ATOM      4  C   UNL     1      25.478  20.460  63.632  1.00  0.00     0.041 C 
ATOM      5  O   UNL     1      24.397  20.997  63.990  1.00  0.00    -0.550 OA
ATOM      6  O   UNL     1      25.623  19.081  63.716  1.00  0.00    -0.550 OA
ENDBRANCH   3   4
ENDBRANCH   2   3
ENDBRANCH   1   2
BRANCH   1   7
ATOM      7  C   UNL     1      27.077  21.407  59.212  1.00  0.00     0.000 C 
BRANCH   7   8
ATOM      8  C   UNL     1      25.596  21.256  58.846  1.00  0.00    -0.000 C 
BRANCH   8   9
ATOM      9  C   UNL     1      25.409  20.245  57.709  1.00  0.00    -0.000 C 
BRANCH   9  10
ATOM     10  C   UNL     1      26.740  19.959  57.004  1.00  0.00    -0.003 C 
ATOM     11  C   UNL     1      26.648  20.256  55.510  1.00  0.00     0.004 C 
ENDBRANCH   9  10
ENDBRANCH   8   9
ENDBRANCH   7   8
ENDBRANCH   1   7
TORSDOF 7
ENDMDL
MODEL 7
REMARK VINA RESULT:    -3.275      3.118      5.295
REMARK INTER + INTRA:          -4.972
REMARK INTER:                  -4.469
REMARK INTRA:                  -0.503
REMARK UNBOUND:                -0.356
REMARK SMILES CCCCCCCCC(=O)[O-]
REMARK SMILES IDX 6 1 7 2 8 3 9 4 10 5 11 6 5 7 4 8 3 9 2 10 1 11
REMARK H PARENT
REMARK Flexibility Score: inf
ROOT
ATOM      1  C   UNL     1      24.264  21.523  61.099  1.00  0.00     0.000 C 
ENDROOT
BRANCH   1   2
ATOM      2  C   UNL     1      24.530  22.122  62.485  1.00  0.00     0.006 C 
BRANCH   2   3
ATOM      3  C   UNL     1      24.364  21.065  63.581  1.00  0.00     0.053 C 
BRANCH   3   4
ATOM      4  C   UNL     1      25.619  20.267  63.736  1.00  0.00     0.041 C 
ATOM      5  O   UNL     1      25.568  19.010  63.795  1.00  0.00    -0.550 OA
ATOM      6  O   UNL     1      26.852  20.908  63.763  1.00  0.00    -0.550 OA
ENDBRANCH   3   4
ENDBRANCH   2   3
ENDBRANCH   1   2
BRANCH   1   7
ATOM      7  C   UNL     1      25.241  22.085  60.060  1.00  0.00     0.000 C 
BRANCH   7   8
ATOM      8  C   UNL     1      26.694  21.806  60.463  1.00  0.00    -0.000 C 
BRANCH   8   9
ATOM      9  C   UNL     1      27.336  20.774  59.528  1.00  0.00    -0.000 C 
BRANCH   9  10
ATOM     10  C   UNL     1      26.761  20.883  58.111  1.00  0.00    -0.003 C 
ATOM     11  C   UNL     1      26.411  19.507  57.551  1.00  0.00     0.004 C 
ENDBRANCH   9  10
ENDBRANCH   8   9
ENDBRANCH   7   8
ENDBRANCH   1   7
TORSDOF 7
ENDMDL
MODEL 8
REMARK VINA RESULT:    -3.108      1.719      2.303
REMARK INTER + INTRA:          -4.737
REMARK INTER:                  -4.353
REMARK INTRA:                  -0.383
REMARK UNBOUND:                -0.356
REMARK SMILES CCCCCCCCC(=O)[O-]
REMARK SMILES IDX 6 1 7 2 8 3 9 4 10 5 11 6 5 7 4 8 3 9 2 10 1 11
REMARK H PARENT
REMARK Flexibility Score: inf
ROOT
ATOM      1  C   UNL     1      23.782  20.934  59.349  1.00  0.00     0.000 C 
ENDROOT
BRANCH   1   2
ATOM      2  C   UNL     1      23.542  21.173  57.853  1.00  0.00     0.006 C 
BRANCH   2   3
ATOM      3  C   UNL     1      24.794  20.842  57.036  1.00  0.00     0.053 C 
BRANCH   3   4
ATOM      4  C   UNL     1      25.202  19.419  57.253  1.00  0.00     0.041 C 
ATOM      5  O   UNL     1      24.506  18.481  56.782  1.00  0.00    -0.550 OA
ATOM      6  O   UNL     1      26.378  19.129  57.933  1.00  0.00    -0.550 OA
ENDBRANCH   3   4
ENDBRANCH   2   3
ENDBRANCH   1   2
BRANCH   1   7
ATOM      7  C   UNL     1      24.582  22.085  59.969  1.00  0.00     0.000 C 
BRANCH   7   8
ATOM      8  C   UNL     1      25.229  21.656  61.291  1.00  0.00    -0.000 C 
BRANCH   8   9
ATOM      9  C   UNL     1      24.166  21.224  62.309  1.00  0.00    -0.000 C 
BRANCH   9  10
ATOM     10  C   UNL     1      24.816  20.760  63.618  1.00  0.00    -0.003 C 
ATOM     11  C   UNL     1      26.288  20.417  63.411  1.00  0.00     0.004 C 
ENDBRANCH   9  10
ENDBRANCH   8   9
ENDBRANCH   7   8
ENDBRANCH   1   7
TORSDOF 7
ENDMDL
MODEL 9
REMARK VINA RESULT:    -2.830      2.892      5.741
REMARK INTER + INTRA:          -4.344
REMARK INTER:                  -3.887
REMARK INTRA:                  -0.457
REMARK UNBOUND:                -0.356
REMARK SMILES CCCCCCCCC(=O)[O-]
REMARK SMILES IDX 6 1 7 2 8 3 9 4 10 5 11 6 5 7 4 8 3 9 2 10 1 11
REMARK H PARENT
REMARK Flexibility Score: inf
ROOT
ATOM      1  C   UNL     1      26.656  19.987  56.976  1.00  0.00     0.000 C 
ENDROOT
BRANCH   1   2
ATOM      2  C   UNL     1      26.742  21.370  57.632  1.00  0.00     0.006 C 
BRANCH   2   3
ATOM      3  C   UNL     1      26.119  21.354  59.031  1.00  0.00     0.053 C 
BRANCH   3   4
ATOM      4  C   UNL     1      27.177  21.184  60.075  1.00  0.00     0.041 C 
ATOM      5  O   UNL     1      26.914  20.585  61.151  1.00  0.00    -0.550 OA
ATOM      6  O   UNL     1      28.467  21.641  59.839  1.00  0.00    -0.550 OA
ENDBRANCH   3   4
ENDBRANCH   2   3
ENDBRANCH   1   2
BRANCH   1   7
ATOM      7  C   UNL     1      26.305  20.104  55.489  1.00  0.00     0.000 C 
BRANCH   7   8
ATOM      8  C   UNL     1      24.792  19.979  55.268  1.00  0.00    -0.000 C 
BRANCH   8   9
ATOM      9  C   UNL     1      24.436  18.623  54.647  1.00  0.00    -0.000 C 
BRANCH   9  10
ATOM     10  C   UNL     1      23.584  17.785  55.607  1.00  0.00    -0.003 C 
ATOM     11  C   UNL     1      23.059  18.634  56.762  1.00  0.00     0.004 C 
ENDBRANCH   9  10
ENDBRANCH   8   9
ENDBRANCH   7   8
ENDBRANCH   1   7
TORSDOF 7
ENDMDL
