MODEL 1
REMARK VINA RESULT:    -4.608      0.000      0.000
REMARK INTER + INTRA:          -7.557
REMARK INTER:                  -7.032
REMARK INTRA:                  -0.525
REMARK UNBOUND:                -0.525
REMARK SMILES CC1=CCC[C@@H](C)C(=O)C[C@@H](C(C)C)C(=O)C1
REMARK SMILES IDX 8 1 9 2 6 3 7 4 5 5 4 6 3 7 2 8 1 9 10 11 11 12 15 13 16 14
REMARK SMILES IDX 17 15 12 17 13 18 14 19
REMARK H PARENT
REMARK Flexibility Score: 70.00
ROOT
ATOM      1  C   UNL     1      27.437  51.913   9.243  1.00  0.00     0.136 C 
ATOM      2  O   UNL     1      27.800  51.429   8.182  1.00  0.00    -0.299 OA
ENDROOT
BRANCH   1   3
ATOM      3  C   UNL     1      28.491  52.152  10.334  1.00  0.00     0.053 C 
ATOM      4  C   UNL     1      29.635  51.142  10.211  1.00  0.00     0.016 C 
BRANCH   3   5
ATOM      5  C   UNL     1      27.772  52.036  11.661  1.00  0.00     0.015 C 
BRANCH   5   6
ATOM      6  C   UNL     1      27.838  53.030  12.790  1.00  0.00     0.028 C 
BRANCH   6   7
ATOM      7  C   UNL     1      27.799  54.440  12.200  1.00  0.00    -0.028 C 
ATOM      8  C   UNL     1      26.736  55.122  11.646  1.00  0.00    -0.070 CG0
ATOM      9  C   UNL     1      26.994  56.561  11.266  1.00  0.00     0.039 C 
ATOM     10  G   UNL     1      25.326  54.564  11.351  1.00  0.00     0.000 G0
ENDBRANCH   6   7
ENDBRANCH   5   6
ENDBRANCH   3   5
ENDBRANCH   1   3
BRANCH   1  11
ATOM     11  C   UNL     1      25.944  52.262   9.422  1.00  0.00     0.087 C 
BRANCH  11  12
ATOM     12  C   UNL     1      25.483  53.643   8.804  1.00  0.00     0.066 C 
BRANCH  12  13
ATOM     13  C   UNL     1      24.916  54.628   9.856  1.00  0.00     0.140 C 
ATOM     14  O   UNL     1      24.123  55.488   9.503  1.00  0.00    -0.299 OA
BRANCH  13  15
ATOM     15  C   UNL     1      25.314  54.569  11.336  1.00  0.00     0.106 CG0
ATOM     16  G   UNL     1      26.723  55.122  11.645  1.00  0.00     0.000 G0
ENDBRANCH  13  15
ENDBRANCH  12  13
BRANCH  12  17
ATOM     17  C   UNL     1      24.485  53.438   7.621  1.00  0.00    -0.006 C 
ATOM     18  C   UNL     1      25.092  53.735   6.238  1.00  0.00     0.008 C 
ATOM     19  C   UNL     1      23.872  52.028   7.637  1.00  0.00     0.008 C 
ENDBRANCH  12  17
ENDBRANCH  11  12
ENDBRANCH   1  11
TORSDOF 1
ENDMDL
MODEL 2
REMARK VINA RESULT:    -4.557      2.449      5.280
REMARK INTER + INTRA:          -7.479
REMARK INTER:                  -7.032
REMARK INTRA:                  -0.447
REMARK UNBOUND:                -0.525
REMARK SMILES CC1=CCC[C@@H](C)C(=O)C[C@@H](C(C)C)C(=O)C1
REMARK SMILES IDX 8 1 9 2 6 3 7 4 5 5 4 6 3 7 2 8 1 9 10 11 11 12 15 13 16 14
REMARK SMILES IDX 17 15 12 17 13 18 14 19
REMARK H PARENT
REMARK Flexibility Score: 70.00
ROOT
ATOM      1  C   UNL     1      25.928  55.689  10.898  1.00  0.00     0.136 C 
ATOM      2  O   UNL     1      25.369  55.389  11.943  1.00  0.00    -0.299 OA
ENDROOT
BRANCH   1   3
ATOM      3  C   UNL     1      25.459  55.013   9.602  1.00  0.00     0.053 C 
ATOM      4  C   UNL     1      23.989  55.338   9.322  1.00  0.00     0.016 C 
BRANCH   3   5
ATOM      5  C   UNL     1      25.686  53.527   9.784  1.00  0.00     0.015 C 
BRANCH   5   6
ATOM      6  C   UNL     1      27.025  52.840   9.843  1.00  0.00     0.028 C 
BRANCH   6   7
ATOM      7  C   UNL     1      27.247  52.330  11.267  1.00  0.00    -0.028 C 
ATOM      8  C   UNL     1      28.155  52.759  12.213  1.00  0.00    -0.070 CG0
ATOM      9  C   UNL     1      28.037  52.131  13.581  1.00  0.00     0.039 C 
ATOM     10  G   UNL     1      29.289  53.789  12.013  1.00  0.00     0.000 G0
ENDBRANCH   6   7
ENDBRANCH   5   6
ENDBRANCH   3   5
ENDBRANCH   1   3
BRANCH   1  11
ATOM     11  C   UNL     1      27.065  56.730  10.943  1.00  0.00     0.087 C 
BRANCH  11  12
ATOM     12  C   UNL     1      28.534  56.145  10.930  1.00  0.00     0.066 C 
BRANCH  12  13
ATOM     13  C   UNL     1      28.854  55.260  12.159  1.00  0.00     0.140 C 
ATOM     14  O   UNL     1      28.759  55.737  13.280  1.00  0.00    -0.299 OA
BRANCH  13  15
ATOM     15  C   UNL     1      29.293  53.796  12.027  1.00  0.00     0.106 CG0
ATOM     16  G   UNL     1      28.155  52.766  12.197  1.00  0.00     0.000 G0
ENDBRANCH  13  15
ENDBRANCH  12  13
BRANCH  12  17
ATOM     17  C   UNL     1      29.599  57.271  10.746  1.00  0.00    -0.006 C 
ATOM     18  C   UNL     1      29.461  58.426  11.754  1.00  0.00     0.008 C 
ATOM     19  C   UNL     1      31.028  56.708  10.781  1.00  0.00     0.008 C 
ENDBRANCH  12  17
ENDBRANCH  11  12
ENDBRANCH   1  11
TORSDOF 1
ENDMDL
MODEL 3
REMARK VINA RESULT:    -4.533      5.815      8.119
REMARK INTER + INTRA:          -7.443
REMARK INTER:                  -7.091
REMARK INTRA:                  -0.351
REMARK UNBOUND:                -0.525
REMARK SMILES CC1=CCC[C@@H](C)C(=O)C[C@@H](C(C)C)C(=O)C1
REMARK SMILES IDX 8 1 9 2 6 3 7 4 5 5 4 6 3 7 2 8 1 9 10 11 11 12 15 13 16 14
REMARK SMILES IDX 17 15 12 17 13 18 14 19
REMARK H PARENT
REMARK Flexibility Score: 70.00
ROOT
ATOM      1  C   UNL     1      26.166  50.342  16.734  1.00  0.00     0.136 C 
ATOM      2  O   UNL     1      25.673  50.592  15.645  1.00  0.00    -0.299 OA
ENDROOT
BRANCH   1   3
ATOM      3  C   UNL     1      25.618  51.073  17.968  1.00  0.00     0.053 C 
ATOM      4  C   UNL     1      24.132  50.762  18.165  1.00  0.00     0.016 C 
BRANCH   3   5
ATOM      5  C   UNL     1      25.863  52.549  17.738  1.00  0.00     0.015 C 
BRANCH   5   6
ATOM      6  C   UNL     1      27.176  53.264  17.918  1.00  0.00     0.028 C 
BRANCH   6   7
ATOM      7  C   UNL     1      27.593  53.862  16.574  1.00  0.00    -0.028 C 
ATOM      8  C   UNL     1      28.571  53.437  15.699  1.00  0.00    -0.070 CG0
ATOM      9  C   UNL     1      28.653  54.173  14.384  1.00  0.00     0.039 C 
ATOM     10  G   UNL     1      29.602  52.310  15.934  1.00  0.00     0.000 G0
ENDBRANCH   6   7
ENDBRANCH   5   6
ENDBRANCH   3   5
ENDBRANCH   1   3
BRANCH   1  11
ATOM     11  C   UNL     1      27.305  49.303  16.806  1.00  0.00     0.087 C 
BRANCH  11  12
ATOM     12  C   UNL     1      28.771  49.893  16.860  1.00  0.00     0.066 C 
BRANCH  12  13
ATOM     13  C   UNL     1      29.079  50.880  15.708  1.00  0.00     0.140 C 
ATOM     14  O   UNL     1      28.901  50.524  14.552  1.00  0.00    -0.299 OA
BRANCH  13  15
ATOM     15  C   UNL     1      29.605  52.298  15.959  1.00  0.00     0.106 CG0
ATOM     16  G   UNL     1      28.578  53.422  15.694  1.00  0.00     0.000 G0
ENDBRANCH  13  15
ENDBRANCH  12  13
BRANCH  12  17
ATOM     17  C   UNL     1      29.842  48.761  16.941  1.00  0.00    -0.006 C 
ATOM     18  C   UNL     1      29.750  47.735  15.797  1.00  0.00     0.008 C 
ATOM     19  C   UNL     1      31.265  49.335  17.022  1.00  0.00     0.008 C 
ENDBRANCH  12  17
ENDBRANCH  11  12
ENDBRANCH   1  11
TORSDOF 1
ENDMDL
MODEL 4
REMARK VINA RESULT:    -4.435      2.129      4.128
REMARK INTER + INTRA:          -7.293
REMARK INTER:                  -6.932
REMARK INTRA:                  -0.362
REMARK UNBOUND:                -0.525
REMARK SMILES CC1=CCC[C@@H](C)C(=O)C[C@@H](C(C)C)C(=O)C1
REMARK SMILES IDX 8 1 9 2 6 3 7 4 5 5 4 6 3 7 2 8 1 9 10 11 11 12 15 13 16 14
REMARK SMILES IDX 17 15 12 17 13 18 14 19
REMARK H PARENT
REMARK Flexibility Score: 70.00
ROOT
ATOM      1  C   UNL     1      28.271  55.296  11.714  1.00  0.00     0.136 C 
ATOM      2  O   UNL     1      28.297  55.464  12.924  1.00  0.00    -0.299 OA
ENDROOT
BRANCH   1   3
ATOM      3  C   UNL     1      28.052  56.520  10.814  1.00  0.00     0.053 C 
ATOM      4  C   UNL     1      29.313  57.386  10.761  1.00  0.00     0.016 C 
BRANCH   3   5
ATOM      5  C   UNL     1      26.871  57.273  11.389  1.00  0.00     0.015 C 
BRANCH   5   6
ATOM      6  C   UNL     1      25.432  56.832  11.335  1.00  0.00     0.028 C 
BRANCH   6   7
ATOM      7  C   UNL     1      25.153  56.250   9.948  1.00  0.00    -0.028 C 
ATOM      8  C   UNL     1      24.729  54.983   9.606  1.00  0.00    -0.070 CG0
ATOM      9  C   UNL     1      24.421  54.757   8.145  1.00  0.00     0.039 C 
ATOM     10  G   UNL     1      24.564  53.772  10.550  1.00  0.00     0.000 G0
ENDBRANCH   6   7
ENDBRANCH   5   6
ENDBRANCH   3   5
ENDBRANCH   1   3
BRANCH   1  11
ATOM     11  C   UNL     1      28.465  53.867  11.164  1.00  0.00     0.087 C 
BRANCH  11  12
ATOM     12  C   UNL     1      27.242  53.269  10.360  1.00  0.00     0.066 C 
BRANCH  12  13
ATOM     13  C   UNL     1      25.917  53.274  11.162  1.00  0.00     0.140 C 
ATOM     14  O   UNL     1      25.917  52.877  12.317  1.00  0.00    -0.299 OA
BRANCH  13  15
ATOM     15  C   UNL     1      24.593  53.757  10.558  1.00  0.00     0.106 CG0
ATOM     16  G   UNL     1      24.724  54.963   9.601  1.00  0.00     0.000 G0
ENDBRANCH  13  15
ENDBRANCH  12  13
BRANCH  12  17
ATOM     17  C   UNL     1      27.563  51.847   9.800  1.00  0.00    -0.006 C 
ATOM     18  C   UNL     1      27.035  51.607   8.375  1.00  0.00     0.008 C 
ATOM     19  C   UNL     1      29.067  51.542   9.865  1.00  0.00     0.008 C 
ENDBRANCH  12  17
ENDBRANCH  11  12
ENDBRANCH   1  11
TORSDOF 1
ENDMDL
MODEL 5
REMARK VINA RESULT:    -4.428      6.697      8.808
REMARK INTER + INTRA:          -7.283
REMARK INTER:                  -6.724
REMARK INTRA:                  -0.559
REMARK UNBOUND:                -0.525
REMARK SMILES CC1=CCC[C@@H](C)C(=O)C[C@@H](C(C)C)C(=O)C1
REMARK SMILES IDX 8 1 9 2 6 3 7 4 5 5 4 6 3 7 2 8 1 9 10 11 11 12 15 13 16 14
REMARK SMILES IDX 17 15 12 17 13 18 14 19
REMARK H PARENT
REMARK Flexibility Score: 70.00
ROOT
ATOM      1  C   UNL     1      25.560  50.879  17.028  1.00  0.00     0.136 C 
ATOM      2  O   UNL     1      25.504  49.675  17.231  1.00  0.00    -0.299 OA
ENDROOT
BRANCH   1   3
ATOM      3  C   UNL     1      25.310  51.389  15.602  1.00  0.00     0.053 C 
ATOM      4  C   UNL     1      25.965  50.464  14.574  1.00  0.00     0.016 C 
BRANCH   3   5
ATOM      5  C   UNL     1      25.872  52.793  15.542  1.00  0.00     0.015 C 
BRANCH   5   6
ATOM      6  C   UNL     1      25.071  54.068  15.602  1.00  0.00     0.028 C 
BRANCH   6   7
ATOM      7  C   UNL     1      23.588  53.718  15.473  1.00  0.00    -0.028 C 
ATOM      8  C   UNL     1      22.643  53.556  16.464  1.00  0.00    -0.070 CG0
ATOM      9  C   UNL     1      21.223  53.336  16.000  1.00  0.00     0.039 C 
ATOM     10  G   UNL     1      22.888  53.551  17.990  1.00  0.00     0.000 G0
ENDBRANCH   6   7
ENDBRANCH   5   6
ENDBRANCH   3   5
ENDBRANCH   1   3
BRANCH   1  11
ATOM     11  C   UNL     1      25.873  51.813  18.217  1.00  0.00     0.087 C 
BRANCH  11  12
ATOM     12  C   UNL     1      24.697  52.021  19.254  1.00  0.00     0.066 C 
BRANCH  12  13
ATOM     13  C   UNL     1      23.313  52.205  18.585  1.00  0.00     0.140 C 
ATOM     14  O   UNL     1      22.550  51.253  18.520  1.00  0.00    -0.299 OA
BRANCH  13  15
ATOM     15  C   UNL     1      22.857  53.544  17.993  1.00  0.00     0.106 CG0
ATOM     16  G   UNL     1      22.649  53.533  16.462  1.00  0.00     0.000 G0
ENDBRANCH  13  15
ENDBRANCH  12  13
BRANCH  12  17
ATOM     17  C   UNL     1      25.008  53.185  20.247  1.00  0.00    -0.006 C 
ATOM     18  C   UNL     1      25.428  52.709  21.649  1.00  0.00     0.008 C 
ATOM     19  C   UNL     1      26.063  54.147  19.677  1.00  0.00     0.008 C 
ENDBRANCH  12  17
ENDBRANCH  11  12
ENDBRANCH   1  11
TORSDOF 1
ENDMDL
MODEL 6
REMARK VINA RESULT:    -4.298      6.220      7.532
REMARK INTER + INTRA:          -7.085
REMARK INTER:                  -6.741
REMARK INTRA:                  -0.344
REMARK UNBOUND:                -0.525
REMARK SMILES CC1=CCC[C@@H](C)C(=O)C[C@@H](C(C)C)C(=O)C1
REMARK SMILES IDX 8 1 9 2 6 3 7 4 5 5 4 6 3 7 2 8 1 9 10 11 11 12 15 13 16 14
REMARK SMILES IDX 17 15 12 17 13 18 14 19
REMARK H PARENT
REMARK Flexibility Score: 70.00
ROOT
ATOM      1  C   UNL     1      26.813  49.208  15.599  1.00  0.00     0.136 C 
ATOM      2  O   UNL     1      25.969  49.041  14.732  1.00  0.00    -0.299 OA
ENDROOT
BRANCH   1   3
ATOM      3  C   UNL     1      28.276  48.886  15.264  1.00  0.00     0.053 C 
ATOM      4  C   UNL     1      28.395  47.492  14.643  1.00  0.00     0.016 C 
BRANCH   3   5
ATOM      5  C   UNL     1      29.050  48.998  16.560  1.00  0.00     0.015 C 
BRANCH   5   6
ATOM      6  C   UNL     1      29.923  50.155  16.970  1.00  0.00     0.028 C 
BRANCH   6   7
ATOM      7  C   UNL     1      29.751  51.280  15.949  1.00  0.00    -0.028 C 
ATOM      8  C   UNL     1      28.882  52.351  15.973  1.00  0.00    -0.070 CG0
ATOM      9  C   UNL     1      29.047  53.367  14.868  1.00  0.00     0.039 C 
ATOM     10  G   UNL     1      27.747  52.605  16.991  1.00  0.00     0.000 G0
ENDBRANCH   6   7
ENDBRANCH   5   6
ENDBRANCH   3   5
ENDBRANCH   1   3
BRANCH   1  11
ATOM     11  C   UNL     1      26.359  49.736  16.976  1.00  0.00     0.087 C 
BRANCH  11  12
ATOM     12  C   UNL     1      25.514  51.073  16.954  1.00  0.00     0.066 C 
BRANCH  12  13
ATOM     13  C   UNL     1      26.326  52.306  16.486  1.00  0.00     0.140 C 
ATOM     14  O   UNL     1      25.833  53.073  15.673  1.00  0.00    -0.299 OA
BRANCH  13  15
ATOM     15  C   UNL     1      27.739  52.604  17.003  1.00  0.00     0.106 CG0
ATOM     16  G   UNL     1      28.866  52.353  15.977  1.00  0.00     0.000 G0
ENDBRANCH  13  15
ENDBRANCH  12  13
BRANCH  12  17
ATOM     17  C   UNL     1      24.822  51.337  18.328  1.00  0.00    -0.006 C 
ATOM     18  C   UNL     1      23.378  51.856  18.206  1.00  0.00     0.008 C 
ATOM     19  C   UNL     1      24.861  50.092  19.228  1.00  0.00     0.008 C 
ENDBRANCH  12  17
ENDBRANCH  11  12
ENDBRANCH   1  11
TORSDOF 1
ENDMDL
MODEL 7
REMARK VINA RESULT:    -4.207      2.018      3.805
REMARK INTER + INTRA:          -6.946
REMARK INTER:                  -6.550
REMARK INTRA:                  -0.396
REMARK UNBOUND:                -0.525
REMARK SMILES CC1=CCC[C@@H](C)C(=O)C[C@@H](C(C)C)C(=O)C1
REMARK SMILES IDX 8 1 9 2 6 3 7 4 5 5 4 6 3 7 2 8 1 9 10 11 11 12 15 13 16 14
REMARK SMILES IDX 17 15 12 17 13 18 14 19
REMARK H PARENT
REMARK Flexibility Score: 70.00
ROOT
ATOM      1  C   UNL     1      26.360  56.500  11.142  1.00  0.00     0.136 C 
ATOM      2  O   UNL     1      25.326  57.000  11.560  1.00  0.00    -0.299 OA
ENDROOT
BRANCH   1   3
ATOM      3  C   UNL     1      27.693  56.986  11.729  1.00  0.00     0.053 C 
ATOM      4  C   UNL     1      28.760  57.087  10.637  1.00  0.00     0.016 C 
BRANCH   3   5
ATOM      5  C   UNL     1      28.075  55.995  12.808  1.00  0.00     0.015 C 
BRANCH   5   6
ATOM      6  C   UNL     1      27.125  55.108  13.569  1.00  0.00     0.028 C 
BRANCH   6   7
ATOM      7  C   UNL     1      27.611  53.662  13.454  1.00  0.00    -0.028 C 
ATOM      8  C   UNL     1      27.021  52.595  12.811  1.00  0.00    -0.070 CG0
ATOM      9  C   UNL     1      27.822  51.315  12.771  1.00  0.00     0.039 C 
ATOM     10  G   UNL     1      25.623  52.564  12.153  1.00  0.00     0.000 G0
ENDBRANCH   6   7
ENDBRANCH   5   6
ENDBRANCH   3   5
ENDBRANCH   1   3
BRANCH   1  11
ATOM     11  C   UNL     1      26.264  55.408  10.056  1.00  0.00     0.087 C 
BRANCH  11  12
ATOM     12  C   UNL     1      25.083  54.370  10.228  1.00  0.00     0.066 C 
BRANCH  12  13
ATOM     13  C   UNL     1      25.557  52.970  10.687  1.00  0.00     0.140 C 
ATOM     14  O   UNL     1      25.904  52.152   9.848  1.00  0.00    -0.299 OA
BRANCH  13  15
ATOM     15  C   UNL     1      25.608  52.563  12.165  1.00  0.00     0.106 CG0
ATOM     16  G   UNL     1      27.019  52.593  12.793  1.00  0.00     0.000 G0
ENDBRANCH  13  15
ENDBRANCH  12  13
BRANCH  12  17
ATOM     17  C   UNL     1      24.207  54.280   8.939  1.00  0.00    -0.006 C 
ATOM     18  C   UNL     1      22.797  54.874   9.104  1.00  0.00     0.008 C 
ATOM     19  C   UNL     1      24.911  54.918   7.731  1.00  0.00     0.008 C 
ENDBRANCH  12  17
ENDBRANCH  11  12
ENDBRANCH   1  11
TORSDOF 1
ENDMDL
MODEL 8
REMARK VINA RESULT:    -4.137      2.264      3.396
REMARK INTER + INTRA:          -6.838
REMARK INTER:                  -6.468
REMARK INTRA:                  -0.370
REMARK UNBOUND:                -0.525
REMARK SMILES CC1=CCC[C@@H](C)C(=O)C[C@@H](C(C)C)C(=O)C1
REMARK SMILES IDX 8 1 9 2 6 3 7 4 5 5 4 6 3 7 2 8 1 9 10 11 11 12 15 13 16 14
REMARK SMILES IDX 17 15 12 17 13 18 14 19
REMARK H PARENT
REMARK Flexibility Score: 70.00
ROOT
ATOM      1  C   UNL     1      28.456  54.376  11.049  1.00  0.00     0.136 C 
ATOM      2  O   UNL     1      29.670  54.405  11.185  1.00  0.00    -0.299 OA
ENDROOT
BRANCH   1   3
ATOM      3  C   UNL     1      27.673  55.687  11.209  1.00  0.00     0.053 C 
ATOM      4  C   UNL     1      28.494  56.873  10.697  1.00  0.00     0.016 C 
BRANCH   3   5
ATOM      5  C   UNL     1      27.346  55.817  12.681  1.00  0.00     0.015 C 
BRANCH   5   6
ATOM      6  C   UNL     1      27.594  54.771  13.736  1.00  0.00     0.028 C 
BRANCH   6   7
ATOM      7  C   UNL     1      26.247  54.335  14.315  1.00  0.00    -0.028 C 
ATOM      8  C   UNL     1      25.451  53.268  13.956  1.00  0.00    -0.070 CG0
ATOM      9  C   UNL     1      24.231  53.030  14.814  1.00  0.00     0.039 C 
ATOM     10  G   UNL     1      25.661  52.312  12.760  1.00  0.00     0.000 G0
ENDBRANCH   6   7
ENDBRANCH   5   6
ENDBRANCH   3   5
ENDBRANCH   1   3
BRANCH   1  11
ATOM     11  C   UNL     1      27.784  53.026  10.720  1.00  0.00     0.087 C 
BRANCH  11  12
ATOM     12  C   UNL     1      26.279  53.107  10.241  1.00  0.00     0.066 C 
BRANCH  12  13
ATOM     13  C   UNL     1      25.257  52.893  11.384  1.00  0.00     0.140 C 
ATOM     14  O   UNL     1      24.088  53.200  11.206  1.00  0.00    -0.299 OA
BRANCH  13  15
ATOM     15  C   UNL     1      25.657  52.310  12.745  1.00  0.00     0.106 CG0
ATOM     16  G   UNL     1      25.446  53.265  13.942  1.00  0.00     0.000 G0
ENDBRANCH  13  15
ENDBRANCH  12  13
BRANCH  12  17
ATOM     17  C   UNL     1      26.005  52.142   9.045  1.00  0.00    -0.006 C 
ATOM     18  C   UNL     1      25.136  52.759   7.935  1.00  0.00     0.008 C 
ATOM     19  C   UNL     1      27.312  51.594   8.451  1.00  0.00     0.008 C 
ENDBRANCH  12  17
ENDBRANCH  11  12
ENDBRANCH   1  11
TORSDOF 1
ENDMDL
MODEL 9
REMARK VINA RESULT:    -4.107      2.638      5.073
REMARK INTER + INTRA:          -6.792
REMARK INTER:                  -6.733
REMARK INTRA:                  -0.060
REMARK UNBOUND:                -0.525
REMARK SMILES CC1=CCC[C@@H](C)C(=O)C[C@@H](C(C)C)C(=O)C1
REMARK SMILES IDX 8 1 9 2 6 3 7 4 5 5 4 6 3 7 2 8 1 9 10 11 11 12 15 13 16 14
REMARK SMILES IDX 17 15 12 17 13 18 14 19
REMARK H PARENT
REMARK Flexibility Score: 70.00
ROOT
ATOM      1  C   UNL     1      25.956  55.626  10.565  1.00  0.00     0.136 C 
ATOM      2  O   UNL     1      24.891  56.032  10.126  1.00  0.00    -0.299 OA
ENDROOT
BRANCH   1   3
ATOM      3  C   UNL     1      26.195  54.110  10.612  1.00  0.00     0.053 C 
ATOM      4  C   UNL     1      25.853  53.466   9.266  1.00  0.00     0.016 C 
BRANCH   3   5
ATOM      5  C   UNL     1      25.331  53.572  11.733  1.00  0.00     0.015 C 
BRANCH   5   6
ATOM      6  C   UNL     1      25.143  54.209  13.085  1.00  0.00     0.028 C 
BRANCH   6   7
ATOM      7  C   UNL     1      26.252  53.712  14.015  1.00  0.00    -0.028 C 
ATOM      8  C   UNL     1      27.448  54.317  14.342  1.00  0.00    -0.070 CG0
ATOM      9  C   UNL     1      28.277  53.624  15.397  1.00  0.00     0.039 C 
ATOM     10  G   UNL     1      28.036  55.607  13.728  1.00  0.00     0.000 G0
ENDBRANCH   6   7
ENDBRANCH   5   6
ENDBRANCH   3   5
ENDBRANCH   1   3
BRANCH   1  11
ATOM     11  C   UNL     1      27.000  56.659  11.040  1.00  0.00     0.087 C 
BRANCH  11  12
ATOM     12  C   UNL     1      28.494  56.146  11.106  1.00  0.00     0.066 C 
BRANCH  12  13
ATOM     13  C   UNL     1      28.827  55.392  12.417  1.00  0.00     0.140 C 
ATOM     14  O   UNL     1      29.745  54.586  12.426  1.00  0.00    -0.299 OA
BRANCH  13  15
ATOM     15  C   UNL     1      28.043  55.616  13.716  1.00  0.00     0.106 CG0
ATOM     16  G   UNL     1      27.442  54.333  14.334  1.00  0.00     0.000 G0
ENDBRANCH  13  15
ENDBRANCH  12  13
BRANCH  12  17
ATOM     17  C   UNL     1      29.510  57.301  10.841  1.00  0.00    -0.006 C 
ATOM     18  C   UNL     1      29.522  58.381  11.938  1.00  0.00     0.008 C 
ATOM     19  C   UNL     1      30.931  56.763  10.613  1.00  0.00     0.008 C 
ENDBRANCH  12  17
ENDBRANCH  11  12
ENDBRANCH   1  11
TORSDOF 1
ENDMDL
