MODEL 1
REMARK VINA RESULT:    -6.144      0.000      0.000
REMARK INTER + INTRA:          -7.825
REMARK INTER:                  -7.401
REMARK INTRA:                  -0.424
REMARK UNBOUND:                -0.424
REMARK SMILES O=c1c(O)c(-c2ccc(O)cc2O)oc2cc(O)cc(O)c12
REMARK SMILES IDX 5 1 3 2 2 3 1 4 22 5 20 6 19 7 17 8 16 9 15 10 14 11 6 12
REMARK SMILES IDX 8 13 7 14 9 15 11 16 12 17 10 18 13 20 4 22 21 24 18 26
REMARK H PARENT 10 19 13 21 4 23 21 25 18 27
REMARK Flexibility Score: inf
ROOT
ATOM      1  C   UNL     1      -3.276   3.922  -0.504  1.00  0.00     0.184 A 
ATOM      2  C   UNL     1      -3.869   4.551   0.602  1.00  0.00     0.208 A 
ATOM      3  C   UNL     1      -3.156   4.619   1.809  1.00  0.00     0.238 A 
ATOM      4  O   UNL     1      -3.709   5.143   2.810  1.00  0.00    -0.285 OA
ATOM      5  C   UNL     1      -1.855   4.065   1.890  1.00  0.00     0.111 A 
ATOM      6  C   UNL     1      -1.025   4.114   3.049  1.00  0.00     0.134 A 
ATOM      7  C   UNL     1       0.190   3.419   3.058  1.00  0.00     0.093 A 
ATOM      8  C   UNL     1       0.635   2.732   1.926  1.00  0.00     0.123 A 
ATOM      9  C   UNL     1      -0.140   2.729   0.770  1.00  0.00     0.094 A 
ATOM     10  C   UNL     1      -1.374   3.384   0.741  1.00  0.00     0.146 A 
ATOM     11  O   UNL     1      -2.084   3.352  -0.380  1.00  0.00    -0.451 OA
ENDROOT
BRANCH   1  12
ATOM     12  C   UNL     1      -3.959   3.841  -1.813  1.00  0.00     0.063 A 
ATOM     13  C   UNL     1      -5.600   2.745  -3.234  1.00  0.00     0.047 A 
ATOM     14  C   UNL     1      -4.948   2.863  -2.003  1.00  0.00     0.020 A 
ATOM     15  C   UNL     1      -5.265   3.593  -4.292  1.00  0.00     0.119 A 
ATOM     16  C   UNL     1      -4.263   4.556  -4.120  1.00  0.00     0.093 A 
ATOM     17  C   UNL     1      -3.595   4.676  -2.890  1.00  0.00     0.130 A 
BRANCH  15  18
ATOM     18  O   UNL     1      -5.928   3.466  -5.510  1.00  0.00    -0.508 OA
ATOM     19  H   UNL     1      -6.938   3.427  -5.563  1.00  0.00     0.293 HD
ENDBRANCH  15  18
BRANCH  17  20
ATOM     20  O   UNL     1      -2.560   5.600  -2.750  1.00  0.00    -0.507 OA
ATOM     21  H   UNL     1      -2.364   6.044  -1.860  1.00  0.00     0.293 HD
ENDBRANCH  17  20
ENDBRANCH   1  12
BRANCH   2  22
ATOM     22  O   UNL     1      -5.165   5.069   0.502  1.00  0.00    -0.502 OA
ATOM     23  H   UNL     1      -5.988   4.478   0.507  1.00  0.00     0.293 HD
ENDBRANCH   2  22
BRANCH   6  24
ATOM     24  O   UNL     1      -1.332   4.849   4.198  1.00  0.00    -0.507 OA
ATOM     25  H   UNL     1      -1.315   4.480   5.137  1.00  0.00     0.293 HD
ENDBRANCH   6  24
BRANCH   8  26
ATOM     26  O   UNL     1       1.853   2.055   1.939  1.00  0.00    -0.508 OA
ATOM     27  H   UNL     1       2.048   1.301   1.289  1.00  0.00     0.293 HD
ENDBRANCH   8  26
TORSDOF 6
ENDMDL
MODEL 2
REMARK VINA RESULT:    -6.074      5.071      7.929
REMARK INTER + INTRA:          -7.741
REMARK INTER:                  -7.443
REMARK INTRA:                  -0.298
REMARK UNBOUND:                -0.424
REMARK SMILES O=c1c(O)c(-c2ccc(O)cc2O)oc2cc(O)cc(O)c12
REMARK SMILES IDX 5 1 3 2 2 3 1 4 22 5 20 6 19 7 17 8 16 9 15 10 14 11 6 12
REMARK SMILES IDX 8 13 7 14 9 15 11 16 12 17 10 18 13 20 4 22 21 24 18 26
REMARK H PARENT 10 19 13 21 4 23 21 25 18 27
REMARK Flexibility Score: inf
ROOT
ATOM      1  C   UNL     1      -3.977   4.687  -5.029  1.00  0.00     0.184 A 
ATOM      2  C   UNL     1      -2.676   5.175  -4.829  1.00  0.00     0.208 A 
ATOM      3  C   UNL     1      -1.787   5.205  -5.916  1.00  0.00     0.238 A 
ATOM      4  O   UNL     1      -0.608   5.598  -5.721  1.00  0.00    -0.285 OA
ATOM      5  C   UNL     1      -2.215   4.754  -7.188  1.00  0.00     0.111 A 
ATOM      6  C   UNL     1      -1.413   4.778  -8.368  1.00  0.00     0.134 A 
ATOM      7  C   UNL     1      -1.894   4.188  -9.542  1.00  0.00     0.093 A 
ATOM      8  C   UNL     1      -3.174   3.633  -9.597  1.00  0.00     0.123 A 
ATOM      9  C   UNL     1      -3.988   3.659  -8.467  1.00  0.00     0.094 A 
ATOM     10  C   UNL     1      -3.523   4.210  -7.270  1.00  0.00     0.146 A 
ATOM     11  O   UNL     1      -4.330   4.210  -6.216  1.00  0.00    -0.451 OA
ENDROOT
BRANCH   1  12
ATOM     12  C   UNL     1      -4.973   4.655  -3.937  1.00  0.00     0.063 A 
ATOM     13  C   UNL     1      -6.426   3.347  -2.490  1.00  0.00     0.047 A 
ATOM     14  C   UNL     1      -5.469   3.414  -3.507  1.00  0.00     0.020 A 
ATOM     15  C   UNL     1      -6.907   4.518  -1.900  1.00  0.00     0.119 A 
ATOM     16  C   UNL     1      -6.437   5.762  -2.338  1.00  0.00     0.093 A 
ATOM     17  C   UNL     1      -5.483   5.840  -3.365  1.00  0.00     0.130 A 
BRANCH  15  18
ATOM     18  O   UNL     1      -7.857   4.434  -0.884  1.00  0.00    -0.508 OA
ATOM     19  H   UNL     1      -7.631   4.672   0.074  1.00  0.00     0.293 HD
ENDBRANCH  15  18
BRANCH  17  20
ATOM     20  O   UNL     1      -5.065   7.086  -3.832  1.00  0.00    -0.507 OA
ATOM     21  H   UNL     1      -4.507   7.706  -3.257  1.00  0.00     0.293 HD
ENDBRANCH  17  20
ENDBRANCH   1  12
BRANCH   2  22
ATOM     22  O   UNL     1      -2.271   5.590  -3.557  1.00  0.00    -0.502 OA
ATOM     23  H   UNL     1      -2.049   6.556  -3.345  1.00  0.00     0.293 HD
ENDBRANCH   2  22
BRANCH   6  24
ATOM     24  O   UNL     1      -0.159   5.392  -8.446  1.00  0.00    -0.507 OA
ATOM     25  H   UNL     1       0.415   5.422  -9.276  1.00  0.00     0.293 HD
ENDBRANCH   6  24
BRANCH   8  26
ATOM     26  O   UNL     1      -3.651   3.060 -10.774  1.00  0.00    -0.508 OA
ATOM     27  H   UNL     1      -4.419   2.398 -10.769  1.00  0.00     0.293 HD
ENDBRANCH   8  26
TORSDOF 6
ENDMDL
MODEL 3
REMARK VINA RESULT:    -5.982      4.555      5.841
REMARK INTER + INTRA:          -7.630
REMARK INTER:                  -7.226
REMARK INTRA:                  -0.404
REMARK UNBOUND:                -0.424
REMARK SMILES O=c1c(O)c(-c2ccc(O)cc2O)oc2cc(O)cc(O)c12
REMARK SMILES IDX 5 1 3 2 2 3 1 4 22 5 20 6 19 7 17 8 16 9 15 10 14 11 6 12
REMARK SMILES IDX 8 13 7 14 9 15 11 16 12 17 10 18 13 20 4 22 21 24 18 26
REMARK H PARENT 10 19 13 21 4 23 21 25 18 27
REMARK Flexibility Score: inf
ROOT
ATOM      1  C   UNL     1      -3.911   5.286  -4.234  1.00  0.00     0.184 A 
ATOM      2  C   UNL     1      -4.496   6.512  -3.881  1.00  0.00     0.208 A 
ATOM      3  C   UNL     1      -5.365   6.558  -2.779  1.00  0.00     0.238 A 
ATOM      4  O   UNL     1      -5.923   7.649  -2.494  1.00  0.00    -0.285 OA
ATOM      5  C   UNL     1      -5.630   5.378  -2.041  1.00  0.00     0.111 A 
ATOM      6  C   UNL     1      -6.460   5.317  -0.883  1.00  0.00     0.134 A 
ATOM      7  C   UNL     1      -6.756   4.074  -0.311  1.00  0.00     0.093 A 
ATOM      8  C   UNL     1      -6.198   2.898  -0.815  1.00  0.00     0.123 A 
ATOM      9  C   UNL     1      -5.338   2.954  -1.908  1.00  0.00     0.094 A 
ATOM     10  C   UNL     1      -5.051   4.176  -2.524  1.00  0.00     0.146 A 
ATOM     11  O   UNL     1      -4.229   4.184  -3.566  1.00  0.00    -0.451 OA
ENDROOT
BRANCH   1  12
ATOM     12  C   UNL     1      -2.965   5.171  -5.364  1.00  0.00     0.063 A 
ATOM     13  C   UNL     1      -0.796   5.719  -6.320  1.00  0.00     0.047 A 
ATOM     14  C   UNL     1      -1.709   5.790  -5.263  1.00  0.00     0.020 A 
ATOM     15  C   UNL     1      -1.131   5.039  -7.493  1.00  0.00     0.119 A 
ATOM     16  C   UNL     1      -2.390   4.438  -7.613  1.00  0.00     0.093 A 
ATOM     17  C   UNL     1      -3.317   4.513  -6.561  1.00  0.00     0.130 A 
BRANCH  15  18
ATOM     18  O   UNL     1      -0.209   4.972  -8.535  1.00  0.00    -0.508 OA
ATOM     19  H   UNL     1      -0.501   4.998  -9.504  1.00  0.00     0.293 HD
ENDBRANCH  15  18
BRANCH  17  20
ATOM     20  O   UNL     1      -4.588   3.960  -6.715  1.00  0.00    -0.507 OA
ATOM     21  H   UNL     1      -4.721   3.049  -7.137  1.00  0.00     0.293 HD
ENDBRANCH  17  20
ENDBRANCH   1  12
BRANCH   2  22
ATOM     22  O   UNL     1      -4.237   7.657  -4.641  1.00  0.00    -0.502 OA
ATOM     23  H   UNL     1      -3.925   8.526  -4.225  1.00  0.00     0.293 HD
ENDBRANCH   2  22
BRANCH   6  24
ATOM     24  O   UNL     1      -6.991   6.442  -0.243  1.00  0.00    -0.507 OA
ATOM     25  H   UNL     1      -6.492   7.010   0.425  1.00  0.00     0.293 HD
ENDBRANCH   6  24
BRANCH   8  26
ATOM     26  O   UNL     1      -6.486   1.667  -0.230  1.00  0.00    -0.508 OA
ATOM     27  H   UNL     1      -6.134   0.799  -0.618  1.00  0.00     0.293 HD
ENDBRANCH   8  26
TORSDOF 6
ENDMDL
MODEL 4
REMARK VINA RESULT:    -5.933      1.682      6.543
REMARK INTER + INTRA:          -7.571
REMARK INTER:                  -7.153
REMARK INTRA:                  -0.418
REMARK UNBOUND:                -0.424
REMARK SMILES O=c1c(O)c(-c2ccc(O)cc2O)oc2cc(O)cc(O)c12
REMARK SMILES IDX 5 1 3 2 2 3 1 4 22 5 20 6 19 7 17 8 16 9 15 10 14 11 6 12
REMARK SMILES IDX 8 13 7 14 9 15 11 16 12 17 10 18 13 20 4 22 21 24 18 26
REMARK H PARENT 10 19 13 21 4 23 21 25 18 27
REMARK Flexibility Score: inf
ROOT
ATOM      1  C   UNL     1      -2.498   3.885   0.725  1.00  0.00     0.184 A 
ATOM      2  C   UNL     1      -2.814   5.245   0.869  1.00  0.00     0.208 A 
ATOM      3  C   UNL     1      -3.778   5.813   0.021  1.00  0.00     0.238 A 
ATOM      4  O   UNL     1      -4.023   7.043   0.122  1.00  0.00    -0.285 OA
ATOM      5  C   UNL     1      -4.419   5.010  -0.954  1.00  0.00     0.111 A 
ATOM      6  C   UNL     1      -5.440   5.469  -1.837  1.00  0.00     0.134 A 
ATOM      7  C   UNL     1      -5.910   4.623  -2.848  1.00  0.00     0.093 A 
ATOM      8  C   UNL     1      -5.444   3.312  -2.965  1.00  0.00     0.123 A 
ATOM      9  C   UNL     1      -4.491   2.835  -2.069  1.00  0.00     0.094 A 
ATOM     10  C   UNL     1      -3.976   3.666  -1.071  1.00  0.00     0.146 A 
ATOM     11  O   UNL     1      -3.066   3.173  -0.240  1.00  0.00    -0.451 OA
ENDROOT
BRANCH   1  12
ATOM     12  C   UNL     1      -1.515   3.216   1.603  1.00  0.00     0.063 A 
ATOM     13  C   UNL     1       0.765   2.450   1.962  1.00  0.00     0.047 A 
ATOM     14  C   UNL     1      -0.186   3.094   1.166  1.00  0.00     0.020 A 
ATOM     15  C   UNL     1       0.400   1.910   3.197  1.00  0.00     0.119 A 
ATOM     16  C   UNL     1      -0.928   2.005   3.632  1.00  0.00     0.093 A 
ATOM     17  C   UNL     1      -1.893   2.641   2.835  1.00  0.00     0.130 A 
BRANCH  15  18
ATOM     18  O   UNL     1       1.361   1.276   3.981  1.00  0.00    -0.508 OA
ATOM     19  H   UNL     1       2.185   0.855   3.571  1.00  0.00     0.293 HD
ENDBRANCH  15  18
BRANCH  17  20
ATOM     20  O   UNL     1      -3.224   2.679   3.253  1.00  0.00    -0.507 OA
ATOM     21  H   UNL     1      -3.472   2.911   4.207  1.00  0.00     0.293 HD
ENDBRANCH  17  20
ENDBRANCH   1  12
BRANCH   2  22
ATOM     22  O   UNL     1      -2.148   6.021   1.823  1.00  0.00    -0.502 OA
ATOM     23  H   UNL     1      -1.138   6.069   1.876  1.00  0.00     0.293 HD
ENDBRANCH   2  22
BRANCH   6  24
ATOM     24  O   UNL     1      -6.042   6.728  -1.746  1.00  0.00    -0.507 OA
ATOM     25  H   UNL     1      -6.034   7.422  -2.479  1.00  0.00     0.293 HD
ENDBRANCH   6  24
BRANCH   8  26
ATOM     26  O   UNL     1      -5.928   2.471  -3.965  1.00  0.00    -0.508 OA
ATOM     27  H   UNL     1      -5.322   2.105  -4.691  1.00  0.00     0.293 HD
ENDBRANCH   8  26
TORSDOF 6
ENDMDL
MODEL 5
REMARK VINA RESULT:    -5.905      1.396      1.849
REMARK INTER + INTRA:          -7.538
REMARK INTER:                  -7.199
REMARK INTRA:                  -0.338
REMARK UNBOUND:                -0.424
REMARK SMILES O=c1c(O)c(-c2ccc(O)cc2O)oc2cc(O)cc(O)c12
REMARK SMILES IDX 5 1 3 2 2 3 1 4 22 5 20 6 19 7 17 8 16 9 15 10 14 11 6 12
REMARK SMILES IDX 8 13 7 14 9 15 11 16 12 17 10 18 13 20 4 22 21 24 18 26
REMARK H PARENT 10 19 13 21 4 23 21 25 18 27
REMARK Flexibility Score: inf
ROOT
ATOM      1  C   UNL     1      -2.973   3.754   1.008  1.00  0.00     0.184 A 
ATOM      2  C   UNL     1      -3.060   4.546   2.164  1.00  0.00     0.208 A 
ATOM      3  C   UNL     1      -1.983   4.555   3.065  1.00  0.00     0.238 A 
ATOM      4  O   UNL     1      -2.085   5.230   4.122  1.00  0.00    -0.285 OA
ATOM      5  C   UNL     1      -0.831   3.778   2.792  1.00  0.00     0.111 A 
ATOM      6  C   UNL     1       0.335   3.745   3.613  1.00  0.00     0.134 A 
ATOM      7  C   UNL     1       1.363   2.842   3.316  1.00  0.00     0.093 A 
ATOM      8  C   UNL     1       1.295   2.018   2.190  1.00  0.00     0.123 A 
ATOM      9  C   UNL     1       0.188   2.088   1.349  1.00  0.00     0.094 A 
ATOM     10  C   UNL     1      -0.870   2.954   1.638  1.00  0.00     0.146 A 
ATOM     11  O   UNL     1      -1.909   2.985   0.812  1.00  0.00    -0.451 OA
ENDROOT
BRANCH   1  12
ATOM     12  C   UNL     1      -4.056   3.720   0.003  1.00  0.00     0.063 A 
ATOM     13  C   UNL     1      -6.362   3.177  -0.546  1.00  0.00     0.047 A 
ATOM     14  C   UNL     1      -5.320   3.242   0.383  1.00  0.00     0.020 A 
ATOM     15  C   UNL     1      -6.152   3.578  -1.868  1.00  0.00     0.119 A 
ATOM     16  C   UNL     1      -4.889   4.034  -2.263  1.00  0.00     0.093 A 
ATOM     17  C   UNL     1      -3.833   4.093  -1.339  1.00  0.00     0.130 A 
BRANCH  15  18
ATOM     18  O   UNL     1      -7.203   3.513  -2.780  1.00  0.00    -0.508 OA
ATOM     19  H   UNL     1      -8.038   2.974  -2.589  1.00  0.00     0.293 HD
ENDBRANCH  15  18
BRANCH  17  20
ATOM     20  O   UNL     1      -2.565   4.495  -1.759  1.00  0.00    -0.507 OA
ATOM     21  H   UNL     1      -2.195   4.223  -2.662  1.00  0.00     0.293 HD
ENDBRANCH  17  20
ENDBRANCH   1  12
BRANCH   2  22
ATOM     22  O   UNL     1      -4.220   5.284   2.421  1.00  0.00    -0.502 OA
ATOM     23  H   UNL     1      -4.235   6.297   2.400  1.00  0.00     0.293 HD
ENDBRANCH   2  22
BRANCH   6  24
ATOM     24  O   UNL     1       0.545   4.592   4.706  1.00  0.00    -0.507 OA
ATOM     25  H   UNL     1      -0.120   5.275   5.038  1.00  0.00     0.293 HD
ENDBRANCH   6  24
BRANCH   8  26
ATOM     26  O   UNL     1       2.329   1.133   1.894  1.00  0.00    -0.508 OA
ATOM     27  H   UNL     1       2.823   0.631   2.623  1.00  0.00     0.293 HD
ENDBRANCH   8  26
TORSDOF 6
ENDMDL
MODEL 6
REMARK VINA RESULT:    -5.877      4.363      6.572
REMARK INTER + INTRA:          -7.503
REMARK INTER:                  -7.098
REMARK INTRA:                  -0.405
REMARK UNBOUND:                -0.424
REMARK SMILES O=c1c(O)c(-c2ccc(O)cc2O)oc2cc(O)cc(O)c12
REMARK SMILES IDX 5 1 3 2 2 3 1 4 22 5 20 6 19 7 17 8 16 9 15 10 14 11 6 12
REMARK SMILES IDX 8 13 7 14 9 15 11 16 12 17 10 18 13 20 4 22 21 24 18 26
REMARK H PARENT 10 19 13 21 4 23 21 25 18 27
REMARK Flexibility Score: inf
ROOT
ATOM      1  C   UNL     1      -5.090   4.277  -2.647  1.00  0.00     0.184 A 
ATOM      2  C   UNL     1      -5.512   3.757  -3.881  1.00  0.00     0.208 A 
ATOM      3  C   UNL     1      -4.790   4.084  -5.039  1.00  0.00     0.238 A 
ATOM      4  O   UNL     1      -5.200   3.654  -6.148  1.00  0.00    -0.285 OA
ATOM      5  C   UNL     1      -3.650   4.919  -4.946  1.00  0.00     0.111 A 
ATOM      6  C   UNL     1      -2.819   5.281  -6.048  1.00  0.00     0.134 A 
ATOM      7  C   UNL     1      -1.795   6.217  -5.862  1.00  0.00     0.093 A 
ATOM      8  C   UNL     1      -1.530   6.754  -4.601  1.00  0.00     0.123 A 
ATOM      9  C   UNL     1      -2.297   6.361  -3.507  1.00  0.00     0.094 A 
ATOM     10  C   UNL     1      -3.349   5.455  -3.667  1.00  0.00     0.146 A 
ATOM     11  O   UNL     1      -4.058   5.111  -2.599  1.00  0.00    -0.451 OA
ENDROOT
BRANCH   1  12
ATOM     12  C   UNL     1      -5.785   3.951  -1.385  1.00  0.00     0.063 A 
ATOM     13  C   UNL     1      -6.377   2.289   0.290  1.00  0.00     0.047 A 
ATOM     14  C   UNL     1      -5.715   2.638  -0.890  1.00  0.00     0.020 A 
ATOM     15  C   UNL     1      -7.126   3.242   0.985  1.00  0.00     0.119 A 
ATOM     16  C   UNL     1      -7.222   4.548   0.488  1.00  0.00     0.093 A 
ATOM     17  C   UNL     1      -6.569   4.905  -0.703  1.00  0.00     0.130 A 
BRANCH  15  18
ATOM     18  O   UNL     1      -7.776   2.880   2.163  1.00  0.00    -0.508 OA
ATOM     19  H   UNL     1      -7.324   2.965   3.065  1.00  0.00     0.293 HD
ENDBRANCH  15  18
BRANCH  17  20
ATOM     20  O   UNL     1      -6.719   6.193  -1.217  1.00  0.00    -0.507 OA
ATOM     21  H   UNL     1      -7.571   6.480  -1.683  1.00  0.00     0.293 HD
ENDBRANCH  17  20
ENDBRANCH   1  12
BRANCH   2  22
ATOM     22  O   UNL     1      -6.656   2.956  -3.948  1.00  0.00    -0.502 OA
ATOM     23  H   UNL     1      -7.021   2.460  -3.143  1.00  0.00     0.293 HD
ENDBRANCH   2  22
BRANCH   6  24
ATOM     24  O   UNL     1      -2.938   4.731  -7.328  1.00  0.00    -0.507 OA
ATOM     25  H   UNL     1      -3.100   5.265  -8.169  1.00  0.00     0.293 HD
ENDBRANCH   6  24
BRANCH   8  26
ATOM     26  O   UNL     1      -0.499   7.674  -4.422  1.00  0.00    -0.508 OA
ATOM     27  H   UNL     1       0.104   7.644  -3.607  1.00  0.00     0.293 HD
ENDBRANCH   8  26
TORSDOF 6
ENDMDL
MODEL 7
REMARK VINA RESULT:    -5.840      2.957      5.878
REMARK INTER + INTRA:          -7.459
REMARK INTER:                  -7.070
REMARK INTRA:                  -0.390
REMARK UNBOUND:                -0.424
REMARK SMILES O=c1c(O)c(-c2ccc(O)cc2O)oc2cc(O)cc(O)c12
REMARK SMILES IDX 5 1 3 2 2 3 1 4 22 5 20 6 19 7 17 8 16 9 15 10 14 11 6 12
REMARK SMILES IDX 8 13 7 14 9 15 11 16 12 17 10 18 13 20 4 22 21 24 18 26
REMARK H PARENT 10 19 13 21 4 23 21 25 18 27
REMARK Flexibility Score: inf
ROOT
ATOM      1  C   UNL     1      -3.293   5.364  -4.164  1.00  0.00     0.184 A 
ATOM      2  C   UNL     1      -4.245   4.530  -4.772  1.00  0.00     0.208 A 
ATOM      3  C   UNL     1      -5.050   3.715  -3.961  1.00  0.00     0.238 A 
ATOM      4  O   UNL     1      -5.869   2.935  -4.512  1.00  0.00    -0.285 OA
ATOM      5  C   UNL     1      -4.898   3.751  -2.554  1.00  0.00     0.111 A 
ATOM      6  C   UNL     1      -5.687   3.000  -1.634  1.00  0.00     0.134 A 
ATOM      7  C   UNL     1      -5.363   3.014  -0.272  1.00  0.00     0.093 A 
ATOM      8  C   UNL     1      -4.318   3.805   0.210  1.00  0.00     0.123 A 
ATOM      9  C   UNL     1      -3.580   4.589  -0.672  1.00  0.00     0.094 A 
ATOM     10  C   UNL     1      -3.857   4.570  -2.042  1.00  0.00     0.146 A 
ATOM     11  O   UNL     1      -3.126   5.328  -2.848  1.00  0.00    -0.451 OA
ENDROOT
BRANCH   1  12
ATOM     12  C   UNL     1      -2.433   6.270  -4.955  1.00  0.00     0.063 A 
ATOM     13  C   UNL     1      -0.258   6.731  -5.943  1.00  0.00     0.047 A 
ATOM     14  C   UNL     1      -1.106   5.891  -5.215  1.00  0.00     0.020 A 
ATOM     15  C   UNL     1      -0.721   7.964  -6.409  1.00  0.00     0.119 A 
ATOM     16  C   UNL     1      -2.036   8.362  -6.135  1.00  0.00     0.093 A 
ATOM     17  C   UNL     1      -2.891   7.529  -5.396  1.00  0.00     0.130 A 
BRANCH  15  18
ATOM     18  O   UNL     1       0.134   8.788  -7.137  1.00  0.00    -0.508 OA
ATOM     19  H   UNL     1       0.369   8.588  -8.101  1.00  0.00     0.293 HD
ENDBRANCH  15  18
BRANCH  17  20
ATOM     20  O   UNL     1      -4.180   7.961  -5.081  1.00  0.00    -0.507 OA
ATOM     21  H   UNL     1      -4.456   8.929  -5.197  1.00  0.00     0.293 HD
ENDBRANCH  17  20
ENDBRANCH   1  12
BRANCH   2  22
ATOM     22  O   UNL     1      -4.358   4.495  -6.165  1.00  0.00    -0.502 OA
ATOM     23  H   UNL     1      -4.227   5.318  -6.742  1.00  0.00     0.293 HD
ENDBRANCH   2  22
BRANCH   6  24
ATOM     24  O   UNL     1      -6.811   2.252  -2.000  1.00  0.00    -0.507 OA
ATOM     25  H   UNL     1      -7.300   2.344  -2.879  1.00  0.00     0.293 HD
ENDBRANCH   6  24
BRANCH   8  26
ATOM     26  O   UNL     1      -4.011   3.825   1.570  1.00  0.00    -0.508 OA
ATOM     27  H   UNL     1      -3.058   3.724   1.900  1.00  0.00     0.293 HD
ENDBRANCH   8  26
TORSDOF 6
ENDMDL
MODEL 8
REMARK VINA RESULT:    -5.780      2.116      6.289
REMARK INTER + INTRA:          -7.386
REMARK INTER:                  -6.966
REMARK INTRA:                  -0.420
REMARK UNBOUND:                -0.424
REMARK SMILES O=c1c(O)c(-c2ccc(O)cc2O)oc2cc(O)cc(O)c12
REMARK SMILES IDX 5 1 3 2 2 3 1 4 22 5 20 6 19 7 17 8 16 9 15 10 14 11 6 12
REMARK SMILES IDX 8 13 7 14 9 15 11 16 12 17 10 18 13 20 4 22 21 24 18 26
REMARK H PARENT 10 19 13 21 4 23 21 25 18 27
REMARK Flexibility Score: inf
ROOT
ATOM      1  C   UNL     1      -1.924   3.475   1.828  1.00  0.00     0.184 A 
ATOM      2  C   UNL     1      -1.973   4.719   2.477  1.00  0.00     0.208 A 
ATOM      3  C   UNL     1      -2.568   5.807   1.818  1.00  0.00     0.238 A 
ATOM      4  O   UNL     1      -2.568   6.930   2.384  1.00  0.00    -0.285 OA
ATOM      5  C   UNL     1      -3.114   5.632   0.523  1.00  0.00     0.111 A 
ATOM      6  C   UNL     1      -3.778   6.653  -0.220  1.00  0.00     0.134 A 
ATOM      7  C   UNL     1      -4.163   6.405  -1.543  1.00  0.00     0.093 A 
ATOM      8  C   UNL     1      -3.967   5.152  -2.126  1.00  0.00     0.123 A 
ATOM      9  C   UNL     1      -3.375   4.131  -1.389  1.00  0.00     0.094 A 
ATOM     10  C   UNL     1      -2.948   4.357  -0.078  1.00  0.00     0.146 A 
ATOM     11  O   UNL     1      -2.384   3.357   0.588  1.00  0.00    -0.451 OA
ENDROOT
BRANCH   1  12
ATOM     12  C   UNL     1      -1.339   2.281   2.474  1.00  0.00     0.063 A 
ATOM     13  C   UNL     1      -1.519   0.531   4.153  1.00  0.00     0.047 A 
ATOM     14  C   UNL     1      -2.051   1.650   3.506  1.00  0.00     0.020 A 
ATOM     15  C   UNL     1      -0.266   0.036   3.785  1.00  0.00     0.119 A 
ATOM     16  C   UNL     1       0.463   0.672   2.773  1.00  0.00     0.093 A 
ATOM     17  C   UNL     1      -0.058   1.803   2.125  1.00  0.00     0.130 A 
BRANCH  15  18
ATOM     18  O   UNL     1       0.248  -1.084   4.435  1.00  0.00    -0.508 OA
ATOM     19  H   UNL     1       0.995  -1.006   5.114  1.00  0.00     0.293 HD
ENDBRANCH  15  18
BRANCH  17  20
ATOM     20  O   UNL     1       0.702   2.462   1.158  1.00  0.00    -0.507 OA
ATOM     21  H   UNL     1       0.527   3.430   0.917  1.00  0.00     0.293 HD
ENDBRANCH  17  20
ENDBRANCH   1  12
BRANCH   2  22
ATOM     22  O   UNL     1      -1.404   4.870   3.745  1.00  0.00    -0.502 OA
ATOM     23  H   UNL     1      -1.948   4.799   4.597  1.00  0.00     0.293 HD
ENDBRANCH   2  22
BRANCH   6  24
ATOM     24  O   UNL     1      -4.107   7.908   0.302  1.00  0.00    -0.507 OA
ATOM     25  H   UNL     1      -3.505   8.718   0.271  1.00  0.00     0.293 HD
ENDBRANCH   6  24
BRANCH   8  26
ATOM     26  O   UNL     1      -4.367   4.910  -3.439  1.00  0.00    -0.508 OA
ATOM     27  H   UNL     1      -4.853   5.613  -3.985  1.00  0.00     0.293 HD
ENDBRANCH   8  26
TORSDOF 6
ENDMDL
MODEL 9
REMARK VINA RESULT:    -5.770      3.214      6.466
REMARK INTER + INTRA:          -7.374
REMARK INTER:                  -7.051
REMARK INTRA:                  -0.323
REMARK UNBOUND:                -0.424
REMARK SMILES O=c1c(O)c(-c2ccc(O)cc2O)oc2cc(O)cc(O)c12
REMARK SMILES IDX 5 1 3 2 2 3 1 4 22 5 20 6 19 7 17 8 16 9 15 10 14 11 6 12
REMARK SMILES IDX 8 13 7 14 9 15 11 16 12 17 10 18 13 20 4 22 21 24 18 26
REMARK H PARENT 10 19 13 21 4 23 21 25 18 27
REMARK Flexibility Score: inf
ROOT
ATOM      1  C   UNL     1      -1.118   2.865   2.816  1.00  0.00     0.184 A 
ATOM      2  C   UNL     1      -0.941   3.834   3.817  1.00  0.00     0.208 A 
ATOM      3  C   UNL     1      -1.947   4.791   4.023  1.00  0.00     0.238 A 
ATOM      4  O   UNL     1      -1.763   5.685   4.888  1.00  0.00    -0.285 OA
ATOM      5  C   UNL     1      -3.121   4.760   3.231  1.00  0.00     0.111 A 
ATOM      6  C   UNL     1      -4.223   5.653   3.381  1.00  0.00     0.134 A 
ATOM      7  C   UNL     1      -5.275   5.614   2.457  1.00  0.00     0.093 A 
ATOM      8  C   UNL     1      -5.295   4.669   1.429  1.00  0.00     0.123 A 
ATOM      9  C   UNL     1      -4.253   3.753   1.311  1.00  0.00     0.094 A 
ATOM     10  C   UNL     1      -3.172   3.789   2.196  1.00  0.00     0.146 A 
ATOM     11  O   UNL     1      -2.198   2.901   2.045  1.00  0.00    -0.451 OA
ENDROOT
BRANCH   1  12
ATOM     12  C   UNL     1      -0.113   1.811   2.565  1.00  0.00     0.063 A 
ATOM     13  C   UNL     1       0.531  -0.528   2.741  1.00  0.00     0.047 A 
ATOM     14  C   UNL     1      -0.404   0.491   2.945  1.00  0.00     0.020 A 
ATOM     15  C   UNL     1       1.772  -0.239   2.167  1.00  0.00     0.119 A 
ATOM     16  C   UNL     1       2.081   1.078   1.806  1.00  0.00     0.093 A 
ATOM     17  C   UNL     1       1.152   2.110   2.017  1.00  0.00     0.130 A 
BRANCH  15  18
ATOM     18  O   UNL     1       2.691  -1.266   1.965  1.00  0.00    -0.508 OA
ATOM     19  H   UNL     1       2.480  -2.056   1.367  1.00  0.00     0.293 HD
ENDBRANCH  15  18
BRANCH  17  20
ATOM     20  O   UNL     1       1.494   3.426   1.706  1.00  0.00    -0.507 OA
ATOM     21  H   UNL     1       1.661   3.718   0.751  1.00  0.00     0.293 HD
ENDBRANCH  17  20
ENDBRANCH   1  12
BRANCH   2  22
ATOM     22  O   UNL     1       0.239   3.857   4.567  1.00  0.00    -0.502 OA
ATOM     23  H   UNL     1       0.866   4.653   4.570  1.00  0.00     0.293 HD
ENDBRANCH   2  22
BRANCH   6  24
ATOM     24  O   UNL     1      -4.346   6.571   4.428  1.00  0.00    -0.507 OA
ATOM     25  H   UNL     1      -3.610   6.799   5.081  1.00  0.00     0.293 HD
ENDBRANCH   6  24
BRANCH   8  26
ATOM     26  O   UNL     1      -6.353   4.627   0.523  1.00  0.00    -0.508 OA
ATOM     27  H   UNL     1      -6.194   4.567  -0.476  1.00  0.00     0.293 HD
ENDBRANCH   8  26
TORSDOF 6
ENDMDL
