MODEL 1
REMARK VINA RESULT:    -4.726      0.000      0.000
REMARK INTER + INTRA:          -4.726
REMARK INTER:                  -4.726
REMARK INTRA:                   0.000
REMARK UNBOUND:                 0.000
REMARK SMILES C=C1CCCC(C)(C)[C@]12CC=C(C)CC2
REMARK SMILES IDX 13 1 12 2 11 3 10 4 9 5 15 6 14 7 2 8 1 9 3 10 4 11 5 12
REMARK SMILES IDX 6 13 7 14 8 15
REMARK H PARENT
REMARK Flexibility Score: inf
ROOT
ATOM      1  C   UNL     1      61.743  42.099  43.030  1.00  0.00     0.039 C 
ATOM      2  C   UNL     1      60.338  42.628  42.935  1.00  0.00    -0.077 C 
ATOM      3  C   UNL     1      59.563  42.632  44.037  1.00  0.00    -0.027 C 
ATOM      4  C   UNL     1      58.132  43.121  44.041  1.00  0.00     0.039 C 
ATOM      5  C   UNL     1      57.787  44.100  42.863  1.00  0.00    -0.000 C 
ATOM      6  C   UNL     1      58.354  43.427  41.575  1.00  0.00     0.017 C 
ATOM      7  C   UNL     1      59.878  43.254  41.638  1.00  0.00     0.031 C 
ATOM      8  C   UNL     1      58.451  45.495  43.031  1.00  0.00    -0.070 C 
ATOM      9  C   UNL     1      59.292  45.824  44.036  1.00  0.00     0.008 C 
ATOM     10  C   UNL     1      58.117  46.557  42.006  1.00  0.00     0.031 C 
ATOM     11  C   UNL     1      56.608  46.763  41.944  1.00  0.00     0.005 C 
ATOM     12  C   UNL     1      55.874  45.440  41.699  1.00  0.00     0.008 C 
ATOM     13  C   UNL     1      56.205  44.333  42.752  1.00  0.00    -0.026 C 
ATOM     14  C   UNL     1      55.615  44.766  44.124  1.00  0.00     0.012 C 
ATOM     15  C   UNL     1      55.428  43.062  42.309  1.00  0.00     0.012 C 
ENDROOT
TORSDOF 0
ENDMDL
MODEL 2
REMARK VINA RESULT:    -4.157     18.737     20.821
REMARK INTER + INTRA:          -4.157
REMARK INTER:                  -4.157
REMARK INTRA:                   0.000
REMARK UNBOUND:                 0.000
REMARK SMILES C=C1CCCC(C)(C)[C@]12CC=C(C)CC2
REMARK SMILES IDX 13 1 12 2 11 3 10 4 9 5 15 6 14 7 2 8 1 9 3 10 4 11 5 12
REMARK SMILES IDX 6 13 7 14 8 15
REMARK H PARENT
REMARK Flexibility Score: inf
ROOT
ATOM      1  C   UNL     1      49.349  27.298  28.623  1.00  0.00     0.039 C 
ATOM      2  C   UNL     1      49.463  28.792  28.487  1.00  0.00    -0.077 C 
ATOM      3  C   UNL     1      48.351  29.515  28.248  1.00  0.00    -0.027 C 
ATOM      4  C   UNL     1      48.363  31.017  28.073  1.00  0.00     0.039 C 
ATOM      5  C   UNL     1      49.612  31.726  28.705  1.00  0.00    -0.000 C 
ATOM      6  C   UNL     1      50.849  30.899  28.235  1.00  0.00     0.017 C 
ATOM      7  C   UNL     1      50.800  29.450  28.741  1.00  0.00     0.031 C 
ATOM      8  C   UNL     1      49.575  31.730  30.258  1.00  0.00    -0.070 C 
ATOM      9  C   UNL     1      48.617  31.133  31.001  1.00  0.00     0.008 C 
ATOM     10  C   UNL     1      50.680  32.468  30.983  1.00  0.00     0.031 C 
ATOM     11  C   UNL     1      50.731  33.918  30.514  1.00  0.00     0.005 C 
ATOM     12  C   UNL     1      50.850  34.006  28.988  1.00  0.00     0.008 C 
ATOM     13  C   UNL     1      49.713  33.252  28.224  1.00  0.00    -0.026 C 
ATOM     14  C   UNL     1      48.372  33.998  28.475  1.00  0.00     0.012 C 
ATOM     15  C   UNL     1      50.033  33.397  26.710  1.00  0.00     0.012 C 
ENDROOT
TORSDOF 0
ENDMDL
MODEL 3
REMARK VINA RESULT:    -4.113      1.218      4.410
REMARK INTER + INTRA:          -4.113
REMARK INTER:                  -4.113
REMARK INTRA:                   0.000
REMARK UNBOUND:                 0.000
REMARK SMILES C=C1CCCC(C)(C)[C@]12CC=C(C)CC2
REMARK SMILES IDX 13 1 12 2 11 3 10 4 9 5 15 6 14 7 2 8 1 9 3 10 4 11 5 12
REMARK SMILES IDX 6 13 7 14 8 15
REMARK H PARENT
REMARK Flexibility Score: inf
ROOT
ATOM      1  C   UNL     1      54.086  45.953  43.714  1.00  0.00     0.039 C 
ATOM      2  C   UNL     1      55.364  45.354  43.195  1.00  0.00    -0.077 C 
ATOM      3  C   UNL     1      55.778  45.668  41.952  1.00  0.00    -0.027 C 
ATOM      4  C   UNL     1      57.035  45.103  41.330  1.00  0.00     0.039 C 
ATOM      5  C   UNL     1      58.084  44.576  42.372  1.00  0.00    -0.000 C 
ATOM      6  C   UNL     1      57.275  43.699  43.379  1.00  0.00     0.017 C 
ATOM      7  C   UNL     1      56.209  44.513  44.125  1.00  0.00     0.031 C 
ATOM      8  C   UNL     1      58.777  45.725  43.156  1.00  0.00    -0.070 C 
ATOM      9  C   UNL     1      58.473  47.034  43.019  1.00  0.00     0.008 C 
ATOM     10  C   UNL     1      59.877  45.347  44.125  1.00  0.00     0.031 C 
ATOM     11  C   UNL     1      60.960  44.558  43.399  1.00  0.00     0.005 C 
ATOM     12  C   UNL     1      60.371  43.351  42.660  1.00  0.00     0.008 C 
ATOM     13  C   UNL     1      59.235  43.725  41.651  1.00  0.00    -0.026 C 
ATOM     14  C   UNL     1      59.863  44.531  40.479  1.00  0.00     0.012 C 
ATOM     15  C   UNL     1      58.724  42.385  41.054  1.00  0.00     0.012 C 
ENDROOT
TORSDOF 0
ENDMDL
MODEL 4
REMARK VINA RESULT:    -3.951     18.708     20.862
REMARK INTER + INTRA:          -3.951
REMARK INTER:                  -3.951
REMARK INTRA:                   0.000
REMARK UNBOUND:                 0.000
REMARK SMILES C=C1CCCC(C)(C)[C@]12CC=C(C)CC2
REMARK SMILES IDX 13 1 12 2 11 3 10 4 9 5 15 6 14 7 2 8 1 9 3 10 4 11 5 12
REMARK SMILES IDX 6 13 7 14 8 15
REMARK H PARENT
REMARK Flexibility Score: inf
ROOT
ATOM      1  C   UNL     1      51.380  32.124  24.358  1.00  0.00     0.039 C 
ATOM      2  C   UNL     1      50.987  32.380  25.787  1.00  0.00    -0.077 C 
ATOM      3  C   UNL     1      50.170  33.414  26.067  1.00  0.00    -0.027 C 
ATOM      4  C   UNL     1      49.735  33.768  27.471  1.00  0.00     0.039 C 
ATOM      5  C   UNL     1      49.839  32.581  28.492  1.00  0.00    -0.000 C 
ATOM      6  C   UNL     1      51.253  31.958  28.272  1.00  0.00     0.017 C 
ATOM      7  C   UNL     1      51.421  31.399  26.852  1.00  0.00     0.031 C 
ATOM      8  C   UNL     1      48.766  31.485  28.247  1.00  0.00    -0.070 C 
ATOM      9  C   UNL     1      47.878  31.500  27.229  1.00  0.00     0.008 C 
ATOM     10  C   UNL     1      48.706  30.333  29.227  1.00  0.00     0.031 C 
ATOM     11  C   UNL     1      48.514  30.864  30.642  1.00  0.00     0.005 C 
ATOM     12  C   UNL     1      49.586  31.900  30.999  1.00  0.00     0.008 C 
ATOM     13  C   UNL     1      49.659  33.100  29.999  1.00  0.00    -0.026 C 
ATOM     14  C   UNL     1      48.357  33.939  30.139  1.00  0.00     0.012 C 
ATOM     15  C   UNL     1      50.830  34.001  30.481  1.00  0.00     0.012 C 
ENDROOT
TORSDOF 0
ENDMDL
MODEL 5
REMARK VINA RESULT:    -3.916     22.432     24.171
REMARK INTER + INTRA:          -3.916
REMARK INTER:                  -3.916
REMARK INTRA:                   0.000
REMARK UNBOUND:                 0.000
REMARK SMILES C=C1CCCC(C)(C)[C@]12CC=C(C)CC2
REMARK SMILES IDX 13 1 12 2 11 3 10 4 9 5 15 6 14 7 2 8 1 9 3 10 4 11 5 12
REMARK SMILES IDX 6 13 7 14 8 15
REMARK H PARENT
REMARK Flexibility Score: inf
ROOT
ATOM      1  C   UNL     1      50.576  27.363  24.781  1.00  0.00     0.039 C 
ATOM      2  C   UNL     1      52.063  27.591  24.793  1.00  0.00    -0.077 C 
ATOM      3  C   UNL     1      52.592  28.506  23.957  1.00  0.00    -0.027 C 
ATOM      4  C   UNL     1      54.075  28.793  23.876  1.00  0.00     0.039 C 
ATOM      5  C   UNL     1      54.879  28.375  25.158  1.00  0.00    -0.000 C 
ATOM      6  C   UNL     1      54.405  26.929  25.500  1.00  0.00     0.017 C 
ATOM      7  C   UNL     1      52.905  26.875  25.824  1.00  0.00     0.031 C 
ATOM      8  C   UNL     1      54.588  29.297  26.374  1.00  0.00    -0.070 C 
ATOM      9  C   UNL     1      53.692  30.308  26.368  1.00  0.00     0.008 C 
ATOM     10  C   UNL     1      55.375  29.052  27.643  1.00  0.00     0.031 C 
ATOM     11  C   UNL     1      56.869  29.125  27.349  1.00  0.00     0.005 C 
ATOM     12  C   UNL     1      57.261  28.179  26.208  1.00  0.00     0.008 C 
ATOM     13  C   UNL     1      56.459  28.423  24.888  1.00  0.00    -0.026 C 
ATOM     14  C   UNL     1      56.876  29.803  24.305  1.00  0.00     0.012 C 
ATOM     15  C   UNL     1      56.941  27.344  23.879  1.00  0.00     0.012 C 
ENDROOT
TORSDOF 0
ENDMDL
MODEL 6
REMARK VINA RESULT:    -3.894     18.594     20.852
REMARK INTER + INTRA:          -3.894
REMARK INTER:                  -3.894
REMARK INTRA:                   0.000
REMARK UNBOUND:                 0.000
REMARK SMILES C=C1CCCC(C)(C)[C@]12CC=C(C)CC2
REMARK SMILES IDX 13 1 12 2 11 3 10 4 9 5 15 6 14 7 2 8 1 9 3 10 4 11 5 12
REMARK SMILES IDX 6 13 7 14 8 15
REMARK H PARENT
REMARK Flexibility Score: inf
ROOT
ATOM      1  C   UNL     1      47.876  34.864  25.139  1.00  0.00     0.039 C 
ATOM      2  C   UNL     1      48.192  33.918  26.264  1.00  0.00    -0.077 C 
ATOM      3  C   UNL     1      48.758  32.728  25.981  1.00  0.00    -0.027 C 
ATOM      4  C   UNL     1      49.094  31.699  27.036  1.00  0.00     0.039 C 
ATOM      5  C   UNL     1      49.246  32.290  28.482  1.00  0.00    -0.000 C 
ATOM      6  C   UNL     1      48.007  33.215  28.693  1.00  0.00     0.017 C 
ATOM      7  C   UNL     1      47.977  34.376  27.689  1.00  0.00     0.031 C 
ATOM      8  C   UNL     1      50.536  33.139  28.648  1.00  0.00    -0.070 C 
ATOM      9  C   UNL     1      51.407  33.409  27.651  1.00  0.00     0.008 C 
ATOM     10  C   UNL     1      50.842  33.686  30.026  1.00  0.00     0.031 C 
ATOM     11  C   UNL     1      50.901  32.546  31.036  1.00  0.00     0.005 C 
ATOM     12  C   UNL     1      49.624  31.699  30.996  1.00  0.00     0.008 C 
ATOM     13  C   UNL     1      49.296  31.123  29.580  1.00  0.00    -0.026 C 
ATOM     14  C   UNL     1      50.380  30.069  29.213  1.00  0.00     0.012 C 
ATOM     15  C   UNL     1      47.952  30.356  29.721  1.00  0.00     0.012 C 
ENDROOT
TORSDOF 0
ENDMDL
MODEL 7
REMARK VINA RESULT:    -3.711      1.019      2.881
REMARK INTER + INTRA:          -3.711
REMARK INTER:                  -3.711
REMARK INTRA:                   0.000
REMARK UNBOUND:                 0.000
REMARK SMILES C=C1CCCC(C)(C)[C@]12CC=C(C)CC2
REMARK SMILES IDX 13 1 12 2 11 3 10 4 9 5 15 6 14 7 2 8 1 9 3 10 4 11 5 12
REMARK SMILES IDX 6 13 7 14 8 15
REMARK H PARENT
REMARK Flexibility Score: inf
ROOT
ATOM      1  C   UNL     1      62.004  41.786  43.304  1.00  0.00     0.039 C 
ATOM      2  C   UNL     1      60.896  42.798  43.208  1.00  0.00    -0.077 C 
ATOM      3  C   UNL     1      60.976  43.771  42.279  1.00  0.00    -0.027 C 
ATOM      4  C   UNL     1      59.927  44.848  42.116  1.00  0.00     0.039 C 
ATOM      5  C   UNL     1      58.522  44.467  42.702  1.00  0.00    -0.000 C 
ATOM      6  C   UNL     1      58.800  43.890  44.125  1.00  0.00     0.017 C 
ATOM      7  C   UNL     1      59.669  42.625  44.074  1.00  0.00     0.031 C 
ATOM      8  C   UNL     1      57.795  43.385  41.857  1.00  0.00    -0.070 C 
ATOM      9  C   UNL     1      58.327  42.776  40.775  1.00  0.00     0.008 C 
ATOM     10  C   UNL     1      56.390  43.002  42.270  1.00  0.00     0.031 C 
ATOM     11  C   UNL     1      55.503  44.241  42.304  1.00  0.00     0.005 C 
ATOM     12  C   UNL     1      56.109  45.338  43.186  1.00  0.00     0.008 C 
ATOM     13  C   UNL     1      57.560  45.748  42.771  1.00  0.00    -0.026 C 
ATOM     14  C   UNL     1      57.494  46.461  41.390  1.00  0.00     0.012 C 
ATOM     15  C   UNL     1      58.026  46.811  43.804  1.00  0.00     0.012 C 
ENDROOT
TORSDOF 0
ENDMDL
MODEL 8
REMARK VINA RESULT:    -3.593     21.891     23.440
REMARK INTER + INTRA:          -3.593
REMARK INTER:                  -3.593
REMARK INTRA:                   0.000
REMARK UNBOUND:                 0.000
REMARK SMILES C=C1CCCC(C)(C)[C@]12CC=C(C)CC2
REMARK SMILES IDX 13 1 12 2 11 3 10 4 9 5 15 6 14 7 2 8 1 9 3 10 4 11 5 12
REMARK SMILES IDX 6 13 7 14 8 15
REMARK H PARENT
REMARK Flexibility Score: inf
ROOT
ATOM      1  C   UNL     1      58.012  26.875  26.128  1.00  0.00     0.039 C 
ATOM      2  C   UNL     1      56.826  27.794  26.029  1.00  0.00    -0.077 C 
ATOM      3  C   UNL     1      56.588  28.435  24.868  1.00  0.00    -0.027 C 
ATOM      4  C   UNL     1      55.437  29.396  24.673  1.00  0.00     0.039 C 
ATOM      5  C   UNL     1      54.257  29.196  25.688  1.00  0.00    -0.000 C 
ATOM      6  C   UNL     1      54.924  29.088  27.095  1.00  0.00     0.017 C 
ATOM      7  C   UNL     1      55.866  27.880  27.194  1.00  0.00     0.031 C 
ATOM      8  C   UNL     1      53.449  27.897  25.418  1.00  0.00    -0.070 C 
ATOM      9  C   UNL     1      53.756  26.991  24.463  1.00  0.00     0.008 C 
ATOM     10  C   UNL     1      52.227  27.641  26.274  1.00  0.00     0.031 C 
ATOM     11  C   UNL     1      51.265  28.818  26.170  1.00  0.00     0.005 C 
ATOM     12  C   UNL     1      51.964  30.142  26.503  1.00  0.00     0.008 C 
ATOM     13  C   UNL     1      53.227  30.423  25.624  1.00  0.00    -0.026 C 
ATOM     14  C   UNL     1      52.763  30.675  24.161  1.00  0.00     0.012 C 
ATOM     15  C   UNL     1      53.831  31.758  26.142  1.00  0.00     0.012 C 
ENDROOT
TORSDOF 0
ENDMDL
