MODEL 1
REMARK VINA RESULT:    -5.580      0.000      0.000
REMARK INTER + INTRA:         -11.863
REMARK INTER:                 -10.473
REMARK INTRA:                  -1.390
REMARK UNBOUND:                -1.390
REMARK SMILES O=C([O-])CCCCCCCCCCCCCCC(=O)[O-]
REMARK SMILES IDX 10 1 9 2 8 3 7 4 6 5 5 6 4 7 2 8 1 9 3 10 11 11 12 12 13 13
REMARK SMILES IDX 14 14 15 15 16 16 17 17 18 18 19 19 20 20
REMARK H PARENT
REMARK Flexibility Score: inf
ROOT
ATOM      1  C   UNL     1      -0.262 -28.964   6.485  1.00  0.00     0.000 C 
ENDROOT
BRANCH   1   2
ATOM      2  C   UNL     1       0.196 -27.515   6.703  1.00  0.00     0.000 C 
BRANCH   2   3
ATOM      3  C   UNL     1      -0.595 -26.856   7.843  1.00  0.00     0.000 C 
BRANCH   3   4
ATOM      4  C   UNL     1       0.236 -26.697   9.126  1.00  0.00     0.000 C 
BRANCH   4   5
ATOM      5  C   UNL     1      -0.628 -26.724  10.396  1.00  0.00     0.000 C 
BRANCH   5   6
ATOM      6  C   UNL     1      -2.105 -26.482  10.060  1.00  0.00     0.006 C 
BRANCH   6   7
ATOM      7  C   UNL     1      -2.719 -25.448  11.009  1.00  0.00     0.053 C 
BRANCH   7   8
ATOM      8  C   UNL     1      -4.143 -25.174  10.639  1.00  0.00     0.041 C 
ATOM      9  O   UNL     1      -4.663 -24.061  10.909  1.00  0.00    -0.550 OA
ATOM     10  O   UNL     1      -4.905 -26.162  10.030  1.00  0.00    -0.550 OA
ENDBRANCH   7   8
ENDBRANCH   6   7
ENDBRANCH   5   6
ENDBRANCH   4   5
ENDBRANCH   3   4
ENDBRANCH   2   3
ENDBRANCH   1   2
BRANCH   1  11
ATOM     11  C   UNL     1       0.156 -29.515   5.113  1.00  0.00     0.000 C 
BRANCH  11  12
ATOM     12  C   UNL     1       1.565 -29.065   4.701  1.00  0.00     0.000 C 
BRANCH  12  13
ATOM     13  C   UNL     1       1.810 -29.325   3.210  1.00  0.00     0.000 C 
BRANCH  13  14
ATOM     14  C   UNL     1       0.769 -30.303   2.645  1.00  0.00     0.000 C 
BRANCH  14  15
ATOM     15  C   UNL     1      -0.169 -29.650   1.617  1.00  0.00     0.000 C 
BRANCH  15  16
ATOM     16  C   UNL     1      -0.119 -28.110   1.567  1.00  0.00     0.006 C 
BRANCH  16  17
ATOM     17  C   UNL     1      -1.265 -27.419   2.329  1.00  0.00     0.053 C 
BRANCH  17  18
ATOM     18  C   UNL     1      -0.771 -26.383   3.293  1.00  0.00     0.041 C 
ATOM     19  O   UNL     1      -1.566 -25.848   4.109  1.00  0.00    -0.550 OA
ATOM     20  O   UNL     1       0.557 -25.976   3.261  1.00  0.00    -0.550 OA
ENDBRANCH  17  18
ENDBRANCH  16  17
ENDBRANCH  15  16
ENDBRANCH  14  15
ENDBRANCH  13  14
ENDBRANCH  12  13
ENDBRANCH  11  12
ENDBRANCH   1  11
TORSDOF 15
ENDMDL
MODEL 2
REMARK VINA RESULT:    -5.576      1.309      1.585
REMARK INTER + INTRA:         -11.855
REMARK INTER:                 -10.710
REMARK INTRA:                  -1.146
REMARK UNBOUND:                -1.390
REMARK SMILES O=C([O-])CCCCCCCCCCCCCCC(=O)[O-]
REMARK SMILES IDX 10 1 9 2 8 3 7 4 6 5 5 6 4 7 2 8 1 9 3 10 11 11 12 12 13 13
REMARK SMILES IDX 14 14 15 15 16 16 17 17 18 18 19 19 20 20
REMARK H PARENT
REMARK Flexibility Score: inf
ROOT
ATOM      1  C   UNL     1      -0.148 -27.675   5.607  1.00  0.00     0.000 C 
ENDROOT
BRANCH   1   2
ATOM      2  C   UNL     1       1.076 -27.037   6.280  1.00  0.00     0.000 C 
BRANCH   2   3
ATOM      3  C   UNL     1       0.876 -26.935   7.799  1.00  0.00     0.000 C 
BRANCH   3   4
ATOM      4  C   UNL     1      -0.591 -27.120   8.217  1.00  0.00     0.000 C 
BRANCH   4   5
ATOM      5  C   UNL     1      -0.881 -26.557   9.617  1.00  0.00     0.000 C 
BRANCH   5   6
ATOM      6  C   UNL     1      -2.383 -26.601   9.926  1.00  0.00     0.006 C 
BRANCH   6   7
ATOM      7  C   UNL     1      -2.779 -25.468  10.878  1.00  0.00     0.053 C 
BRANCH   7   8
ATOM      8  C   UNL     1      -4.190 -25.040  10.628  1.00  0.00     0.041 C 
ATOM      9  O   UNL     1      -5.019 -25.851  10.139  1.00  0.00    -0.550 OA
ATOM     10  O   UNL     1      -4.579 -23.735  10.899  1.00  0.00    -0.550 OA
ENDBRANCH   7   8
ENDBRANCH   6   7
ENDBRANCH   5   6
ENDBRANCH   4   5
ENDBRANCH   3   4
ENDBRANCH   2   3
ENDBRANCH   1   2
BRANCH   1  11
ATOM     11  C   UNL     1       0.066 -29.162   5.285  1.00  0.00     0.000 C 
BRANCH  11  12
ATOM     12  C   UNL     1       1.515 -29.479   4.892  1.00  0.00     0.000 C 
BRANCH  12  13
ATOM     13  C   UNL     1       1.717 -29.344   3.378  1.00  0.00     0.000 C 
BRANCH  13  14
ATOM     14  C   UNL     1       0.729 -30.236   2.612  1.00  0.00     0.000 C 
BRANCH  14  15
ATOM     15  C   UNL     1      -0.057 -29.470   1.535  1.00  0.00     0.000 C 
BRANCH  15  16
ATOM     16  C   UNL     1      -0.228 -27.961   1.796  1.00  0.00     0.006 C 
BRANCH  16  17
ATOM     17  C   UNL     1      -1.666 -27.447   1.599  1.00  0.00     0.053 C 
BRANCH  17  18
ATOM     18  C   UNL     1      -1.713 -26.123   0.898  1.00  0.00     0.041 C 
ATOM     19  O   UNL     1      -2.782 -25.728   0.364  1.00  0.00    -0.550 OA
ATOM     20  O   UNL     1      -0.565 -25.347   0.795  1.00  0.00    -0.550 OA
ENDBRANCH  17  18
ENDBRANCH  16  17
ENDBRANCH  15  16
ENDBRANCH  14  15
ENDBRANCH  13  14
ENDBRANCH  12  13
ENDBRANCH  11  12
ENDBRANCH   1  11
TORSDOF 15
ENDMDL
MODEL 3
REMARK VINA RESULT:    -5.531      1.398      7.501
REMARK INTER + INTRA:         -11.771
REMARK INTER:                 -10.456
REMARK INTRA:                  -1.315
REMARK UNBOUND:                -1.390
REMARK SMILES O=C([O-])CCCCCCCCCCCCCCC(=O)[O-]
REMARK SMILES IDX 10 1 9 2 8 3 7 4 6 5 5 6 4 7 2 8 1 9 3 10 11 11 12 12 13 13
REMARK SMILES IDX 14 14 15 15 16 16 17 17 18 18 19 19 20 20
REMARK H PARENT
REMARK Flexibility Score: inf
ROOT
ATOM      1  C   UNL     1      -0.129 -29.188   5.815  1.00  0.00     0.000 C 
ENDROOT
BRANCH   1   2
ATOM      2  C   UNL     1       1.126 -29.321   4.941  1.00  0.00     0.000 C 
BRANCH   2   3
ATOM      3  C   UNL     1       0.753 -29.716   3.504  1.00  0.00     0.000 C 
BRANCH   3   4
ATOM      4  C   UNL     1       0.733 -28.515   2.545  1.00  0.00     0.000 C 
BRANCH   4   5
ATOM      5  C   UNL     1      -0.500 -28.512   1.629  1.00  0.00     0.000 C 
BRANCH   5   6
ATOM      6  C   UNL     1      -1.643 -27.698   2.249  1.00  0.00     0.006 C 
BRANCH   6   7
ATOM      7  C   UNL     1      -1.177 -26.282   2.600  1.00  0.00     0.053 C 
BRANCH   7   8
ATOM      8  C   UNL     1      -1.700 -25.293   1.607  1.00  0.00     0.041 C 
ATOM      9  O   UNL     1      -1.349 -24.086   1.671  1.00  0.00    -0.550 OA
ATOM     10  O   UNL     1      -2.604 -25.698   0.634  1.00  0.00    -0.550 OA
ENDBRANCH   7   8
ENDBRANCH   6   7
ENDBRANCH   5   6
ENDBRANCH   4   5
ENDBRANCH   3   4
ENDBRANCH   2   3
ENDBRANCH   1   2
BRANCH   1  11
ATOM     11  C   UNL     1      -0.500 -27.723   6.092  1.00  0.00     0.000 C 
BRANCH  11  12
ATOM     12  C   UNL     1       0.701 -26.887   6.556  1.00  0.00     0.000 C 
BRANCH  12  13
ATOM     13  C   UNL     1       0.806 -26.878   8.086  1.00  0.00     0.000 C 
BRANCH  13  14
ATOM     14  C   UNL     1      -0.586 -26.815   8.731  1.00  0.00     0.000 C 
BRANCH  14  15
ATOM     15  C   UNL     1      -0.535 -26.505  10.236  1.00  0.00     0.000 C 
BRANCH  15  16
ATOM     16  C   UNL     1      -1.895 -26.189  10.888  1.00  0.00     0.006 C 
BRANCH  16  17
ATOM     17  C   UNL     1      -3.043 -25.989   9.881  1.00  0.00     0.053 C 
BRANCH  17  18
ATOM     18  C   UNL     1      -4.346 -25.670  10.551  1.00  0.00     0.041 C 
ATOM     19  O   UNL     1      -5.216 -26.567  10.698  1.00  0.00    -0.550 OA
ATOM     20  O   UNL     1      -4.615 -24.375  10.973  1.00  0.00    -0.550 OA
ENDBRANCH  17  18
ENDBRANCH  16  17
ENDBRANCH  15  16
ENDBRANCH  14  15
ENDBRANCH  13  14
ENDBRANCH  12  13
ENDBRANCH  11  12
ENDBRANCH   1  11
TORSDOF 15
ENDMDL
MODEL 4
REMARK VINA RESULT:    -5.489      1.879      7.510
REMARK INTER + INTRA:         -11.693
REMARK INTER:                 -10.059
REMARK INTRA:                  -1.634
REMARK UNBOUND:                -1.390
REMARK SMILES O=C([O-])CCCCCCCCCCCCCCC(=O)[O-]
REMARK SMILES IDX 10 1 9 2 8 3 7 4 6 5 5 6 4 7 2 8 1 9 3 10 11 11 12 12 13 13
REMARK SMILES IDX 14 14 15 15 16 16 17 17 18 18 19 19 20 20
REMARK H PARENT
REMARK Flexibility Score: inf
ROOT
ATOM      1  C   UNL     1       1.825 -28.088   4.582  1.00  0.00     0.000 C 
ENDROOT
BRANCH   1   2
ATOM      2  C   UNL     1       2.039 -28.489   3.115  1.00  0.00     0.000 C 
BRANCH   2   3
ATOM      3  C   UNL     1       1.401 -29.854   2.821  1.00  0.00     0.000 C 
BRANCH   3   4
ATOM      4  C   UNL     1       0.157 -29.746   1.925  1.00  0.00     0.000 C 
BRANCH   4   5
ATOM      5  C   UNL     1      -0.176 -28.294   1.552  1.00  0.00     0.000 C 
BRANCH   5   6
ATOM      6  C   UNL     1      -1.667 -28.001   1.762  1.00  0.00     0.006 C 
BRANCH   6   7
ATOM      7  C   UNL     1      -1.926 -26.493   1.813  1.00  0.00     0.053 C 
BRANCH   7   8
ATOM      8  C   UNL     1      -1.701 -25.874   0.469  1.00  0.00     0.041 C 
ATOM      9  O   UNL     1      -0.652 -25.216   0.244  1.00  0.00    -0.550 OA
ATOM     10  O   UNL     1      -2.667 -25.993  -0.522  1.00  0.00    -0.550 OA
ENDBRANCH   7   8
ENDBRANCH   6   7
ENDBRANCH   5   6
ENDBRANCH   4   5
ENDBRANCH   3   4
ENDBRANCH   2   3
ENDBRANCH   1   2
BRANCH   1  11
ATOM     11  C   UNL     1       0.949 -26.834   4.728  1.00  0.00     0.000 C 
BRANCH  11  12
ATOM     12  C   UNL     1      -0.337 -27.101   5.522  1.00  0.00     0.000 C 
BRANCH  12  13
ATOM     13  C   UNL     1      -0.347 -28.526   6.088  1.00  0.00     0.000 C 
BRANCH  13  14
ATOM     14  C   UNL     1      -0.533 -28.510   7.612  1.00  0.00     0.000 C 
BRANCH  14  15
ATOM     15  C   UNL     1       0.354 -27.467   8.312  1.00  0.00     0.000 C 
BRANCH  15  16
ATOM     16  C   UNL     1      -0.334 -26.670   9.438  1.00  0.00     0.006 C 
BRANCH  16  17
ATOM     17  C   UNL     1      -1.863 -26.851   9.493  1.00  0.00     0.053 C 
BRANCH  17  18
ATOM     18  C   UNL     1      -2.483 -26.143  10.660  1.00  0.00     0.041 C 
ATOM     19  O   UNL     1      -3.714 -25.882  10.659  1.00  0.00    -0.550 OA
ATOM     20  O   UNL     1      -1.695 -25.734  11.728  1.00  0.00    -0.550 OA
ENDBRANCH  17  18
ENDBRANCH  16  17
ENDBRANCH  15  16
ENDBRANCH  14  15
ENDBRANCH  13  14
ENDBRANCH  12  13
ENDBRANCH  11  12
ENDBRANCH   1  11
TORSDOF 15
ENDMDL
MODEL 5
REMARK VINA RESULT:    -5.426      1.487      1.941
REMARK INTER + INTRA:         -11.573
REMARK INTER:                 -10.400
REMARK INTRA:                  -1.173
REMARK UNBOUND:                -1.390
REMARK SMILES O=C([O-])CCCCCCCCCCCCCCC(=O)[O-]
REMARK SMILES IDX 10 1 9 2 8 3 7 4 6 5 5 6 4 7 2 8 1 9 3 10 11 11 12 12 13 13
REMARK SMILES IDX 14 14 15 15 16 16 17 17 18 18 19 19 20 20
REMARK H PARENT
REMARK Flexibility Score: inf
ROOT
ATOM      1  C   UNL     1      -0.226 -28.963   5.496  1.00  0.00     0.000 C 
ENDROOT
BRANCH   1   2
ATOM      2  C   UNL     1      -0.254 -27.490   5.928  1.00  0.00     0.000 C 
BRANCH   2   3
ATOM      3  C   UNL     1      -0.007 -27.358   7.439  1.00  0.00     0.000 C 
BRANCH   3   4
ATOM      4  C   UNL     1      -0.902 -28.289   8.270  1.00  0.00     0.000 C 
BRANCH   4   5
ATOM      5  C   UNL     1      -1.290 -27.679   9.626  1.00  0.00     0.000 C 
BRANCH   5   6
ATOM      6  C   UNL     1      -2.099 -26.389   9.436  1.00  0.00     0.006 C 
BRANCH   6   7
ATOM      7  C   UNL     1      -2.766 -25.964  10.748  1.00  0.00     0.053 C 
BRANCH   7   8
ATOM      8  C   UNL     1      -4.178 -25.535  10.505  1.00  0.00     0.041 C 
ATOM      9  O   UNL     1      -4.986 -26.312   9.933  1.00  0.00    -0.550 OA
ATOM     10  O   UNL     1      -4.591 -24.262  10.876  1.00  0.00    -0.550 OA
ENDBRANCH   7   8
ENDBRANCH   6   7
ENDBRANCH   5   6
ENDBRANCH   4   5
ENDBRANCH   3   4
ENDBRANCH   2   3
ENDBRANCH   1   2
BRANCH   1  11
ATOM     11  C   UNL     1       1.171 -29.417   5.044  1.00  0.00     0.000 C 
BRANCH  11  12
ATOM     12  C   UNL     1       1.458 -29.070   3.577  1.00  0.00     0.000 C 
BRANCH  12  13
ATOM     13  C   UNL     1       0.836 -30.107   2.634  1.00  0.00     0.000 C 
BRANCH  13  14
ATOM     14  C   UNL     1      -0.060 -29.429   1.588  1.00  0.00     0.000 C 
BRANCH  14  15
ATOM     15  C   UNL     1      -0.174 -27.909   1.791  1.00  0.00     0.000 C 
BRANCH  15  16
ATOM     16  C   UNL     1      -1.598 -27.388   2.068  1.00  0.00     0.006 C 
BRANCH  16  17
ATOM     17  C   UNL     1      -2.193 -26.548   0.923  1.00  0.00     0.053 C 
BRANCH  17  18
ATOM     18  C   UNL     1      -1.415 -25.292   0.668  1.00  0.00     0.041 C 
ATOM     19  O   UNL     1      -0.937 -25.065  -0.474  1.00  0.00    -0.550 OA
ATOM     20  O   UNL     1      -1.182 -24.393   1.701  1.00  0.00    -0.550 OA
ENDBRANCH  17  18
ENDBRANCH  16  17
ENDBRANCH  15  16
ENDBRANCH  14  15
ENDBRANCH  13  14
ENDBRANCH  12  13
ENDBRANCH  11  12
ENDBRANCH   1  11
TORSDOF 15
ENDMDL
MODEL 6
REMARK VINA RESULT:    -5.413      2.254      3.190
REMARK INTER + INTRA:         -11.550
REMARK INTER:                 -10.539
REMARK INTRA:                  -1.011
REMARK UNBOUND:                -1.390
REMARK SMILES O=C([O-])CCCCCCCCCCCCCCC(=O)[O-]
REMARK SMILES IDX 10 1 9 2 8 3 7 4 6 5 5 6 4 7 2 8 1 9 3 10 11 11 12 12 13 13
REMARK SMILES IDX 14 14 15 15 16 16 17 17 18 18 19 19 20 20
REMARK H PARENT
REMARK Flexibility Score: inf
ROOT
ATOM      1  C   UNL     1      -0.238 -27.128   6.796  1.00  0.00     0.000 C 
ENDROOT
BRANCH   1   2
ATOM      2  C   UNL     1       1.109 -26.840   7.473  1.00  0.00     0.000 C 
BRANCH   2   3
ATOM      3  C   UNL     1       0.967 -26.850   9.002  1.00  0.00     0.000 C 
BRANCH   3   4
ATOM      4  C   UNL     1      -0.498 -26.791   9.461  1.00  0.00     0.000 C 
BRANCH   4   5
ATOM      5  C   UNL     1      -0.641 -26.330  10.920  1.00  0.00     0.000 C 
BRANCH   5   6
ATOM      6  C   UNL     1      -2.053 -25.795  11.191  1.00  0.00     0.006 C 
BRANCH   6   7
ATOM      7  C   UNL     1      -2.997 -26.130  10.033  1.00  0.00     0.053 C 
BRANCH   7   8
ATOM      8  C   UNL     1      -4.400 -25.730  10.364  1.00  0.00     0.041 C 
ATOM      9  O   UNL     1      -5.356 -26.509  10.109  1.00  0.00    -0.550 OA
ATOM     10  O   UNL     1      -4.655 -24.484  10.920  1.00  0.00    -0.550 OA
ENDBRANCH   7   8
ENDBRANCH   6   7
ENDBRANCH   5   6
ENDBRANCH   4   5
ENDBRANCH   3   4
ENDBRANCH   2   3
ENDBRANCH   1   2
BRANCH   1  11
ATOM     11  C   UNL     1      -0.091 -28.002   5.541  1.00  0.00     0.000 C 
BRANCH  11  12
ATOM     12  C   UNL     1       0.019 -27.173   4.253  1.00  0.00     0.000 C 
BRANCH  12  13
ATOM     13  C   UNL     1      -1.302 -26.457   3.947  1.00  0.00     0.000 C 
BRANCH  13  14
ATOM     14  C   UNL     1      -1.048 -25.017   3.479  1.00  0.00     0.000 C 
BRANCH  14  15
ATOM     15  C   UNL     1       0.127 -24.906   2.494  1.00  0.00     0.000 C 
BRANCH  15  16
ATOM     16  C   UNL     1      -0.193 -24.191   1.166  1.00  0.00     0.006 C 
BRANCH  16  17
ATOM     17  C   UNL     1      -1.699 -23.990   0.909  1.00  0.00     0.053 C 
BRANCH  17  18
ATOM     18  C   UNL     1      -2.233 -24.924  -0.134  1.00  0.00     0.041 C 
ATOM     19  O   UNL     1      -2.275 -26.162   0.088  1.00  0.00    -0.550 OA
ATOM     20  O   UNL     1      -2.645 -24.433  -1.366  1.00  0.00    -0.550 OA
ENDBRANCH  17  18
ENDBRANCH  16  17
ENDBRANCH  15  16
ENDBRANCH  14  15
ENDBRANCH  13  14
ENDBRANCH  12  13
ENDBRANCH  11  12
ENDBRANCH   1  11
TORSDOF 15
ENDMDL
MODEL 7
REMARK VINA RESULT:    -5.354      2.418      8.051
REMARK INTER + INTRA:         -11.439
REMARK INTER:                 -10.466
REMARK INTRA:                  -0.973
REMARK UNBOUND:                -1.390
REMARK SMILES O=C([O-])CCCCCCCCCCCCCCC(=O)[O-]
REMARK SMILES IDX 10 1 9 2 8 3 7 4 6 5 5 6 4 7 2 8 1 9 3 10 11 11 12 12 13 13
REMARK SMILES IDX 14 14 15 15 16 16 17 17 18 18 19 19 20 20
REMARK H PARENT
REMARK Flexibility Score: inf
ROOT
ATOM      1  C   UNL     1       1.134 -26.813   5.031  1.00  0.00     0.000 C 
ENDROOT
BRANCH   1   2
ATOM      2  C   UNL     1       1.015 -26.746   3.502  1.00  0.00     0.000 C 
BRANCH   2   3
ATOM      3  C   UNL     1       1.024 -25.290   3.015  1.00  0.00     0.000 C 
BRANCH   3   4
ATOM      4  C   UNL     1      -0.116 -24.987   2.030  1.00  0.00     0.000 C 
BRANCH   4   5
ATOM      5  C   UNL     1      -1.484 -25.458   2.549  1.00  0.00     0.000 C 
BRANCH   5   6
ATOM      6  C   UNL     1      -2.240 -26.243   1.470  1.00  0.00     0.006 C 
BRANCH   6   7
ATOM      7  C   UNL     1      -1.626 -26.003   0.087  1.00  0.00     0.053 C 
BRANCH   7   8
ATOM      8  C   UNL     1      -2.547 -25.184  -0.762  1.00  0.00     0.041 C 
ATOM      9  O   UNL     1      -3.417 -25.748  -1.475  1.00  0.00    -0.550 OA
ATOM     10  O   UNL     1      -2.418 -23.802  -0.794  1.00  0.00    -0.550 OA
ENDBRANCH   7   8
ENDBRANCH   6   7
ENDBRANCH   5   6
ENDBRANCH   4   5
ENDBRANCH   3   4
ENDBRANCH   2   3
ENDBRANCH   1   2
BRANCH   1  11
ATOM     11  C   UNL     1      -0.220 -27.047   5.718  1.00  0.00     0.000 C 
BRANCH  11  12
ATOM     12  C   UNL     1      -0.309 -28.421   6.396  1.00  0.00     0.000 C 
BRANCH  12  13
ATOM     13  C   UNL     1       0.017 -28.319   7.891  1.00  0.00     0.000 C 
BRANCH  13  14
ATOM     14  C   UNL     1      -0.196 -26.887   8.402  1.00  0.00     0.000 C 
BRANCH  14  15
ATOM     15  C   UNL     1      -0.838 -26.838   9.798  1.00  0.00     0.000 C 
BRANCH  15  16
ATOM     16  C   UNL     1      -2.359 -26.591   9.812  1.00  0.00     0.006 C 
BRANCH  16  17
ATOM     17  C   UNL     1      -2.798 -25.425  10.717  1.00  0.00     0.053 C 
BRANCH  17  18
ATOM     18  C   UNL     1      -4.248 -25.082  10.551  1.00  0.00     0.041 C 
ATOM     19  O   UNL     1      -4.688 -23.978  10.962  1.00  0.00    -0.550 OA
ATOM     20  O   UNL     1      -5.121 -26.000   9.981  1.00  0.00    -0.550 OA
ENDBRANCH  17  18
ENDBRANCH  16  17
ENDBRANCH  15  16
ENDBRANCH  14  15
ENDBRANCH  13  14
ENDBRANCH  12  13
ENDBRANCH  11  12
ENDBRANCH   1  11
TORSDOF 15
ENDMDL
MODEL 8
REMARK VINA RESULT:    -4.955      2.901      7.451
REMARK INTER + INTRA:         -10.690
REMARK INTER:                  -9.084
REMARK INTRA:                  -1.606
REMARK UNBOUND:                -1.390
REMARK SMILES O=C([O-])CCCCCCCCCCCCCCC(=O)[O-]
REMARK SMILES IDX 10 1 9 2 8 3 7 4 6 5 5 6 4 7 2 8 1 9 3 10 11 11 12 12 13 13
REMARK SMILES IDX 14 14 15 15 16 16 17 17 18 18 19 19 20 20
REMARK H PARENT
REMARK Flexibility Score: inf
ROOT
ATOM      1  C   UNL     1      -0.645 -29.070   2.042  1.00  0.00     0.000 C 
ENDROOT
BRANCH   1   2
ATOM      2  C   UNL     1      -0.793 -27.698   1.368  1.00  0.00     0.000 C 
BRANCH   2   3
ATOM      3  C   UNL     1      -1.953 -26.906   1.990  1.00  0.00     0.000 C 
BRANCH   3   4
ATOM      4  C   UNL     1      -1.513 -26.062   3.196  1.00  0.00     0.000 C 
BRANCH   4   5
ATOM      5  C   UNL     1      -0.826 -24.752   2.781  1.00  0.00     0.000 C 
BRANCH   5   6
ATOM      6  C   UNL     1      -1.580 -24.077   1.629  1.00  0.00     0.006 C 
BRANCH   6   7
ATOM      7  C   UNL     1      -0.693 -23.962   0.386  1.00  0.00     0.053 C 
BRANCH   7   8
ATOM      8  C   UNL     1      -1.478 -24.263  -0.851  1.00  0.00     0.041 C 
ATOM      9  O   UNL     1      -2.043 -25.380  -0.985  1.00  0.00    -0.550 OA
ATOM     10  O   UNL     1      -1.554 -23.324  -1.871  1.00  0.00    -0.550 OA
ENDBRANCH   7   8
ENDBRANCH   6   7
ENDBRANCH   5   6
ENDBRANCH   4   5
ENDBRANCH   3   4
ENDBRANCH   2   3
ENDBRANCH   1   2
BRANCH   1  11
ATOM     11  C   UNL     1       0.789 -29.335   2.528  1.00  0.00     0.000 C 
BRANCH  11  12
ATOM     12  C   UNL     1       1.026 -28.841   3.962  1.00  0.00     0.000 C 
BRANCH  12  13
ATOM     13  C   UNL     1       1.864 -27.557   3.969  1.00  0.00     0.000 C 
BRANCH  13  14
ATOM     14  C   UNL     1       1.528 -26.689   5.190  1.00  0.00     0.000 C 
BRANCH  14  15
ATOM     15  C   UNL     1       0.396 -27.277   6.048  1.00  0.00     0.000 C 
BRANCH  15  16
ATOM     16  C   UNL     1       0.607 -27.178   7.571  1.00  0.00     0.006 C 
BRANCH  16  17
ATOM     17  C   UNL     1      -0.688 -26.946   8.372  1.00  0.00     0.053 C 
BRANCH  17  18
ATOM     18  C   UNL     1      -0.422 -26.580   9.802  1.00  0.00     0.041 C 
ATOM     19  O   UNL     1       0.737 -26.247  10.164  1.00  0.00    -0.550 OA
ATOM     20  O   UNL     1      -1.442 -26.650  10.742  1.00  0.00    -0.550 OA
ENDBRANCH  17  18
ENDBRANCH  16  17
ENDBRANCH  15  16
ENDBRANCH  14  15
ENDBRANCH  13  14
ENDBRANCH  12  13
ENDBRANCH  11  12
ENDBRANCH   1  11
TORSDOF 15
ENDMDL
MODEL 9
REMARK VINA RESULT:    -3.551      2.664      3.473
REMARK INTER + INTRA:          -8.055
REMARK INTER:                  -6.905
REMARK INTRA:                  -1.150
REMARK UNBOUND:                -1.390
REMARK SMILES O=C([O-])CCCCCCCCCCCCCCC(=O)[O-]
REMARK SMILES IDX 10 1 9 2 8 3 7 4 6 5 5 6 4 7 2 8 1 9 3 10 11 11 12 12 13 13
REMARK SMILES IDX 14 14 15 15 16 16 17 17 18 18 19 19 20 20
REMARK H PARENT
REMARK Flexibility Score: inf
ROOT
ATOM      1  C   UNL     1       2.018 -27.617   4.780  1.00  0.00     0.000 C 
ENDROOT
BRANCH   1   2
ATOM      2  C   UNL     1       2.125 -26.525   5.854  1.00  0.00     0.000 C 
BRANCH   2   3
ATOM      3  C   UNL     1       1.546 -27.013   7.191  1.00  0.00     0.000 C 
BRANCH   3   4
ATOM      4  C   UNL     1       0.010 -26.996   7.213  1.00  0.00     0.000 C 
BRANCH   4   5
ATOM      5  C   UNL     1      -0.584 -28.248   7.876  1.00  0.00     0.000 C 
BRANCH   5   6
ATOM      6  C   UNL     1      -1.493 -27.868   9.052  1.00  0.00     0.006 C 
BRANCH   6   7
ATOM      7  C   UNL     1      -0.898 -26.703   9.848  1.00  0.00     0.053 C 
BRANCH   7   8
ATOM      8  C   UNL     1      -1.903 -26.158  10.814  1.00  0.00     0.041 C 
ATOM      9  O   UNL     1      -3.113 -26.062  10.480  1.00  0.00    -0.550 OA
ATOM     10  O   UNL     1      -1.497 -25.723  12.068  1.00  0.00    -0.550 OA
ENDBRANCH   7   8
ENDBRANCH   6   7
ENDBRANCH   5   6
ENDBRANCH   4   5
ENDBRANCH   3   4
ENDBRANCH   2   3
ENDBRANCH   1   2
BRANCH   1  11
ATOM     11  C   UNL     1       1.567 -27.063   3.420  1.00  0.00     0.000 C 
BRANCH  11  12
ATOM     12  C   UNL     1       0.730 -25.783   3.552  1.00  0.00     0.000 C 
BRANCH  12  13
ATOM     13  C   UNL     1      -0.769 -26.105   3.562  1.00  0.00     0.000 C 
BRANCH  13  14
ATOM     14  C   UNL     1      -1.019 -27.565   3.160  1.00  0.00     0.000 C 
BRANCH  14  15
ATOM     15  C   UNL     1      -1.672 -27.702   1.775  1.00  0.00     0.000 C 
BRANCH  15  16
ATOM     16  C   UNL     1      -1.413 -26.530   0.808  1.00  0.00     0.006 C 
BRANCH  16  17
ATOM     17  C   UNL     1      -2.677 -25.736   0.429  1.00  0.00     0.053 C 
BRANCH  17  18
ATOM     18  C   UNL     1      -2.639 -25.237  -0.984  1.00  0.00     0.041 C 
ATOM     19  O   UNL     1      -1.702 -24.489  -1.365  1.00  0.00    -0.550 OA
ATOM     20  O   UNL     1      -3.662 -25.562  -1.866  1.00  0.00    -0.550 OA
ENDBRANCH  17  18
ENDBRANCH  16  17
ENDBRANCH  15  16
ENDBRANCH  14  15
ENDBRANCH  13  14
ENDBRANCH  12  13
ENDBRANCH  11  12
ENDBRANCH   1  11
TORSDOF 15
ENDMDL
