MODEL 1
REMARK VINA RESULT:    -7.360      0.000      0.000
REMARK INTER + INTRA:         -14.495
REMARK INTER:                 -13.384
REMARK INTRA:                  -1.110
REMARK UNBOUND:                -1.110
REMARK SMILES CCCCCCCCCCCCCCCC(=O)[O-]
REMARK SMILES IDX 9 1 10 2 11 3 12 4 13 5 14 6 15 7 16 8 17 9 18 10 8 11 7 12
REMARK SMILES IDX 6 13 5 14 4 15 3 16 2 17 1 18
REMARK H PARENT
REMARK Flexibility Score: inf
ROOT
ATOM      1  C   UNL     1      -7.822  -2.975 -19.720  1.00  0.00     0.000 C 
ENDROOT
BRANCH   1   2
ATOM      2  C   UNL     1      -7.138  -2.493 -21.011  1.00  0.00     0.000 C 
BRANCH   2   3
ATOM      3  C   UNL     1      -5.822  -3.235 -21.300  1.00  0.00     0.000 C 
BRANCH   3   4
ATOM      4  C   UNL     1      -4.579  -2.348 -21.107  1.00  0.00     0.000 C 
BRANCH   4   5
ATOM      5  C   UNL     1      -4.133  -2.151 -19.646  1.00  0.00     0.000 C 
BRANCH   5   6
ATOM      6  C   UNL     1      -4.454  -0.751 -19.103  1.00  0.00     0.006 C 
BRANCH   6   7
ATOM      7  C   UNL     1      -3.174  -0.012 -18.700  1.00  0.00     0.053 C 
BRANCH   7   8
ATOM      8  C   UNL     1      -3.396   0.777 -17.449  1.00  0.00     0.041 C 
ATOM      9  O   UNL     1      -2.800   1.873 -17.276  1.00  0.00    -0.550 OA
ATOM     10  O   UNL     1      -4.221   0.278 -16.450  1.00  0.00    -0.550 OA
ENDBRANCH   7   8
ENDBRANCH   6   7
ENDBRANCH   5   6
ENDBRANCH   4   5
ENDBRANCH   3   4
ENDBRANCH   2   3
ENDBRANCH   1   2
BRANCH   1  11
ATOM     11  C   UNL     1      -6.976  -3.980 -18.909  1.00  0.00     0.000 C 
BRANCH  11  12
ATOM     12  C   UNL     1      -7.827  -5.134 -18.350  1.00  0.00    -0.000 C 
BRANCH  12  13
ATOM     13  C   UNL     1      -9.145  -5.321 -19.116  1.00  0.00    -0.000 C 
BRANCH  13  14
ATOM     14  C   UNL     1      -9.080  -6.478 -20.130  1.00  0.00    -0.000 C 
BRANCH  14  15
ATOM     15  C   UNL     1      -7.994  -7.507 -19.781  1.00  0.00    -0.000 C 
BRANCH  15  16
ATOM     16  C   UNL     1      -8.580  -8.880 -19.407  1.00  0.00    -0.000 C 
BRANCH  16  17
ATOM     17  C   UNL     1      -7.942 -10.028 -20.203  1.00  0.00    -0.003 C 
ATOM     18  C   UNL     1      -8.190  -9.914 -21.706  1.00  0.00     0.004 C 
ENDBRANCH  16  17
ENDBRANCH  15  16
ENDBRANCH  14  15
ENDBRANCH  13  14
ENDBRANCH  12  13
ENDBRANCH  11  12
ENDBRANCH   1  11
TORSDOF 14
ENDMDL
MODEL 2
REMARK VINA RESULT:    -7.244      4.348      8.371
REMARK INTER + INTRA:         -14.283
REMARK INTER:                 -12.968
REMARK INTRA:                  -1.315
REMARK UNBOUND:                -1.110
REMARK SMILES CCCCCCCCCCCCCCCC(=O)[O-]
REMARK SMILES IDX 9 1 10 2 11 3 12 4 13 5 14 6 15 7 16 8 17 9 18 10 8 11 7 12
REMARK SMILES IDX 6 13 5 14 4 15 3 16 2 17 1 18
REMARK H PARENT
REMARK Flexibility Score: inf
ROOT
ATOM      1  C   UNL     1      -7.806  -2.873 -19.383  1.00  0.00     0.000 C 
ENDROOT
BRANCH   1   2
ATOM      2  C   UNL     1      -7.028  -4.099 -18.874  1.00  0.00     0.000 C 
BRANCH   2   3
ATOM      3  C   UNL     1      -7.928  -5.121 -18.160  1.00  0.00     0.000 C 
BRANCH   3   4
ATOM      4  C   UNL     1      -9.203  -5.457 -18.955  1.00  0.00     0.000 C 
BRANCH   4   5
ATOM      5  C   UNL     1      -8.996  -6.386 -20.167  1.00  0.00     0.000 C 
BRANCH   5   6
ATOM      6  C   UNL     1      -7.920  -7.454 -19.929  1.00  0.00     0.006 C 
BRANCH   6   7
ATOM      7  C   UNL     1      -8.555  -8.815 -19.628  1.00  0.00     0.053 C 
BRANCH   7   8
ATOM      8  C   UNL     1      -8.137  -9.826 -20.649  1.00  0.00     0.041 C 
ATOM      9  O   UNL     1      -7.434 -10.815 -20.312  1.00  0.00    -0.550 OA
ATOM     10  O   UNL     1      -8.480  -9.648 -21.983  1.00  0.00    -0.550 OA
ENDBRANCH   7   8
ENDBRANCH   6   7
ENDBRANCH   5   6
ENDBRANCH   4   5
ENDBRANCH   3   4
ENDBRANCH   2   3
ENDBRANCH   1   2
BRANCH   1  11
ATOM     11  C   UNL     1      -7.252  -2.292 -20.701  1.00  0.00     0.000 C 
BRANCH  11  12
ATOM     12  C   UNL     1      -6.368  -3.303 -21.452  1.00  0.00    -0.000 C 
BRANCH  12  13
ATOM     13  C   UNL     1      -4.891  -2.881 -21.494  1.00  0.00    -0.000 C 
BRANCH  13  14
ATOM     14  C   UNL     1      -4.559  -1.789 -20.461  1.00  0.00    -0.000 C 
BRANCH  14  15
ATOM     15  C   UNL     1      -3.871  -2.352 -19.208  1.00  0.00    -0.000 C 
BRANCH  15  16
ATOM     16  C   UNL     1      -3.517  -1.258 -18.187  1.00  0.00    -0.000 C 
BRANCH  16  17
ATOM     17  C   UNL     1      -3.856   0.152 -18.693  1.00  0.00    -0.003 C 
ATOM     18  C   UNL     1      -2.920   1.222 -18.133  1.00  0.00     0.004 C 
ENDBRANCH  16  17
ENDBRANCH  15  16
ENDBRANCH  14  15
ENDBRANCH  13  14
ENDBRANCH  12  13
ENDBRANCH  11  12
ENDBRANCH   1  11
TORSDOF 14
ENDMDL
MODEL 3
REMARK VINA RESULT:    -7.154      3.996      8.412
REMARK INTER + INTRA:         -14.119
REMARK INTER:                 -12.914
REMARK INTRA:                  -1.205
REMARK UNBOUND:                -1.110
REMARK SMILES CCCCCCCCCCCCCCCC(=O)[O-]
REMARK SMILES IDX 9 1 10 2 11 3 12 4 13 5 14 6 15 7 16 8 17 9 18 10 8 11 7 12
REMARK SMILES IDX 6 13 5 14 4 15 3 16 2 17 1 18
REMARK H PARENT
REMARK Flexibility Score: inf
ROOT
ATOM      1  C   UNL     1      -7.145  -2.496 -21.072  1.00  0.00     0.000 C 
ENDROOT
BRANCH   1   2
ATOM      2  C   UNL     1      -7.804  -2.780 -19.712  1.00  0.00     0.000 C 
BRANCH   2   3
ATOM      3  C   UNL     1      -6.930  -3.655 -18.797  1.00  0.00     0.000 C 
BRANCH   3   4
ATOM      4  C   UNL     1      -7.611  -4.977 -18.400  1.00  0.00     0.000 C 
BRANCH   4   5
ATOM      5  C   UNL     1      -9.034  -5.176 -18.954  1.00  0.00     0.000 C 
BRANCH   5   6
ATOM      6  C   UNL     1      -9.129  -6.327 -19.966  1.00  0.00     0.006 C 
BRANCH   6   7
ATOM      7  C   UNL     1      -7.861  -7.186 -19.941  1.00  0.00     0.053 C 
BRANCH   7   8
ATOM      8  C   UNL     1      -8.212  -8.640 -19.947  1.00  0.00     0.041 C 
ATOM      9  O   UNL     1      -8.080  -9.320 -20.998  1.00  0.00    -0.550 OA
ATOM     10  O   UNL     1      -8.735  -9.233 -18.805  1.00  0.00    -0.550 OA
ENDBRANCH   7   8
ENDBRANCH   6   7
ENDBRANCH   5   6
ENDBRANCH   4   5
ENDBRANCH   3   4
ENDBRANCH   2   3
ENDBRANCH   1   2
BRANCH   1  11
ATOM     11  C   UNL     1      -5.831  -3.274 -21.298  1.00  0.00     0.000 C 
BRANCH  11  12
ATOM     12  C   UNL     1      -4.594  -2.365 -21.186  1.00  0.00    -0.000 C 
BRANCH  12  13
ATOM     13  C   UNL     1      -4.022  -2.319 -19.761  1.00  0.00    -0.000 C 
BRANCH  13  14
ATOM     14  C   UNL     1      -3.797  -0.881 -19.261  1.00  0.00    -0.000 C 
BRANCH  14  15
ATOM     15  C   UNL     1      -4.491  -0.609 -17.917  1.00  0.00    -0.000 C 
BRANCH  15  16
ATOM     16  C   UNL     1      -3.782   0.483 -17.096  1.00  0.00    -0.000 C 
BRANCH  16  17
ATOM     17  C   UNL     1      -2.627   1.141 -17.866  1.00  0.00    -0.003 C 
ATOM     18  C   UNL     1      -2.490   2.633 -17.563  1.00  0.00     0.004 C 
ENDBRANCH  16  17
ENDBRANCH  15  16
ENDBRANCH  14  15
ENDBRANCH  13  14
ENDBRANCH  12  13
ENDBRANCH  11  12
ENDBRANCH   1  11
TORSDOF 14
ENDMDL
MODEL 4
REMARK VINA RESULT:    -7.017      4.566      8.812
REMARK INTER + INTRA:         -13.871
REMARK INTER:                 -13.008
REMARK INTRA:                  -0.863
REMARK UNBOUND:                -1.110
REMARK SMILES CCCCCCCCCCCCCCCC(=O)[O-]
REMARK SMILES IDX 9 1 10 2 11 3 12 4 13 5 14 6 15 7 16 8 17 9 18 10 8 11 7 12
REMARK SMILES IDX 6 13 5 14 4 15 3 16 2 17 1 18
REMARK H PARENT
REMARK Flexibility Score: inf
ROOT
ATOM      1  C   UNL     1      -7.199  -2.137 -20.912  1.00  0.00     0.000 C 
ENDROOT
BRANCH   1   2
ATOM      2  C   UNL     1      -7.012  -3.648 -21.135  1.00  0.00     0.000 C 
BRANCH   2   3
ATOM      3  C   UNL     1      -7.155  -4.463 -19.839  1.00  0.00     0.000 C 
BRANCH   3   4
ATOM      4  C   UNL     1      -7.337  -5.970 -20.094  1.00  0.00     0.000 C 
BRANCH   4   5
ATOM      5  C   UNL     1      -8.591  -6.598 -19.458  1.00  0.00     0.000 C 
BRANCH   5   6
ATOM      6  C   UNL     1      -8.591  -8.132 -19.516  1.00  0.00     0.006 C 
BRANCH   6   7
ATOM      7  C   UNL     1      -7.557  -8.643 -20.524  1.00  0.00     0.053 C 
BRANCH   7   8
ATOM      8  C   UNL     1      -7.974  -9.969 -21.076  1.00  0.00     0.041 C 
ATOM      9  O   UNL     1      -7.732 -11.027 -20.436  1.00  0.00    -0.550 OA
ATOM     10  O   UNL     1      -8.584 -10.044 -22.322  1.00  0.00    -0.550 OA
ENDBRANCH   7   8
ENDBRANCH   6   7
ENDBRANCH   5   6
ENDBRANCH   4   5
ENDBRANCH   3   4
ENDBRANCH   2   3
ENDBRANCH   1   2
BRANCH   1  11
ATOM     11  C   UNL     1      -7.428  -1.753 -19.435  1.00  0.00     0.000 C 
BRANCH  11  12
ATOM     12  C   UNL     1      -6.212  -1.033 -18.829  1.00  0.00    -0.000 C 
BRANCH  12  13
ATOM     13  C   UNL     1      -4.908  -1.335 -19.584  1.00  0.00    -0.000 C 
BRANCH  13  14
ATOM     14  C   UNL     1      -3.915  -2.157 -18.743  1.00  0.00    -0.000 C 
BRANCH  14  15
ATOM     15  C   UNL     1      -2.772  -1.302 -18.178  1.00  0.00    -0.000 C 
BRANCH  15  16
ATOM     16  C   UNL     1      -2.890   0.180 -18.575  1.00  0.00    -0.000 C 
BRANCH  16  17
ATOM     17  C   UNL     1      -3.057   1.104 -17.358  1.00  0.00    -0.003 C 
ATOM     18  C   UNL     1      -2.688   2.555 -17.664  1.00  0.00     0.004 C 
ENDBRANCH  16  17
ENDBRANCH  15  16
ENDBRANCH  14  15
ENDBRANCH  13  14
ENDBRANCH  12  13
ENDBRANCH  11  12
ENDBRANCH   1  11
TORSDOF 14
ENDMDL
MODEL 5
REMARK VINA RESULT:    -6.843      2.179      3.811
REMARK INTER + INTRA:         -13.553
REMARK INTER:                 -12.823
REMARK INTRA:                  -0.730
REMARK UNBOUND:                -1.110
REMARK SMILES CCCCCCCCCCCCCCCC(=O)[O-]
REMARK SMILES IDX 9 1 10 2 11 3 12 4 13 5 14 6 15 7 16 8 17 9 18 10 8 11 7 12
REMARK SMILES IDX 6 13 5 14 4 15 3 16 2 17 1 18
REMARK H PARENT
REMARK Flexibility Score: inf
ROOT
ATOM      1  C   UNL     1      -5.948  -0.404 -19.021  1.00  0.00     0.000 C 
ENDROOT
BRANCH   1   2
ATOM      2  C   UNL     1      -4.572  -1.075 -19.172  1.00  0.00     0.000 C 
BRANCH   2   3
ATOM      3  C   UNL     1      -3.571  -0.631 -18.092  1.00  0.00     0.000 C 
BRANCH   3   4
ATOM      4  C   UNL     1      -2.523   0.366 -18.618  1.00  0.00     0.000 C 
BRANCH   4   5
ATOM      5  C   UNL     1      -2.053   1.423 -17.602  1.00  0.00     0.000 C 
BRANCH   5   6
ATOM      6  C   UNL     1      -2.934   2.679 -17.589  1.00  0.00     0.006 C 
BRANCH   6   7
ATOM      7  C   UNL     1      -2.079   3.950 -17.550  1.00  0.00     0.053 C 
BRANCH   7   8
ATOM      8  C   UNL     1      -2.948   5.166 -17.512  1.00  0.00     0.041 C 
ATOM      9  O   UNL     1      -2.693   6.151 -18.255  1.00  0.00    -0.550 OA
ATOM     10  O   UNL     1      -4.010   5.235 -16.619  1.00  0.00    -0.550 OA
ENDBRANCH   7   8
ENDBRANCH   6   7
ENDBRANCH   5   6
ENDBRANCH   4   5
ENDBRANCH   3   4
ENDBRANCH   2   3
ENDBRANCH   1   2
BRANCH   1  11
ATOM     11  C   UNL     1      -7.134  -1.363 -19.257  1.00  0.00     0.000 C 
BRANCH  11  12
ATOM     12  C   UNL     1      -7.357  -1.651 -20.752  1.00  0.00    -0.000 C 
BRANCH  12  13
ATOM     13  C   UNL     1      -7.066  -3.113 -21.124  1.00  0.00    -0.000 C 
BRANCH  13  14
ATOM     14  C   UNL     1      -6.703  -3.972 -19.899  1.00  0.00    -0.000 C 
BRANCH  14  15
ATOM     15  C   UNL     1      -7.016  -5.462 -20.111  1.00  0.00    -0.000 C 
BRANCH  15  16
ATOM     16  C   UNL     1      -8.158  -5.960 -19.208  1.00  0.00    -0.000 C 
BRANCH  16  17
ATOM     17  C   UNL     1      -8.962  -7.100 -19.851  1.00  0.00    -0.003 C 
ATOM     18  C   UNL     1      -8.202  -8.426 -19.860  1.00  0.00     0.004 C 
ENDBRANCH  16  17
ENDBRANCH  15  16
ENDBRANCH  14  15
ENDBRANCH  13  14
ENDBRANCH  12  13
ENDBRANCH  11  12
ENDBRANCH   1  11
TORSDOF 14
ENDMDL
MODEL 6
REMARK VINA RESULT:    -6.693      1.110      2.014
REMARK INTER + INTRA:         -13.282
REMARK INTER:                 -12.137
REMARK INTRA:                  -1.144
REMARK UNBOUND:                -1.110
REMARK SMILES CCCCCCCCCCCCCCCC(=O)[O-]
REMARK SMILES IDX 9 1 10 2 11 3 12 4 13 5 14 6 15 7 16 8 17 9 18 10 8 11 7 12
REMARK SMILES IDX 6 13 5 14 4 15 3 16 2 17 1 18
REMARK H PARENT
REMARK Flexibility Score: inf
ROOT
ATOM      1  C   UNL     1      -7.407  -1.890 -19.651  1.00  0.00     0.000 C 
ENDROOT
BRANCH   1   2
ATOM      2  C   UNL     1      -6.267  -0.957 -19.207  1.00  0.00     0.000 C 
BRANCH   2   3
ATOM      3  C   UNL     1      -4.889  -1.417 -19.714  1.00  0.00     0.000 C 
BRANCH   3   4
ATOM      4  C   UNL     1      -4.252  -2.499 -18.823  1.00  0.00     0.000 C 
BRANCH   4   5
ATOM      5  C   UNL     1      -2.793  -2.234 -18.409  1.00  0.00     0.000 C 
BRANCH   5   6
ATOM      6  C   UNL     1      -2.351  -0.784 -18.655  1.00  0.00     0.006 C 
BRANCH   6   7
ATOM      7  C   UNL     1      -2.133  -0.045 -17.331  1.00  0.00     0.053 C 
BRANCH   7   8
ATOM      8  C   UNL     1      -3.216   0.963 -17.109  1.00  0.00     0.041 C 
ATOM      9  O   UNL     1      -4.277   0.634 -16.514  1.00  0.00    -0.550 OA
ATOM     10  O   UNL     1      -3.077   2.253 -17.603  1.00  0.00    -0.550 OA
ENDBRANCH   7   8
ENDBRANCH   6   7
ENDBRANCH   5   6
ENDBRANCH   4   5
ENDBRANCH   3   4
ENDBRANCH   2   3
ENDBRANCH   1   2
BRANCH   1  11
ATOM     11  C   UNL     1      -7.274  -2.379 -21.109  1.00  0.00     0.000 C 
BRANCH  11  12
ATOM     12  C   UNL     1      -6.959  -3.883 -21.188  1.00  0.00    -0.000 C 
BRANCH  12  13
ATOM     13  C   UNL     1      -7.161  -4.601 -19.845  1.00  0.00    -0.000 C 
BRANCH  13  14
ATOM     14  C   UNL     1      -7.214  -6.132 -19.996  1.00  0.00    -0.000 C 
BRANCH  14  15
ATOM     15  C   UNL     1      -8.627  -6.697 -19.778  1.00  0.00    -0.000 C 
BRANCH  15  16
ATOM     16  C   UNL     1      -8.627  -8.221 -19.565  1.00  0.00    -0.000 C 
BRANCH  16  17
ATOM     17  C   UNL     1      -7.963  -8.977 -20.726  1.00  0.00    -0.003 C 
ATOM     18  C   UNL     1      -7.889 -10.484 -20.482  1.00  0.00     0.004 C 
ENDBRANCH  16  17
ENDBRANCH  15  16
ENDBRANCH  14  15
ENDBRANCH  13  14
ENDBRANCH  12  13
ENDBRANCH  11  12
ENDBRANCH   1  11
TORSDOF 14
ENDMDL
MODEL 7
REMARK VINA RESULT:    -6.681      4.117      9.042
REMARK INTER + INTRA:         -13.260
REMARK INTER:                 -12.424
REMARK INTRA:                  -0.836
REMARK UNBOUND:                -1.110
REMARK SMILES CCCCCCCCCCCCCCCC(=O)[O-]
REMARK SMILES IDX 9 1 10 2 11 3 12 4 13 5 14 6 15 7 16 8 17 9 18 10 8 11 7 12
REMARK SMILES IDX 6 13 5 14 4 15 3 16 2 17 1 18
REMARK H PARENT
REMARK Flexibility Score: inf
ROOT
ATOM      1  C   UNL     1      -7.237  -1.611 -19.391  1.00  0.00     0.000 C 
ENDROOT
BRANCH   1   2
ATOM      2  C   UNL     1      -7.394  -1.911 -20.891  1.00  0.00     0.000 C 
BRANCH   2   3
ATOM      3  C   UNL     1      -6.763  -3.253 -21.299  1.00  0.00     0.000 C 
BRANCH   3   4
ATOM      4  C   UNL     1      -6.815  -4.306 -20.178  1.00  0.00     0.000 C 
BRANCH   4   5
ATOM      5  C   UNL     1      -8.119  -5.122 -20.102  1.00  0.00     0.000 C 
BRANCH   5   6
ATOM      6  C   UNL     1      -7.917  -6.525 -19.512  1.00  0.00     0.006 C 
BRANCH   6   7
ATOM      7  C   UNL     1      -8.873  -7.534 -20.158  1.00  0.00     0.053 C 
BRANCH   7   8
ATOM      8  C   UNL     1      -8.422  -8.933 -19.882  1.00  0.00     0.041 C 
ATOM      9  O   UNL     1      -8.460  -9.393 -18.710  1.00  0.00    -0.550 OA
ATOM     10  O   UNL     1      -7.912  -9.714 -20.911  1.00  0.00    -0.550 OA
ENDBRANCH   7   8
ENDBRANCH   6   7
ENDBRANCH   5   6
ENDBRANCH   4   5
ENDBRANCH   3   4
ENDBRANCH   2   3
ENDBRANCH   1   2
BRANCH   1  11
ATOM     11  C   UNL     1      -6.342  -0.389 -19.093  1.00  0.00     0.000 C 
BRANCH  11  12
ATOM     12  C   UNL     1      -5.208  -0.728 -18.111  1.00  0.00    -0.000 C 
BRANCH  12  13
ATOM     13  C   UNL     1      -3.982  -1.336 -18.810  1.00  0.00    -0.000 C 
BRANCH  13  14
ATOM     14  C   UNL     1      -2.680  -0.588 -18.476  1.00  0.00    -0.000 C 
BRANCH  14  15
ATOM     15  C   UNL     1      -2.874   0.475 -17.384  1.00  0.00    -0.000 C 
BRANCH  15  16
ATOM     16  C   UNL     1      -1.995   1.718 -17.607  1.00  0.00    -0.000 C 
BRANCH  16  17
ATOM     17  C   UNL     1      -2.798   3.026 -17.535  1.00  0.00    -0.003 C 
ATOM     18  C   UNL     1      -1.907   4.268 -17.571  1.00  0.00     0.004 C 
ENDBRANCH  16  17
ENDBRANCH  15  16
ENDBRANCH  14  15
ENDBRANCH  13  14
ENDBRANCH  12  13
ENDBRANCH  11  12
ENDBRANCH   1  11
TORSDOF 14
ENDMDL
MODEL 8
REMARK VINA RESULT:    -6.469      2.634      4.516
REMARK INTER + INTRA:         -12.874
REMARK INTER:                 -12.232
REMARK INTRA:                  -0.642
REMARK UNBOUND:                -1.110
REMARK SMILES CCCCCCCCCCCCCCCC(=O)[O-]
REMARK SMILES IDX 9 1 10 2 11 3 12 4 13 5 14 6 15 7 16 8 17 9 18 10 8 11 7 12
REMARK SMILES IDX 6 13 5 14 4 15 3 16 2 17 1 18
REMARK H PARENT
REMARK Flexibility Score: inf
ROOT
ATOM      1  C   UNL     1      -4.327  -1.094 -19.386  1.00  0.00     0.000 C 
ENDROOT
BRANCH   1   2
ATOM      2  C   UNL     1      -4.058   0.043 -18.385  1.00  0.00     0.000 C 
BRANCH   2   3
ATOM      3  C   UNL     1      -2.709  -0.106 -17.662  1.00  0.00     0.000 C 
BRANCH   3   4
ATOM      4  C   UNL     1      -2.077   1.246 -17.284  1.00  0.00     0.000 C 
BRANCH   4   5
ATOM      5  C   UNL     1      -2.690   2.475 -17.980  1.00  0.00     0.000 C 
BRANCH   5   6
ATOM      6  C   UNL     1      -2.116   3.804 -17.470  1.00  0.00     0.006 C 
BRANCH   6   7
ATOM      7  C   UNL     1      -3.237   4.777 -17.090  1.00  0.00     0.053 C 
BRANCH   7   8
ATOM      8  C   UNL     1      -2.706   6.171 -16.976  1.00  0.00     0.041 C 
ATOM      9  O   UNL     1      -2.728   6.769 -15.867  1.00  0.00    -0.550 OA
ATOM     10  O   UNL     1      -2.234   6.829 -18.104  1.00  0.00    -0.550 OA
ENDBRANCH   7   8
ENDBRANCH   6   7
ENDBRANCH   5   6
ENDBRANCH   4   5
ENDBRANCH   3   4
ENDBRANCH   2   3
ENDBRANCH   1   2
BRANCH   1  11
ATOM     11  C   UNL     1      -3.780  -2.463 -18.928  1.00  0.00     0.000 C 
BRANCH  11  12
ATOM     12  C   UNL     1      -4.873  -3.337 -18.289  1.00  0.00    -0.000 C 
BRANCH  12  13
ATOM     13  C   UNL     1      -6.176  -3.346 -19.103  1.00  0.00    -0.000 C 
BRANCH  13  14
ATOM     14  C   UNL     1      -6.769  -4.758 -19.254  1.00  0.00    -0.000 C 
BRANCH  14  15
ATOM     15  C   UNL     1      -8.220  -4.738 -19.757  1.00  0.00    -0.000 C 
BRANCH  15  16
ATOM     16  C   UNL     1      -8.905  -6.111 -19.643  1.00  0.00    -0.000 C 
BRANCH  16  17
ATOM     17  C   UNL     1      -7.926  -7.276 -19.852  1.00  0.00    -0.003 C 
ATOM     18  C   UNL     1      -8.554  -8.636 -19.552  1.00  0.00     0.004 C 
ENDBRANCH  16  17
ENDBRANCH  15  16
ENDBRANCH  14  15
ENDBRANCH  13  14
ENDBRANCH  12  13
ENDBRANCH  11  12
ENDBRANCH   1  11
TORSDOF 14
ENDMDL
MODEL 9
REMARK VINA RESULT:    -6.415      2.777      4.962
REMARK INTER + INTRA:         -12.776
REMARK INTER:                 -12.046
REMARK INTRA:                  -0.730
REMARK UNBOUND:                -1.110
REMARK SMILES CCCCCCCCCCCCCCCC(=O)[O-]
REMARK SMILES IDX 9 1 10 2 11 3 12 4 13 5 14 6 15 7 16 8 17 9 18 10 8 11 7 12
REMARK SMILES IDX 6 13 5 14 4 15 3 16 2 17 1 18
REMARK H PARENT
REMARK Flexibility Score: inf
ROOT
ATOM      1  C   UNL     1      -4.678  -0.337 -17.877  1.00  0.00     0.000 C 
ENDROOT
BRANCH   1   2
ATOM      2  C   UNL     1      -3.565   0.220 -16.972  1.00  0.00     0.000 C 
BRANCH   2   3
ATOM      3  C   UNL     1      -2.236   0.423 -17.719  1.00  0.00     0.000 C 
BRANCH   3   4
ATOM      4  C   UNL     1      -1.906   1.906 -17.965  1.00  0.00     0.000 C 
BRANCH   4   5
ATOM      5  C   UNL     1      -2.983   2.905 -17.504  1.00  0.00     0.000 C 
BRANCH   5   6
ATOM      6  C   UNL     1      -2.484   4.357 -17.474  1.00  0.00     0.006 C 
BRANCH   6   7
ATOM      7  C   UNL     1      -3.634   5.337 -17.724  1.00  0.00     0.053 C 
BRANCH   7   8
ATOM      8  C   UNL     1      -3.941   6.114 -16.483  1.00  0.00     0.041 C 
ATOM      9  O   UNL     1      -4.974   5.854 -15.810  1.00  0.00    -0.550 OA
ATOM     10  O   UNL     1      -3.113   7.160 -16.095  1.00  0.00    -0.550 OA
ENDBRANCH   7   8
ENDBRANCH   6   7
ENDBRANCH   5   6
ENDBRANCH   4   5
ENDBRANCH   3   4
ENDBRANCH   2   3
ENDBRANCH   1   2
BRANCH   1  11
ATOM     11  C   UNL     1      -4.153  -0.993 -19.172  1.00  0.00     0.000 C 
BRANCH  11  12
ATOM     12  C   UNL     1      -4.041  -2.522 -19.041  1.00  0.00    -0.000 C 
BRANCH  12  13
ATOM     13  C   UNL     1      -5.376  -3.183 -18.665  1.00  0.00    -0.000 C 
BRANCH  13  14
ATOM     14  C   UNL     1      -6.306  -3.368 -19.877  1.00  0.00    -0.000 C 
BRANCH  14  15
ATOM     15  C   UNL     1      -7.529  -4.239 -19.554  1.00  0.00    -0.000 C 
BRANCH  15  16
ATOM     16  C   UNL     1      -7.257  -5.739 -19.760  1.00  0.00    -0.000 C 
BRANCH  16  17
ATOM     17  C   UNL     1      -8.530  -6.591 -19.641  1.00  0.00    -0.003 C 
ATOM     18  C   UNL     1      -8.252  -8.089 -19.759  1.00  0.00     0.004 C 
ENDBRANCH  16  17
ENDBRANCH  15  16
ENDBRANCH  14  15
ENDBRANCH  13  14
ENDBRANCH  12  13
ENDBRANCH  11  12
ENDBRANCH   1  11
TORSDOF 14
ENDMDL
