MODEL 1
REMARK VINA RESULT:    -4.071      0.000      0.000
REMARK INTER + INTRA:          -5.317
REMARK INTER:                  -5.024
REMARK INTRA:                  -0.294
REMARK UNBOUND:                -0.294
REMARK SMILES O=c1c(O)c(-c2cc(O)c(O)c(O)c2)oc2cc(O)cc(O)c12
REMARK SMILES IDX 5 1 3 2 2 3 1 4 23 5 21 6 20 7 18 8 17 9 16 10 15 11 6 12
REMARK SMILES IDX 7 13 8 14 14 15 10 16 12 17 9 18 11 20 13 22 4 24 22 26
REMARK SMILES IDX 19 28
REMARK H PARENT 9 19 11 21 13 23 4 25 22 27 19 29
REMARK Flexibility Score: inf
ROOT
ATOM      1  C   UNL     1     -12.556 -16.411  31.904  1.00  0.00     0.180 A 
ATOM      2  C   UNL     1     -13.228 -17.645  31.948  1.00  0.00     0.208 A 
ATOM      3  C   UNL     1     -13.285 -18.431  30.785  1.00  0.00     0.238 A 
ATOM      4  O   UNL     1     -13.934 -19.509  30.816  1.00  0.00    -0.285 OA
ATOM      5  C   UNL     1     -12.657 -17.981  29.599  1.00  0.00     0.111 A 
ATOM      6  C   UNL     1     -12.617 -18.714  28.375  1.00  0.00     0.134 A 
ATOM      7  C   UNL     1     -12.081 -18.115  27.229  1.00  0.00     0.093 A 
ATOM      8  C   UNL     1     -11.524 -16.837  27.277  1.00  0.00     0.123 A 
ATOM      9  C   UNL     1     -11.503 -16.135  28.482  1.00  0.00     0.094 A 
ATOM     10  C   UNL     1     -12.064 -16.692  29.635  1.00  0.00     0.146 A 
ATOM     11  O   UNL     1     -12.034 -15.987  30.759  1.00  0.00    -0.452 OA
ENDROOT
BRANCH   1  12
ATOM     12  C   UNL     1     -12.433 -15.539  33.094  1.00  0.00     0.029 A 
ATOM     13  C   UNL     1     -13.520 -14.782  33.562  1.00  0.00     0.062 A 
ATOM     14  C   UNL     1     -13.391 -13.982  34.705  1.00  0.00     0.162 A 
ATOM     15  C   UNL     1     -11.224 -15.510  33.807  1.00  0.00     0.062 A 
ATOM     16  C   UNL     1     -12.174 -13.939  35.398  1.00  0.00     0.200 A 
ATOM     17  C   UNL     1     -11.088 -14.709  34.949  1.00  0.00     0.162 A 
BRANCH  14  18
ATOM     18  O   UNL     1     -14.470 -13.226  35.162  1.00  0.00    -0.504 OA
ATOM     19  H   UNL     1     -15.317 -13.126  34.614  1.00  0.00     0.293 HD
ENDBRANCH  14  18
BRANCH  16  20
ATOM     20  O   UNL     1     -12.063 -13.133  36.531  1.00  0.00    -0.502 OA
ATOM     21  H   UNL     1     -11.221 -13.108  37.093  1.00  0.00     0.293 HD
ENDBRANCH  16  20
BRANCH  17  22
ATOM     22  O   UNL     1      -9.876 -14.677  35.640  1.00  0.00    -0.504 OA
ATOM     23  H   UNL     1      -9.580 -15.446  36.229  1.00  0.00     0.293 HD
ENDBRANCH  17  22
ENDBRANCH   1  12
BRANCH   2  24
ATOM     24  O   UNL     1     -13.860 -18.060  33.124  1.00  0.00    -0.502 OA
ATOM     25  H   UNL     1     -14.753 -18.537  33.121  1.00  0.00     0.293 HD
ENDBRANCH   2  24
BRANCH   6  26
ATOM     26  O   UNL     1     -13.063 -20.032  28.240  1.00  0.00    -0.507 OA
ATOM     27  H   UNL     1     -12.767 -20.668  27.514  1.00  0.00     0.293 HD
ENDBRANCH   6  26
BRANCH   8  28
ATOM     28  O   UNL     1     -10.985 -16.278  26.120  1.00  0.00    -0.508 OA
ATOM     29  H   UNL     1     -10.694 -15.308  26.086  1.00  0.00     0.293 HD
ENDBRANCH   8  28
TORSDOF 7
ENDMDL
MODEL 2
REMARK VINA RESULT:    -3.927      0.058      1.750
REMARK INTER + INTRA:          -5.140
REMARK INTER:                  -4.840
REMARK INTRA:                  -0.299
REMARK UNBOUND:                -0.294
REMARK SMILES O=c1c(O)c(-c2cc(O)c(O)c(O)c2)oc2cc(O)cc(O)c12
REMARK SMILES IDX 5 1 3 2 2 3 1 4 23 5 21 6 20 7 18 8 17 9 16 10 15 11 6 12
REMARK SMILES IDX 7 13 8 14 14 15 10 16 12 17 9 18 11 20 13 22 4 24 22 26
REMARK SMILES IDX 19 28
REMARK H PARENT 9 19 11 21 13 23 4 25 22 27 19 29
REMARK Flexibility Score: inf
ROOT
ATOM      1  C   UNL     1     -12.546 -16.479  31.925  1.00  0.00     0.180 A 
ATOM      2  C   UNL     1     -13.228 -17.708  31.942  1.00  0.00     0.208 A 
ATOM      3  C   UNL     1     -13.297 -18.465  30.761  1.00  0.00     0.238 A 
ATOM      4  O   UNL     1     -13.954 -19.539  30.769  1.00  0.00    -0.285 OA
ATOM      5  C   UNL     1     -12.670 -17.992  29.583  1.00  0.00     0.111 A 
ATOM      6  C   UNL     1     -12.642 -18.696  28.341  1.00  0.00     0.134 A 
ATOM      7  C   UNL     1     -12.106 -18.073  27.208  1.00  0.00     0.093 A 
ATOM      8  C   UNL     1     -11.539 -16.801  27.284  1.00  0.00     0.123 A 
ATOM      9  C   UNL     1     -11.507 -16.129  28.506  1.00  0.00     0.094 A 
ATOM     10  C   UNL     1     -12.067 -16.708  29.647  1.00  0.00     0.146 A 
ATOM     11  O   UNL     1     -12.025 -16.031  30.788  1.00  0.00    -0.452 OA
ENDROOT
BRANCH   1  12
ATOM     12  C   UNL     1     -12.410 -15.637  33.135  1.00  0.00     0.029 A 
ATOM     13  C   UNL     1     -11.195 -15.557  33.838  1.00  0.00     0.062 A 
ATOM     14  C   UNL     1     -11.080 -14.736  34.967  1.00  0.00     0.162 A 
ATOM     15  C   UNL     1     -13.496 -14.857  33.559  1.00  0.00     0.062 A 
ATOM     16  C   UNL     1     -12.175 -13.977  35.398  1.00  0.00     0.200 A 
ATOM     17  C   UNL     1     -13.387 -14.035  34.690  1.00  0.00     0.162 A 
BRANCH  14  18
ATOM     18  O   UNL     1      -9.875 -14.665  35.666  1.00  0.00    -0.504 OA
ATOM     19  H   UNL     1      -9.572 -15.414  36.278  1.00  0.00     0.293 HD
ENDBRANCH  14  18
BRANCH  16  20
ATOM     20  O   UNL     1     -12.042 -13.169  36.527  1.00  0.00    -0.502 OA
ATOM     21  H   UNL     1     -11.782 -13.544  37.431  1.00  0.00     0.293 HD
ENDBRANCH  16  20
BRANCH  17  22
ATOM     22  O   UNL     1     -14.479 -13.275  35.110  1.00  0.00    -0.504 OA
ATOM     23  H   UNL     1     -14.544 -12.916  36.054  1.00  0.00     0.293 HD
ENDBRANCH  17  22
ENDBRANCH   1  12
BRANCH   2  24
ATOM     24  O   UNL     1     -13.857 -18.147  33.111  1.00  0.00    -0.502 OA
ATOM     25  H   UNL     1     -13.396 -18.140  34.012  1.00  0.00     0.293 HD
ENDBRANCH   2  24
BRANCH   6  26
ATOM     26  O   UNL     1     -13.099 -20.006  28.177  1.00  0.00    -0.507 OA
ATOM     27  H   UNL     1     -13.180 -20.480  27.289  1.00  0.00     0.293 HD
ENDBRANCH   6  26
BRANCH   8  28
ATOM     28  O   UNL     1     -11.001 -16.219  26.138  1.00  0.00    -0.508 OA
ATOM     29  H   UNL     1     -10.093 -15.768  26.149  1.00  0.00     0.293 HD
ENDBRANCH   8  28
TORSDOF 7
ENDMDL
MODEL 3
REMARK VINA RESULT:    -3.422      1.179      2.109
REMARK INTER + INTRA:          -4.517
REMARK INTER:                  -4.317
REMARK INTRA:                  -0.199
REMARK UNBOUND:                -0.294
REMARK SMILES O=c1c(O)c(-c2cc(O)c(O)c(O)c2)oc2cc(O)cc(O)c12
REMARK SMILES IDX 5 1 3 2 2 3 1 4 23 5 21 6 20 7 18 8 17 9 16 10 15 11 6 12
REMARK SMILES IDX 7 13 8 14 14 15 10 16 12 17 9 18 11 20 13 22 4 24 22 26
REMARK SMILES IDX 19 28
REMARK H PARENT 9 19 11 21 13 23 4 25 22 27 19 29
REMARK Flexibility Score: inf
ROOT
ATOM      1  C   UNL     1     -12.667 -16.249  31.925  1.00  0.00     0.180 A 
ATOM      2  C   UNL     1     -12.562 -17.650  31.892  1.00  0.00     0.208 A 
ATOM      3  C   UNL     1     -12.729 -18.317  30.667  1.00  0.00     0.238 A 
ATOM      4  O   UNL     1     -12.687 -19.575  30.654  1.00  0.00    -0.285 OA
ATOM      5  C   UNL     1     -12.981 -17.573  29.489  1.00  0.00     0.111 A 
ATOM      6  C   UNL     1     -13.126 -18.142  28.187  1.00  0.00     0.134 A 
ATOM      7  C   UNL     1     -13.504 -17.325  27.116  1.00  0.00     0.093 A 
ATOM      8  C   UNL     1     -13.678 -15.951  27.283  1.00  0.00     0.123 A 
ATOM      9  C   UNL     1     -13.480 -15.375  28.538  1.00  0.00     0.094 A 
ATOM     10  C   UNL     1     -13.139 -16.170  29.636  1.00  0.00     0.146 A 
ATOM     11  O   UNL     1     -12.970 -15.586  30.815  1.00  0.00    -0.452 OA
ENDROOT
BRANCH   1  12
ATOM     12  C   UNL     1     -12.480 -15.474  33.173  1.00  0.00     0.029 A 
ATOM     13  C   UNL     1     -11.255 -15.482  33.862  1.00  0.00     0.062 A 
ATOM     14  C   UNL     1     -11.090 -14.723  35.028  1.00  0.00     0.162 A 
ATOM     15  C   UNL     1     -13.525 -14.669  33.649  1.00  0.00     0.062 A 
ATOM     16  C   UNL     1     -12.145 -13.940  35.511  1.00  0.00     0.200 A 
ATOM     17  C   UNL     1     -13.367 -13.909  34.817  1.00  0.00     0.162 A 
BRANCH  14  18
ATOM     18  O   UNL     1      -9.875 -14.740  35.713  1.00  0.00    -0.504 OA
ATOM     19  H   UNL     1      -9.821 -14.525  36.702  1.00  0.00     0.293 HD
ENDBRANCH  14  18
BRANCH  16  20
ATOM     20  O   UNL     1     -11.964 -13.194  36.676  1.00  0.00    -0.502 OA
ATOM     21  H   UNL     1     -11.534 -13.586  37.505  1.00  0.00     0.293 HD
ENDBRANCH  16  20
BRANCH  17  22
ATOM     22  O   UNL     1     -14.419 -13.124  35.288  1.00  0.00    -0.504 OA
ATOM     23  H   UNL     1     -15.275 -13.537  35.636  1.00  0.00     0.293 HD
ENDBRANCH  17  22
ENDBRANCH   1  12
BRANCH   2  24
ATOM     24  O   UNL     1     -12.333 -18.366  33.071  1.00  0.00    -0.502 OA
ATOM     25  H   UNL     1     -12.251 -17.914  33.973  1.00  0.00     0.293 HD
ENDBRANCH   2  24
BRANCH   6  26
ATOM     26  O   UNL     1     -12.886 -19.487  27.892  1.00  0.00    -0.507 OA
ATOM     27  H   UNL     1     -13.291 -19.987  27.115  1.00  0.00     0.293 HD
ENDBRANCH   6  26
BRANCH   8  28
ATOM     28  O   UNL     1     -14.039 -15.166  26.190  1.00  0.00    -0.508 OA
ATOM     29  H   UNL     1     -13.680 -15.353  25.261  1.00  0.00     0.293 HD
ENDBRANCH   8  28
TORSDOF 7
ENDMDL
MODEL 4
REMARK VINA RESULT:    -3.400      1.219      1.219
REMARK INTER + INTRA:          -4.489
REMARK INTER:                  -4.360
REMARK INTRA:                  -0.129
REMARK UNBOUND:                -0.294
REMARK SMILES O=c1c(O)c(-c2cc(O)c(O)c(O)c2)oc2cc(O)cc(O)c12
REMARK SMILES IDX 5 1 3 2 2 3 1 4 23 5 21 6 20 7 18 8 17 9 16 10 15 11 6 12
REMARK SMILES IDX 7 13 8 14 14 15 10 16 12 17 9 18 11 20 13 22 4 24 22 26
REMARK SMILES IDX 19 28
REMARK H PARENT 9 19 11 21 13 23 4 25 22 27 19 29
REMARK Flexibility Score: inf
ROOT
ATOM      1  C   UNL     1     -12.687 -16.145  31.898  1.00  0.00     0.180 A 
ATOM      2  C   UNL     1     -12.559 -17.544  31.877  1.00  0.00     0.208 A 
ATOM      3  C   UNL     1     -12.722 -18.225  30.659  1.00  0.00     0.238 A 
ATOM      4  O   UNL     1     -12.658 -19.482  30.657  1.00  0.00    -0.285 OA
ATOM      5  C   UNL     1     -12.995 -17.496  29.476  1.00  0.00     0.111 A 
ATOM      6  C   UNL     1     -13.138 -18.079  28.181  1.00  0.00     0.134 A 
ATOM      7  C   UNL     1     -13.537 -17.278  27.105  1.00  0.00     0.093 A 
ATOM      8  C   UNL     1     -13.734 -15.906  27.261  1.00  0.00     0.123 A 
ATOM      9  C   UNL     1     -13.538 -15.316  28.510  1.00  0.00     0.094 A 
ATOM     10  C   UNL     1     -13.175 -16.095  29.612  1.00  0.00     0.146 A 
ATOM     11  O   UNL     1     -13.009 -15.497  30.785  1.00  0.00    -0.452 OA
ENDROOT
BRANCH   1  12
ATOM     12  C   UNL     1     -12.505 -15.356  33.138  1.00  0.00     0.029 A 
ATOM     13  C   UNL     1     -13.549 -14.580  33.670  1.00  0.00     0.062 A 
ATOM     14  C   UNL     1     -13.365 -13.860  34.858  1.00  0.00     0.162 A 
ATOM     15  C   UNL     1     -11.287 -15.429  33.830  1.00  0.00     0.062 A 
ATOM     16  C   UNL     1     -12.138 -13.918  35.532  1.00  0.00     0.200 A 
ATOM     17  C   UNL     1     -11.096 -14.709  35.018  1.00  0.00     0.162 A 
BRANCH  14  18
ATOM     18  O   UNL     1     -14.400 -13.085  35.380  1.00  0.00    -0.504 OA
ATOM     19  H   UNL     1     -15.280 -12.975  34.888  1.00  0.00     0.293 HD
ENDBRANCH  14  18
BRANCH  16  20
ATOM     20  O   UNL     1     -11.972 -13.191  36.711  1.00  0.00    -0.502 OA
ATOM     21  H   UNL     1     -11.425 -12.339  36.746  1.00  0.00     0.293 HD
ENDBRANCH  16  20
BRANCH  17  22
ATOM     22  O   UNL     1      -9.875 -14.777  35.689  1.00  0.00    -0.504 OA
ATOM     23  H   UNL     1      -9.027 -14.398  35.287  1.00  0.00     0.293 HD
ENDBRANCH  17  22
ENDBRANCH   1  12
BRANCH   2  24
ATOM     24  O   UNL     1     -12.309 -18.246  33.060  1.00  0.00    -0.502 OA
ATOM     25  H   UNL     1     -12.548 -19.224  33.173  1.00  0.00     0.293 HD
ENDBRANCH   2  24
BRANCH   6  26
ATOM     26  O   UNL     1     -12.877 -19.423  27.896  1.00  0.00    -0.507 OA
ATOM     27  H   UNL     1     -13.572 -20.154  27.884  1.00  0.00     0.293 HD
ENDBRANCH   6  26
BRANCH   8  28
ATOM     28  O   UNL     1     -14.115 -15.137  26.163  1.00  0.00    -0.508 OA
ATOM     29  H   UNL     1     -13.472 -14.492  25.719  1.00  0.00     0.293 HD
ENDBRANCH   8  28
TORSDOF 7
ENDMDL
MODEL 5
REMARK VINA RESULT:    -3.348      1.318      3.273
REMARK INTER + INTRA:          -4.425
REMARK INTER:                  -4.320
REMARK INTRA:                  -0.106
REMARK UNBOUND:                -0.294
REMARK SMILES O=c1c(O)c(-c2cc(O)c(O)c(O)c2)oc2cc(O)cc(O)c12
REMARK SMILES IDX 5 1 3 2 2 3 1 4 23 5 21 6 20 7 18 8 17 9 16 10 15 11 6 12
REMARK SMILES IDX 7 13 8 14 14 15 10 16 12 17 9 18 11 20 13 22 4 24 22 26
REMARK SMILES IDX 19 28
REMARK H PARENT 9 19 11 21 13 23 4 25 22 27 19 29
REMARK Flexibility Score: inf
ROOT
ATOM      1  C   UNL     1     -11.843 -16.176  32.073  1.00  0.00     0.180 A 
ATOM      2  C   UNL     1     -10.853 -15.891  31.117  1.00  0.00     0.208 A 
ATOM      3  C   UNL     1     -10.843 -16.613  29.912  1.00  0.00     0.238 A 
ATOM      4  O   UNL     1      -9.922 -16.390  29.083  1.00  0.00    -0.285 OA
ATOM      5  C   UNL     1     -11.830 -17.598  29.673  1.00  0.00     0.111 A 
ATOM      6  C   UNL     1     -11.939 -18.361  28.471  1.00  0.00     0.134 A 
ATOM      7  C   UNL     1     -12.875 -19.400  28.395  1.00  0.00     0.093 A 
ATOM      8  C   UNL     1     -13.749 -19.661  29.450  1.00  0.00     0.123 A 
ATOM      9  C   UNL     1     -13.691 -18.882  30.607  1.00  0.00     0.094 A 
ATOM     10  C   UNL     1     -12.744 -17.862  30.726  1.00  0.00     0.146 A 
ATOM     11  O   UNL     1     -12.715 -17.151  31.847  1.00  0.00    -0.452 OA
ENDROOT
BRANCH   1  12
ATOM     12  C   UNL     1     -11.934 -15.441  33.355  1.00  0.00     0.029 A 
ATOM     13  C   UNL     1     -10.852 -15.398  34.251  1.00  0.00     0.062 A 
ATOM     14  C   UNL     1     -10.949 -14.677  35.449  1.00  0.00     0.162 A 
ATOM     15  C   UNL     1     -13.101 -14.723  33.659  1.00  0.00     0.062 A 
ATOM     16  C   UNL     1     -12.125 -13.981  35.757  1.00  0.00     0.200 A 
ATOM     17  C   UNL     1     -13.204 -14.001  34.857  1.00  0.00     0.162 A 
BRANCH  14  18
ATOM     18  O   UNL     1      -9.876 -14.643  36.339  1.00  0.00    -0.504 OA
ATOM     19  H   UNL     1      -9.006 -15.123  36.140  1.00  0.00     0.293 HD
ENDBRANCH  14  18
BRANCH  16  20
ATOM     20  O   UNL     1     -12.205 -13.272  36.955  1.00  0.00    -0.502 OA
ATOM     21  H   UNL     1     -12.272 -13.737  37.852  1.00  0.00     0.293 HD
ENDBRANCH  16  20
BRANCH  17  22
ATOM     22  O   UNL     1     -14.375 -13.304  35.154  1.00  0.00    -0.504 OA
ATOM     23  H   UNL     1     -14.913 -12.838  34.434  1.00  0.00     0.293 HD
ENDBRANCH  17  22
ENDBRANCH   1  12
BRANCH   2  24
ATOM     24  O   UNL     1      -9.875 -14.928  31.382  1.00  0.00    -0.502 OA
ATOM     25  H   UNL     1      -9.694 -14.581  32.316  1.00  0.00     0.293 HD
ENDBRANCH   2  24
BRANCH   6  26
ATOM     26  O   UNL     1     -11.176 -18.123  27.323  1.00  0.00    -0.507 OA
ATOM     27  H   UNL     1     -11.463 -18.356  26.384  1.00  0.00     0.293 HD
ENDBRANCH   6  26
BRANCH   8  28
ATOM     28  O   UNL     1     -14.678 -20.693  29.334  1.00  0.00    -0.508 OA
ATOM     29  H   UNL     1     -15.646 -20.567  29.606  1.00  0.00     0.293 HD
ENDBRANCH   8  28
TORSDOF 7
ENDMDL
MODEL 6
REMARK VINA RESULT:    -3.054      1.663      7.163
REMARK INTER + INTRA:          -4.062
REMARK INTER:                  -3.848
REMARK INTRA:                  -0.215
REMARK UNBOUND:                -0.294
REMARK SMILES O=c1c(O)c(-c2cc(O)c(O)c(O)c2)oc2cc(O)cc(O)c12
REMARK SMILES IDX 5 1 3 2 2 3 1 4 23 5 21 6 20 7 18 8 17 9 16 10 15 11 6 12
REMARK SMILES IDX 7 13 8 14 14 15 10 16 12 17 9 18 11 20 13 22 4 24 22 26
REMARK SMILES IDX 19 28
REMARK H PARENT 9 19 11 21 13 23 4 25 22 27 19 29
REMARK Flexibility Score: inf
ROOT
ATOM      1  C   UNL     1     -13.082 -16.347  32.503  1.00  0.00     0.180 A 
ATOM      2  C   UNL     1     -14.283 -15.626  32.623  1.00  0.00     0.208 A 
ATOM      3  C   UNL     1     -14.366 -14.594  33.571  1.00  0.00     0.238 A 
ATOM      4  O   UNL     1     -15.460 -13.988  33.710  1.00  0.00    -0.285 OA
ATOM      5  C   UNL     1     -13.243 -14.285  34.376  1.00  0.00     0.111 A 
ATOM      6  C   UNL     1     -13.202 -13.233  35.340  1.00  0.00     0.134 A 
ATOM      7  C   UNL     1     -12.083 -13.102  36.171  1.00  0.00     0.093 A 
ATOM      8  C   UNL     1     -10.978 -13.942  36.030  1.00  0.00     0.123 A 
ATOM      9  C   UNL     1     -10.983 -14.935  35.050  1.00  0.00     0.094 A 
ATOM     10  C   UNL     1     -12.100 -15.114  34.230  1.00  0.00     0.146 A 
ATOM     11  O   UNL     1     -12.069 -16.078  33.317  1.00  0.00    -0.452 OA
ENDROOT
BRANCH   1  12
ATOM     12  C   UNL     1     -12.911 -17.432  31.510  1.00  0.00     0.029 A 
ATOM     13  C   UNL     1     -12.782 -18.774  31.908  1.00  0.00     0.062 A 
ATOM     14  C   UNL     1     -12.645 -19.789  30.952  1.00  0.00     0.162 A 
ATOM     15  C   UNL     1     -12.936 -17.126  30.141  1.00  0.00     0.062 A 
ATOM     16  C   UNL     1     -12.648 -19.474  29.588  1.00  0.00     0.200 A 
ATOM     17  C   UNL     1     -12.798 -18.138  29.180  1.00  0.00     0.162 A 
BRANCH  14  18
ATOM     18  O   UNL     1     -12.510 -21.119  31.351  1.00  0.00    -0.504 OA
ATOM     19  H   UNL     1     -13.132 -21.841  31.008  1.00  0.00     0.293 HD
ENDBRANCH  14  18
BRANCH  16  20
ATOM     20  O   UNL     1     -12.506 -20.498  28.651  1.00  0.00    -0.502 OA
ATOM     21  H   UNL     1     -12.726 -21.462  28.869  1.00  0.00     0.293 HD
ENDBRANCH  16  20
BRANCH  17  22
ATOM     22  O   UNL     1     -12.810 -17.818  27.822  1.00  0.00    -0.504 OA
ATOM     23  H   UNL     1     -13.457 -17.139  27.442  1.00  0.00     0.293 HD
ENDBRANCH  17  22
ENDBRANCH   1  12
BRANCH   2  24
ATOM     24  O   UNL     1     -15.387 -15.962  31.832  1.00  0.00    -0.502 OA
ATOM     25  H   UNL     1     -16.220 -15.388  31.791  1.00  0.00     0.293 HD
ENDBRANCH   2  24
BRANCH   6  26
ATOM     26  O   UNL     1     -14.214 -12.282  35.502  1.00  0.00    -0.507 OA
ATOM     27  H   UNL     1     -14.237 -11.585  36.231  1.00  0.00     0.293 HD
ENDBRANCH   6  26
BRANCH   8  28
ATOM     28  O   UNL     1      -9.875 -13.773  36.865  1.00  0.00    -0.508 OA
ATOM     29  H   UNL     1      -9.649 -12.871  37.269  1.00  0.00     0.293 HD
ENDBRANCH   8  28
TORSDOF 7
ENDMDL
MODEL 7
REMARK VINA RESULT:    -2.875      1.548      3.013
REMARK INTER + INTRA:          -3.841
REMARK INTER:                  -3.585
REMARK INTRA:                  -0.255
REMARK UNBOUND:                -0.294
REMARK SMILES O=c1c(O)c(-c2cc(O)c(O)c(O)c2)oc2cc(O)cc(O)c12
REMARK SMILES IDX 5 1 3 2 2 3 1 4 23 5 21 6 20 7 18 8 17 9 16 10 15 11 6 12
REMARK SMILES IDX 7 13 8 14 14 15 10 16 12 17 9 18 11 20 13 22 4 24 22 26
REMARK SMILES IDX 19 28
REMARK H PARENT 9 19 11 21 13 23 4 25 22 27 19 29
REMARK Flexibility Score: inf
ROOT
ATOM      1  C   UNL     1     -12.670 -16.682  32.140  1.00  0.00     0.180 A 
ATOM      2  C   UNL     1     -12.956 -16.326  30.810  1.00  0.00     0.208 A 
ATOM      3  C   UNL     1     -13.104 -17.341  29.851  1.00  0.00     0.238 A 
ATOM      4  O   UNL     1     -13.306 -17.014  28.652  1.00  0.00    -0.285 OA
ATOM      5  C   UNL     1     -12.980 -18.698  30.235  1.00  0.00     0.111 A 
ATOM      6  C   UNL     1     -13.151 -19.809  29.355  1.00  0.00     0.134 A 
ATOM      7  C   UNL     1     -12.876 -21.102  29.815  1.00  0.00     0.093 A 
ATOM      8  C   UNL     1     -12.501 -21.332  31.138  1.00  0.00     0.123 A 
ATOM      9  C   UNL     1     -12.390 -20.260  32.024  1.00  0.00     0.094 A 
ATOM     10  C   UNL     1     -12.622 -18.953  31.585  1.00  0.00     0.146 A 
ATOM     11  O   UNL     1     -12.495 -17.960  32.456  1.00  0.00    -0.452 OA
ENDROOT
BRANCH   1  12
ATOM     12  C   UNL     1     -12.524 -15.671  33.212  1.00  0.00     0.029 A 
ATOM     13  C   UNL     1     -13.621 -14.912  33.655  1.00  0.00     0.062 A 
ATOM     14  C   UNL     1     -13.468 -13.977  34.688  1.00  0.00     0.162 A 
ATOM     15  C   UNL     1     -11.280 -15.504  33.839  1.00  0.00     0.062 A 
ATOM     16  C   UNL     1     -12.218 -13.799  35.294  1.00  0.00     0.200 A 
ATOM     17  C   UNL     1     -11.121 -14.568  34.871  1.00  0.00     0.162 A 
BRANCH  14  18
ATOM     18  O   UNL     1     -14.557 -13.221  35.120  1.00  0.00    -0.504 OA
ATOM     19  H   UNL     1     -15.245 -12.861  34.469  1.00  0.00     0.293 HD
ENDBRANCH  14  18
BRANCH  16  20
ATOM     20  O   UNL     1     -12.084 -12.861  36.317  1.00  0.00    -0.502 OA
ATOM     21  H   UNL     1     -11.492 -13.023  37.122  1.00  0.00     0.293 HD
ENDBRANCH  16  20
BRANCH  17  22
ATOM     22  O   UNL     1      -9.876 -14.401  35.477  1.00  0.00    -0.504 OA
ATOM     23  H   UNL     1      -9.371 -15.182  35.877  1.00  0.00     0.293 HD
ENDBRANCH  17  22
ENDBRANCH   1  12
BRANCH   2  24
ATOM     24  O   UNL     1     -13.053 -14.980  30.448  1.00  0.00    -0.502 OA
ATOM     25  H   UNL     1     -13.308 -14.686  29.513  1.00  0.00     0.293 HD
ENDBRANCH   2  24
BRANCH   6  26
ATOM     26  O   UNL     1     -13.609 -19.698  28.039  1.00  0.00    -0.507 OA
ATOM     27  H   UNL     1     -13.787 -18.826  27.563  1.00  0.00     0.293 HD
ENDBRANCH   6  26
BRANCH   8  28
ATOM     28  O   UNL     1     -12.251 -22.635  31.565  1.00  0.00    -0.508 OA
ATOM     29  H   UNL     1     -11.339 -22.916  31.904  1.00  0.00     0.293 HD
ENDBRANCH   8  28
TORSDOF 7
ENDMDL
MODEL 8
REMARK VINA RESULT:    -1.565      2.505      6.459
REMARK INTER + INTRA:          -2.224
REMARK INTER:                  -2.625
REMARK INTRA:                   0.400
REMARK UNBOUND:                -0.294
REMARK SMILES O=c1c(O)c(-c2cc(O)c(O)c(O)c2)oc2cc(O)cc(O)c12
REMARK SMILES IDX 5 1 3 2 2 3 1 4 23 5 21 6 20 7 18 8 17 9 16 10 15 11 6 12
REMARK SMILES IDX 7 13 8 14 14 15 10 16 12 17 9 18 11 20 13 22 4 24 22 26
REMARK SMILES IDX 19 28
REMARK H PARENT 9 19 11 21 13 23 4 25 22 27 19 29
REMARK Flexibility Score: inf
ROOT
ATOM      1  C   UNL     1     -12.173 -16.526  30.236  1.00  0.00     0.180 A 
ATOM      2  C   UNL     1     -11.775 -17.868  30.368  1.00  0.00     0.208 A 
ATOM      3  C   UNL     1     -11.096 -18.266  31.532  1.00  0.00     0.238 A 
ATOM      4  O   UNL     1     -10.696 -19.456  31.620  1.00  0.00    -0.285 OA
ATOM      5  C   UNL     1     -10.838 -17.322  32.554  1.00  0.00     0.111 A 
ATOM      6  C   UNL     1     -10.194 -17.624  33.792  1.00  0.00     0.134 A 
ATOM      7  C   UNL     1      -9.875 -16.585  34.675  1.00  0.00     0.093 A 
ATOM      8  C   UNL     1     -10.233 -15.267  34.397  1.00  0.00     0.123 A 
ATOM      9  C   UNL     1     -10.916 -14.968  33.217  1.00  0.00     0.094 A 
ATOM     10  C   UNL     1     -11.216 -15.978  32.299  1.00  0.00     0.146 A 
ATOM     11  O   UNL     1     -11.858 -15.651  31.184  1.00  0.00    -0.452 OA
ENDROOT
BRANCH   1  12
ATOM     12  C   UNL     1     -12.913 -16.038  29.051  1.00  0.00     0.029 A 
ATOM     13  C   UNL     1     -13.653 -14.844  29.092  1.00  0.00     0.062 A 
ATOM     14  C   UNL     1     -14.327 -14.385  27.953  1.00  0.00     0.162 A 
ATOM     15  C   UNL     1     -12.829 -16.747  27.843  1.00  0.00     0.062 A 
ATOM     16  C   UNL     1     -14.258 -15.110  26.757  1.00  0.00     0.200 A 
ATOM     17  C   UNL     1     -13.503 -16.294  26.700  1.00  0.00     0.162 A 
BRANCH  14  18
ATOM     18  O   UNL     1     -15.067 -13.204  27.999  1.00  0.00    -0.504 OA
ATOM     19  H   UNL     1     -14.733 -12.389  28.502  1.00  0.00     0.293 HD
ENDBRANCH  14  18
BRANCH  16  20
ATOM     20  O   UNL     1     -14.939 -14.640  25.634  1.00  0.00    -0.502 OA
ATOM     21  H   UNL     1     -14.522 -13.984  24.986  1.00  0.00     0.293 HD
ENDBRANCH  16  20
BRANCH  17  22
ATOM     22  O   UNL     1     -13.424 -17.016  25.510  1.00  0.00    -0.504 OA
ATOM     23  H   UNL     1     -14.118 -16.916  24.780  1.00  0.00     0.293 HD
ENDBRANCH  17  22
ENDBRANCH   1  12
BRANCH   2  24
ATOM     24  O   UNL     1     -12.021 -18.779  29.337  1.00  0.00    -0.502 OA
ATOM     25  H   UNL     1     -12.096 -19.776  29.499  1.00  0.00     0.293 HD
ENDBRANCH   2  24
BRANCH   6  26
ATOM     26  O   UNL     1      -9.875 -18.919  34.210  1.00  0.00    -0.507 OA
ATOM     27  H   UNL     1      -9.016 -19.179  34.671  1.00  0.00     0.293 HD
ENDBRANCH   6  26
BRANCH   8  28
ATOM     28  O   UNL     1      -9.912 -14.260  35.306  1.00  0.00    -0.508 OA
ATOM     29  H   UNL     1      -9.202 -14.394  36.016  1.00  0.00     0.293 HD
ENDBRANCH   8  28
TORSDOF 7
ENDMDL
