MODEL 1
REMARK VINA RESULT:    -6.476      0.000      0.000
REMARK INTER + INTRA:          -6.476
REMARK INTER:                  -6.476
REMARK INTRA:                   0.000
REMARK UNBOUND:                 0.000
REMARK SMILES C[NH+]1CCN(C2=[NH+]c3ccccc3Oc3ccc(Cl)cc32)CC1
REMARK SMILES IDX 7 1 6 2 21 3 5 4 8 5 9 6 13 7 10 8 12 9 14 10 11 11 15 12
REMARK SMILES IDX 16 13 17 14 18 15 20 16 19 17 4 18 22 19 3 20 23 21 2 22
REMARK SMILES IDX 1 23
REMARK H PARENT 7 24 2 25
REMARK Flexibility Score: inf
ROOT
ATOM      1  N   UNL     1     125.181 114.847  99.950  1.00  0.00    -0.237 N 
ATOM      2  C   UNL     1     124.839 115.893 100.653  1.00  0.00     0.286 C 
ATOM      3  C   UNL     1     125.532 116.306 101.903  1.00  0.00     0.108 A 
ATOM      4  N   UNL     1     123.712 116.673 100.210  1.00  0.00    -0.250 N 
ATOM      5  C   UNL     1     126.254 113.926 100.211  1.00  0.00     0.168 A 
ATOM      6  C   UNL     1     126.090 112.586  99.819  1.00  0.00     0.056 A 
ATOM      7  C   UNL     1     127.521 114.355 100.660  1.00  0.00     0.173 A 
ATOM      8  C   UNL     1     127.159 111.687  99.882  1.00  0.00     0.005 A 
ATOM      9  C   UNL     1     128.594 113.455 100.686  1.00  0.00     0.052 A 
ATOM     10  O   UNL     1     127.753 115.657 101.093  1.00  0.00    -0.452 OA
ATOM     11  C   UNL     1     128.412 112.123 100.307  1.00  0.00     0.004 A 
ATOM     12  C   UNL     1     126.935 116.282 102.028  1.00  0.00     0.143 A 
ATOM     13  C   UNL     1     127.549 116.884 103.134  1.00  0.00     0.049 A 
ATOM     14  C   UNL     1     126.780 117.458 104.147  1.00  0.00     0.024 A 
ATOM     15  C   UNL     1     125.388 117.442 104.058  1.00  0.00     0.042 A 
ATOM     16  C   UNL     1     124.768 116.875 102.941  1.00  0.00     0.041 A 
ATOM     17  Cl  UNL     1     124.418 118.155 105.333  1.00  0.00    -0.084 Cl
ATOM     18  C   UNL     1     122.375 116.074 100.156  1.00  0.00     0.298 C 
ATOM     19  C   UNL     1     123.824 118.127 100.072  1.00  0.00     0.298 C 
ATOM     20  C   UNL     1     121.624 116.601  98.928  1.00  0.00     0.308 C 
ATOM     21  C   UNL     1     123.027 118.592  98.848  1.00  0.00     0.308 C 
ATOM     22  N   UNL     1     121.640 118.080  98.894  1.00  0.00    -0.331 N 
ATOM     23  C   UNL     1     120.885 118.565  97.726  1.00  0.00     0.332 C 
ATOM     24  H   UNL     1     124.596 114.624  99.112  1.00  0.00     0.312 HD
ATOM     25  H   UNL     1     121.167 118.448  99.755  1.00  0.00     0.348 HD
ENDROOT
TORSDOF 0
ENDMDL
MODEL 2
REMARK VINA RESULT:    -6.265      3.489      6.831
REMARK INTER + INTRA:          -6.265
REMARK INTER:                  -6.265
REMARK INTRA:                   0.000
REMARK UNBOUND:                 0.000
REMARK SMILES C[NH+]1CCN(C2=[NH+]c3ccccc3Oc3ccc(Cl)cc32)CC1
REMARK SMILES IDX 7 1 6 2 21 3 5 4 8 5 9 6 13 7 10 8 12 9 14 10 11 11 15 12
REMARK SMILES IDX 16 13 17 14 18 15 20 16 19 17 4 18 22 19 3 20 23 21 2 22
REMARK SMILES IDX 1 23
REMARK H PARENT 7 24 2 25
REMARK Flexibility Score: inf
ROOT
ATOM      1  N   UNL     1     127.773 115.845 101.622  1.00  0.00    -0.237 N 
ATOM      2  C   UNL     1     127.698 114.914 100.708  1.00  0.00     0.286 C 
ATOM      3  C   UNL     1     126.441 114.191 100.374  1.00  0.00     0.108 A 
ATOM      4  N   UNL     1     128.901 114.550 100.006  1.00  0.00    -0.250 N 
ATOM      5  C   UNL     1     126.711 116.352 102.448  1.00  0.00     0.168 A 
ATOM      6  C   UNL     1     127.030 116.798 103.743  1.00  0.00     0.056 A 
ATOM      7  C   UNL     1     125.417 116.599 101.942  1.00  0.00     0.173 A 
ATOM      8  C   UNL     1     126.082 117.464 104.523  1.00  0.00     0.005 A 
ATOM      9  C   UNL     1     124.485 117.298 102.720  1.00  0.00     0.052 A 
ATOM     10  O   UNL     1     125.018 116.162 100.682  1.00  0.00    -0.452 OA
ATOM     11  C   UNL     1     124.813 117.722 104.009  1.00  0.00     0.004 A 
ATOM     12  C   UNL     1     125.201 114.849 100.263  1.00  0.00     0.143 A 
ATOM     13  C   UNL     1     124.095 114.173  99.732  1.00  0.00     0.049 A 
ATOM     14  C   UNL     1     124.193 112.830  99.366  1.00  0.00     0.024 A 
ATOM     15  C   UNL     1     125.404 112.154  99.520  1.00  0.00     0.042 A 
ATOM     16  C   UNL     1     126.522 112.831 100.015  1.00  0.00     0.041 A 
ATOM     17  Cl  UNL     1     125.529 110.464  99.069  1.00  0.00    -0.084 Cl
ATOM     18  C   UNL     1     130.032 113.966 100.733  1.00  0.00     0.298 C 
ATOM     19  C   UNL     1     128.919 114.496  98.543  1.00  0.00     0.298 C 
ATOM     20  C   UNL     1     131.347 114.493 100.149  1.00  0.00     0.308 C 
ATOM     21  C   UNL     1     130.269 115.005  98.025  1.00  0.00     0.308 C 
ATOM     22  N   UNL     1     131.389 114.298  98.683  1.00  0.00    -0.331 N 
ATOM     23  C   UNL     1     132.674 114.780  98.147  1.00  0.00     0.332 C 
ATOM     24  H   UNL     1     128.717 116.256 101.807  1.00  0.00     0.312 HD
ATOM     25  H   UNL     1     131.319 113.274  98.471  1.00  0.00     0.348 HD
ENDROOT
TORSDOF 0
ENDMDL
MODEL 3
REMARK VINA RESULT:    -6.192      3.468      6.037
REMARK INTER + INTRA:          -6.192
REMARK INTER:                  -6.192
REMARK INTRA:                   0.000
REMARK UNBOUND:                 0.000
REMARK SMILES C[NH+]1CCN(C2=[NH+]c3ccccc3Oc3ccc(Cl)cc32)CC1
REMARK SMILES IDX 7 1 6 2 21 3 5 4 8 5 9 6 13 7 10 8 12 9 14 10 11 11 15 12
REMARK SMILES IDX 16 13 17 14 18 15 20 16 19 17 4 18 22 19 3 20 23 21 2 22
REMARK SMILES IDX 1 23
REMARK H PARENT 7 24 2 25
REMARK Flexibility Score: inf
ROOT
ATOM      1  N   UNL     1     125.849 114.893 100.726  1.00  0.00    -0.237 N 
ATOM      2  C   UNL     1     126.648 114.070 100.101  1.00  0.00     0.286 C 
ATOM      3  C   UNL     1     128.112 114.295  99.957  1.00  0.00     0.108 A 
ATOM      4  N   UNL     1     126.076 112.896  99.494  1.00  0.00    -0.250 N 
ATOM      5  C   UNL     1     126.198 116.122 101.387  1.00  0.00     0.168 A 
ATOM      6  C   UNL     1     125.249 117.160 101.403  1.00  0.00     0.056 A 
ATOM      7  C   UNL     1     127.360 116.249 102.176  1.00  0.00     0.173 A 
ATOM      8  C   UNL     1     125.455 118.304 102.178  1.00  0.00     0.005 A 
ATOM      9  C   UNL     1     127.540 117.385 102.976  1.00  0.00     0.052 A 
ATOM     10  O   UNL     1     128.357 115.278 102.189  1.00  0.00    -0.452 OA
ATOM     11  C   UNL     1     126.596 118.413 102.970  1.00  0.00     0.004 A 
ATOM     12  C   UNL     1     128.908 114.769 101.018  1.00  0.00     0.143 A 
ATOM     13  C   UNL     1     130.304 114.754 100.905  1.00  0.00     0.049 A 
ATOM     14  C   UNL     1     130.916 114.329  99.726  1.00  0.00     0.024 A 
ATOM     15  C   UNL     1     130.136 113.907  98.650  1.00  0.00     0.042 A 
ATOM     16  C   UNL     1     128.743 113.884  98.766  1.00  0.00     0.041 A 
ATOM     17  Cl  UNL     1     130.901 113.380  97.162  1.00  0.00    -0.084 Cl
ATOM     18  C   UNL     1     125.101 113.026  98.407  1.00  0.00     0.298 C 
ATOM     19  C   UNL     1     126.651 111.573  99.752  1.00  0.00     0.298 C 
ATOM     20  C   UNL     1     124.026 111.943  98.548  1.00  0.00     0.308 C 
ATOM     21  C   UNL     1     125.529 110.534  99.849  1.00  0.00     0.308 C 
ATOM     22  N   UNL     1     124.640 110.602  98.669  1.00  0.00    -0.331 N 
ATOM     23  C   UNL     1     123.590 109.574  98.769  1.00  0.00     0.332 C 
ATOM     24  H   UNL     1     124.830 114.659 100.729  1.00  0.00     0.312 HD
ATOM     25  H   UNL     1     125.200 110.403  97.806  1.00  0.00     0.348 HD
ENDROOT
TORSDOF 0
ENDMDL
MODEL 4
REMARK VINA RESULT:    -6.160      6.714      9.652
REMARK INTER + INTRA:          -6.160
REMARK INTER:                  -6.160
REMARK INTRA:                   0.000
REMARK UNBOUND:                 0.000
REMARK SMILES C[NH+]1CCN(C2=[NH+]c3ccccc3Oc3ccc(Cl)cc32)CC1
REMARK SMILES IDX 7 1 6 2 21 3 5 4 8 5 9 6 13 7 10 8 12 9 14 10 11 11 15 12
REMARK SMILES IDX 16 13 17 14 18 15 20 16 19 17 4 18 22 19 3 20 23 21 2 22
REMARK SMILES IDX 1 23
REMARK H PARENT 7 24 2 25
REMARK Flexibility Score: inf
ROOT
ATOM      1  N   UNL     1     130.177 115.949  96.865  1.00  0.00    -0.237 N 
ATOM      2  C   UNL     1     130.890 114.871  97.054  1.00  0.00     0.286 C 
ATOM      3  C   UNL     1     131.043 113.798  96.034  1.00  0.00     0.108 A 
ATOM      4  N   UNL     1     131.538 114.697  98.328  1.00  0.00    -0.250 N 
ATOM      5  C   UNL     1     129.439 116.319  95.688  1.00  0.00     0.168 A 
ATOM      6  C   UNL     1     128.264 117.075  95.850  1.00  0.00     0.056 A 
ATOM      7  C   UNL     1     129.948 116.122  94.388  1.00  0.00     0.173 A 
ATOM      8  C   UNL     1     127.604 117.615  94.744  1.00  0.00     0.005 A 
ATOM      9  C   UNL     1     129.298 116.697  93.289  1.00  0.00     0.052 A 
ATOM     10  O   UNL     1     131.088 115.360  94.145  1.00  0.00    -0.452 OA
ATOM     11  C   UNL     1     128.125 117.433  93.464  1.00  0.00     0.004 A 
ATOM     12  C   UNL     1     131.248 114.082  94.670  1.00  0.00     0.143 A 
ATOM     13  C   UNL     1     131.607 113.055  93.788  1.00  0.00     0.049 A 
ATOM     14  C   UNL     1     131.707 111.737  94.236  1.00  0.00     0.024 A 
ATOM     15  C   UNL     1     131.456 111.437  95.575  1.00  0.00     0.042 A 
ATOM     16  C   UNL     1     131.132 112.462  96.469  1.00  0.00     0.041 A 
ATOM     17  Cl  UNL     1     131.572 109.782  96.141  1.00  0.00    -0.084 Cl
ATOM     18  C   UNL     1     130.741 114.576  99.553  1.00  0.00     0.298 C 
ATOM     19  C   UNL     1     132.963 114.365  98.396  1.00  0.00     0.298 C 
ATOM     20  C   UNL     1     131.451 115.297 100.703  1.00  0.00     0.308 C 
ATOM     21  C   UNL     1     133.606 115.092  99.583  1.00  0.00     0.308 C 
ATOM     22  N   UNL     1     132.852 114.838 100.831  1.00  0.00    -0.331 N 
ATOM     23  C   UNL     1     133.504 115.518 101.962  1.00  0.00     0.332 C 
ATOM     24  H   UNL     1     130.101 116.617  97.667  1.00  0.00     0.312 HD
ATOM     25  H   UNL     1     132.857 113.809 101.031  1.00  0.00     0.348 HD
ENDROOT
TORSDOF 0
ENDMDL
MODEL 5
REMARK VINA RESULT:    -6.048      4.485      6.397
REMARK INTER + INTRA:          -6.048
REMARK INTER:                  -6.048
REMARK INTRA:                   0.000
REMARK UNBOUND:                 0.000
REMARK SMILES C[NH+]1CCN(C2=[NH+]c3ccccc3Oc3ccc(Cl)cc32)CC1
REMARK SMILES IDX 7 1 6 2 21 3 5 4 8 5 9 6 13 7 10 8 12 9 14 10 11 11 15 12
REMARK SMILES IDX 16 13 17 14 18 15 20 16 19 17 4 18 22 19 3 20 23 21 2 22
REMARK SMILES IDX 1 23
REMARK H PARENT 7 24 2 25
REMARK Flexibility Score: inf
ROOT
ATOM      1  N   UNL     1     126.339 116.711  98.006  1.00  0.00    -0.237 N 
ATOM      2  C   UNL     1     127.270 115.853  97.682  1.00  0.00     0.286 C 
ATOM      3  C   UNL     1     127.801 114.825  98.617  1.00  0.00     0.108 A 
ATOM      4  N   UNL     1     127.831 115.924  96.357  1.00  0.00    -0.250 N 
ATOM      5  C   UNL     1     125.656 116.831  99.265  1.00  0.00     0.168 A 
ATOM      6  C   UNL     1     125.232 118.109  99.672  1.00  0.00     0.056 A 
ATOM      7  C   UNL     1     125.227 115.705  99.999  1.00  0.00     0.173 A 
ATOM      8  C   UNL     1     124.410 118.266 100.791  1.00  0.00     0.005 A 
ATOM      9  C   UNL     1     124.375 115.871 101.098  1.00  0.00     0.052 A 
ATOM     10  O   UNL     1     125.629 114.412  99.675  1.00  0.00    -0.452 OA
ATOM     11  C   UNL     1     123.975 117.147 101.499  1.00  0.00     0.004 A 
ATOM     12  C   UNL     1     126.964 114.082  99.472  1.00  0.00     0.143 A 
ATOM     13  C   UNL     1     127.477 112.980 100.168  1.00  0.00     0.049 A 
ATOM     14  C   UNL     1     128.828 112.644 100.070  1.00  0.00     0.024 A 
ATOM     15  C   UNL     1     129.677 113.405  99.266  1.00  0.00     0.042 A 
ATOM     16  C   UNL     1     129.166 114.484  98.540  1.00  0.00     0.041 A 
ATOM     17  Cl  UNL     1     131.376 112.991  99.145  1.00  0.00    -0.084 Cl
ATOM     18  C   UNL     1     128.562 117.119  95.928  1.00  0.00     0.298 C 
ATOM     19  C   UNL     1     127.923 114.722  95.525  1.00  0.00     0.298 C 
ATOM     20  C   UNL     1     128.257 117.408  94.455  1.00  0.00     0.308 C 
ATOM     21  C   UNL     1     127.639 115.084  94.063  1.00  0.00     0.308 C 
ATOM     22  N   UNL     1     128.492 116.209  93.621  1.00  0.00    -0.331 N 
ATOM     23  C   UNL     1     128.226 116.518  92.206  1.00  0.00     0.332 C 
ATOM     24  H   UNL     1     126.072 117.420  97.283  1.00  0.00     0.312 HD
ATOM     25  H   UNL     1     129.499 115.927  93.702  1.00  0.00     0.348 HD
ENDROOT
TORSDOF 0
ENDMDL
MODEL 6
REMARK VINA RESULT:    -5.980      3.533      5.836
REMARK INTER + INTRA:          -5.980
REMARK INTER:                  -5.980
REMARK INTRA:                   0.000
REMARK UNBOUND:                 0.000
REMARK SMILES C[NH+]1CCN(C2=[NH+]c3ccccc3Oc3ccc(Cl)cc32)CC1
REMARK SMILES IDX 7 1 6 2 21 3 5 4 8 5 9 6 13 7 10 8 12 9 14 10 11 11 15 12
REMARK SMILES IDX 16 13 17 14 18 15 20 16 19 17 4 18 22 19 3 20 23 21 2 22
REMARK SMILES IDX 1 23
REMARK H PARENT 7 24 2 25
REMARK Flexibility Score: inf
ROOT
ATOM      1  N   UNL     1     125.962 115.374 100.043  1.00  0.00    -0.237 N 
ATOM      2  C   UNL     1     126.748 114.571  99.376  1.00  0.00     0.286 C 
ATOM      3  C   UNL     1     128.229 114.567  99.519  1.00  0.00     0.108 A 
ATOM      4  N   UNL     1     126.152 113.663  98.432  1.00  0.00    -0.250 N 
ATOM      5  C   UNL     1     126.338 116.362 101.017  1.00  0.00     0.168 A 
ATOM      6  C   UNL     1     125.550 117.522 101.126  1.00  0.00     0.056 A 
ATOM      7  C   UNL     1     127.335 116.123 101.986  1.00  0.00     0.173 A 
ATOM      8  C   UNL     1     125.755 118.430 102.167  1.00  0.00     0.005 A 
ATOM      9  C   UNL     1     127.509 117.022 103.046  1.00  0.00     0.052 A 
ATOM     10  O   UNL     1     128.174 115.013 101.928  1.00  0.00    -0.452 OA
ATOM     11  C   UNL     1     126.729 118.176 103.132  1.00  0.00     0.004 A 
ATOM     12  C   UNL     1     128.865 114.668 100.772  1.00  0.00     0.143 A 
ATOM     13  C   UNL     1     130.242 114.437 100.879  1.00  0.00     0.049 A 
ATOM     14  C   UNL     1     131.006 114.164  99.743  1.00  0.00     0.024 A 
ATOM     15  C   UNL     1     130.395 114.113  98.490  1.00  0.00     0.042 A 
ATOM     16  C   UNL     1     129.016 114.306  98.379  1.00  0.00     0.041 A 
ATOM     17  Cl  UNL     1     131.353 113.778  97.060  1.00  0.00    -0.084 Cl
ATOM     18  C   UNL     1     125.427 114.178  97.266  1.00  0.00     0.298 C 
ATOM     19  C   UNL     1     126.486 112.237  98.462  1.00  0.00     0.298 C 
ATOM     20  C   UNL     1     124.211 113.291  96.982  1.00  0.00     0.308 C 
ATOM     21  C   UNL     1     125.237 111.408  98.139  1.00  0.00     0.308 C 
ATOM     22  N   UNL     1     124.606 111.869  96.883  1.00  0.00    -0.331 N 
ATOM     23  C   UNL     1     123.429 111.038  96.576  1.00  0.00     0.332 C 
ATOM     24  H   UNL     1     124.939 115.322  99.832  1.00  0.00     0.312 HD
ATOM     25  H   UNL     1     125.290 111.757  96.095  1.00  0.00     0.348 HD
ENDROOT
TORSDOF 0
ENDMDL
MODEL 7
REMARK VINA RESULT:    -5.864      5.559      7.153
REMARK INTER + INTRA:          -5.864
REMARK INTER:                  -5.864
REMARK INTRA:                   0.000
REMARK UNBOUND:                 0.000
REMARK SMILES C[NH+]1CCN(C2=[NH+]c3ccccc3Oc3ccc(Cl)cc32)CC1
REMARK SMILES IDX 7 1 6 2 21 3 5 4 8 5 9 6 13 7 10 8 12 9 14 10 11 11 15 12
REMARK SMILES IDX 16 13 17 14 18 15 20 16 19 17 4 18 22 19 3 20 23 21 2 22
REMARK SMILES IDX 1 23
REMARK H PARENT 7 24 2 25
REMARK Flexibility Score: inf
ROOT
ATOM      1  N   UNL     1     127.362 115.707  97.042  1.00  0.00    -0.237 N 
ATOM      2  C   UNL     1     128.570 115.530  96.576  1.00  0.00     0.286 C 
ATOM      3  C   UNL     1     129.757 115.290  97.440  1.00  0.00     0.108 A 
ATOM      4  N   UNL     1     128.767 115.599  95.151  1.00  0.00    -0.250 N 
ATOM      5  C   UNL     1     126.941 115.695  98.417  1.00  0.00     0.168 A 
ATOM      6  C   UNL     1     125.862 116.517  98.789  1.00  0.00     0.056 A 
ATOM      7  C   UNL     1     127.435 114.757  99.347  1.00  0.00     0.173 A 
ATOM      8  C   UNL     1     125.292 116.416 100.061  1.00  0.00     0.005 A 
ATOM      9  C   UNL     1     126.835 114.641 100.607  1.00  0.00     0.052 A 
ATOM     10  O   UNL     1     128.519 113.932  99.063  1.00  0.00    -0.452 OA
ATOM     11  C   UNL     1     125.773 115.473 100.967  1.00  0.00     0.004 A 
ATOM     12  C   UNL     1     129.714 114.429  98.555  1.00  0.00     0.143 A 
ATOM     13  C   UNL     1     130.902 114.063  99.201  1.00  0.00     0.049 A 
ATOM     14  C   UNL     1     132.125 114.591  98.790  1.00  0.00     0.024 A 
ATOM     15  C   UNL     1     132.173 115.485  97.720  1.00  0.00     0.042 A 
ATOM     16  C   UNL     1     130.998 115.827  97.046  1.00  0.00     0.041 A 
ATOM     17  Cl  UNL     1     133.709 116.157  97.204  1.00  0.00    -0.084 Cl
ATOM     18  C   UNL     1     128.500 116.845  94.427  1.00  0.00     0.298 C 
ATOM     19  C   UNL     1     129.488 114.534  94.450  1.00  0.00     0.298 C 
ATOM     20  C   UNL     1     127.881 116.525  93.063  1.00  0.00     0.308 C 
ATOM     21  C   UNL     1     128.840 114.286  93.083  1.00  0.00     0.308 C 
ATOM     22  N   UNL     1     128.709 115.548  92.323  1.00  0.00    -0.331 N 
ATOM     23  C   UNL     1     128.115 115.281  91.002  1.00  0.00     0.332 C 
ATOM     24  H   UNL     1     126.608 115.913  96.346  1.00  0.00     0.312 HD
ATOM     25  H   UNL     1     129.663 115.955  92.167  1.00  0.00     0.348 HD
ENDROOT
TORSDOF 0
ENDMDL
MODEL 8
REMARK VINA RESULT:    -5.842      3.130      6.585
REMARK INTER + INTRA:          -5.842
REMARK INTER:                  -5.842
REMARK INTRA:                   0.000
REMARK UNBOUND:                 0.000
REMARK SMILES C[NH+]1CCN(C2=[NH+]c3ccccc3Oc3ccc(Cl)cc32)CC1
REMARK SMILES IDX 7 1 6 2 21 3 5 4 8 5 9 6 13 7 10 8 12 9 14 10 11 11 15 12
REMARK SMILES IDX 16 13 17 14 18 15 20 16 19 17 4 18 22 19 3 20 23 21 2 22
REMARK SMILES IDX 1 23
REMARK H PARENT 7 24 2 25
REMARK Flexibility Score: inf
ROOT
ATOM      1  N   UNL     1     127.532 115.004 100.756  1.00  0.00    -0.237 N 
ATOM      2  C   UNL     1     126.855 114.200  99.979  1.00  0.00     0.286 C 
ATOM      3  C   UNL     1     125.384 114.299  99.776  1.00  0.00     0.108 A 
ATOM      4  N   UNL     1     127.567 113.146  99.304  1.00  0.00    -0.250 N 
ATOM      5  C   UNL     1     127.028 116.106 101.530  1.00  0.00     0.168 A 
ATOM      6  C   UNL     1     127.668 116.412 102.745  1.00  0.00     0.056 A 
ATOM      7  C   UNL     1     126.058 116.998 101.027  1.00  0.00     0.173 A 
ATOM      8  C   UNL     1     127.344 117.573 103.450  1.00  0.00     0.005 A 
ATOM      9  C   UNL     1     125.766 118.177 101.725  1.00  0.00     0.052 A 
ATOM     10  O   UNL     1     125.362 116.749  99.849  1.00  0.00    -0.452 OA
ATOM     11  C   UNL     1     126.399 118.460 102.937  1.00  0.00     0.004 A 
ATOM     12  C   UNL     1     124.729 115.534  99.607  1.00  0.00     0.143 A 
ATOM     13  C   UNL     1     123.389 115.565  99.200  1.00  0.00     0.049 A 
ATOM     14  C   UNL     1     122.675 114.380  99.018  1.00  0.00     0.024 A 
ATOM     15  C   UNL     1     123.300 113.152  99.233  1.00  0.00     0.042 A 
ATOM     16  C   UNL     1     124.647 113.111  99.604  1.00  0.00     0.041 A 
ATOM     17  Cl  UNL     1     122.404 111.660  99.012  1.00  0.00    -0.084 Cl
ATOM     18  C   UNL     1     128.234 112.094 100.076  1.00  0.00     0.298 C 
ATOM     19  C   UNL     1     127.409 112.949  97.861  1.00  0.00     0.298 C 
ATOM     20  C   UNL     1     129.552 111.712  99.394  1.00  0.00     0.308 C 
ATOM     21  C   UNL     1     128.751 112.539  97.247  1.00  0.00     0.308 C 
ATOM     22  N   UNL     1     129.334 111.386  97.968  1.00  0.00    -0.331 N 
ATOM     23  C   UNL     1     130.606 110.990  97.341  1.00  0.00     0.332 C 
ATOM     24  H   UNL     1     128.555 114.816 100.860  1.00  0.00     0.312 HD
ATOM     25  H   UNL     1     128.677 110.572  97.899  1.00  0.00     0.348 HD
ENDROOT
TORSDOF 0
ENDMDL
MODEL 9
REMARK VINA RESULT:    -5.738      2.165      5.834
REMARK INTER + INTRA:          -5.738
REMARK INTER:                  -5.738
REMARK INTRA:                   0.000
REMARK UNBOUND:                 0.000
REMARK SMILES C[NH+]1CCN(C2=[NH+]c3ccccc3Oc3ccc(Cl)cc32)CC1
REMARK SMILES IDX 7 1 6 2 21 3 5 4 8 5 9 6 13 7 10 8 12 9 14 10 11 11 15 12
REMARK SMILES IDX 16 13 17 14 18 15 20 16 19 17 4 18 22 19 3 20 23 21 2 22
REMARK SMILES IDX 1 23
REMARK H PARENT 7 24 2 25
REMARK Flexibility Score: inf
ROOT
ATOM      1  N   UNL     1     124.974 115.543  98.378  1.00  0.00    -0.237 N 
ATOM      2  C   UNL     1     125.626 115.587  99.510  1.00  0.00     0.286 C 
ATOM      3  C   UNL     1     125.230 116.454 100.652  1.00  0.00     0.108 A 
ATOM      4  N   UNL     1     126.806 114.773  99.647  1.00  0.00    -0.250 N 
ATOM      5  C   UNL     1     123.789 116.275  98.018  1.00  0.00     0.168 A 
ATOM      6  C   UNL     1     123.616 116.637  96.671  1.00  0.00     0.056 A 
ATOM      7  C   UNL     1     122.720 116.465  98.918  1.00  0.00     0.173 A 
ATOM      8  C   UNL     1     122.409 117.187  96.229  1.00  0.00     0.005 A 
ATOM      9  C   UNL     1     121.504 116.984  98.457  1.00  0.00     0.052 A 
ATOM     10  O   UNL     1     122.827 116.158 100.272  1.00  0.00    -0.452 OA
ATOM     11  C   UNL     1     121.351 117.353  97.120  1.00  0.00     0.004 A 
ATOM     12  C   UNL     1     123.888 116.608 101.050  1.00  0.00     0.143 A 
ATOM     13  C   UNL     1     123.586 117.250 102.258  1.00  0.00     0.049 A 
ATOM     14  C   UNL     1     124.601 117.794 103.045  1.00  0.00     0.024 A 
ATOM     15  C   UNL     1     125.930 117.692 102.635  1.00  0.00     0.042 A 
ATOM     16  C   UNL     1     126.243 117.021 101.450  1.00  0.00     0.041 A 
ATOM     17  Cl  UNL     1     127.208 118.381 103.618  1.00  0.00    -0.084 Cl
ATOM     18  C   UNL     1     127.969 115.007  98.787  1.00  0.00     0.298 C 
ATOM     19  C   UNL     1     126.972 113.899 100.811  1.00  0.00     0.298 C 
ATOM     20  C   UNL     1     128.614 113.667  98.418  1.00  0.00     0.308 C 
ATOM     21  C   UNL     1     127.650 112.593 100.381  1.00  0.00     0.308 C 
ATOM     22  N   UNL     1     128.894 112.865  99.629  1.00  0.00    -0.331 N 
ATOM     23  C   UNL     1     129.544 111.597  99.255  1.00  0.00     0.332 C 
ATOM     24  H   UNL     1     125.366 114.931  97.625  1.00  0.00     0.312 HD
ATOM     25  H   UNL     1     129.558 113.394 100.245  1.00  0.00     0.348 HD
ENDROOT
TORSDOF 0
ENDMDL
