MODEL 1
REMARK VINA RESULT:    -5.420      0.000      0.000
REMARK INTER + INTRA:          -5.420
REMARK INTER:                  -5.420
REMARK INTRA:                   0.000
REMARK UNBOUND:                 0.000
REMARK SMILES CC(C)=C1CC[C@H](C)CC1=O
REMARK SMILES IDX 8 1 7 2 6 3 5 4 4 5 2 6 1 7 3 8 10 9 11 10 9 11
REMARK H PARENT
REMARK Flexibility Score: inf
ROOT
ATOM      1  C   UNL     1      21.099  28.161  -9.319  1.00  0.00     0.008 C 
ATOM      2  C   UNL     1      20.126  28.402 -10.478  1.00  0.00    -0.006 C 
ATOM      3  C   UNL     1      20.873  28.945 -11.706  1.00  0.00     0.008 C 
ATOM      4  C   UNL     1      19.901  29.291 -12.842  1.00  0.00     0.039 C 
ATOM      5  C   UNL     1      18.972  28.134 -13.187  1.00  0.00    -0.006 C 
ATOM      6  C   UNL     1      18.518  27.944 -14.461  1.00  0.00    -0.070 C 
ATOM      7  C   UNL     1      17.642  26.768 -14.826  1.00  0.00     0.039 C 
ATOM      8  C   UNL     1      18.904  28.885 -15.579  1.00  0.00     0.039 C 
ATOM      9  C   UNL     1      18.503  27.304 -12.037  1.00  0.00     0.159 C 
ATOM     10  O   UNL     1      17.365  26.765 -12.040  1.00  0.00    -0.295 OA
ATOM     11  C   UNL     1      19.390  27.105 -10.842  1.00  0.00     0.084 C 
ENDROOT
TORSDOF 0
ENDMDL
MODEL 2
REMARK VINA RESULT:    -5.358      1.728      2.626
REMARK INTER + INTRA:          -5.358
REMARK INTER:                  -5.358
REMARK INTRA:                   0.000
REMARK UNBOUND:                 0.000
REMARK SMILES CC(C)=C1CC[C@H](C)CC1=O
REMARK SMILES IDX 8 1 7 2 6 3 5 4 4 5 2 6 1 7 3 8 10 9 11 10 9 11
REMARK H PARENT
REMARK Flexibility Score: inf
ROOT
ATOM      1  C   UNL     1      22.675  29.610 -10.444  1.00  0.00     0.008 C 
ATOM      2  C   UNL     1      21.695  28.720 -11.217  1.00  0.00    -0.006 C 
ATOM      3  C   UNL     1      20.386  28.547 -10.431  1.00  0.00     0.008 C 
ATOM      4  C   UNL     1      19.433  27.576 -11.140  1.00  0.00     0.039 C 
ATOM      5  C   UNL     1      19.195  27.952 -12.596  1.00  0.00    -0.006 C 
ATOM      6  C   UNL     1      18.002  27.693 -13.210  1.00  0.00    -0.070 C 
ATOM      7  C   UNL     1      17.735  28.112 -14.637  1.00  0.00     0.039 C 
ATOM      8  C   UNL     1      16.875  27.006 -12.474  1.00  0.00     0.039 C 
ATOM      9  C   UNL     1      20.371  28.505 -13.332  1.00  0.00     0.159 C 
ATOM     10  O   UNL     1      20.528  28.301 -14.564  1.00  0.00    -0.295 OA
ATOM     11  C   UNL     1      21.401  29.317 -12.601  1.00  0.00     0.084 C 
ENDROOT
TORSDOF 0
ENDMDL
MODEL 3
REMARK VINA RESULT:    -5.078     14.662     16.141
REMARK INTER + INTRA:          -5.078
REMARK INTER:                  -5.078
REMARK INTRA:                   0.000
REMARK UNBOUND:                 0.000
REMARK SMILES CC(C)=C1CC[C@H](C)CC1=O
REMARK SMILES IDX 8 1 7 2 6 3 5 4 4 5 2 6 1 7 3 8 10 9 11 10 9 11
REMARK H PARENT
REMARK Flexibility Score: inf
ROOT
ATOM      1  C   UNL     1      32.663  30.367  -9.374  1.00  0.00     0.008 C 
ATOM      2  C   UNL     1      33.676  30.429 -10.523  1.00  0.00    -0.006 C 
ATOM      3  C   UNL     1      32.960  30.338 -11.880  1.00  0.00     0.008 C 
ATOM      4  C   UNL     1      33.964  30.294 -13.038  1.00  0.00     0.039 C 
ATOM      5  C   UNL     1      34.968  31.439 -12.983  1.00  0.00    -0.006 C 
ATOM      6  C   UNL     1      35.491  31.980 -14.123  1.00  0.00    -0.070 C 
ATOM      7  C   UNL     1      36.445  33.151 -14.082  1.00  0.00     0.039 C 
ATOM      8  C   UNL     1      35.109  31.454 -15.487  1.00  0.00     0.039 C 
ATOM      9  C   UNL     1      35.426  31.844 -11.620  1.00  0.00     0.159 C 
ATOM     10  O   UNL     1      36.590  32.283 -11.424  1.00  0.00    -0.295 OA
ATOM     11  C   UNL     1      34.495  31.726 -10.448  1.00  0.00     0.084 C 
ENDROOT
TORSDOF 0
ENDMDL
MODEL 4
REMARK VINA RESULT:    -5.020      1.903      4.851
REMARK INTER + INTRA:          -5.020
REMARK INTER:                  -5.020
REMARK INTRA:                   0.000
REMARK UNBOUND:                 0.000
REMARK SMILES CC(C)=C1CC[C@H](C)CC1=O
REMARK SMILES IDX 8 1 7 2 6 3 5 4 4 5 2 6 1 7 3 8 10 9 11 10 9 11
REMARK H PARENT
REMARK Flexibility Score: inf
ROOT
ATOM      1  C   UNL     1      18.575  28.071 -14.976  1.00  0.00     0.008 C 
ATOM      2  C   UNL     1      19.027  28.549 -13.592  1.00  0.00    -0.006 C 
ATOM      3  C   UNL     1      18.710  27.490 -12.524  1.00  0.00     0.008 C 
ATOM      4  C   UNL     1      19.062  27.993 -11.118  1.00  0.00     0.039 C 
ATOM      5  C   UNL     1      20.492  28.508 -11.024  1.00  0.00    -0.006 C 
ATOM      6  C   UNL     1      21.211  28.398  -9.868  1.00  0.00    -0.070 C 
ATOM      7  C   UNL     1      22.649  28.855  -9.779  1.00  0.00     0.039 C 
ATOM      8  C   UNL     1      20.611  27.776  -8.628  1.00  0.00     0.039 C 
ATOM      9  C   UNL     1      21.007  29.237 -12.221  1.00  0.00     0.159 C 
ATOM     10  O   UNL     1      21.836  30.178 -12.109  1.00  0.00    -0.295 OA
ATOM     11  C   UNL     1      20.532  28.858 -13.594  1.00  0.00     0.084 C 
ENDROOT
TORSDOF 0
ENDMDL
MODEL 5
REMARK VINA RESULT:    -5.020      2.495      3.275
REMARK INTER + INTRA:          -5.020
REMARK INTER:                  -5.020
REMARK INTRA:                   0.000
REMARK UNBOUND:                 0.000
REMARK SMILES CC(C)=C1CC[C@H](C)CC1=O
REMARK SMILES IDX 8 1 7 2 6 3 5 4 4 5 2 6 1 7 3 8 10 9 11 10 9 11
REMARK H PARENT
REMARK Flexibility Score: inf
ROOT
ATOM      1  C   UNL     1      23.046  30.840 -11.211  1.00  0.00     0.008 C 
ATOM      2  C   UNL     1      22.265  29.740 -11.938  1.00  0.00    -0.006 C 
ATOM      3  C   UNL     1      20.756  30.027 -11.891  1.00  0.00     0.008 C 
ATOM      4  C   UNL     1      19.951  28.885 -12.524  1.00  0.00     0.039 C 
ATOM      5  C   UNL     1      20.436  28.536 -13.925  1.00  0.00    -0.006 C 
ATOM      6  C   UNL     1      19.574  28.077 -14.881  1.00  0.00    -0.070 C 
ATOM      7  C   UNL     1      20.034  27.781 -16.289  1.00  0.00     0.039 C 
ATOM      8  C   UNL     1      18.106  27.880 -14.582  1.00  0.00     0.039 C 
ATOM      9  C   UNL     1      21.910  28.614 -14.147  1.00  0.00     0.159 C 
ATOM     10  O   UNL     1      22.493  27.842 -14.953  1.00  0.00    -0.295 OA
ATOM     11  C   UNL     1      22.732  29.623 -13.397  1.00  0.00     0.084 C 
ENDROOT
TORSDOF 0
ENDMDL
MODEL 6
REMARK VINA RESULT:    -5.018      2.395      3.921
REMARK INTER + INTRA:          -5.018
REMARK INTER:                  -5.018
REMARK INTRA:                   0.000
REMARK UNBOUND:                 0.000
REMARK SMILES CC(C)=C1CC[C@H](C)CC1=O
REMARK SMILES IDX 8 1 7 2 6 3 5 4 4 5 2 6 1 7 3 8 10 9 11 10 9 11
REMARK H PARENT
REMARK Flexibility Score: inf
ROOT
ATOM      1  C   UNL     1      16.875  26.710 -12.793  1.00  0.00     0.008 C 
ATOM      2  C   UNL     1      17.985  27.676 -13.219  1.00  0.00    -0.006 C 
ATOM      3  C   UNL     1      19.100  27.718 -12.162  1.00  0.00     0.008 C 
ATOM      4  C   UNL     1      20.171  28.757 -12.521  1.00  0.00     0.039 C 
ATOM      5  C   UNL     1      20.711  28.573 -13.934  1.00  0.00    -0.006 C 
ATOM      6  C   UNL     1      22.002  28.890 -14.246  1.00  0.00    -0.070 C 
ATOM      7  C   UNL     1      22.565  28.660 -15.630  1.00  0.00     0.039 C 
ATOM      8  C   UNL     1      22.945  29.451 -13.207  1.00  0.00     0.039 C 
ATOM      9  C   UNL     1      19.719  28.145 -14.965  1.00  0.00     0.159 C 
ATOM     10  O   UNL     1      19.821  28.515 -16.164  1.00  0.00    -0.295 OA
ATOM     11  C   UNL     1      18.567  27.263 -14.579  1.00  0.00     0.084 C 
ENDROOT
TORSDOF 0
ENDMDL
MODEL 7
REMARK VINA RESULT:    -5.012      1.669      1.947
REMARK INTER + INTRA:          -5.012
REMARK INTER:                  -5.012
REMARK INTRA:                   0.000
REMARK UNBOUND:                 0.000
REMARK SMILES CC(C)=C1CC[C@H](C)CC1=O
REMARK SMILES IDX 8 1 7 2 6 3 5 4 4 5 2 6 1 7 3 8 10 9 11 10 9 11
REMARK H PARENT
REMARK Flexibility Score: inf
ROOT
ATOM      1  C   UNL     1      20.234  28.116  -9.057  1.00  0.00     0.008 C 
ATOM      2  C   UNL     1      20.247  28.602 -10.510  1.00  0.00    -0.006 C 
ATOM      3  C   UNL     1      21.679  28.594 -11.069  1.00  0.00     0.008 C 
ATOM      4  C   UNL     1      21.726  29.175 -12.488  1.00  0.00     0.039 C 
ATOM      5  C   UNL     1      20.728  28.507 -13.426  1.00  0.00    -0.006 C 
ATOM      6  C   UNL     1      20.991  28.367 -14.759  1.00  0.00    -0.070 C 
ATOM      7  C   UNL     1      20.033  27.657 -15.687  1.00  0.00     0.039 C 
ATOM      8  C   UNL     1      22.276  28.884 -15.363  1.00  0.00     0.039 C 
ATOM      9  C   UNL     1      19.415  28.129 -12.824  1.00  0.00     0.159 C 
ATOM     10  O   UNL     1      18.354  28.149 -13.502  1.00  0.00    -0.295 OA
ATOM     11  C   UNL     1      19.338  27.723 -11.380  1.00  0.00     0.084 C 
ENDROOT
TORSDOF 0
ENDMDL
MODEL 8
REMARK VINA RESULT:    -4.977      2.374      4.346
REMARK INTER + INTRA:          -4.977
REMARK INTER:                  -4.977
REMARK INTRA:                   0.000
REMARK UNBOUND:                 0.000
REMARK SMILES CC(C)=C1CC[C@H](C)CC1=O
REMARK SMILES IDX 8 1 7 2 6 3 5 4 4 5 2 6 1 7 3 8 10 9 11 10 9 11
REMARK H PARENT
REMARK Flexibility Score: inf
ROOT
ATOM      1  C   UNL     1      22.591  28.618 -17.091  1.00  0.00     0.008 C 
ATOM      2  C   UNL     1      21.489  28.855 -16.052  1.00  0.00    -0.006 C 
ATOM      3  C   UNL     1      20.249  28.008 -16.377  1.00  0.00     0.008 C 
ATOM      4  C   UNL     1      19.099  28.309 -15.408  1.00  0.00     0.039 C 
ATOM      5  C   UNL     1      19.520  28.193 -13.949  1.00  0.00    -0.006 C 
ATOM      6  C   UNL     1      18.640  27.787 -12.986  1.00  0.00    -0.070 C 
ATOM      7  C   UNL     1      19.062  27.615 -11.545  1.00  0.00     0.039 C 
ATOM      8  C   UNL     1      17.206  27.452 -13.326  1.00  0.00     0.039 C 
ATOM      9  C   UNL     1      20.902  28.659 -13.626  1.00  0.00     0.159 C 
ATOM     10  O   UNL     1      21.174  29.178 -12.511  1.00  0.00    -0.295 OA
ATOM     11  C   UNL     1      21.998  28.522 -14.642  1.00  0.00     0.084 C 
ENDROOT
TORSDOF 0
ENDMDL
MODEL 9
REMARK VINA RESULT:    -4.973      3.334      5.467
REMARK INTER + INTRA:          -4.973
REMARK INTER:                  -4.973
REMARK INTRA:                   0.000
REMARK UNBOUND:                 0.000
REMARK SMILES CC(C)=C1CC[C@H](C)CC1=O
REMARK SMILES IDX 8 1 7 2 6 3 5 4 4 5 2 6 1 7 3 8 10 9 11 10 9 11
REMARK H PARENT
REMARK Flexibility Score: inf
ROOT
ATOM      1  C   UNL     1      22.871  29.517 -19.035  1.00  0.00     0.008 C 
ATOM      2  C   UNL     1      22.515  28.865 -17.695  1.00  0.00    -0.006 C 
ATOM      3  C   UNL     1      22.852  29.808 -16.529  1.00  0.00     0.008 C 
ATOM      4  C   UNL     1      22.598  29.133 -15.175  1.00  0.00     0.039 C 
ATOM      5  C   UNL     1      21.196  28.550 -15.068  1.00  0.00    -0.006 C 
ATOM      6  C   UNL     1      20.539  28.496 -13.871  1.00  0.00    -0.070 C 
ATOM      7  C   UNL     1      19.126  27.971 -13.763  1.00  0.00     0.039 C 
ATOM      8  C   UNL     1      21.184  28.998 -12.600  1.00  0.00     0.039 C 
ATOM      9  C   UNL     1      20.641  27.941 -16.314  1.00  0.00     0.159 C 
ATOM     10  O   UNL     1      19.855  26.959 -16.269  1.00  0.00    -0.295 OA
ATOM     11  C   UNL     1      21.025  28.494 -17.656  1.00  0.00     0.084 C 
ENDROOT
TORSDOF 0
ENDMDL
