MODEL 1
REMARK VINA RESULT:    -3.284      0.000      0.000
REMARK INTER + INTRA:          -4.845
REMARK INTER:                  -4.436
REMARK INTRA:                  -0.409
REMARK UNBOUND:                -0.409
REMARK SMILES CCCCCCCC(C)=O
REMARK SMILES IDX 5 1 4 2 3 3 2 4 1 5 6 6 7 7 8 8 10 9 9 10
REMARK H PARENT
REMARK Flexibility Score: inf
ROOT
ATOM      1  C   UNL     1     137.260 134.952 128.828  1.00  0.00     0.000 C 
ENDROOT
BRANCH   1   2
ATOM      2  C   UNL     1     136.518 135.011 130.169  1.00  0.00     0.000 C 
BRANCH   2   3
ATOM      3  C   UNL     1     135.010 134.822 129.973  1.00  0.00    -0.000 C 
BRANCH   3   4
ATOM      4  C   UNL     1     134.547 135.429 128.643  1.00  0.00    -0.003 C 
ATOM      5  C   UNL     1     133.880 136.784 128.858  1.00  0.00     0.004 C 
ENDBRANCH   3   4
ENDBRANCH   2   3
ENDBRANCH   1   2
BRANCH   1   6
ATOM      6  C   UNL     1     138.392 133.919 128.869  1.00  0.00     0.008 C 
BRANCH   6   7
ATOM      7  C   UNL     1     139.738 134.563 128.520  1.00  0.00     0.075 C 
BRANCH   7   8
ATOM      8  C   UNL     1     140.247 135.393 129.667  1.00  0.00     0.129 C 
ATOM      9  O   UNL     1     140.595 136.548 129.473  1.00  0.00    -0.300 OA
ATOM     10  C   UNL     1     140.306 134.821 131.050  1.00  0.00     0.087 C 
ENDBRANCH   7   8
ENDBRANCH   6   7
ENDBRANCH   1   6
TORSDOF 6
ENDMDL
MODEL 2
REMARK VINA RESULT:    -3.195      3.965      5.217
REMARK INTER + INTRA:          -4.725
REMARK INTER:                  -4.356
REMARK INTRA:                  -0.369
REMARK UNBOUND:                -0.409
REMARK SMILES CCCCCCCC(C)=O
REMARK SMILES IDX 5 1 4 2 3 3 2 4 1 5 6 6 7 7 8 8 10 9 9 10
REMARK H PARENT
REMARK Flexibility Score: inf
ROOT
ATOM      1  C   UNL     1     134.198 136.788 128.831  1.00  0.00     0.000 C 
ENDROOT
BRANCH   1   2
ATOM      2  C   UNL     1     134.700 135.357 128.608  1.00  0.00     0.000 C 
BRANCH   2   3
ATOM      3  C   UNL     1     135.010 134.668 129.942  1.00  0.00    -0.000 C 
BRANCH   3   4
ATOM      4  C   UNL     1     134.768 135.618 131.121  1.00  0.00    -0.003 C 
ATOM      5  C   UNL     1     134.402 134.846 132.385  1.00  0.00     0.004 C 
ENDBRANCH   3   4
ENDBRANCH   2   3
ENDBRANCH   1   2
BRANCH   1   6
ATOM      6  C   UNL     1     135.035 137.796 128.034  1.00  0.00     0.008 C 
BRANCH   6   7
ATOM      7  C   UNL     1     135.835 138.709 128.970  1.00  0.00     0.075 C 
BRANCH   7   8
ATOM      8  C   UNL     1     135.223 140.083 129.026  1.00  0.00     0.129 C 
ATOM      9  O   UNL     1     134.354 140.326 129.849  1.00  0.00    -0.300 OA
ATOM     10  C   UNL     1     135.692 141.162 128.098  1.00  0.00     0.087 C 
ENDBRANCH   7   8
ENDBRANCH   6   7
ENDBRANCH   1   6
TORSDOF 6
ENDMDL
MODEL 3
REMARK VINA RESULT:    -3.171      2.177      3.508
REMARK INTER + INTRA:          -4.693
REMARK INTER:                  -4.216
REMARK INTRA:                  -0.477
REMARK UNBOUND:                -0.409
REMARK SMILES CCCCCCCC(C)=O
REMARK SMILES IDX 5 1 4 2 3 3 2 4 1 5 6 6 7 7 8 8 10 9 9 10
REMARK H PARENT
REMARK Flexibility Score: inf
ROOT
ATOM      1  C   UNL     1     140.499 135.125 129.786  1.00  0.00     0.000 C 
ENDROOT
BRANCH   1   2
ATOM      2  C   UNL     1     139.698 134.642 128.571  1.00  0.00     0.000 C 
BRANCH   2   3
ATOM      3  C   UNL     1     138.417 133.920 129.008  1.00  0.00    -0.000 C 
BRANCH   3   4
ATOM      4  C   UNL     1     137.198 134.841 128.887  1.00  0.00    -0.003 C 
ATOM      5  C   UNL     1     136.682 135.257 130.262  1.00  0.00     0.004 C 
ENDBRANCH   3   4
ENDBRANCH   2   3
ENDBRANCH   1   2
BRANCH   1   6
ATOM      6  C   UNL     1     140.217 136.603 130.079  1.00  0.00     0.008 C 
BRANCH   6   7
ATOM      7  C   UNL     1     140.247 137.435 128.792  1.00  0.00     0.075 C 
BRANCH   7   8
ATOM      8  C   UNL     1     140.601 138.867 129.090  1.00  0.00     0.129 C 
ATOM      9  O   UNL     1     141.105 139.561 128.220  1.00  0.00    -0.300 OA
ATOM     10  C   UNL     1     140.317 139.455 130.438  1.00  0.00     0.087 C 
ENDBRANCH   7   8
ENDBRANCH   6   7
ENDBRANCH   1   6
TORSDOF 6
ENDMDL
MODEL 4
REMARK VINA RESULT:    -3.151      2.267      5.005
REMARK INTER + INTRA:          -4.666
REMARK INTER:                  -4.276
REMARK INTRA:                  -0.390
REMARK UNBOUND:                -0.409
REMARK SMILES CCCCCCCC(C)=O
REMARK SMILES IDX 5 1 4 2 3 3 2 4 1 5 6 6 7 7 8 8 10 9 9 10
REMARK H PARENT
REMARK Flexibility Score: inf
ROOT
ATOM      1  C   UNL     1     138.437 134.300 128.954  1.00  0.00     0.000 C 
ENDROOT
BRANCH   1   2
ATOM      2  C   UNL     1     139.876 134.764 128.698  1.00  0.00     0.000 C 
BRANCH   2   3
ATOM      3  C   UNL     1     140.614 135.022 130.017  1.00  0.00    -0.000 C 
BRANCH   3   4
ATOM      4  C   UNL     1     139.640 135.024 131.201  1.00  0.00    -0.003 C 
ATOM      5  C   UNL     1     140.227 134.286 132.401  1.00  0.00     0.004 C 
ENDBRANCH   3   4
ENDBRANCH   2   3
ENDBRANCH   1   2
BRANCH   1   6
ATOM      6  C   UNL     1     137.462 134.960 127.972  1.00  0.00     0.008 C 
BRANCH   6   7
ATOM      7  C   UNL     1     136.556 135.967 128.689  1.00  0.00     0.075 C 
BRANCH   7   8
ATOM      8  C   UNL     1     135.214 135.357 128.991  1.00  0.00     0.129 C 
ATOM      9  O   UNL     1     134.308 135.450 128.178  1.00  0.00    -0.300 OA
ATOM     10  C   UNL     1     134.989 134.614 130.273  1.00  0.00     0.087 C 
ENDBRANCH   7   8
ENDBRANCH   6   7
ENDBRANCH   1   6
TORSDOF 6
ENDMDL
MODEL 5
REMARK VINA RESULT:    -3.148      4.224      4.980
REMARK INTER + INTRA:          -4.661
REMARK INTER:                  -4.272
REMARK INTRA:                  -0.389
REMARK UNBOUND:                -0.409
REMARK SMILES CCCCCCCC(C)=O
REMARK SMILES IDX 5 1 4 2 3 3 2 4 1 5 6 6 7 7 8 8 10 9 9 10
REMARK H PARENT
REMARK Flexibility Score: inf
ROOT
ATOM      1  C   UNL     1     137.971 140.283 128.746  1.00  0.00     0.000 C 
ENDROOT
BRANCH   1   2
ATOM      2  C   UNL     1     136.743 141.161 129.018  1.00  0.00     0.000 C 
BRANCH   2   3
ATOM      3  C   UNL     1     135.450 140.436 128.626  1.00  0.00    -0.000 C 
BRANCH   3   4
ATOM      4  C   UNL     1     135.027 139.440 129.712  1.00  0.00    -0.003 C 
ATOM      5  C   UNL     1     135.014 140.098 131.089  1.00  0.00     0.004 C 
ENDBRANCH   3   4
ENDBRANCH   2   3
ENDBRANCH   1   2
BRANCH   1   6
ATOM      6  C   UNL     1     138.756 140.018 130.036  1.00  0.00     0.008 C 
BRANCH   6   7
ATOM      7  C   UNL     1     140.260 140.214 129.815  1.00  0.00     0.075 C 
BRANCH   7   8
ATOM      8  C   UNL     1     140.803 139.167 128.880  1.00  0.00     0.129 C 
ATOM      9  O   UNL     1     141.408 139.506 127.875  1.00  0.00    -0.300 OA
ATOM     10  C   UNL     1     140.628 137.711 129.187  1.00  0.00     0.087 C 
ENDBRANCH   7   8
ENDBRANCH   6   7
ENDBRANCH   1   6
TORSDOF 6
ENDMDL
MODEL 6
REMARK VINA RESULT:    -3.138      3.281      5.032
REMARK INTER + INTRA:          -4.647
REMARK INTER:                  -4.278
REMARK INTRA:                  -0.369
REMARK UNBOUND:                -0.409
REMARK SMILES CCCCCCCC(C)=O
REMARK SMILES IDX 5 1 4 2 3 3 2 4 1 5 6 6 7 7 8 8 10 9 9 10
REMARK H PARENT
REMARK Flexibility Score: inf
ROOT
ATOM      1  C   UNL     1     134.968 137.983 128.699  1.00  0.00     0.000 C 
ENDROOT
BRANCH   1   2
ATOM      2  C   UNL     1     134.976 138.954 129.886  1.00  0.00     0.000 C 
BRANCH   2   3
ATOM      3  C   UNL     1     135.854 140.176 129.592  1.00  0.00    -0.000 C 
BRANCH   3   4
ATOM      4  C   UNL     1     135.822 140.530 128.101  1.00  0.00    -0.003 C 
ATOM      5  C   UNL     1     136.164 142.000 127.875  1.00  0.00     0.004 C 
ENDBRANCH   3   4
ENDBRANCH   2   3
ENDBRANCH   1   2
BRANCH   1   6
ATOM      6  C   UNL     1     133.946 136.860 128.913  1.00  0.00     0.008 C 
BRANCH   6   7
ATOM      7  C   UNL     1     134.564 135.489 128.616  1.00  0.00     0.075 C 
BRANCH   7   8
ATOM      8  C   UNL     1     135.397 135.017 129.776  1.00  0.00     0.129 C 
ATOM      9  O   UNL     1     136.516 134.567 129.576  1.00  0.00    -0.300 OA
ATOM     10  C   UNL     1     134.876 135.117 131.177  1.00  0.00     0.087 C 
ENDBRANCH   7   8
ENDBRANCH   6   7
ENDBRANCH   1   6
TORSDOF 6
ENDMDL
MODEL 7
REMARK VINA RESULT:    -3.132      2.366      3.926
REMARK INTER + INTRA:          -4.640
REMARK INTER:                  -3.783
REMARK INTRA:                  -0.857
REMARK UNBOUND:                -0.409
REMARK SMILES CCCCCCCC(C)=O
REMARK SMILES IDX 5 1 4 2 3 3 2 4 1 5 6 6 7 7 8 8 10 9 9 10
REMARK H PARENT
REMARK Flexibility Score: inf
ROOT
ATOM      1  C   UNL     1     140.291 135.523 129.598  1.00  0.00     0.000 C 
ENDROOT
BRANCH   1   2
ATOM      2  C   UNL     1     140.281 137.028 129.305  1.00  0.00     0.000 C 
BRANCH   2   3
ATOM      3  C   UNL     1     139.491 137.792 130.374  1.00  0.00    -0.000 C 
BRANCH   3   4
ATOM      4  C   UNL     1     138.284 138.509 129.758  1.00  0.00    -0.003 C 
ATOM      5  C   UNL     1     138.317 138.435 128.234  1.00  0.00     0.004 C 
ENDBRANCH   3   4
ENDBRANCH   2   3
ENDBRANCH   1   2
BRANCH   1   6
ATOM      6  C   UNL     1     139.599 134.739 128.477  1.00  0.00     0.008 C 
BRANCH   6   7
ATOM      7  C   UNL     1     138.371 133.989 129.007  1.00  0.00     0.075 C 
BRANCH   7   8
ATOM      8  C   UNL     1     137.171 134.894 129.053  1.00  0.00     0.129 C 
ATOM      9  O   UNL     1     136.687 135.314 128.013  1.00  0.00    -0.300 OA
ATOM     10  C   UNL     1     136.548 135.265 130.365  1.00  0.00     0.087 C 
ENDBRANCH   7   8
ENDBRANCH   6   7
ENDBRANCH   1   6
TORSDOF 6
ENDMDL
MODEL 8
REMARK VINA RESULT:    -3.123      4.051      4.944
REMARK INTER + INTRA:          -4.627
REMARK INTER:                  -4.174
REMARK INTRA:                  -0.453
REMARK UNBOUND:                -0.409
REMARK SMILES CCCCCCCC(C)=O
REMARK SMILES IDX 5 1 4 2 3 3 2 4 1 5 6 6 7 7 8 8 10 9 9 10
REMARK H PARENT
REMARK Flexibility Score: inf
ROOT
ATOM      1  C   UNL     1     136.528 141.275 128.603  1.00  0.00     0.000 C 
ENDROOT
BRANCH   1   2
ATOM      2  C   UNL     1     135.377 140.286 128.381  1.00  0.00     0.000 C 
BRANCH   2   3
ATOM      3  C   UNL     1     134.984 139.595 129.692  1.00  0.00    -0.000 C 
BRANCH   3   4
ATOM      4  C   UNL     1     134.970 138.071 129.529  1.00  0.00    -0.003 C 
ATOM      5  C   UNL     1     135.046 137.674 128.058  1.00  0.00     0.004 C 
ENDBRANCH   3   4
ENDBRANCH   2   3
ENDBRANCH   1   2
BRANCH   1   6
ATOM      6  C   UNL     1     137.655 140.634 129.421  1.00  0.00     0.008 C 
BRANCH   6   7
ATOM      7  C   UNL     1     138.576 139.796 128.528  1.00  0.00     0.075 C 
BRANCH   7   8
ATOM      8  C   UNL     1     140.003 139.888 128.996  1.00  0.00     0.129 C 
ATOM      9  O   UNL     1     140.296 140.653 129.903  1.00  0.00    -0.300 OA
ATOM     10  C   UNL     1     141.063 139.030 128.376  1.00  0.00     0.087 C 
ENDBRANCH   7   8
ENDBRANCH   6   7
ENDBRANCH   1   6
TORSDOF 6
ENDMDL
MODEL 9
REMARK VINA RESULT:    -3.119      3.776      5.563
REMARK INTER + INTRA:          -4.622
REMARK INTER:                  -3.918
REMARK INTRA:                  -0.704
REMARK UNBOUND:                -0.409
REMARK SMILES CCCCCCCC(C)=O
REMARK SMILES IDX 5 1 4 2 3 3 2 4 1 5 6 6 7 7 8 8 10 9 9 10
REMARK H PARENT
REMARK Flexibility Score: inf
ROOT
ATOM      1  C   UNL     1     141.115 138.430 128.779  1.00  0.00     0.000 C 
ENDROOT
BRANCH   1   2
ATOM      2  C   UNL     1     140.197 137.498 127.980  1.00  0.00     0.000 C 
BRANCH   2   3
ATOM      3  C   UNL     1     139.267 136.710 128.911  1.00  0.00    -0.000 C 
BRANCH   3   4
ATOM      4  C   UNL     1     139.908 136.513 130.289  1.00  0.00    -0.003 C 
ATOM      5  C   UNL     1     140.385 135.075 130.475  1.00  0.00     0.004 C 
ENDBRANCH   3   4
ENDBRANCH   2   3
ENDBRANCH   1   2
BRANCH   1   6
ATOM      6  C   UNL     1     140.642 139.886 128.683  1.00  0.00     0.008 C 
BRANCH   6   7
ATOM      7  C   UNL     1     140.039 140.357 130.010  1.00  0.00     0.075 C 
BRANCH   7   8
ATOM      8  C   UNL     1     138.544 140.189 130.007  1.00  0.00     0.129 C 
ATOM      9  O   UNL     1     137.896 140.537 129.031  1.00  0.00    -0.300 OA
ATOM     10  C   UNL     1     137.845 139.576 131.182  1.00  0.00     0.087 C 
ENDBRANCH   7   8
ENDBRANCH   6   7
ENDBRANCH   1   6
TORSDOF 6
ENDMDL
