MODEL 1
REMARK VINA RESULT:    -4.727      0.000      0.000
REMARK INTER + INTRA:          -5.132
REMARK INTER:                  -5.003
REMARK INTRA:                  -0.129
REMARK UNBOUND:                -0.129
REMARK SMILES C=C(C)[C@H]1CC=C(C)CC1
REMARK SMILES IDX 8 1 7 2 6 3 5 4 4 5 10 6 9 7 2 8 1 9 3 10
REMARK H PARENT
REMARK Flexibility Score: inf
ROOT
ATOM      1  C   UNL     1       4.901   7.127  -9.791  1.00  0.00     0.039 C 
ATOM      2  C   UNL     1       3.721   7.613  -8.996  1.00  0.00    -0.077 C 
ATOM      3  C   UNL     1       3.080   8.733  -9.392  1.00  0.00    -0.027 C 
ATOM      4  C   UNL     1       1.921   9.330  -8.630  1.00  0.00     0.035 C 
ATOM      5  C   UNL     1       1.213   8.291  -7.742  1.00  0.00     0.018 C 
ATOM      6  C   UNL     1       2.252   7.512  -6.920  1.00  0.00     0.013 C 
ATOM      7  C   UNL     1       3.206   6.757  -7.853  1.00  0.00     0.031 C 
ENDROOT
BRANCH   5   8
ATOM      8  C   UNL     1       0.161   8.940  -6.851  1.00  0.00    -0.077 C 
ATOM      9  C   UNL     1      -0.410  10.111  -7.182  1.00  0.00     0.008 C 
ATOM     10  C   UNL     1      -0.258   8.270  -5.567  1.00  0.00     0.039 C 
ENDBRANCH   5   8
TORSDOF 1
ENDMDL
MODEL 2
REMARK VINA RESULT:    -4.706      0.504      1.961
REMARK INTER + INTRA:          -5.110
REMARK INTER:                  -4.982
REMARK INTRA:                  -0.129
REMARK UNBOUND:                -0.129
REMARK SMILES C=C(C)[C@H]1CC=C(C)CC1
REMARK SMILES IDX 8 1 7 2 6 3 5 4 4 5 10 6 9 7 2 8 1 9 3 10
REMARK H PARENT
REMARK Flexibility Score: inf
ROOT
ATOM      1  C   UNL     1       5.217   7.218  -9.750  1.00  0.00     0.039 C 
ATOM      2  C   UNL     1       3.923   7.580  -9.074  1.00  0.00    -0.077 C 
ATOM      3  C   UNL     1       3.594   6.968  -7.917  1.00  0.00    -0.027 C 
ATOM      4  C   UNL     1       2.294   7.223  -7.193  1.00  0.00     0.035 C 
ATOM      5  C   UNL     1       1.679   8.584  -7.565  1.00  0.00     0.018 C 
ATOM      6  C   UNL     1       1.662   8.749  -9.092  1.00  0.00     0.013 C 
ATOM      7  C   UNL     1       3.093   8.717  -9.643  1.00  0.00     0.031 C 
ENDROOT
BRANCH   5   8
ATOM      8  C   UNL     1       0.289   8.753  -6.965  1.00  0.00    -0.077 C 
ATOM      9  C   UNL     1      -0.013   8.264  -5.750  1.00  0.00     0.008 C 
ATOM     10  C   UNL     1      -0.784   9.479  -7.737  1.00  0.00     0.039 C 
ENDBRANCH   5   8
TORSDOF 1
ENDMDL
MODEL 3
REMARK VINA RESULT:    -4.461      3.275      5.373
REMARK INTER + INTRA:          -4.851
REMARK INTER:                  -4.725
REMARK INTRA:                  -0.126
REMARK UNBOUND:                -0.129
REMARK SMILES C=C(C)[C@H]1CC=C(C)CC1
REMARK SMILES IDX 8 1 7 2 6 3 5 4 4 5 10 6 9 7 2 8 1 9 3 10
REMARK H PARENT
REMARK Flexibility Score: inf
ROOT
ATOM      1  C   UNL     1       0.726   8.500  -6.855  1.00  0.00     0.039 C 
ATOM      2  C   UNL     1      -0.598   8.767  -6.193  1.00  0.00    -0.077 C 
ATOM      3  C   UNL     1      -1.667   9.066  -6.962  1.00  0.00    -0.027 C 
ATOM      4  C   UNL     1      -3.023   9.402  -6.389  1.00  0.00     0.035 C 
ATOM      5  C   UNL     1      -3.208   8.842  -4.968  1.00  0.00     0.018 C 
ATOM      6  C   UNL     1      -1.987   9.195  -4.104  1.00  0.00     0.013 C 
ATOM      7  C   UNL     1      -0.721   8.561  -4.695  1.00  0.00     0.031 C 
ENDROOT
BRANCH   5   8
ATOM      8  C   UNL     1      -4.505   9.333  -4.337  1.00  0.00    -0.077 C 
ATOM      9  C   UNL     1      -5.698   9.079  -4.901  1.00  0.00     0.008 C 
ATOM     10  C   UNL     1      -4.469  10.125  -3.055  1.00  0.00     0.039 C 
ENDBRANCH   5   8
TORSDOF 1
ENDMDL
MODEL 4
REMARK VINA RESULT:    -4.347      3.268      5.515
REMARK INTER + INTRA:          -4.730
REMARK INTER:                  -4.603
REMARK INTRA:                  -0.126
REMARK UNBOUND:                -0.129
REMARK SMILES C=C(C)[C@H]1CC=C(C)CC1
REMARK SMILES IDX 8 1 7 2 6 3 5 4 4 5 10 6 9 7 2 8 1 9 3 10
REMARK H PARENT
REMARK Flexibility Score: inf
ROOT
ATOM      1  C   UNL     1       0.704   8.599  -7.014  1.00  0.00     0.039 C 
ATOM      2  C   UNL     1      -0.600   8.797  -6.291  1.00  0.00    -0.077 C 
ATOM      3  C   UNL     1      -0.597   8.880  -4.944  1.00  0.00    -0.027 C 
ATOM      4  C   UNL     1      -1.858   9.024  -4.126  1.00  0.00     0.035 C 
ATOM      5  C   UNL     1      -3.019   9.612  -4.948  1.00  0.00     0.018 C 
ATOM      6  C   UNL     1      -3.144   8.864  -6.284  1.00  0.00     0.013 C 
ATOM      7  C   UNL     1      -1.860   9.030  -7.105  1.00  0.00     0.031 C 
ENDROOT
BRANCH   5   8
ATOM      8  C   UNL     1      -4.326   9.590  -4.165  1.00  0.00    -0.077 C 
ATOM      9  C   UNL     1      -4.414  10.123  -2.934  1.00  0.00     0.008 C 
ATOM     10  C   UNL     1      -5.556   8.959  -4.767  1.00  0.00     0.039 C 
ENDBRANCH   5   8
TORSDOF 1
ENDMDL
MODEL 5
REMARK VINA RESULT:    -4.276     21.386     22.573
REMARK INTER + INTRA:          -4.656
REMARK INTER:                  -4.532
REMARK INTRA:                  -0.124
REMARK UNBOUND:                -0.129
REMARK SMILES C=C(C)[C@H]1CC=C(C)CC1
REMARK SMILES IDX 8 1 7 2 6 3 5 4 4 5 10 6 9 7 2 8 1 9 3 10
REMARK H PARENT
REMARK Flexibility Score: inf
ROOT
ATOM      1  C   UNL     1      -0.783 -10.124   4.125  1.00  0.00     0.039 C 
ATOM      2  C   UNL     1      -1.125  -9.305   5.340  1.00  0.00    -0.077 C 
ATOM      3  C   UNL     1      -0.594  -9.649   6.532  1.00  0.00    -0.027 C 
ATOM      4  C   UNL     1      -0.919  -8.925   7.816  1.00  0.00     0.035 C 
ATOM      5  C   UNL     1      -1.424  -7.493   7.563  1.00  0.00     0.018 C 
ATOM      6  C   UNL     1      -2.517  -7.508   6.483  1.00  0.00     0.013 C 
ATOM      7  C   UNL     1      -1.948  -8.043   5.163  1.00  0.00     0.031 C 
ENDROOT
BRANCH   5   8
ATOM      8  C   UNL     1      -1.912  -6.836   8.849  1.00  0.00    -0.077 C 
ATOM      9  C   UNL     1      -3.035  -7.246   9.462  1.00  0.00     0.008 C 
ATOM     10  C   UNL     1      -1.132  -5.699   9.458  1.00  0.00     0.039 C 
ENDBRANCH   5   8
TORSDOF 1
ENDMDL
MODEL 6
REMARK VINA RESULT:    -4.107     21.475     23.261
REMARK INTER + INTRA:          -4.477
REMARK INTER:                  -4.354
REMARK INTRA:                  -0.123
REMARK UNBOUND:                -0.129
REMARK SMILES C=C(C)[C@H]1CC=C(C)CC1
REMARK SMILES IDX 8 1 7 2 6 3 5 4 4 5 10 6 9 7 2 8 1 9 3 10
REMARK H PARENT
REMARK Flexibility Score: inf
ROOT
ATOM      1  C   UNL     1       2.156  -8.332  10.125  1.00  0.00     0.039 C 
ATOM      2  C   UNL     1       0.889  -8.185   9.327  1.00  0.00    -0.077 C 
ATOM      3  C   UNL     1       0.605  -9.098   8.374  1.00  0.00    -0.027 C 
ATOM      4  C   UNL     1      -0.612  -9.006   7.485  1.00  0.00     0.035 C 
ATOM      5  C   UNL     1      -1.727  -8.151   8.113  1.00  0.00     0.018 C 
ATOM      6  C   UNL     1      -1.143  -6.825   8.623  1.00  0.00     0.013 C 
ATOM      7  C   UNL     1      -0.092  -7.092   9.707  1.00  0.00     0.031 C 
ENDROOT
BRANCH   5   8
ATOM      8  C   UNL     1      -2.875  -7.923   7.137  1.00  0.00    -0.077 C 
ATOM      9  C   UNL     1      -4.154  -8.117   7.503  1.00  0.00     0.008 C 
ATOM     10  C   UNL     1      -2.589  -7.474   5.727  1.00  0.00     0.039 C 
ENDBRANCH   5   8
TORSDOF 1
ENDMDL
MODEL 7
REMARK VINA RESULT:    -4.104      5.270      7.651
REMARK INTER + INTRA:          -4.473
REMARK INTER:                  -4.346
REMARK INTRA:                  -0.127
REMARK UNBOUND:                -0.129
REMARK SMILES C=C(C)[C@H]1CC=C(C)CC1
REMARK SMILES IDX 8 1 7 2 6 3 5 4 4 5 10 6 9 7 2 8 1 9 3 10
REMARK H PARENT
REMARK Flexibility Score: inf
ROOT
ATOM      1  C   UNL     1      -1.339   8.247  -5.751  1.00  0.00     0.039 C 
ATOM      2  C   UNL     1      -2.815   7.963  -5.674  1.00  0.00    -0.077 C 
ATOM      3  C   UNL     1      -3.332   6.973  -6.432  1.00  0.00    -0.027 C 
ATOM      4  C   UNL     1      -4.806   6.648  -6.466  1.00  0.00     0.035 C 
ATOM      5  C   UNL     1      -5.537   7.135  -5.202  1.00  0.00     0.018 C 
ATOM      6  C   UNL     1      -5.158   8.596  -4.910  1.00  0.00     0.013 C 
ATOM      7  C   UNL     1      -3.651   8.709  -4.651  1.00  0.00     0.031 C 
ENDROOT
BRANCH   5   8
ATOM      8  C   UNL     1      -7.046   6.958  -5.324  1.00  0.00    -0.077 C 
ATOM      9  C   UNL     1      -7.584   5.791  -5.717  1.00  0.00     0.008 C 
ATOM     10  C   UNL     1      -7.969   8.106  -5.005  1.00  0.00     0.039 C 
ENDBRANCH   5   8
TORSDOF 1
ENDMDL
MODEL 8
REMARK VINA RESULT:    -3.895      5.658      7.747
REMARK INTER + INTRA:          -4.251
REMARK INTER:                  -4.125
REMARK INTRA:                  -0.127
REMARK UNBOUND:                -0.129
REMARK SMILES C=C(C)[C@H]1CC=C(C)CC1
REMARK SMILES IDX 8 1 7 2 6 3 5 4 4 5 10 6 9 7 2 8 1 9 3 10
REMARK H PARENT
REMARK Flexibility Score: inf
ROOT
ATOM      1  C   UNL     1      -1.438  10.125  -4.508  1.00  0.00     0.039 C 
ATOM      2  C   UNL     1      -2.782   9.467  -4.666  1.00  0.00    -0.077 C 
ATOM      3  C   UNL     1      -3.858  10.023  -4.070  1.00  0.00    -0.027 C 
ATOM      4  C   UNL     1      -5.236   9.409  -4.124  1.00  0.00     0.035 C 
ATOM      5  C   UNL     1      -5.404   8.463  -5.327  1.00  0.00     0.018 C 
ATOM      6  C   UNL     1      -4.213   7.495  -5.399  1.00  0.00     0.013 C 
ATOM      7  C   UNL     1      -2.908   8.276  -5.597  1.00  0.00     0.031 C 
ENDROOT
BRANCH   5   8
ATOM      8  C   UNL     1      -6.733   7.720  -5.274  1.00  0.00    -0.077 C 
ATOM      9  C   UNL     1      -6.783   6.377  -5.252  1.00  0.00     0.008 C 
ATOM     10  C   UNL     1      -8.028   8.490  -5.247  1.00  0.00     0.039 C 
ENDBRANCH   5   8
TORSDOF 1
ENDMDL
