MODEL 1
REMARK VINA RESULT:    -5.116      0.000      0.000
REMARK INTER + INTRA:         -11.352
REMARK INTER:                  -9.602
REMARK INTRA:                  -1.751
REMARK UNBOUND:                -1.751
REMARK SMILES O=C([O-])CCCCCCCCCCCCCCC(=O)[O-]
REMARK SMILES IDX 10 1 9 2 8 3 7 4 6 5 5 6 4 7 2 8 1 9 3 10 11 11 12 12 13 13
REMARK SMILES IDX 14 14 15 15 16 16 17 17 18 18 19 19 20 20
REMARK H PARENT
REMARK Flexibility Score: inf
ROOT
ATOM      1  C   UNL     1      75.251  11.964  20.063  1.00  0.00     0.000 C 
ENDROOT
BRANCH   1   2
ATOM      2  C   UNL     1      76.687  11.455  19.812  1.00  0.00     0.000 C 
BRANCH   2   3
ATOM      3  C   UNL     1      77.744  12.531  20.105  1.00  0.00     0.000 C 
BRANCH   3   4
ATOM      4  C   UNL     1      78.161  13.319  18.849  1.00  0.00     0.000 C 
BRANCH   4   5
ATOM      5  C   UNL     1      77.900  14.834  18.973  1.00  0.00     0.000 C 
BRANCH   5   6
ATOM      6  C   UNL     1      79.140  15.722  18.742  1.00  0.00     0.006 C 
BRANCH   6   7
ATOM      7  C   UNL     1      79.931  16.084  20.008  1.00  0.00     0.053 C 
BRANCH   7   8
ATOM      8  C   UNL     1      81.127  15.204  20.221  1.00  0.00     0.041 C 
ATOM      9  O   UNL     1      81.158  14.390  21.181  1.00  0.00    -0.550 OA
ATOM     10  O   UNL     1      82.201  15.268  19.338  1.00  0.00    -0.550 OA
ENDBRANCH   7   8
ENDBRANCH   6   7
ENDBRANCH   5   6
ENDBRANCH   4   5
ENDBRANCH   3   4
ENDBRANCH   2   3
ENDBRANCH   1   2
BRANCH   1  11
ATOM     11  C   UNL     1      74.371  11.923  18.804  1.00  0.00     0.000 C 
BRANCH  11  12
ATOM     12  C   UNL     1      73.688  13.277  18.523  1.00  0.00     0.000 C 
BRANCH  12  13
ATOM     13  C   UNL     1      74.619  14.270  17.811  1.00  0.00     0.000 C 
BRANCH  13  14
ATOM     14  C   UNL     1      75.216  13.696  16.509  1.00  0.00     0.000 C 
BRANCH  14  15
ATOM     15  C   UNL     1      75.341  14.752  15.403  1.00  0.00     0.000 C 
BRANCH  15  16
ATOM     16  C   UNL     1      74.655  16.076  15.772  1.00  0.00     0.006 C 
BRANCH  16  17
ATOM     17  C   UNL     1      75.288  17.247  15.016  1.00  0.00     0.053 C 
BRANCH  17  18
ATOM     18  C   UNL     1      76.688  17.479  15.482  1.00  0.00     0.041 C 
ATOM     19  O   UNL     1      76.910  17.826  16.667  1.00  0.00    -0.550 OA
ATOM     20  O   UNL     1      77.753  17.262  14.620  1.00  0.00    -0.550 OA
ENDBRANCH  17  18
ENDBRANCH  16  17
ENDBRANCH  15  16
ENDBRANCH  14  15
ENDBRANCH  13  14
ENDBRANCH  12  13
ENDBRANCH  11  12
ENDBRANCH   1  11
TORSDOF 15
ENDMDL
MODEL 2
REMARK VINA RESULT:    -5.043      1.830      5.246
REMARK INTER + INTRA:         -11.216
REMARK INTER:                  -9.638
REMARK INTRA:                  -1.578
REMARK UNBOUND:                -1.751
REMARK SMILES O=C([O-])CCCCCCCCCCCCCCC(=O)[O-]
REMARK SMILES IDX 10 1 9 2 8 3 7 4 6 5 5 6 4 7 2 8 1 9 3 10 11 11 12 12 13 13
REMARK SMILES IDX 14 14 15 15 16 16 17 17 18 18 19 19 20 20
REMARK H PARENT
REMARK Flexibility Score: inf
ROOT
ATOM      1  C   UNL     1      75.658  11.873  20.185  1.00  0.00     0.000 C 
ENDROOT
BRANCH   1   2
ATOM      2  C   UNL     1      74.624  11.662  19.057  1.00  0.00     0.000 C 
BRANCH   2   3
ATOM      3  C   UNL     1      73.947  12.976  18.637  1.00  0.00     0.000 C 
BRANCH   3   4
ATOM      4  C   UNL     1      74.751  13.751  17.576  1.00  0.00     0.000 C 
BRANCH   4   5
ATOM      5  C   UNL     1      75.454  15.001  18.146  1.00  0.00     0.000 C 
BRANCH   5   6
ATOM      6  C   UNL     1      76.800  15.344  17.476  1.00  0.00     0.006 C 
BRANCH   6   7
ATOM      7  C   UNL     1      76.787  16.593  16.583  1.00  0.00     0.053 C 
BRANCH   7   8
ATOM      8  C   UNL     1      75.442  16.864  15.976  1.00  0.00     0.041 C 
ATOM      9  O   UNL     1      74.654  17.689  16.509  1.00  0.00    -0.550 OA
ATOM     10  O   UNL     1      75.069  16.218  14.801  1.00  0.00    -0.550 OA
ENDBRANCH   7   8
ENDBRANCH   6   7
ENDBRANCH   5   6
ENDBRANCH   4   5
ENDBRANCH   3   4
ENDBRANCH   2   3
ENDBRANCH   1   2
BRANCH   1  11
ATOM     11  C   UNL     1      76.851  10.908  20.094  1.00  0.00     0.000 C 
BRANCH  11  12
ATOM     12  C   UNL     1      78.091  11.567  19.459  1.00  0.00     0.000 C 
BRANCH  12  13
ATOM     13  C   UNL     1      78.242  13.045  19.855  1.00  0.00     0.000 C 
BRANCH  13  14
ATOM     14  C   UNL     1      79.678  13.570  19.649  1.00  0.00     0.000 C 
BRANCH  14  15
ATOM     15  C   UNL     1      80.067  14.637  20.683  1.00  0.00     0.000 C 
BRANCH  15  16
ATOM     16  C   UNL     1      79.741  16.062  20.210  1.00  0.00     0.006 C 
BRANCH  16  17
ATOM     17  C   UNL     1      80.229  16.284  18.776  1.00  0.00     0.053 C 
BRANCH  17  18
ATOM     18  C   UNL     1      80.337  17.744  18.477  1.00  0.00     0.041 C 
ATOM     19  O   UNL     1      79.354  18.366  18.006  1.00  0.00    -0.550 OA
ATOM     20  O   UNL     1      81.507  18.430  18.768  1.00  0.00    -0.550 OA
ENDBRANCH  17  18
ENDBRANCH  16  17
ENDBRANCH  15  16
ENDBRANCH  14  15
ENDBRANCH  13  14
ENDBRANCH  12  13
ENDBRANCH  11  12
ENDBRANCH   1  11
TORSDOF 15
ENDMDL
MODEL 3
REMARK VINA RESULT:    -5.042      1.660      5.418
REMARK INTER + INTRA:         -11.215
REMARK INTER:                  -8.677
REMARK INTRA:                  -2.538
REMARK UNBOUND:                -1.751
REMARK SMILES O=C([O-])CCCCCCCCCCCCCCC(=O)[O-]
REMARK SMILES IDX 10 1 9 2 8 3 7 4 6 5 5 6 4 7 2 8 1 9 3 10 11 11 12 12 13 13
REMARK SMILES IDX 14 14 15 15 16 16 17 17 18 18 19 19 20 20
REMARK H PARENT
REMARK Flexibility Score: inf
ROOT
ATOM      1  C   UNL     1      76.618  10.804  19.940  1.00  0.00     0.000 C 
ENDROOT
BRANCH   1   2
ATOM      2  C   UNL     1      75.666  12.009  20.102  1.00  0.00     0.000 C 
BRANCH   2   3
ATOM      3  C   UNL     1      74.326  11.791  19.382  1.00  0.00     0.000 C 
BRANCH   3   4
ATOM      4  C   UNL     1      73.793  13.068  18.708  1.00  0.00     0.000 C 
BRANCH   4   5
ATOM      5  C   UNL     1      74.917  14.022  18.250  1.00  0.00     0.000 C 
BRANCH   5   6
ATOM      6  C   UNL     1      74.933  14.319  16.737  1.00  0.00     0.006 C 
BRANCH   6   7
ATOM      7  C   UNL     1      75.985  15.340  16.281  1.00  0.00     0.053 C 
BRANCH   7   8
ATOM      8  C   UNL     1      75.384  16.641  15.837  1.00  0.00     0.041 C 
ATOM      9  O   UNL     1      74.338  16.656  15.137  1.00  0.00    -0.550 OA
ATOM     10  O   UNL     1      75.971  17.842  16.222  1.00  0.00    -0.550 OA
ENDBRANCH   7   8
ENDBRANCH   6   7
ENDBRANCH   5   6
ENDBRANCH   4   5
ENDBRANCH   3   4
ENDBRANCH   2   3
ENDBRANCH   1   2
BRANCH   1  11
ATOM     11  C   UNL     1      76.322   9.968  18.685  1.00  0.00     0.000 C 
BRANCH  11  12
ATOM     12  C   UNL     1      77.394  10.151  17.592  1.00  0.00     0.000 C 
BRANCH  12  13
ATOM     13  C   UNL     1      77.122  11.372  16.698  1.00  0.00     0.000 C 
BRANCH  13  14
ATOM     14  C   UNL     1      78.369  12.261  16.515  1.00  0.00     0.000 C 
BRANCH  14  15
ATOM     15  C   UNL     1      79.103  12.525  17.837  1.00  0.00     0.000 C 
BRANCH  15  16
ATOM     16  C   UNL     1      78.596  13.788  18.550  1.00  0.00     0.006 C 
BRANCH  16  17
ATOM     17  C   UNL     1      78.972  13.763  20.034  1.00  0.00     0.053 C 
BRANCH  17  18
ATOM     18  C   UNL     1      80.026  14.781  20.327  1.00  0.00     0.041 C 
ATOM     19  O   UNL     1      81.222  14.427  20.471  1.00  0.00    -0.550 OA
ATOM     20  O   UNL     1      79.696  16.127  20.389  1.00  0.00    -0.550 OA
ENDBRANCH  17  18
ENDBRANCH  16  17
ENDBRANCH  15  16
ENDBRANCH  14  15
ENDBRANCH  13  14
ENDBRANCH  12  13
ENDBRANCH  11  12
ENDBRANCH   1  11
TORSDOF 15
ENDMDL
MODEL 4
REMARK VINA RESULT:    -4.977      1.757      2.562
REMARK INTER + INTRA:         -11.093
REMARK INTER:                  -9.005
REMARK INTRA:                  -2.088
REMARK UNBOUND:                -1.751
REMARK SMILES O=C([O-])CCCCCCCCCCCCCCC(=O)[O-]
REMARK SMILES IDX 10 1 9 2 8 3 7 4 6 5 5 6 4 7 2 8 1 9 3 10 11 11 12 12 13 13
REMARK SMILES IDX 14 14 15 15 16 16 17 17 18 18 19 19 20 20
REMARK H PARENT
REMARK Flexibility Score: inf
ROOT
ATOM      1  C   UNL     1      76.858  11.948  20.480  1.00  0.00     0.000 C 
ENDROOT
BRANCH   1   2
ATOM      2  C   UNL     1      78.118  12.762  20.117  1.00  0.00     0.000 C 
BRANCH   2   3
ATOM      3  C   UNL     1      78.264  12.961  18.600  1.00  0.00     0.000 C 
BRANCH   3   4
ATOM      4  C   UNL     1      78.621  14.409  18.218  1.00  0.00     0.000 C 
BRANCH   4   5
ATOM      5  C   UNL     1      78.840  15.320  19.444  1.00  0.00     0.000 C 
BRANCH   5   6
ATOM      6  C   UNL     1      80.318  15.631  19.758  1.00  0.00     0.006 C 
BRANCH   6   7
ATOM      7  C   UNL     1      80.981  14.697  20.780  1.00  0.00     0.053 C 
BRANCH   7   8
ATOM      8  C   UNL     1      82.038  13.822  20.173  1.00  0.00     0.041 C 
ATOM      9  O   UNL     1      81.737  12.701  19.685  1.00  0.00    -0.550 OA
ATOM     10  O   UNL     1      83.357  14.261  20.124  1.00  0.00    -0.550 OA
ENDBRANCH   7   8
ENDBRANCH   6   7
ENDBRANCH   5   6
ENDBRANCH   4   5
ENDBRANCH   3   4
ENDBRANCH   2   3
ENDBRANCH   1   2
BRANCH   1  11
ATOM     11  C   UNL     1      76.555  10.827  19.472  1.00  0.00     0.000 C 
BRANCH  11  12
ATOM     12  C   UNL     1      75.279  11.105  18.653  1.00  0.00     0.000 C 
BRANCH  12  13
ATOM     13  C   UNL     1      74.271  11.984  19.411  1.00  0.00     0.000 C 
BRANCH  13  14
ATOM     14  C   UNL     1      73.729  13.143  18.549  1.00  0.00     0.000 C 
BRANCH  14  15
ATOM     15  C   UNL     1      74.808  14.183  18.217  1.00  0.00     0.000 C 
BRANCH  15  16
ATOM     16  C   UNL     1      74.821  14.564  16.728  1.00  0.00     0.006 C 
BRANCH  16  17
ATOM     17  C   UNL     1      75.302  13.390  15.871  1.00  0.00     0.053 C 
BRANCH  17  18
ATOM     18  C   UNL     1      76.568  13.743  15.159  1.00  0.00     0.041 C 
ATOM     19  O   UNL     1      76.840  14.943  14.913  1.00  0.00    -0.550 OA
ATOM     20  O   UNL     1      77.471  12.749  14.814  1.00  0.00    -0.550 OA
ENDBRANCH  17  18
ENDBRANCH  16  17
ENDBRANCH  15  16
ENDBRANCH  14  15
ENDBRANCH  13  14
ENDBRANCH  12  13
ENDBRANCH  11  12
ENDBRANCH   1  11
TORSDOF 15
ENDMDL
MODEL 5
REMARK VINA RESULT:    -4.967      2.847      4.622
REMARK INTER + INTRA:         -11.072
REMARK INTER:                  -9.173
REMARK INTRA:                  -1.899
REMARK UNBOUND:                -1.751
REMARK SMILES O=C([O-])CCCCCCCCCCCCCCC(=O)[O-]
REMARK SMILES IDX 10 1 9 2 8 3 7 4 6 5 5 6 4 7 2 8 1 9 3 10 11 11 12 12 13 13
REMARK SMILES IDX 14 14 15 15 16 16 17 17 18 18 19 19 20 20
REMARK H PARENT
REMARK Flexibility Score: inf
ROOT
ATOM      1  C   UNL     1      76.729  15.295  17.608  1.00  0.00     0.000 C 
ENDROOT
BRANCH   1   2
ATOM      2  C   UNL     1      77.609  14.049  17.850  1.00  0.00     0.000 C 
BRANCH   2   3
ATOM      3  C   UNL     1      78.499  14.200  19.094  1.00  0.00     0.000 C 
BRANCH   3   4
ATOM      4  C   UNL     1      78.977  15.646  19.316  1.00  0.00     0.000 C 
BRANCH   4   5
ATOM      5  C   UNL     1      80.322  15.728  20.067  1.00  0.00     0.000 C 
BRANCH   5   6
ATOM      6  C   UNL     1      80.654  14.493  20.931  1.00  0.00     0.006 C 
BRANCH   6   7
ATOM      7  C   UNL     1      82.133  14.083  20.946  1.00  0.00     0.053 C 
BRANCH   7   8
ATOM      8  C   UNL     1      82.751  14.075  19.578  1.00  0.00     0.041 C 
ATOM      9  O   UNL     1      83.715  14.838  19.308  1.00  0.00    -0.550 OA
ATOM     10  O   UNL     1      82.274  13.199  18.608  1.00  0.00    -0.550 OA
ENDBRANCH   7   8
ENDBRANCH   6   7
ENDBRANCH   5   6
ENDBRANCH   4   5
ENDBRANCH   3   4
ENDBRANCH   2   3
ENDBRANCH   1   2
BRANCH   1  11
ATOM     11  C   UNL     1      75.237  15.037  17.869  1.00  0.00     0.000 C 
BRANCH  11  12
ATOM     12  C   UNL     1      74.844  13.566  17.623  1.00  0.00     0.000 C 
BRANCH  12  13
ATOM     13  C   UNL     1      73.856  13.036  18.674  1.00  0.00     0.000 C 
BRANCH  13  14
ATOM     14  C   UNL     1      74.364  11.759  19.375  1.00  0.00     0.000 C 
BRANCH  14  15
ATOM     15  C   UNL     1      75.605  12.017  20.241  1.00  0.00     0.000 C 
BRANCH  15  16
ATOM     16  C   UNL     1      76.711  10.976  20.010  1.00  0.00     0.006 C 
BRANCH  16  17
ATOM     17  C   UNL     1      76.439  10.166  18.740  1.00  0.00     0.053 C 
BRANCH  17  18
ATOM     18  C   UNL     1      77.536  10.365  17.744  1.00  0.00     0.041 C 
ATOM     19  O   UNL     1      78.699  10.632  18.132  1.00  0.00    -0.550 OA
ATOM     20  O   UNL     1      77.283  10.205  16.390  1.00  0.00    -0.550 OA
ENDBRANCH  17  18
ENDBRANCH  16  17
ENDBRANCH  15  16
ENDBRANCH  14  15
ENDBRANCH  13  14
ENDBRANCH  12  13
ENDBRANCH  11  12
ENDBRANCH   1  11
TORSDOF 15
ENDMDL
MODEL 6
REMARK VINA RESULT:    -4.957      1.281      6.166
REMARK INTER + INTRA:         -11.054
REMARK INTER:                  -9.544
REMARK INTRA:                  -1.510
REMARK UNBOUND:                -1.751
REMARK SMILES O=C([O-])CCCCCCCCCCCCCCC(=O)[O-]
REMARK SMILES IDX 10 1 9 2 8 3 7 4 6 5 5 6 4 7 2 8 1 9 3 10 11 11 12 12 13 13
REMARK SMILES IDX 14 14 15 15 16 16 17 17 18 18 19 19 20 20
REMARK H PARENT
REMARK Flexibility Score: inf
ROOT
ATOM      1  C   UNL     1      75.446  11.129  18.881  1.00  0.00     0.000 C 
ENDROOT
BRANCH   1   2
ATOM      2  C   UNL     1      74.453  12.200  19.382  1.00  0.00     0.000 C 
BRANCH   2   3
ATOM      3  C   UNL     1      73.948  13.101  18.244  1.00  0.00     0.000 C 
BRANCH   3   4
ATOM      4  C   UNL     1      75.033  14.052  17.706  1.00  0.00     0.000 C 
BRANCH   4   5
ATOM      5  C   UNL     1      75.569  13.633  16.321  1.00  0.00     0.000 C 
BRANCH   5   6
ATOM      6  C   UNL     1      75.897  14.807  15.376  1.00  0.00     0.006 C 
BRANCH   6   7
ATOM      7  C   UNL     1      74.771  15.836  15.195  1.00  0.00     0.053 C 
BRANCH   7   8
ATOM      8  C   UNL     1      75.153  17.209  15.667  1.00  0.00     0.041 C 
ATOM      9  O   UNL     1      74.761  17.632  16.786  1.00  0.00    -0.550 OA
ATOM     10  O   UNL     1      75.968  18.012  14.875  1.00  0.00    -0.550 OA
ENDBRANCH   7   8
ENDBRANCH   6   7
ENDBRANCH   5   6
ENDBRANCH   4   5
ENDBRANCH   3   4
ENDBRANCH   2   3
ENDBRANCH   1   2
BRANCH   1  11
ATOM     11  C   UNL     1      76.695  11.006  19.769  1.00  0.00     0.000 C 
BRANCH  11  12
ATOM     12  C   UNL     1      77.248  12.380  20.196  1.00  0.00     0.000 C 
BRANCH  12  13
ATOM     13  C   UNL     1      78.534  12.759  19.444  1.00  0.00     0.000 C 
BRANCH  13  14
ATOM     14  C   UNL     1      78.545  14.235  18.996  1.00  0.00     0.000 C 
BRANCH  14  15
ATOM     15  C   UNL     1      79.463  15.107  19.866  1.00  0.00     0.000 C 
BRANCH  15  16
ATOM     16  C   UNL     1      80.258  14.283  20.891  1.00  0.00     0.006 C 
BRANCH  16  17
ATOM     17  C   UNL     1      81.750  14.617  20.818  1.00  0.00     0.053 C 
BRANCH  17  18
ATOM     18  C   UNL     1      82.462  13.655  19.923  1.00  0.00     0.041 C 
ATOM     19  O   UNL     1      82.023  12.489  19.774  1.00  0.00    -0.550 OA
ATOM     20  O   UNL     1      83.581  14.063  19.213  1.00  0.00    -0.550 OA
ENDBRANCH  17  18
ENDBRANCH  16  17
ENDBRANCH  15  16
ENDBRANCH  14  15
ENDBRANCH  13  14
ENDBRANCH  12  13
ENDBRANCH  11  12
ENDBRANCH   1  11
TORSDOF 15
ENDMDL
MODEL 7
REMARK VINA RESULT:    -4.953      1.815      5.359
REMARK INTER + INTRA:         -11.047
REMARK INTER:                  -8.933
REMARK INTRA:                  -2.114
REMARK UNBOUND:                -1.751
REMARK SMILES O=C([O-])CCCCCCCCCCCCCCC(=O)[O-]
REMARK SMILES IDX 10 1 9 2 8 3 7 4 6 5 5 6 4 7 2 8 1 9 3 10 11 11 12 12 13 13
REMARK SMILES IDX 14 14 15 15 16 16 17 17 18 18 19 19 20 20
REMARK H PARENT
REMARK Flexibility Score: inf
ROOT
ATOM      1  C   UNL     1      75.340  11.568  19.137  1.00  0.00     0.000 C 
ENDROOT
BRANCH   1   2
ATOM      2  C   UNL     1      73.973  12.237  19.397  1.00  0.00     0.000 C 
BRANCH   2   3
ATOM      3  C   UNL     1      73.704  13.403  18.433  1.00  0.00     0.000 C 
BRANCH   3   4
ATOM      4  C   UNL     1      74.662  13.417  17.228  1.00  0.00     0.000 C 
BRANCH   4   5
ATOM      5  C   UNL     1      74.927  14.837  16.684  1.00  0.00     0.000 C 
BRANCH   5   6
ATOM      6  C   UNL     1      75.433  14.885  15.227  1.00  0.00     0.006 C 
BRANCH   6   7
ATOM      7  C   UNL     1      76.959  14.866  15.063  1.00  0.00     0.053 C 
BRANCH   7   8
ATOM      8  C   UNL     1      77.460  13.619  14.397  1.00  0.00     0.041 C 
ATOM      9  O   UNL     1      78.183  13.689  13.368  1.00  0.00    -0.550 OA
ATOM     10  O   UNL     1      77.147  12.374  14.934  1.00  0.00    -0.550 OA
ENDBRANCH   7   8
ENDBRANCH   6   7
ENDBRANCH   5   6
ENDBRANCH   4   5
ENDBRANCH   3   4
ENDBRANCH   2   3
ENDBRANCH   1   2
BRANCH   1  11
ATOM     11  C   UNL     1      76.295  11.667  20.337  1.00  0.00     0.000 C 
BRANCH  11  12
ATOM     12  C   UNL     1      77.760  11.871  19.904  1.00  0.00     0.000 C 
BRANCH  12  13
ATOM     13  C   UNL     1      77.902  12.101  18.391  1.00  0.00     0.000 C 
BRANCH  13  14
ATOM     14  C   UNL     1      78.601  13.435  18.057  1.00  0.00     0.000 C 
BRANCH  14  15
ATOM     15  C   UNL     1      77.985  14.626  18.806  1.00  0.00     0.000 C 
BRANCH  15  16
ATOM     16  C   UNL     1      78.846  15.895  18.703  1.00  0.00     0.006 C 
BRANCH  16  17
ATOM     17  C   UNL     1      79.613  16.138  20.005  1.00  0.00     0.053 C 
BRANCH  17  18
ATOM     18  C   UNL     1      80.966  15.504  19.944  1.00  0.00     0.041 C 
ATOM     19  O   UNL     1      81.751  15.781  19.005  1.00  0.00    -0.550 OA
ATOM     20  O   UNL     1      81.379  14.648  20.954  1.00  0.00    -0.550 OA
ENDBRANCH  17  18
ENDBRANCH  16  17
ENDBRANCH  15  16
ENDBRANCH  14  15
ENDBRANCH  13  14
ENDBRANCH  12  13
ENDBRANCH  11  12
ENDBRANCH   1  11
TORSDOF 15
ENDMDL
MODEL 8
REMARK VINA RESULT:    -4.920      1.720      3.666
REMARK INTER + INTRA:         -10.985
REMARK INTER:                  -8.993
REMARK INTRA:                  -1.993
REMARK UNBOUND:                -1.751
REMARK SMILES O=C([O-])CCCCCCCCCCCCCCC(=O)[O-]
REMARK SMILES IDX 10 1 9 2 8 3 7 4 6 5 5 6 4 7 2 8 1 9 3 10 11 11 12 12 13 13
REMARK SMILES IDX 14 14 15 15 16 16 17 17 18 18 19 19 20 20
REMARK H PARENT
REMARK Flexibility Score: inf
ROOT
ATOM      1  C   UNL     1      78.522  13.534  18.038  1.00  0.00     0.000 C 
ENDROOT
BRANCH   1   2
ATOM      2  C   UNL     1      78.259  14.728  18.981  1.00  0.00     0.000 C 
BRANCH   2   3
ATOM      3  C   UNL     1      79.327  15.825  18.841  1.00  0.00     0.000 C 
BRANCH   3   4
ATOM      4  C   UNL     1      80.181  15.994  20.111  1.00  0.00     0.000 C 
BRANCH   4   5
ATOM      5  C   UNL     1      80.363  14.678  20.895  1.00  0.00     0.000 C 
BRANCH   5   6
ATOM      6  C   UNL     1      81.824  14.195  21.011  1.00  0.00     0.006 C 
BRANCH   6   7
ATOM      7  C   UNL     1      82.717  14.515  19.804  1.00  0.00     0.053 C 
BRANCH   7   8
ATOM      8  C   UNL     1      82.605  13.495  18.708  1.00  0.00     0.041 C 
ATOM      9  O   UNL     1      82.023  13.779  17.629  1.00  0.00    -0.550 OA
ATOM     10  O   UNL     1      83.171  12.235  18.874  1.00  0.00    -0.550 OA
ENDBRANCH   7   8
ENDBRANCH   6   7
ENDBRANCH   5   6
ENDBRANCH   4   5
ENDBRANCH   3   4
ENDBRANCH   2   3
ENDBRANCH   1   2
BRANCH   1  11
ATOM     11  C   UNL     1      77.820  12.244  18.491  1.00  0.00     0.000 C 
BRANCH  11  12
ATOM     12  C   UNL     1      77.678  12.162  20.024  1.00  0.00     0.000 C 
BRANCH  12  13
ATOM     13  C   UNL     1      76.274  11.718  20.464  1.00  0.00     0.000 C 
BRANCH  13  14
ATOM     14  C   UNL     1      75.342  11.430  19.269  1.00  0.00     0.000 C 
BRANCH  14  15
ATOM     15  C   UNL     1      74.166  12.414  19.189  1.00  0.00     0.000 C 
BRANCH  15  16
ATOM     16  C   UNL     1      74.178  13.241  17.894  1.00  0.00     0.006 C 
BRANCH  16  17
ATOM     17  C   UNL     1      74.842  14.601  18.124  1.00  0.00     0.053 C 
BRANCH  17  18
ATOM     18  C   UNL     1      75.246  15.216  16.824  1.00  0.00     0.041 C 
ATOM     19  O   UNL     1      74.840  14.728  15.741  1.00  0.00    -0.550 OA
ATOM     20  O   UNL     1      76.030  16.361  16.809  1.00  0.00    -0.550 OA
ENDBRANCH  17  18
ENDBRANCH  16  17
ENDBRANCH  15  16
ENDBRANCH  14  15
ENDBRANCH  13  14
ENDBRANCH  12  13
ENDBRANCH  11  12
ENDBRANCH   1  11
TORSDOF 15
ENDMDL
MODEL 9
REMARK VINA RESULT:    -4.886      1.615      5.651
REMARK INTER + INTRA:         -10.921
REMARK INTER:                  -8.968
REMARK INTRA:                  -1.952
REMARK UNBOUND:                -1.751
REMARK SMILES O=C([O-])CCCCCCCCCCCCCCC(=O)[O-]
REMARK SMILES IDX 10 1 9 2 8 3 7 4 6 5 5 6 4 7 2 8 1 9 3 10 11 11 12 12 13 13
REMARK SMILES IDX 14 14 15 15 16 16 17 17 18 18 19 19 20 20
REMARK H PARENT
REMARK Flexibility Score: inf
ROOT
ATOM      1  C   UNL     1      75.345  11.605  19.203  1.00  0.00     0.000 C 
ENDROOT
BRANCH   1   2
ATOM      2  C   UNL     1      74.003  12.352  19.365  1.00  0.00     0.000 C 
BRANCH   2   3
ATOM      3  C   UNL     1      73.737  13.325  18.206  1.00  0.00     0.000 C 
BRANCH   3   4
ATOM      4  C   UNL     1      75.016  13.706  17.438  1.00  0.00     0.000 C 
BRANCH   4   5
ATOM      5  C   UNL     1      75.010  13.215  15.976  1.00  0.00     0.000 C 
BRANCH   5   6
ATOM      6  C   UNL     1      75.685  14.173  14.972  1.00  0.00     0.006 C 
BRANCH   6   7
ATOM      7  C   UNL     1      76.217  15.482  15.574  1.00  0.00     0.053 C 
BRANCH   7   8
ATOM      8  C   UNL     1      75.380  16.674  15.214  1.00  0.00     0.041 C 
ATOM      9  O   UNL     1      75.920  17.735  14.807  1.00  0.00    -0.550 OA
ATOM     10  O   UNL     1      73.993  16.598  15.305  1.00  0.00    -0.550 OA
ENDBRANCH   7   8
ENDBRANCH   6   7
ENDBRANCH   5   6
ENDBRANCH   4   5
ENDBRANCH   3   4
ENDBRANCH   2   3
ENDBRANCH   1   2
BRANCH   1  11
ATOM     11  C   UNL     1      76.217  11.656  20.468  1.00  0.00     0.000 C 
BRANCH  11  12
ATOM     12  C   UNL     1      77.403  10.674  20.401  1.00  0.00     0.000 C 
BRANCH  12  13
ATOM     13  C   UNL     1      77.697  10.200  18.969  1.00  0.00     0.000 C 
BRANCH  13  14
ATOM     14  C   UNL     1      78.880  10.953  18.326  1.00  0.00     0.000 C 
BRANCH  14  15
ATOM     15  C   UNL     1      78.420  12.086  17.397  1.00  0.00     0.000 C 
BRANCH  15  16
ATOM     16  C   UNL     1      78.775  13.477  17.945  1.00  0.00     0.006 C 
BRANCH  16  17
ATOM     17  C   UNL     1      79.768  13.368  19.104  1.00  0.00     0.053 C 
BRANCH  17  18
ATOM     18  C   UNL     1      79.680  14.570  19.988  1.00  0.00     0.041 C 
ATOM     19  O   UNL     1      80.124  14.525  21.161  1.00  0.00    -0.550 OA
ATOM     20  O   UNL     1      79.153  15.756  19.498  1.00  0.00    -0.550 OA
ENDBRANCH  17  18
ENDBRANCH  16  17
ENDBRANCH  15  16
ENDBRANCH  14  15
ENDBRANCH  13  14
ENDBRANCH  12  13
ENDBRANCH  11  12
ENDBRANCH   1  11
TORSDOF 15
ENDMDL
