MODEL 1
REMARK VINA RESULT:    -0.944      0.000      0.000
REMARK INTER + INTRA:          -1.081
REMARK INTER:                  -1.276
REMARK INTRA:                   0.194
REMARK UNBOUND:                 0.194
REMARK SMILES CC[C@@H](CC[C@@H](C)[C@@H]1CC[C@@H]2[C@@H]3CC(=O)C4=CC(=O)CC[C@]4(C)[C@@H]3CC[C@]21C)C(C)C
REMARK SMILES IDX 4 1 3 2 2 3 1 4 29 5 30 6 31 7 5 8 6 9 7 10 8 11 9 12 27 13
REMARK SMILES IDX 10 14 11 15 26 16 28 17 12 18 25 19 24 20 13 21 22 22 14 23
REMARK SMILES IDX 16 24 21 25 23 26 15 27 17 28 20 29 18 30 19 31
REMARK H PARENT
REMARK Flexibility Score: inf
ROOT
ATOM      1  C   UNL     1      28.735  29.557  25.716  1.00  0.00     0.004 C 
ENDROOT
BRANCH   1   2
ATOM      2  C   UNL     1      27.534  28.567  25.577  1.00  0.00    -0.009 C 
BRANCH   2   3
ATOM      3  C   UNL     1      26.199  29.336  25.752  1.00  0.00     0.000 C 
ATOM      4  C   UNL     1      25.305  28.772  26.862  1.00  0.00     0.004 C 
ENDBRANCH   2   3
BRANCH   2   5
ATOM      5  C   UNL     1      27.633  27.305  26.501  1.00  0.00    -0.014 C 
ATOM      6  C   UNL     1      28.983  27.145  27.226  1.00  0.00     0.007 C 
ATOM      7  C   UNL     1      27.278  26.009  25.760  1.00  0.00     0.007 C 
ENDBRANCH   2   5
ENDBRANCH   1   2
BRANCH   1   8
ATOM      8  C   UNL     1      28.904  30.505  24.500  1.00  0.00     0.004 C 
BRANCH   8   9
ATOM      9  C   UNL     1      28.215  31.890  24.667  1.00  0.00    -0.011 C 
ATOM     10  C   UNL     1      29.027  32.793  25.638  1.00  0.00     0.008 C 
BRANCH   9  11
ATOM     11  C   UNL     1      27.796  32.522  23.288  1.00  0.00    -0.002 C 
ATOM     12  C   UNL     1      28.634  32.123  22.036  1.00  0.00     0.005 C 
ATOM     13  C   UNL     1      27.669  34.077  23.203  1.00  0.00    -0.026 C 
ATOM     14  C   UNL     1      28.606  33.334  21.082  1.00  0.00     0.005 C 
ATOM     15  C   UNL     1      27.532  34.231  21.675  1.00  0.00    -0.001 C 
ATOM     16  C   UNL     1      26.396  34.669  23.843  1.00  0.00     0.007 C 
ATOM     17  C   UNL     1      28.920  34.756  23.832  1.00  0.00     0.012 C 
ATOM     18  C   UNL     1      27.298  35.651  21.110  1.00  0.00     0.004 C 
ATOM     19  C   UNL     1      26.168  36.139  23.403  1.00  0.00     0.005 C 
ATOM     20  C   UNL     1      26.086  36.315  21.854  1.00  0.00     0.003 C 
ATOM     21  C   UNL     1      28.567  36.521  20.993  1.00  0.00     0.085 C 
ATOM     22  C   UNL     1      25.774  37.786  21.343  1.00  0.00    -0.000 C 
ATOM     23  C   UNL     1      28.270  37.946  20.656  1.00  0.00     0.159 C 
ATOM     24  C   UNL     1      27.048  38.609  21.159  1.00  0.00     0.005 C 
ATOM     25  C   UNL     1      24.807  38.530  22.324  1.00  0.00     0.020 C 
ATOM     26  C   UNL     1      25.089  37.686  19.953  1.00  0.00     0.017 C 
ATOM     27  O   UNL     1      29.123  38.602  19.994  1.00  0.00    -0.295 OA
ATOM     28  C   UNL     1      27.028  39.953  21.255  1.00  0.00     0.055 C 
ATOM     29  C   UNL     1      24.530  39.980  21.917  1.00  0.00     0.081 C 
ATOM     30  C   UNL     1      25.814  40.696  21.631  1.00  0.00     0.156 C 
ATOM     31  O   UNL     1      25.848  41.954  21.675  1.00  0.00    -0.295 OA
ENDBRANCH   9  11
ENDBRANCH   8   9
ENDBRANCH   1   8
TORSDOF 6
ENDMDL
MODEL 2
REMARK VINA RESULT:    -0.709      1.994      3.803
REMARK INTER + INTRA:          -0.763
REMARK INTER:                  -0.590
REMARK INTRA:                  -0.173
REMARK UNBOUND:                 0.194
REMARK SMILES CC[C@@H](CC[C@@H](C)[C@@H]1CC[C@@H]2[C@@H]3CC(=O)C4=CC(=O)CC[C@]4(C)[C@@H]3CC[C@]21C)C(C)C
REMARK SMILES IDX 4 1 3 2 2 3 1 4 29 5 30 6 31 7 5 8 6 9 7 10 8 11 9 12 27 13
REMARK SMILES IDX 10 14 11 15 26 16 28 17 12 18 25 19 24 20 13 21 22 22 14 23
REMARK SMILES IDX 16 24 21 25 23 26 15 27 17 28 20 29 18 30 19 31
REMARK H PARENT
REMARK Flexibility Score: inf
ROOT
ATOM      1  C   UNL     1      26.612  29.017  26.366  1.00  0.00     0.004 C 
ENDROOT
BRANCH   1   2
ATOM      2  C   UNL     1      26.335  27.645  27.059  1.00  0.00    -0.009 C 
BRANCH   2   3
ATOM      3  C   UNL     1      26.976  26.501  26.231  1.00  0.00     0.000 C 
ATOM      4  C   UNL     1      28.473  26.310  26.501  1.00  0.00     0.004 C 
ENDBRANCH   2   3
BRANCH   2   5
ATOM      5  C   UNL     1      24.825  27.384  27.387  1.00  0.00    -0.014 C 
ATOM      6  C   UNL     1      24.057  28.620  27.894  1.00  0.00     0.007 C 
ATOM      7  C   UNL     1      24.631  26.211  28.357  1.00  0.00     0.007 C 
ENDBRANCH   2   5
ENDBRANCH   1   2
BRANCH   1   8
ATOM      8  C   UNL     1      28.093  29.469  26.449  1.00  0.00     0.004 C 
BRANCH   8   9
ATOM      9  C   UNL     1      28.742  29.792  25.073  1.00  0.00    -0.011 C 
ATOM     10  C   UNL     1      27.929  29.144  23.916  1.00  0.00     0.008 C 
BRANCH   9  11
ATOM     11  C   UNL     1      29.104  31.317  24.923  1.00  0.00    -0.002 C 
ATOM     12  C   UNL     1      29.084  32.185  26.217  1.00  0.00     0.005 C 
ATOM     13  C   UNL     1      28.314  32.157  23.868  1.00  0.00    -0.026 C 
ATOM     14  C   UNL     1      28.684  33.610  25.785  1.00  0.00     0.005 C 
ATOM     15  C   UNL     1      28.789  33.568  24.270  1.00  0.00    -0.001 C 
ATOM     16  C   UNL     1      28.733  31.929  22.400  1.00  0.00     0.007 C 
ATOM     17  C   UNL     1      26.786  31.902  24.009  1.00  0.00     0.012 C 
ATOM     18  C   UNL     1      28.303  34.763  23.417  1.00  0.00     0.004 C 
ATOM     19  C   UNL     1      28.177  33.040  21.471  1.00  0.00     0.005 C 
ATOM     20  C   UNL     1      28.603  34.479  21.903  1.00  0.00     0.003 C 
ATOM     21  C   UNL     1      26.875  35.250  23.735  1.00  0.00     0.085 C 
ATOM     22  C   UNL     1      28.131  35.654  20.945  1.00  0.00    -0.000 C 
ATOM     23  C   UNL     1      26.366  36.252  22.750  1.00  0.00     0.159 C 
ATOM     24  C   UNL     1      26.747  36.177  21.323  1.00  0.00     0.005 C 
ATOM     25  C   UNL     1      28.127  35.194  19.449  1.00  0.00     0.020 C 
ATOM     26  C   UNL     1      29.125  36.838  21.098  1.00  0.00     0.017 C 
ATOM     27  O   UNL     1      25.540  37.122  23.143  1.00  0.00    -0.295 OA
ATOM     28  C   UNL     1      25.945  36.752  20.405  1.00  0.00     0.055 C 
ATOM     29  C   UNL     1      27.610  36.268  18.487  1.00  0.00     0.081 C 
ATOM     30  C   UNL     1      26.311  36.828  18.980  1.00  0.00     0.156 C 
ATOM     31  O   UNL     1      25.535  37.404  18.173  1.00  0.00    -0.295 OA
ENDBRANCH   9  11
ENDBRANCH   8   9
ENDBRANCH   1   8
TORSDOF 6
ENDMDL
MODEL 3
REMARK VINA RESULT:    -0.299      2.078      3.792
REMARK INTER + INTRA:          -0.210
REMARK INTER:                   0.265
REMARK INTRA:                  -0.475
REMARK UNBOUND:                 0.194
REMARK SMILES CC[C@@H](CC[C@@H](C)[C@@H]1CC[C@@H]2[C@@H]3CC(=O)C4=CC(=O)CC[C@]4(C)[C@@H]3CC[C@]21C)C(C)C
REMARK SMILES IDX 4 1 3 2 2 3 1 4 29 5 30 6 31 7 5 8 6 9 7 10 8 11 9 12 27 13
REMARK SMILES IDX 10 14 11 15 26 16 28 17 12 18 25 19 24 20 13 21 22 22 14 23
REMARK SMILES IDX 16 24 21 25 23 26 15 27 17 28 20 29 18 30 19 31
REMARK H PARENT
REMARK Flexibility Score: inf
ROOT
ATOM      1  C   UNL     1      26.774  27.618  25.337  1.00  0.00     0.004 C 
ENDROOT
BRANCH   1   2
ATOM      2  C   UNL     1      26.103  26.817  26.498  1.00  0.00    -0.009 C 
BRANCH   2   3
ATOM      3  C   UNL     1      25.915  27.739  27.730  1.00  0.00     0.000 C 
ATOM      4  C   UNL     1      24.454  28.115  28.001  1.00  0.00     0.004 C 
ENDBRANCH   2   3
BRANCH   2   5
ATOM      5  C   UNL     1      26.826  25.471  26.852  1.00  0.00    -0.014 C 
ATOM      6  C   UNL     1      27.358  24.692  25.635  1.00  0.00     0.007 C 
ATOM      7  C   UNL     1      25.960  24.554  27.726  1.00  0.00     0.007 C 
ENDBRANCH   2   5
ENDBRANCH   1   2
BRANCH   1   8
ATOM      8  C   UNL     1      27.737  28.732  25.825  1.00  0.00     0.004 C 
BRANCH   8   9
ATOM      9  C   UNL     1      28.806  29.157  24.779  1.00  0.00    -0.011 C 
ATOM     10  C   UNL     1      28.476  28.560  23.381  1.00  0.00     0.008 C 
BRANCH   9  11
ATOM     11  C   UNL     1      29.125  30.698  24.838  1.00  0.00    -0.002 C 
ATOM     12  C   UNL     1      29.026  31.394  26.228  1.00  0.00     0.005 C 
ATOM     13  C   UNL     1      28.353  31.644  23.863  1.00  0.00    -0.026 C 
ATOM     14  C   UNL     1      28.599  32.852  25.963  1.00  0.00     0.005 C 
ATOM     15  C   UNL     1      28.766  33.004  24.460  1.00  0.00    -0.001 C 
ATOM     16  C   UNL     1      28.837  31.616  22.398  1.00  0.00     0.007 C 
ATOM     17  C   UNL     1      26.828  31.333  23.904  1.00  0.00     0.012 C 
ATOM     18  C   UNL     1      28.277  34.285  23.744  1.00  0.00     0.004 C 
ATOM     19  C   UNL     1      28.284  32.821  21.593  1.00  0.00     0.005 C 
ATOM     20  C   UNL     1      28.647  34.204  22.221  1.00  0.00     0.003 C 
ATOM     21  C   UNL     1      26.823  34.690  24.058  1.00  0.00     0.085 C 
ATOM     22  C   UNL     1      28.177  35.478  21.399  1.00  0.00    -0.000 C 
ATOM     23  C   UNL     1      26.322  35.795  23.185  1.00  0.00     0.159 C 
ATOM     24  C   UNL     1      26.762  35.913  21.779  1.00  0.00     0.005 C 
ATOM     25  C   UNL     1      28.247  35.213  19.858  1.00  0.00     0.020 C 
ATOM     26  C   UNL     1      29.125  36.659  21.743  1.00  0.00     0.017 C 
ATOM     27  O   UNL     1      25.454  36.587  23.648  1.00  0.00    -0.295 OA
ATOM     28  C   UNL     1      25.980  36.579  20.906  1.00  0.00     0.055 C 
ATOM     29  C   UNL     1      27.735  36.387  19.017  1.00  0.00     0.081 C 
ATOM     30  C   UNL     1      26.400  36.845  19.519  1.00  0.00     0.156 C 
ATOM     31  O   UNL     1      25.640  37.498  18.758  1.00  0.00    -0.295 OA
ENDBRANCH   9  11
ENDBRANCH   8   9
ENDBRANCH   1   8
TORSDOF 6
ENDMDL
MODEL 4
REMARK VINA RESULT:    -0.231      1.931      4.236
REMARK INTER + INTRA:          -0.118
REMARK INTER:                  -0.397
REMARK INTRA:                   0.279
REMARK UNBOUND:                 0.194
REMARK SMILES CC[C@@H](CC[C@@H](C)[C@@H]1CC[C@@H]2[C@@H]3CC(=O)C4=CC(=O)CC[C@]4(C)[C@@H]3CC[C@]21C)C(C)C
REMARK SMILES IDX 4 1 3 2 2 3 1 4 29 5 30 6 31 7 5 8 6 9 7 10 8 11 9 12 27 13
REMARK SMILES IDX 10 14 11 15 26 16 28 17 12 18 25 19 24 20 13 21 22 22 14 23
REMARK SMILES IDX 16 24 21 25 23 26 15 27 17 28 20 29 18 30 19 31
REMARK H PARENT
REMARK Flexibility Score: inf
ROOT
ATOM      1  C   UNL     1      29.121  32.218  22.875  1.00  0.00     0.004 C 
ENDROOT
BRANCH   1   2
ATOM      2  C   UNL     1      28.825  30.901  23.661  1.00  0.00    -0.009 C 
BRANCH   2   3
ATOM      3  C   UNL     1      28.173  29.861  22.714  1.00  0.00     0.000 C 
ATOM      4  C   UNL     1      29.015  28.595  22.518  1.00  0.00     0.004 C 
ENDBRANCH   2   3
BRANCH   2   5
ATOM      5  C   UNL     1      28.009  31.112  24.983  1.00  0.00    -0.014 C 
ATOM      6  C   UNL     1      28.865  31.481  26.211  1.00  0.00     0.007 C 
ATOM      7  C   UNL     1      27.107  29.915  25.312  1.00  0.00     0.007 C 
ENDBRANCH   2   5
ENDBRANCH   1   2
BRANCH   1   8
ATOM      8  C   UNL     1      28.268  32.381  21.590  1.00  0.00     0.004 C 
BRANCH   8   9
ATOM      9  C   UNL     1      28.521  33.707  20.817  1.00  0.00    -0.011 C 
ATOM     10  C   UNL     1      27.807  33.683  19.436  1.00  0.00     0.008 C 
BRANCH   9  11
ATOM     11  C   UNL     1      28.293  34.979  21.716  1.00  0.00    -0.002 C 
ATOM     12  C   UNL     1      27.258  34.858  22.874  1.00  0.00     0.005 C 
ATOM     13  C   UNL     1      27.938  36.325  21.005  1.00  0.00    -0.026 C 
ATOM     14  C   UNL     1      26.642  36.259  23.064  1.00  0.00     0.005 C 
ATOM     15  C   UNL     1      27.545  37.160  22.239  1.00  0.00    -0.001 C 
ATOM     16  C   UNL     1      29.124  37.039  20.322  1.00  0.00     0.007 C 
ATOM     17  C   UNL     1      26.806  36.102  19.961  1.00  0.00     0.012 C 
ATOM     18  C   UNL     1      27.176  38.646  22.017  1.00  0.00     0.004 C 
ATOM     19  C   UNL     1      28.775  38.509  19.969  1.00  0.00     0.005 C 
ATOM     20  C   UNL     1      28.318  39.350  21.203  1.00  0.00     0.003 C 
ATOM     21  C   UNL     1      25.742  38.890  21.506  1.00  0.00     0.085 C 
ATOM     22  C   UNL     1      28.023  40.884  20.920  1.00  0.00    -0.000 C 
ATOM     23  C   UNL     1      25.501  40.307  21.098  1.00  0.00     0.159 C 
ATOM     24  C   UNL     1      26.577  41.118  20.489  1.00  0.00     0.005 C 
ATOM     25  C   UNL     1      28.993  41.453  19.830  1.00  0.00     0.020 C 
ATOM     26  C   UNL     1      28.241  41.676  22.238  1.00  0.00     0.017 C 
ATOM     27  O   UNL     1      24.335  40.781  21.211  1.00  0.00    -0.295 OA
ATOM     28  C   UNL     1      26.242  42.172  19.718  1.00  0.00     0.055 C 
ATOM     29  C   UNL     1      28.705  42.913  19.465  1.00  0.00     0.081 C 
ATOM     30  C   UNL     1      27.248  43.100  19.174  1.00  0.00     0.156 C 
ATOM     31  O   UNL     1      26.873  44.084  18.485  1.00  0.00    -0.295 OA
ENDBRANCH   9  11
ENDBRANCH   8   9
ENDBRANCH   1   8
TORSDOF 6
ENDMDL
MODEL 5
REMARK VINA RESULT:     0.831      1.778      3.121
REMARK INTER + INTRA:           1.317
REMARK INTER:                   1.568
REMARK INTRA:                  -0.251
REMARK UNBOUND:                 0.194
REMARK SMILES CC[C@@H](CC[C@@H](C)[C@@H]1CC[C@@H]2[C@@H]3CC(=O)C4=CC(=O)CC[C@]4(C)[C@@H]3CC[C@]21C)C(C)C
REMARK SMILES IDX 4 1 3 2 2 3 1 4 29 5 30 6 31 7 5 8 6 9 7 10 8 11 9 12 27 13
REMARK SMILES IDX 10 14 11 15 26 16 28 17 12 18 25 19 24 20 13 21 22 22 14 23
REMARK SMILES IDX 16 24 21 25 23 26 15 27 17 28 20 29 18 30 19 31
REMARK H PARENT
REMARK Flexibility Score: inf
ROOT
ATOM      1  C   UNL     1      27.037  29.190  24.559  1.00  0.00     0.004 C 
ENDROOT
BRANCH   1   2
ATOM      2  C   UNL     1      26.642  28.083  25.588  1.00  0.00    -0.009 C 
BRANCH   2   3
ATOM      3  C   UNL     1      26.148  28.742  26.902  1.00  0.00     0.000 C 
ATOM      4  C   UNL     1      24.722  28.340  27.293  1.00  0.00     0.004 C 
ENDBRANCH   2   3
BRANCH   2   5
ATOM      5  C   UNL     1      27.754  27.005  25.830  1.00  0.00    -0.014 C 
ATOM      6  C   UNL     1      28.998  27.156  24.934  1.00  0.00     0.007 C 
ATOM      7  C   UNL     1      27.211  25.573  25.737  1.00  0.00     0.007 C 
ENDBRANCH   2   5
ENDBRANCH   1   2
BRANCH   1   8
ATOM      8  C   UNL     1      28.025  30.242  25.125  1.00  0.00     0.004 C 
BRANCH   8   9
ATOM      9  C   UNL     1      29.020  30.816  24.076  1.00  0.00    -0.011 C 
ATOM     10  C   UNL     1      28.765  30.188  22.676  1.00  0.00     0.008 C 
BRANCH   9  11
ATOM     11  C   UNL     1      29.125  32.386  24.144  1.00  0.00    -0.002 C 
ATOM     12  C   UNL     1      28.712  33.071  25.481  1.00  0.00     0.005 C 
ATOM     13  C   UNL     1      28.408  33.218  23.032  1.00  0.00    -0.026 C 
ATOM     14  C   UNL     1      28.152  34.459  25.111  1.00  0.00     0.005 C 
ATOM     15  C   UNL     1      28.541  34.623  23.652  1.00  0.00    -0.001 C 
ATOM     16  C   UNL     1      29.125  33.244  21.666  1.00  0.00     0.007 C 
ATOM     17  C   UNL     1      26.950  32.711  22.835  1.00  0.00     0.012 C 
ATOM     18  C   UNL     1      28.016  35.825  22.832  1.00  0.00     0.004 C 
ATOM     19  C   UNL     1      28.561  34.362  20.750  1.00  0.00     0.005 C 
ATOM     20  C   UNL     1      28.637  35.784  21.391  1.00  0.00     0.003 C 
ATOM     21  C   UNL     1      26.491  36.039  22.896  1.00  0.00     0.085 C 
ATOM     22  C   UNL     1      28.149  36.981  20.470  1.00  0.00    -0.000 C 
ATOM     23  C   UNL     1      26.003  37.064  21.925  1.00  0.00     0.159 C 
ATOM     24  C   UNL     1      26.648  37.230  20.604  1.00  0.00     0.005 C 
ATOM     25  C   UNL     1      28.503  36.719  18.968  1.00  0.00     0.020 C 
ATOM     26  C   UNL     1      28.869  38.278  20.930  1.00  0.00     0.017 C 
ATOM     27  O   UNL     1      24.976  37.739  22.220  1.00  0.00    -0.295 OA
ATOM     28  C   UNL     1      25.940  37.783  19.599  1.00  0.00     0.055 C 
ATOM     29  C   UNL     1      27.990  37.811  18.024  1.00  0.00     0.081 C 
ATOM     30  C   UNL     1      26.543  38.094  18.292  1.00  0.00     0.156 C 
ATOM     31  O   UNL     1      25.841  38.638  17.401  1.00  0.00    -0.295 OA
ENDBRANCH   9  11
ENDBRANCH   8   9
ENDBRANCH   1   8
TORSDOF 6
ENDMDL
