MODEL 1
REMARK VINA RESULT:    -3.801      0.000      0.000
REMARK INTER + INTRA:          -6.160
REMARK INTER:                  -5.578
REMARK INTRA:                  -0.582
REMARK UNBOUND:                -0.582
REMARK SMILES O=C([O-])CCCCCCCC(=O)[O-]
REMARK SMILES IDX 7 1 6 2 5 3 4 4 2 5 1 6 3 7 8 8 9 9 10 10 11 11 12 12 13 13
REMARK H PARENT
REMARK Flexibility Score: inf
ROOT
ATOM      1  C   UNL     1      52.167 -49.407  -8.137  1.00  0.00     0.000 C 
ENDROOT
BRANCH   1   2
ATOM      2  C   UNL     1      51.297 -48.248  -8.645  1.00  0.00     0.000 C 
BRANCH   2   3
ATOM      3  C   UNL     1      51.667 -47.872 -10.084  1.00  0.00     0.006 C 
BRANCH   3   4
ATOM      4  C   UNL     1      50.783 -46.733 -10.600  1.00  0.00     0.053 C 
BRANCH   4   5
ATOM      5  C   UNL     1      49.495 -47.271 -11.137  1.00  0.00     0.041 C 
ATOM      6  O   UNL     1      48.396 -46.848 -10.691  1.00  0.00    -0.550 OA
ATOM      7  O   UNL     1      49.507 -48.205 -12.166  1.00  0.00    -0.550 OA
ENDBRANCH   4   5
ENDBRANCH   3   4
ENDBRANCH   2   3
ENDBRANCH   1   2
BRANCH   1   8
ATOM      8  C   UNL     1      51.415 -50.749  -8.093  1.00  0.00     0.000 C 
BRANCH   8   9
ATOM      9  C   UNL     1      51.811 -51.756  -9.192  1.00  0.00     0.006 C 
BRANCH   9  10
ATOM     10  C   UNL     1      53.030 -51.340 -10.030  1.00  0.00     0.053 C 
BRANCH  10  11
ATOM     11  C   UNL     1      52.732 -51.349 -11.498  1.00  0.00     0.041 C 
ATOM     12  O   UNL     1      53.602 -51.742 -12.318  1.00  0.00    -0.550 OA
ATOM     13  O   UNL     1      51.506 -50.888 -11.962  1.00  0.00    -0.550 OA
ENDBRANCH  10  11
ENDBRANCH   9  10
ENDBRANCH   8   9
ENDBRANCH   1   8
TORSDOF 8
ENDMDL
MODEL 2
REMARK VINA RESULT:    -3.770      1.365      2.085
REMARK INTER + INTRA:          -6.115
REMARK INTER:                  -5.631
REMARK INTRA:                  -0.485
REMARK UNBOUND:                -0.582
REMARK SMILES O=C([O-])CCCCCCCC(=O)[O-]
REMARK SMILES IDX 7 1 6 2 5 3 4 4 2 5 1 6 3 7 8 8 9 9 10 10 11 11 12 12 13 13
REMARK H PARENT
REMARK Flexibility Score: inf
ROOT
ATOM      1  C   UNL     1      51.104 -48.357  -9.091  1.00  0.00     0.000 C 
ENDROOT
BRANCH   1   2
ATOM      2  C   UNL     1      51.966 -47.737 -10.201  1.00  0.00     0.000 C 
BRANCH   2   3
ATOM      3  C   UNL     1      51.299 -46.485 -10.782  1.00  0.00     0.006 C 
BRANCH   3   4
ATOM      4  C   UNL     1      50.071 -46.085  -9.960  1.00  0.00     0.053 C 
BRANCH   4   5
ATOM      5  C   UNL     1      48.871 -45.948 -10.842  1.00  0.00     0.041 C 
ATOM      6  O   UNL     1      48.054 -46.899 -10.955  1.00  0.00    -0.550 OA
ATOM      7  O   UNL     1      48.628 -44.750 -11.503  1.00  0.00    -0.550 OA
ENDBRANCH   4   5
ENDBRANCH   3   4
ENDBRANCH   2   3
ENDBRANCH   1   2
BRANCH   1   8
ATOM      8  C   UNL     1      51.906 -49.266  -8.144  1.00  0.00     0.000 C 
BRANCH   8   9
ATOM      9  C   UNL     1      51.335 -50.688  -7.963  1.00  0.00     0.006 C 
BRANCH   9  10
ATOM     10  C   UNL     1      51.578 -51.630  -9.153  1.00  0.00     0.053 C 
BRANCH  10  11
ATOM     11  C   UNL     1      52.959 -51.480  -9.713  1.00  0.00     0.041 C 
ATOM     12  O   UNL     1      53.124 -51.059 -10.888  1.00  0.00    -0.550 OA
ATOM     13  O   UNL     1      54.064 -51.841  -8.950  1.00  0.00    -0.550 OA
ENDBRANCH  10  11
ENDBRANCH   9  10
ENDBRANCH   8   9
ENDBRANCH   1   8
TORSDOF 8
ENDMDL
MODEL 3
REMARK VINA RESULT:    -3.757      1.921      2.616
REMARK INTER + INTRA:          -6.096
REMARK INTER:                  -5.226
REMARK INTRA:                  -0.870
REMARK UNBOUND:                -0.582
REMARK SMILES O=C([O-])CCCCCCCC(=O)[O-]
REMARK SMILES IDX 7 1 6 2 5 3 4 4 2 5 1 6 3 7 8 8 9 9 10 10 11 11 12 12 13 13
REMARK H PARENT
REMARK Flexibility Score: inf
ROOT
ATOM      1  C   UNL     1      51.161 -48.379  -9.231  1.00  0.00     0.000 C 
ENDROOT
BRANCH   1   2
ATOM      2  C   UNL     1      52.184 -47.658 -10.122  1.00  0.00     0.000 C 
BRANCH   2   3
ATOM      3  C   UNL     1      51.856 -47.854 -11.606  1.00  0.00     0.006 C 
BRANCH   3   4
ATOM      4  C   UNL     1      50.624 -48.745 -11.785  1.00  0.00     0.053 C 
BRANCH   4   5
ATOM      5  C   UNL     1      50.797 -49.648 -12.965  1.00  0.00     0.041 C 
ATOM      6  O   UNL     1      51.292 -49.205 -14.035  1.00  0.00    -0.550 OA
ATOM      7  O   UNL     1      50.459 -50.992 -12.867  1.00  0.00    -0.550 OA
ENDBRANCH   4   5
ENDBRANCH   3   4
ENDBRANCH   2   3
ENDBRANCH   1   2
BRANCH   1   8
ATOM      8  C   UNL     1      51.814 -49.182  -8.094  1.00  0.00     0.000 C 
BRANCH   8   9
ATOM      9  C   UNL     1      51.400 -50.667  -8.021  1.00  0.00     0.006 C 
BRANCH   9  10
ATOM     10  C   UNL     1      51.594 -51.448  -9.330  1.00  0.00     0.053 C 
BRANCH  10  11
ATOM     11  C   UNL     1      53.019 -51.425  -9.792  1.00  0.00     0.041 C 
ATOM     12  O   UNL     1      53.291 -51.154 -10.991  1.00  0.00    -0.550 OA
ATOM     13  O   UNL     1      54.043 -51.738  -8.907  1.00  0.00    -0.550 OA
ENDBRANCH  10  11
ENDBRANCH   9  10
ENDBRANCH   8   9
ENDBRANCH   1   8
TORSDOF 8
ENDMDL
MODEL 4
REMARK VINA RESULT:    -3.732      1.740      4.500
REMARK INTER + INTRA:          -6.059
REMARK INTER:                  -5.349
REMARK INTRA:                  -0.710
REMARK UNBOUND:                -0.582
REMARK SMILES O=C([O-])CCCCCCCC(=O)[O-]
REMARK SMILES IDX 7 1 6 2 5 3 4 4 2 5 1 6 3 7 8 8 9 9 10 10 11 11 12 12 13 13
REMARK H PARENT
REMARK Flexibility Score: inf
ROOT
ATOM      1  C   UNL     1      51.410 -48.922  -8.488  1.00  0.00     0.000 C 
ENDROOT
BRANCH   1   2
ATOM      2  C   UNL     1      52.898 -49.282  -8.618  1.00  0.00     0.000 C 
BRANCH   2   3
ATOM      3  C   UNL     1      53.079 -50.777  -8.906  1.00  0.00     0.006 C 
BRANCH   3   4
ATOM      4  C   UNL     1      51.854 -51.352  -9.623  1.00  0.00     0.053 C 
BRANCH   4   5
ATOM      5  C   UNL     1      52.093 -51.417 -11.098  1.00  0.00     0.041 C 
ATOM      6  O   UNL     1      51.122 -51.389 -11.899  1.00  0.00    -0.550 OA
ATOM      7  O   UNL     1      53.391 -51.459 -11.590  1.00  0.00    -0.550 OA
ENDBRANCH   4   5
ENDBRANCH   3   4
ENDBRANCH   2   3
ENDBRANCH   1   2
BRANCH   1   8
ATOM      8  C   UNL     1      51.030 -47.650  -9.267  1.00  0.00     0.000 C 
BRANCH   8   9
ATOM      9  C   UNL     1      50.542 -47.890 -10.710  1.00  0.00     0.006 C 
BRANCH   9  10
ATOM     10  C   UNL     1      51.646 -47.821 -11.777  1.00  0.00     0.053 C 
BRANCH  10  11
ATOM     11  C   UNL     1      51.775 -46.450 -12.365  1.00  0.00     0.041 C 
ATOM     12  O   UNL     1      50.962 -45.544 -12.043  1.00  0.00    -0.550 OA
ATOM     13  O   UNL     1      52.772 -46.181 -13.295  1.00  0.00    -0.550 OA
ENDBRANCH  10  11
ENDBRANCH   9  10
ENDBRANCH   8   9
ENDBRANCH   1   8
TORSDOF 8
ENDMDL
MODEL 5
REMARK VINA RESULT:    -3.701      0.737      4.668
REMARK INTER + INTRA:          -6.014
REMARK INTER:                  -5.582
REMARK INTRA:                  -0.433
REMARK UNBOUND:                -0.582
REMARK SMILES O=C([O-])CCCCCCCC(=O)[O-]
REMARK SMILES IDX 7 1 6 2 5 3 4 4 2 5 1 6 3 7 8 8 9 9 10 10 11 11 12 12 13 13
REMARK H PARENT
REMARK Flexibility Score: inf
ROOT
ATOM      1  C   UNL     1      52.839 -48.747  -9.069  1.00  0.00     0.000 C 
ENDROOT
BRANCH   1   2
ATOM      2  C   UNL     1      51.914 -49.710  -8.310  1.00  0.00     0.000 C 
BRANCH   2   3
ATOM      3  C   UNL     1      51.902 -51.095  -8.968  1.00  0.00     0.006 C 
BRANCH   3   4
ATOM      4  C   UNL     1      53.100 -51.269  -9.905  1.00  0.00     0.053 C 
BRANCH   4   5
ATOM      5  C   UNL     1      52.645 -51.337 -11.329  1.00  0.00     0.041 C 
ATOM      6  O   UNL     1      51.472 -50.998 -11.636  1.00  0.00    -0.550 OA
ATOM      7  O   UNL     1      53.533 -51.726 -12.324  1.00  0.00    -0.550 OA
ENDBRANCH   4   5
ENDBRANCH   3   4
ENDBRANCH   2   3
ENDBRANCH   1   2
BRANCH   1   8
ATOM      8  C   UNL     1      52.074 -47.771  -9.979  1.00  0.00     0.000 C 
BRANCH   8   9
ATOM      9  C   UNL     1      50.624 -47.473  -9.544  1.00  0.00     0.006 C 
BRANCH   9  10
ATOM     10  C   UNL     1      49.826 -46.609 -10.534  1.00  0.00     0.053 C 
BRANCH  10  11
ATOM     11  C   UNL     1      49.040 -47.442 -11.499  1.00  0.00     0.041 C 
ATOM     12  O   UNL     1      47.784 -47.478 -11.428  1.00  0.00    -0.550 OA
ATOM     13  O   UNL     1      49.698 -48.206 -12.456  1.00  0.00    -0.550 OA
ENDBRANCH  10  11
ENDBRANCH   9  10
ENDBRANCH   8   9
ENDBRANCH   1   8
TORSDOF 8
ENDMDL
MODEL 6
REMARK VINA RESULT:    -3.662      1.127      4.388
REMARK INTER + INTRA:          -5.956
REMARK INTER:                  -5.235
REMARK INTRA:                  -0.721
REMARK UNBOUND:                -0.582
REMARK SMILES O=C([O-])CCCCCCCC(=O)[O-]
REMARK SMILES IDX 7 1 6 2 5 3 4 4 2 5 1 6 3 7 8 8 9 9 10 10 11 11 12 12 13 13
REMARK H PARENT
REMARK Flexibility Score: inf
ROOT
ATOM      1  C   UNL     1      51.381 -48.994  -8.704  1.00  0.00     0.000 C 
ENDROOT
BRANCH   1   2
ATOM      2  C   UNL     1      52.890 -49.278  -8.748  1.00  0.00     0.000 C 
BRANCH   2   3
ATOM      3  C   UNL     1      53.163 -50.753  -9.065  1.00  0.00     0.006 C 
BRANCH   3   4
ATOM      4  C   UNL     1      51.973 -51.391  -9.786  1.00  0.00     0.053 C 
BRANCH   4   5
ATOM      5  C   UNL     1      52.188 -51.375 -11.266  1.00  0.00     0.041 C 
ATOM      6  O   UNL     1      53.355 -51.413 -11.738  1.00  0.00    -0.550 OA
ATOM      7  O   UNL     1      51.097 -51.370 -12.127  1.00  0.00    -0.550 OA
ENDBRANCH   4   5
ENDBRANCH   3   4
ENDBRANCH   2   3
ENDBRANCH   1   2
BRANCH   1   8
ATOM      8  C   UNL     1      51.007 -47.632  -9.314  1.00  0.00     0.000 C 
BRANCH   8   9
ATOM      9  C   UNL     1      51.890 -47.182 -10.497  1.00  0.00     0.006 C 
BRANCH   9  10
ATOM     10  C   UNL     1      51.539 -47.839 -11.841  1.00  0.00     0.053 C 
BRANCH  10  11
ATOM     11  C   UNL     1      50.125 -47.558 -12.251  1.00  0.00     0.041 C 
ATOM     12  O   UNL     1      49.370 -48.500 -12.607  1.00  0.00    -0.550 OA
ATOM     13  O   UNL     1      49.653 -46.251 -12.273  1.00  0.00    -0.550 OA
ENDBRANCH  10  11
ENDBRANCH   9  10
ENDBRANCH   8   9
ENDBRANCH   1   8
TORSDOF 8
ENDMDL
MODEL 7
REMARK VINA RESULT:    -3.623      2.424      3.999
REMARK INTER + INTRA:          -5.899
REMARK INTER:                  -5.245
REMARK INTRA:                  -0.654
REMARK UNBOUND:                -0.582
REMARK SMILES O=C([O-])CCCCCCCC(=O)[O-]
REMARK SMILES IDX 7 1 6 2 5 3 4 4 2 5 1 6 3 7 8 8 9 9 10 10 11 11 12 12 13 13
REMARK H PARENT
REMARK Flexibility Score: inf
ROOT
ATOM      1  C   UNL     1      50.374 -47.769 -10.681  1.00  0.00     0.000 C 
ENDROOT
BRANCH   1   2
ATOM      2  C   UNL     1      51.481 -47.857 -11.742  1.00  0.00     0.000 C 
BRANCH   2   3
ATOM      3  C   UNL     1      51.157 -48.930 -12.788  1.00  0.00     0.006 C 
BRANCH   3   4
ATOM      4  C   UNL     1      51.380 -50.335 -12.223  1.00  0.00     0.053 C 
BRANCH   4   5
ATOM      5  C   UNL     1      52.582 -50.967 -12.849  1.00  0.00     0.041 C 
ATOM      6  O   UNL     1      53.385 -51.636 -12.146  1.00  0.00    -0.550 OA
ATOM      7  O   UNL     1      52.790 -50.860 -14.218  1.00  0.00    -0.550 OA
ENDBRANCH   4   5
ENDBRANCH   3   4
ENDBRANCH   2   3
ENDBRANCH   1   2
BRANCH   1   8
ATOM      8  C   UNL     1      50.916 -47.816  -9.242  1.00  0.00     0.000 C 
BRANCH   8   9
ATOM      9  C   UNL     1      52.122 -48.753  -9.028  1.00  0.00     0.006 C 
BRANCH   9  10
ATOM     10  C   UNL     1      51.833 -49.972  -8.138  1.00  0.00     0.053 C 
BRANCH  10  11
ATOM     11  C   UNL     1      52.305 -51.249  -8.764  1.00  0.00     0.041 C 
ATOM     12  O   UNL     1      51.474 -52.117  -9.136  1.00  0.00    -0.550 OA
ATOM     13  O   UNL     1      53.666 -51.494  -8.903  1.00  0.00    -0.550 OA
ENDBRANCH  10  11
ENDBRANCH   9  10
ENDBRANCH   8   9
ENDBRANCH   1   8
TORSDOF 8
ENDMDL
MODEL 8
REMARK VINA RESULT:    -3.618      1.791      2.354
REMARK INTER + INTRA:          -5.892
REMARK INTER:                  -5.544
REMARK INTRA:                  -0.348
REMARK UNBOUND:                -0.582
REMARK SMILES O=C([O-])CCCCCCCC(=O)[O-]
REMARK SMILES IDX 7 1 6 2 5 3 4 4 2 5 1 6 3 7 8 8 9 9 10 10 11 11 12 12 13 13
REMARK H PARENT
REMARK Flexibility Score: inf
ROOT
ATOM      1  C   UNL     1      51.034 -48.701  -9.444  1.00  0.00     0.000 C 
ENDROOT
BRANCH   1   2
ATOM      2  C   UNL     1      50.686 -47.218  -9.249  1.00  0.00     0.000 C 
BRANCH   2   3
ATOM      3  C   UNL     1      49.950 -46.660 -10.473  1.00  0.00     0.006 C 
BRANCH   3   4
ATOM      4  C   UNL     1      50.869 -45.760 -11.304  1.00  0.00     0.053 C 
BRANCH   4   5
ATOM      5  C   UNL     1      51.499 -46.539 -12.415  1.00  0.00     0.041 C 
ATOM      6  O   UNL     1      50.966 -47.604 -12.825  1.00  0.00    -0.550 OA
ATOM      7  O   UNL     1      52.649 -46.062 -13.032  1.00  0.00    -0.550 OA
ENDBRANCH   4   5
ENDBRANCH   3   4
ENDBRANCH   2   3
ENDBRANCH   1   2
BRANCH   1   8
ATOM      8  C   UNL     1      51.767 -49.310  -8.236  1.00  0.00     0.000 C 
BRANCH   8   9
ATOM      9  C   UNL     1      51.419 -50.783  -7.937  1.00  0.00     0.006 C 
BRANCH   9  10
ATOM     10  C   UNL     1      51.741 -51.760  -9.078  1.00  0.00     0.053 C 
BRANCH  10  11
ATOM     11  C   UNL     1      53.120 -51.550  -9.625  1.00  0.00     0.041 C 
ATOM     12  O   UNL     1      54.127 -51.760  -8.901  1.00  0.00    -0.550 OA
ATOM     13  O   UNL     1      53.290 -51.086 -10.925  1.00  0.00    -0.550 OA
ENDBRANCH  10  11
ENDBRANCH   9  10
ENDBRANCH   8   9
ENDBRANCH   1   8
TORSDOF 8
ENDMDL
MODEL 9
REMARK VINA RESULT:    -3.600      2.210      4.029
REMARK INTER + INTRA:          -5.865
REMARK INTER:                  -5.170
REMARK INTRA:                  -0.695
REMARK UNBOUND:                -0.582
REMARK SMILES O=C([O-])CCCCCCCC(=O)[O-]
REMARK SMILES IDX 7 1 6 2 5 3 4 4 2 5 1 6 3 7 8 8 9 9 10 10 11 11 12 12 13 13
REMARK H PARENT
REMARK Flexibility Score: inf
ROOT
ATOM      1  C   UNL     1      51.474 -47.862 -10.333  1.00  0.00     0.000 C 
ENDROOT
BRANCH   1   2
ATOM      2  C   UNL     1      51.028 -48.021  -8.872  1.00  0.00     0.000 C 
BRANCH   2   3
ATOM      3  C   UNL     1      51.834 -49.119  -8.167  1.00  0.00     0.006 C 
BRANCH   3   4
ATOM      4  C   UNL     1      52.994 -49.598  -9.043  1.00  0.00     0.053 C 
BRANCH   4   5
ATOM      5  C   UNL     1      52.976 -51.088  -9.167  1.00  0.00     0.041 C 
ATOM      6  O   UNL     1      54.015 -51.758  -8.924  1.00  0.00    -0.550 OA
ATOM      7  O   UNL     1      51.798 -51.744  -9.503  1.00  0.00    -0.550 OA
ENDBRANCH   4   5
ENDBRANCH   3   4
ENDBRANCH   2   3
ENDBRANCH   1   2
BRANCH   1   8
ATOM      8  C   UNL     1      50.304 -47.925 -11.329  1.00  0.00     0.000 C 
BRANCH   8   9
ATOM      9  C   UNL     1      50.496 -48.910 -12.501  1.00  0.00     0.006 C 
BRANCH   9  10
ATOM     10  C   UNL     1      51.853 -49.630 -12.514  1.00  0.00     0.053 C 
BRANCH  10  11
ATOM     11  C   UNL     1      51.734 -51.044 -12.992  1.00  0.00     0.041 C 
ATOM     12  O   UNL     1      50.670 -51.689 -12.802  1.00  0.00    -0.550 OA
ATOM     13  O   UNL     1      52.811 -51.662 -13.615  1.00  0.00    -0.550 OA
ENDBRANCH  10  11
ENDBRANCH   9  10
ENDBRANCH   8   9
ENDBRANCH   1   8
TORSDOF 8
ENDMDL
