MODEL 1
REMARK VINA RESULT:    -3.856      0.000      0.000
REMARK INTER + INTRA:          -4.214
REMARK INTER:                  -4.081
REMARK INTRA:                  -0.133
REMARK UNBOUND:                -0.133
REMARK SMILES CC(C)[C@H]1CC[C@@H](C)CC1=O
REMARK SMILES IDX 8 1 7 2 6 3 5 4 4 5 10 6 11 7 9 8 2 9 1 10 3 11
REMARK H PARENT
REMARK Flexibility Score: inf
ROOT
ATOM      1  C   UNL     1     162.687 171.367 172.015  1.00  0.00     0.008 C 
ATOM      2  C   UNL     1     162.217 172.557 171.162  1.00  0.00    -0.007 C 
ATOM      3  C   UNL     1     161.611 172.103 169.816  1.00  0.00     0.004 C 
ATOM      4  C   UNL     1     162.668 171.529 168.858  1.00  0.00     0.012 C 
ATOM      5  C   UNL     1     163.813 172.538 168.596  1.00  0.00     0.058 C 
ATOM      6  C   UNL     1     164.336 173.080 169.915  1.00  0.00     0.136 C 
ATOM      7  O   UNL     1     165.533 173.219 170.117  1.00  0.00    -0.299 OA
ATOM      8  C   UNL     1     163.351 173.574 170.941  1.00  0.00     0.079 C 
ENDROOT
BRANCH   5   9
ATOM      9  C   UNL     1     164.939 171.971 167.675  1.00  0.00    -0.007 C 
ATOM     10  C   UNL     1     165.435 173.019 166.668  1.00  0.00     0.008 C 
ATOM     11  C   UNL     1     164.544 170.678 166.940  1.00  0.00     0.008 C 
ENDBRANCH   5   9
TORSDOF 1
ENDMDL
MODEL 2
REMARK VINA RESULT:    -3.849     12.798     14.274
REMARK INTER + INTRA:          -4.207
REMARK INTER:                  -4.077
REMARK INTRA:                  -0.130
REMARK UNBOUND:                -0.133
REMARK SMILES CC(C)[C@H]1CC[C@@H](C)CC1=O
REMARK SMILES IDX 8 1 7 2 6 3 5 4 4 5 10 6 11 7 9 8 2 9 1 10 3 11
REMARK H PARENT
REMARK Flexibility Score: inf
ROOT
ATOM      1  C   UNL     1     168.476 159.828 172.051  1.00  0.00     0.008 C 
ATOM      2  C   UNL     1     168.948 158.641 171.194  1.00  0.00    -0.007 C 
ATOM      3  C   UNL     1     169.573 159.100 169.858  1.00  0.00     0.004 C 
ATOM      4  C   UNL     1     168.529 159.688 168.893  1.00  0.00     0.012 C 
ATOM      5  C   UNL     1     167.382 158.687 168.611  1.00  0.00     0.058 C 
ATOM      6  C   UNL     1     166.840 158.140 169.921  1.00  0.00     0.136 C 
ATOM      7  O   UNL     1     165.640 158.008 170.108  1.00  0.00    -0.299 OA
ATOM      8  C   UNL     1     167.810 157.633 170.954  1.00  0.00     0.079 C 
ENDROOT
BRANCH   5   9
ATOM      9  C   UNL     1     166.269 159.269 167.682  1.00  0.00    -0.007 C 
ATOM     10  C   UNL     1     165.770 158.227 166.669  1.00  0.00     0.008 C 
ATOM     11  C   UNL     1     166.685 160.558 166.951  1.00  0.00     0.008 C 
ENDBRANCH   5   9
TORSDOF 1
ENDMDL
MODEL 3
REMARK VINA RESULT:    -3.837      9.060     10.070
REMARK INTER + INTRA:          -4.194
REMARK INTER:                  -4.063
REMARK INTRA:                  -0.131
REMARK UNBOUND:                -0.133
REMARK SMILES CC(C)[C@H]1CC[C@@H](C)CC1=O
REMARK SMILES IDX 8 1 7 2 6 3 5 4 4 5 10 6 11 7 9 8 2 9 1 10 3 11
REMARK H PARENT
REMARK Flexibility Score: inf
ROOT
ATOM      1  C   UNL     1     159.958 162.760 172.001  1.00  0.00     0.008 C 
ATOM      2  C   UNL     1     158.756 162.259 171.182  1.00  0.00    -0.007 C 
ATOM      3  C   UNL     1     159.188 161.650 169.830  1.00  0.00     0.004 C 
ATOM      4  C   UNL     1     159.718 162.710 168.849  1.00  0.00     0.012 C 
ATOM      5  C   UNL     1     158.681 163.832 168.603  1.00  0.00     0.058 C 
ATOM      6  C   UNL     1     158.162 164.357 169.931  1.00  0.00     0.136 C 
ATOM      7  O   UNL     1     158.005 165.553 170.126  1.00  0.00    -0.299 OA
ATOM      8  C   UNL     1     157.713 163.372 170.977  1.00  0.00     0.079 C 
ENDROOT
BRANCH   5   9
ATOM      9  C   UNL     1     159.204 164.962 167.659  1.00  0.00    -0.007 C 
ATOM     10  C   UNL     1     158.120 165.432 166.677  1.00  0.00     0.008 C 
ATOM     11  C   UNL     1     160.482 164.582 166.891  1.00  0.00     0.008 C 
ENDBRANCH   5   9
TORSDOF 1
ENDMDL
MODEL 4
REMARK VINA RESULT:    -3.832      9.095     10.090
REMARK INTER + INTRA:          -4.188
REMARK INTER:                  -4.069
REMARK INTRA:                  -0.120
REMARK UNBOUND:                -0.133
REMARK SMILES CC(C)[C@H]1CC[C@@H](C)CC1=O
REMARK SMILES IDX 8 1 7 2 6 3 5 4 4 5 10 6 11 7 9 8 2 9 1 10 3 11
REMARK H PARENT
REMARK Flexibility Score: inf
ROOT
ATOM      1  C   UNL     1     171.455 168.596 172.090  1.00  0.00     0.008 C 
ATOM      2  C   UNL     1     172.617 169.065 171.199  1.00  0.00    -0.007 C 
ATOM      3  C   UNL     1     172.121 169.663 169.864  1.00  0.00     0.004 C 
ATOM      4  C   UNL     1     171.520 168.600 168.929  1.00  0.00     0.012 C 
ATOM      5  C   UNL     1     172.524 167.456 168.642  1.00  0.00     0.058 C 
ATOM      6  C   UNL     1     173.106 166.941 169.947  1.00  0.00     0.136 C 
ATOM      7  O   UNL     1     173.254 165.745 170.150  1.00  0.00    -0.299 OA
ATOM      8  C   UNL     1     173.629 167.931 170.953  1.00  0.00     0.079 C 
ENDROOT
BRANCH   5   9
ATOM      9  C   UNL     1     171.931 166.324 167.745  1.00  0.00    -0.007 C 
ATOM     10  C   UNL     1     172.965 165.791 166.741  1.00  0.00     0.008 C 
ATOM     11  C   UNL     1     170.642 166.730 167.008  1.00  0.00     0.008 C 
ENDBRANCH   5   9
TORSDOF 1
ENDMDL
MODEL 5
REMARK VINA RESULT:    -3.719      1.180      1.383
REMARK INTER + INTRA:          -4.069
REMARK INTER:                  -3.900
REMARK INTRA:                  -0.169
REMARK UNBOUND:                -0.133
REMARK SMILES CC(C)[C@H]1CC[C@@H](C)CC1=O
REMARK SMILES IDX 8 1 7 2 6 3 5 4 4 5 10 6 11 7 9 8 2 9 1 10 3 11
REMARK H PARENT
REMARK Flexibility Score: inf
ROOT
ATOM      1  C   UNL     1     162.986 172.672 172.359  1.00  0.00     0.008 C 
ATOM      2  C   UNL     1     162.248 173.126 171.088  1.00  0.00    -0.007 C 
ATOM      3  C   UNL     1     161.519 171.957 170.390  1.00  0.00     0.004 C 
ATOM      4  C   UNL     1     162.494 170.953 169.752  1.00  0.00     0.012 C 
ATOM      5  C   UNL     1     163.449 171.641 168.746  1.00  0.00     0.058 C 
ATOM      6  C   UNL     1     164.081 172.864 169.388  1.00  0.00     0.136 C 
ATOM      7  O   UNL     1     165.267 173.120 169.239  1.00  0.00    -0.299 OA
ATOM      8  C   UNL     1     163.198 173.845 170.113  1.00  0.00     0.079 C 
ENDROOT
BRANCH   5   9
ATOM      9  C   UNL     1     164.495 170.666 168.120  1.00  0.00    -0.007 C 
ATOM     10  C   UNL     1     164.372 170.601 166.590  1.00  0.00     0.008 C 
ATOM     11  C   UNL     1     164.450 169.247 168.713  1.00  0.00     0.008 C 
ENDBRANCH   5   9
TORSDOF 1
ENDMDL
MODEL 6
REMARK VINA RESULT:    -3.709     12.485     13.965
REMARK INTER + INTRA:          -4.058
REMARK INTER:                  -3.895
REMARK INTRA:                  -0.163
REMARK UNBOUND:                -0.133
REMARK SMILES CC(C)[C@H]1CC[C@@H](C)CC1=O
REMARK SMILES IDX 8 1 7 2 6 3 5 4 4 5 10 6 11 7 9 8 2 9 1 10 3 11
REMARK H PARENT
REMARK Flexibility Score: inf
ROOT
ATOM      1  C   UNL     1     168.160 158.313 172.194  1.00  0.00     0.008 C 
ATOM      2  C   UNL     1     168.953 158.000 170.914  1.00  0.00    -0.007 C 
ATOM      3  C   UNL     1     169.657 159.252 170.345  1.00  0.00     0.004 C 
ATOM      4  C   UNL     1     168.663 160.272 169.763  1.00  0.00     0.012 C 
ATOM      5  C   UNL     1     167.767 159.640 168.670  1.00  0.00     0.058 C 
ATOM      6  C   UNL     1     167.164 158.343 169.182  1.00  0.00     0.136 C 
ATOM      7  O   UNL     1     165.994 158.058 168.973  1.00  0.00    -0.299 OA
ATOM      8  C   UNL     1     168.062 157.336 169.849  1.00  0.00     0.079 C 
ENDROOT
BRANCH   5   9
ATOM      9  C   UNL     1     166.702 160.628 168.096  1.00  0.00    -0.007 C 
ATOM     10  C   UNL     1     166.774 160.718 166.564  1.00  0.00     0.008 C 
ATOM     11  C   UNL     1     166.772 162.037 168.711  1.00  0.00     0.008 C 
ENDBRANCH   5   9
TORSDOF 1
ENDMDL
MODEL 7
REMARK VINA RESULT:    -3.430      8.917      9.789
REMARK INTER + INTRA:          -3.763
REMARK INTER:                  -3.602
REMARK INTRA:                  -0.162
REMARK UNBOUND:                -0.133
REMARK SMILES CC(C)[C@H]1CC[C@@H](C)CC1=O
REMARK SMILES IDX 8 1 7 2 6 3 5 4 4 5 10 6 11 7 9 8 2 9 1 10 3 11
REMARK H PARENT
REMARK Flexibility Score: inf
ROOT
ATOM      1  C   UNL     1     157.277 163.279 171.772  1.00  0.00     0.008 C 
ATOM      2  C   UNL     1     158.735 163.763 171.857  1.00  0.00    -0.007 C 
ATOM      3  C   UNL     1     158.908 165.188 171.289  1.00  0.00     0.004 C 
ATOM      4  C   UNL     1     158.732 165.239 169.762  1.00  0.00     0.012 C 
ATOM      5  C   UNL     1     159.703 164.273 169.041  1.00  0.00     0.058 C 
ATOM      6  C   UNL     1     159.624 162.893 169.673  1.00  0.00     0.136 C 
ATOM      7  O   UNL     1     159.610 161.880 168.991  1.00  0.00    -0.299 OA
ATOM      8  C   UNL     1     159.696 162.775 171.172  1.00  0.00     0.079 C 
ENDROOT
BRANCH   5   9
ATOM      9  C   UNL     1     159.514 164.249 167.491  1.00  0.00    -0.007 C 
ATOM     10  C   UNL     1     160.840 164.480 166.751  1.00  0.00     0.008 C 
ATOM     11  C   UNL     1     158.448 165.236 166.983  1.00  0.00     0.008 C 
ENDBRANCH   5   9
TORSDOF 1
ENDMDL
MODEL 8
REMARK VINA RESULT:    -3.419      8.765      9.851
REMARK INTER + INTRA:          -3.751
REMARK INTER:                  -3.590
REMARK INTRA:                  -0.161
REMARK UNBOUND:                -0.133
REMARK SMILES CC(C)[C@H]1CC[C@@H](C)CC1=O
REMARK SMILES IDX 8 1 7 2 6 3 5 4 4 5 10 6 11 7 9 8 2 9 1 10 3 11
REMARK H PARENT
REMARK Flexibility Score: inf
ROOT
ATOM      1  C   UNL     1     173.775 168.030 171.843  1.00  0.00     0.008 C 
ATOM      2  C   UNL     1     172.318 167.537 171.891  1.00  0.00    -0.007 C 
ATOM      3  C   UNL     1     172.173 166.099 171.345  1.00  0.00     0.004 C 
ATOM      4  C   UNL     1     172.400 166.021 169.826  1.00  0.00     0.012 C 
ATOM      5  C   UNL     1     171.447 166.965 169.054  1.00  0.00     0.058 C 
ATOM      6  C   UNL     1     171.496 168.357 169.662  1.00  0.00     0.136 C 
ATOM      7  O   UNL     1     171.526 169.357 168.960  1.00  0.00    -0.299 OA
ATOM      8  C   UNL     1     171.374 168.504 171.155  1.00  0.00     0.079 C 
ENDROOT
BRANCH   5   9
ATOM      9  C   UNL     1     171.687 166.961 167.511  1.00  0.00    -0.007 C 
ATOM     10  C   UNL     1     170.382 166.739 166.731  1.00  0.00     0.008 C 
ATOM     11  C   UNL     1     172.752 165.948 167.054  1.00  0.00     0.008 C 
ENDBRANCH   5   9
TORSDOF 1
ENDMDL
MODEL 9
REMARK VINA RESULT:    -3.403      9.070     10.369
REMARK INTER + INTRA:          -3.735
REMARK INTER:                  -3.551
REMARK INTRA:                  -0.184
REMARK UNBOUND:                -0.133
REMARK SMILES CC(C)[C@H]1CC[C@@H](C)CC1=O
REMARK SMILES IDX 8 1 7 2 6 3 5 4 4 5 10 6 11 7 9 8 2 9 1 10 3 11
REMARK H PARENT
REMARK Flexibility Score: inf
ROOT
ATOM      1  C   UNL     1     172.742 166.349 167.381  1.00  0.00     0.008 C 
ATOM      2  C   UNL     1     171.844 166.272 168.627  1.00  0.00    -0.007 C 
ATOM      3  C   UNL     1     170.855 167.456 168.705  1.00  0.00     0.004 C 
ATOM      4  C   UNL     1     171.559 168.791 169.003  1.00  0.00     0.012 C 
ATOM      5  C   UNL     1     172.389 168.723 170.308  1.00  0.00     0.058 C 
ATOM      6  C   UNL     1     173.280 167.492 170.290  1.00  0.00     0.136 C 
ATOM      7  O   UNL     1     174.440 167.540 170.672  1.00  0.00    -0.299 OA
ATOM      8  C   UNL     1     172.678 166.164 169.915  1.00  0.00     0.079 C 
ENDROOT
BRANCH   5   9
ATOM      9  C   UNL     1     173.169 170.041 170.615  1.00  0.00    -0.007 C 
ATOM     10  C   UNL     1     172.348 170.999 171.491  1.00  0.00     0.008 C 
ATOM     11  C   UNL     1     173.665 170.773 169.355  1.00  0.00     0.008 C 
ENDBRANCH   5   9
TORSDOF 1
ENDMDL
