MODEL 1
REMARK VINA RESULT:    47.562      0.000      0.000
REMARK INTER + INTRA:          72.565
REMARK INTER:                  68.416
REMARK INTRA:                   4.149
REMARK UNBOUND:                 4.149
REMARK SMILES O=c1cc(-c2ccc(O)c(O)c2)oc2cc(O[C@H]3O[C@H](CO)[C@@H](O)[C@@H](O)[C@@H]3O)cc(O)c12
REMARK SMILES IDX 17 1 16 2 4 3 3 4 13 5 2 6 14 7 1 8 32 9 15 10 30 11 29 12
REMARK SMILES IDX 5 13 6 14 7 15 8 16 12 17 10 18 9 19 11 21 31 23 18 25 27 26
REMARK SMILES IDX 19 27 25 28 20 29 23 30 28 31 26 33 21 35 22 36 24 38
REMARK H PARENT 9 20 11 22 31 24 28 32 26 34 22 37 24 39
REMARK Flexibility Score: inf
ROOT
ATOM      1  O   UNL     1      17.424  52.075  61.992  1.00  0.00    -0.462 OA
ENDROOT
BRANCH   1   2
ATOM      2  C   UNL     1      16.699  51.608  60.884  1.00  0.00     0.130 A 
ATOM      3  C   UNL     1      16.067  48.050  57.767  1.00  0.00     0.138 A 
ATOM      4  C   UNL     1      15.029  48.725  57.112  1.00  0.00     0.100 A 
ATOM      5  O   UNL     1      16.675  48.624  58.796  1.00  0.00    -0.456 OA
ATOM      6  C   UNL     1      14.658  49.993  57.546  1.00  0.00     0.197 A 
ATOM      7  C   UNL     1      16.342  49.824  59.262  1.00  0.00     0.146 A 
ATOM      8  O   UNL     1      13.732  50.597  56.945  1.00  0.00    -0.289 OA
ATOM      9  C   UNL     1      15.322  50.575  58.640  1.00  0.00     0.107 A 
ATOM     10  C   UNL     1      17.005  50.335  60.379  1.00  0.00     0.094 A 
ATOM     11  C   UNL     1      15.003  51.860  59.148  1.00  0.00     0.134 A 
ATOM     12  C   UNL     1      15.690  52.364  60.264  1.00  0.00     0.093 A 
BRANCH   3  13
ATOM     13  C   UNL     1      16.507  46.705  57.343  1.00  0.00     0.021 A 
ATOM     14  C   UNL     1      15.578  45.658  57.258  1.00  0.00     0.016 A 
ATOM     15  C   UNL     1      15.977  44.383  56.818  1.00  0.00     0.051 A 
ATOM     16  C   UNL     1      17.309  44.126  56.470  1.00  0.00     0.157 A 
ATOM     17  C   UNL     1      17.843  46.454  56.983  1.00  0.00     0.062 A 
ATOM     18  C   UNL     1      18.252  45.177  56.548  1.00  0.00     0.158 A 
BRANCH  16  19
ATOM     19  O   UNL     1      17.652  42.822  56.063  1.00  0.00    -0.504 OA
ATOM     20  H   UNL     1      17.228  42.348  55.272  1.00  0.00     0.293 HD
ENDBRANCH  16  19
BRANCH  18  21
ATOM     21  O   UNL     1      19.595  45.006  56.210  1.00  0.00    -0.504 OA
ATOM     22  H   UNL     1      19.970  44.182  55.772  1.00  0.00     0.293 HD
ENDBRANCH  18  21
ENDBRANCH   3  13
BRANCH  11  23
ATOM     23  O   UNL     1      14.014  52.636  58.552  1.00  0.00    -0.507 OA
ATOM     24  H   UNL     1      14.085  52.938  57.588  1.00  0.00     0.293 HD
ENDBRANCH  11  23
ENDBRANCH   1   2
BRANCH   1  25
ATOM     25  C   UNL     1      17.375  53.398  62.543  1.00  0.00     0.339 C 
ATOM     26  C   UNL     1      16.364  53.455  63.731  1.00  0.00     0.214 C 
ATOM     27  O   UNL     1      17.088  54.320  61.498  1.00  0.00    -0.332 OA
ATOM     28  C   UNL     1      15.515  54.756  63.714  1.00  0.00     0.180 C 
ATOM     29  C   UNL     1      15.712  54.339  61.187  1.00  0.00     0.179 C 
ATOM     30  C   UNL     1      14.977  55.125  62.295  1.00  0.00     0.177 C 
BRANCH  26  31
ATOM     31  O   UNL     1      17.077  53.352  64.942  1.00  0.00    -0.384 OA
ATOM     32  H   UNL     1      17.792  52.662  64.831  1.00  0.00     0.211 HD
ENDBRANCH  26  31
BRANCH  28  33
ATOM     33  O   UNL     1      14.471  54.683  64.659  1.00  0.00    -0.387 OA
ATOM     34  H   UNL     1      13.817  55.404  64.446  1.00  0.00     0.211 HD
ENDBRANCH  28  33
BRANCH  29  35
ATOM     35  C   UNL     1      15.527  55.001  59.814  1.00  0.00     0.191 C 
BRANCH  35  36
ATOM     36  O   UNL     1      14.166  55.125  59.497  1.00  0.00    -0.394 OA
ATOM     37  H   UNL     1      13.635  54.767  60.236  1.00  0.00     0.210 HD
ENDBRANCH  35  36
ENDBRANCH  29  35
BRANCH  30  38
ATOM     38  O   UNL     1      13.584  54.993  62.188  1.00  0.00    -0.387 OA
ATOM     39  H   UNL     1      13.172  55.839  62.509  1.00  0.00     0.211 HD
ENDBRANCH  30  38
ENDBRANCH   1  25
TORSDOF 11
ENDMDL
MODEL 2
REMARK VINA RESULT:    48.201      1.718      2.648
REMARK INTER + INTRA:          73.484
REMARK INTER:                  73.517
REMARK INTRA:                  -0.033
REMARK UNBOUND:                 4.149
REMARK SMILES O=c1cc(-c2ccc(O)c(O)c2)oc2cc(O[C@H]3O[C@H](CO)[C@@H](O)[C@@H](O)[C@@H]3O)cc(O)c12
REMARK SMILES IDX 17 1 16 2 4 3 3 4 13 5 2 6 14 7 1 8 32 9 15 10 30 11 29 12
REMARK SMILES IDX 5 13 6 14 7 15 8 16 12 17 10 18 9 19 11 21 31 23 18 25 27 26
REMARK SMILES IDX 19 27 25 28 20 29 23 30 28 31 26 33 21 35 22 36 24 38
REMARK H PARENT 9 20 11 22 31 24 28 32 26 34 22 37 24 39
REMARK Flexibility Score: inf
ROOT
ATOM      1  O   UNL     1      16.296  53.339  60.260  1.00  0.00    -0.462 OA
ENDROOT
BRANCH   1   2
ATOM      2  C   UNL     1      16.001  51.988  60.503  1.00  0.00     0.130 A 
ATOM      3  C   UNL     1      16.246  47.514  58.860  1.00  0.00     0.138 A 
ATOM      4  C   UNL     1      15.622  46.995  60.001  1.00  0.00     0.100 A 
ATOM      5  O   UNL     1      16.446  48.821  58.760  1.00  0.00    -0.456 OA
ATOM      6  C   UNL     1      15.213  47.860  61.010  1.00  0.00     0.197 A 
ATOM      7  C   UNL     1      16.093  49.687  59.705  1.00  0.00     0.146 A 
ATOM      8  O   UNL     1      14.644  47.386  62.027  1.00  0.00    -0.289 OA
ATOM      9  C   UNL     1      15.440  49.241  60.875  1.00  0.00     0.107 A 
ATOM     10  C   UNL     1      16.381  51.042  59.539  1.00  0.00     0.094 A 
ATOM     11  C   UNL     1      15.058  50.190  61.856  1.00  0.00     0.134 A 
ATOM     12  C   UNL     1      15.343  51.552  61.665  1.00  0.00     0.093 A 
BRANCH   3  13
ATOM     13  C   UNL     1      16.693  46.641  57.755  1.00  0.00     0.021 A 
ATOM     14  C   UNL     1      17.335  47.198  56.639  1.00  0.00     0.016 A 
ATOM     15  C   UNL     1      17.799  46.373  55.598  1.00  0.00     0.051 A 
ATOM     16  C   UNL     1      17.620  44.985  55.644  1.00  0.00     0.157 A 
ATOM     17  C   UNL     1      16.522  45.247  57.810  1.00  0.00     0.062 A 
ATOM     18  C   UNL     1      16.979  44.415  56.769  1.00  0.00     0.158 A 
BRANCH  16  19
ATOM     19  O   UNL     1      18.082  44.216  54.559  1.00  0.00    -0.504 OA
ATOM     20  H   UNL     1      17.865  44.423  53.589  1.00  0.00     0.293 HD
ENDBRANCH  16  19
BRANCH  18  21
ATOM     21  O   UNL     1      16.770  43.041  56.896  1.00  0.00    -0.504 OA
ATOM     22  H   UNL     1      16.686  42.559  57.774  1.00  0.00     0.293 HD
ENDBRANCH  18  21
ENDBRANCH   3  13
BRANCH  11  23
ATOM     23  O   UNL     1      14.398  49.791  63.015  1.00  0.00    -0.507 OA
ATOM     24  H   UNL     1      14.603  48.908  63.466  1.00  0.00     0.293 HD
ENDBRANCH  11  23
ENDBRANCH   1   2
BRANCH   1  25
ATOM     25  C   UNL     1      16.542  54.346  61.251  1.00  0.00     0.339 C 
ATOM     26  C   UNL     1      17.068  53.694  62.568  1.00  0.00     0.214 C 
ATOM     27  O   UNL     1      15.362  55.121  61.423  1.00  0.00    -0.332 OA
ATOM     28  C   UNL     1      16.443  54.344  63.832  1.00  0.00     0.180 C 
ATOM     29  C   UNL     1      14.425  54.460  62.246  1.00  0.00     0.179 C 
ATOM     30  C   UNL     1      14.903  54.577  63.710  1.00  0.00     0.177 C 
BRANCH  26  31
ATOM     31  O   UNL     1      18.473  53.807  62.604  1.00  0.00    -0.384 OA
ATOM     32  H   UNL     1      18.847  53.366  61.788  1.00  0.00     0.211 HD
ENDBRANCH  26  31
BRANCH  28  33
ATOM     33  O   UNL     1      16.763  53.601  64.986  1.00  0.00    -0.387 OA
ATOM     34  H   UNL     1      15.911  53.251  65.368  1.00  0.00     0.211 HD
ENDBRANCH  28  33
BRANCH  29  35
ATOM     35  C   UNL     1      13.050  55.117  62.052  1.00  0.00     0.191 C 
BRANCH  35  36
ATOM     36  O   UNL     1      12.020  54.246  62.438  1.00  0.00    -0.394 OA
ATOM     37  H   UNL     1      11.920  54.285  63.409  1.00  0.00     0.210 HD
ENDBRANCH  35  36
ENDBRANCH  29  35
BRANCH  30  38
ATOM     38  O   UNL     1      14.157  53.752  64.566  1.00  0.00    -0.387 OA
ATOM     39  H   UNL     1      13.245  54.139  64.644  1.00  0.00     0.211 HD
ENDBRANCH  30  38
ENDBRANCH   1  25
TORSDOF 11
ENDMDL
MODEL 3
REMARK VINA RESULT:    50.345      2.547      4.585
REMARK INTER + INTRA:          76.569
REMARK INTER:                  77.402
REMARK INTRA:                  -0.833
REMARK UNBOUND:                 4.149
REMARK SMILES O=c1cc(-c2ccc(O)c(O)c2)oc2cc(O[C@H]3O[C@H](CO)[C@@H](O)[C@@H](O)[C@@H]3O)cc(O)c12
REMARK SMILES IDX 17 1 16 2 4 3 3 4 13 5 2 6 14 7 1 8 32 9 15 10 30 11 29 12
REMARK SMILES IDX 5 13 6 14 7 15 8 16 12 17 10 18 9 19 11 21 31 23 18 25 27 26
REMARK SMILES IDX 19 27 25 28 20 29 23 30 28 31 26 33 21 35 22 36 24 38
REMARK H PARENT 9 20 11 22 31 24 28 32 26 34 22 37 24 39
REMARK Flexibility Score: inf
ROOT
ATOM      1  O   UNL     1      15.759  49.774  58.924  1.00  0.00    -0.462 OA
ENDROOT
BRANCH   1   2
ATOM      2  C   UNL     1      15.846  48.458  58.444  1.00  0.00     0.130 A 
ATOM      3  C   UNL     1      18.593  45.177  56.330  1.00  0.00     0.138 A 
ATOM      4  C   UNL     1      17.581  44.210  56.377  1.00  0.00     0.100 A 
ATOM      5  O   UNL     1      18.362  46.391  56.811  1.00  0.00    -0.456 OA
ATOM      6  C   UNL     1      16.344  44.540  56.919  1.00  0.00     0.197 A 
ATOM      7  C   UNL     1      17.204  46.749  57.359  1.00  0.00     0.146 A 
ATOM      8  O   UNL     1      15.438  43.669  56.948  1.00  0.00    -0.289 OA
ATOM      9  C   UNL     1      16.129  45.836  57.422  1.00  0.00     0.107 A 
ATOM     10  C   UNL     1      17.060  48.035  57.881  1.00  0.00     0.094 A 
ATOM     11  C   UNL     1      14.901  46.253  57.994  1.00  0.00     0.134 A 
ATOM     12  C   UNL     1      14.770  47.556  58.501  1.00  0.00     0.093 A 
BRANCH   3  13
ATOM     13  C   UNL     1      19.923  44.883  55.757  1.00  0.00     0.021 A 
ATOM     14  C   UNL     1      20.818  44.057  56.453  1.00  0.00     0.016 A 
ATOM     15  C   UNL     1      22.071  43.738  55.901  1.00  0.00     0.051 A 
ATOM     16  C   UNL     1      22.459  44.246  54.655  1.00  0.00     0.157 A 
ATOM     17  C   UNL     1      20.304  45.385  54.501  1.00  0.00     0.062 A 
ATOM     18  C   UNL     1      21.561  45.074  53.944  1.00  0.00     0.158 A 
BRANCH  16  19
ATOM     19  O   UNL     1      23.738  43.912  54.167  1.00  0.00    -0.504 OA
ATOM     20  H   UNL     1      24.267  44.497  53.528  1.00  0.00     0.293 HD
ENDBRANCH  16  19
BRANCH  18  21
ATOM     21  O   UNL     1      21.867  45.612  52.692  1.00  0.00    -0.504 OA
ATOM     22  H   UNL     1      22.798  45.826  52.379  1.00  0.00     0.293 HD
ENDBRANCH  18  21
ENDBRANCH   3  13
BRANCH  11  23
ATOM     23  O   UNL     1      13.815  45.386  58.059  1.00  0.00    -0.507 OA
ATOM     24  H   UNL     1      12.952  45.578  57.564  1.00  0.00     0.293 HD
ENDBRANCH  11  23
ENDBRANCH   1   2
BRANCH   1  25
ATOM     25  C   UNL     1      16.169  50.233  60.220  1.00  0.00     0.339 C 
ATOM     26  C   UNL     1      15.034  49.993  61.265  1.00  0.00     0.214 C 
ATOM     27  O   UNL     1      16.580  51.591  60.118  1.00  0.00    -0.332 OA
ATOM     28  C   UNL     1      14.878  51.188  62.244  1.00  0.00     0.180 C 
ATOM     29  C   UNL     1      15.473  52.467  60.097  1.00  0.00     0.179 C 
ATOM     30  C   UNL     1      14.918  52.579  61.534  1.00  0.00     0.177 C 
BRANCH  26  31
ATOM     31  O   UNL     1      15.314  48.810  61.978  1.00  0.00    -0.384 OA
ATOM     32  H   UNL     1      16.041  48.317  61.501  1.00  0.00     0.211 HD
ENDBRANCH  26  31
BRANCH  28  33
ATOM     33  O   UNL     1      13.717  51.043  63.029  1.00  0.00    -0.387 OA
ATOM     34  H   UNL     1      13.317  50.154  62.819  1.00  0.00     0.211 HD
ENDBRANCH  28  33
BRANCH  29  35
ATOM     35  C   UNL     1      15.936  53.832  59.567  1.00  0.00     0.191 C 
BRANCH  35  36
ATOM     36  O   UNL     1      15.145  54.866  60.090  1.00  0.00    -0.394 OA
ATOM     37  H   UNL     1      14.480  54.481  60.693  1.00  0.00     0.210 HD
ENDBRANCH  35  36
ENDBRANCH  29  35
BRANCH  30  38
ATOM     38  O   UNL     1      13.682  53.241  61.562  1.00  0.00    -0.387 OA
ATOM     39  H   UNL     1      13.120  52.870  60.830  1.00  0.00     0.211 HD
ENDBRANCH  30  38
ENDBRANCH   1  25
TORSDOF 11
ENDMDL
