MODEL 1
REMARK VINA RESULT:    -5.484      0.000      0.000
REMARK INTER + INTRA:          -8.505
REMARK INTER:                  -8.048
REMARK INTRA:                  -0.457
REMARK UNBOUND:                -0.457
REMARK SMILES O=C([O-])CCCCCCCC(=O)[O-]
REMARK SMILES IDX 7 1 6 2 5 3 4 4 2 5 1 6 3 7 8 8 9 9 10 10 11 11 12 12 13 13
REMARK H PARENT
REMARK Flexibility Score: inf
ROOT
ATOM      1  C   UNL     1      28.729   2.739   4.089  1.00  0.00     0.000 C 
ENDROOT
BRANCH   1   2
ATOM      2  C   UNL     1      27.455   3.589   4.004  1.00  0.00     0.000 C 
BRANCH   2   3
ATOM      3  C   UNL     1      27.471   4.711   5.053  1.00  0.00     0.006 C 
BRANCH   3   4
ATOM      4  C   UNL     1      28.668   5.655   4.878  1.00  0.00     0.053 C 
BRANCH   4   5
ATOM      5  C   UNL     1      29.445   5.810   6.149  1.00  0.00     0.041 C 
ATOM      6  O   UNL     1      30.427   6.595   6.199  1.00  0.00    -0.550 OA
ATOM      7  O   UNL     1      29.063   5.112   7.288  1.00  0.00    -0.550 OA
ENDBRANCH   4   5
ENDBRANCH   3   4
ENDBRANCH   2   3
ENDBRANCH   1   2
BRANCH   1   8
ATOM      8  C   UNL     1      28.861   2.083   5.468  1.00  0.00     0.000 C 
BRANCH   8   9
ATOM      9  C   UNL     1      28.012   0.806   5.555  1.00  0.00     0.006 C 
BRANCH   9  10
ATOM     10  C   UNL     1      28.805  -0.448   5.163  1.00  0.00     0.053 C 
BRANCH  10  11
ATOM     11  C   UNL     1      28.682  -0.749   3.701  1.00  0.00     0.041 C 
ATOM     12  O   UNL     1      29.708  -0.781   2.973  1.00  0.00    -0.550 OA
ATOM     13  O   UNL     1      27.438  -1.026   3.149  1.00  0.00    -0.550 OA
ENDBRANCH  10  11
ENDBRANCH   9  10
ENDBRANCH   8   9
ENDBRANCH   1   8
TORSDOF 8
ENDMDL
MODEL 2
REMARK VINA RESULT:    -5.383      0.764      5.862
REMARK INTER + INTRA:          -8.357
REMARK INTER:                  -8.027
REMARK INTRA:                  -0.330
REMARK UNBOUND:                -0.457
REMARK SMILES O=C([O-])CCCCCCCC(=O)[O-]
REMARK SMILES IDX 7 1 6 2 5 3 4 4 2 5 1 6 3 7 8 8 9 9 10 10 11 11 12 12 13 13
REMARK H PARENT
REMARK Flexibility Score: inf
ROOT
ATOM      1  C   UNL     1      28.402   2.673   4.024  1.00  0.00     0.000 C 
ENDROOT
BRANCH   1   2
ATOM      2  C   UNL     1      28.541   2.132   5.452  1.00  0.00     0.000 C 
BRANCH   2   3
ATOM      3  C   UNL     1      27.851   0.767   5.593  1.00  0.00     0.006 C 
BRANCH   3   4
ATOM      4  C   UNL     1      28.762  -0.392   5.170  1.00  0.00     0.053 C 
BRANCH   4   5
ATOM      5  C   UNL     1      28.623  -0.705   3.711  1.00  0.00     0.041 C 
ATOM      6  O   UNL     1      27.493  -0.980   3.228  1.00  0.00    -0.550 OA
ATOM      7  O   UNL     1      29.735  -0.661   2.880  1.00  0.00    -0.550 OA
ENDBRANCH   4   5
ENDBRANCH   3   4
ENDBRANCH   2   3
ENDBRANCH   1   2
BRANCH   1   8
ATOM      8  C   UNL     1      27.409   3.841   3.973  1.00  0.00     0.000 C 
BRANCH   8   9
ATOM      9  C   UNL     1      27.639   4.811   5.141  1.00  0.00     0.006 C 
BRANCH   9  10
ATOM     10  C   UNL     1      28.826   5.752   4.891  1.00  0.00     0.053 C 
BRANCH  10  11
ATOM     11  C   UNL     1      30.030   5.352   5.686  1.00  0.00     0.041 C 
ATOM     12  O   UNL     1      30.046   5.511   6.934  1.00  0.00    -0.550 OA
ATOM     13  O   UNL     1      31.122   4.773   5.052  1.00  0.00    -0.550 OA
ENDBRANCH  10  11
ENDBRANCH   9  10
ENDBRANCH   8   9
ENDBRANCH   1   8
TORSDOF 8
ENDMDL
MODEL 3
REMARK VINA RESULT:    -5.099      1.085      1.715
REMARK INTER + INTRA:          -7.941
REMARK INTER:                  -7.526
REMARK INTRA:                  -0.415
REMARK UNBOUND:                -0.457
REMARK SMILES O=C([O-])CCCCCCCC(=O)[O-]
REMARK SMILES IDX 7 1 6 2 5 3 4 4 2 5 1 6 3 7 8 8 9 9 10 10 11 11 12 12 13 13
REMARK H PARENT
REMARK Flexibility Score: inf
ROOT
ATOM      1  C   UNL     1      27.655   3.848   3.977  1.00  0.00     0.000 C 
ENDROOT
BRANCH   1   2
ATOM      2  C   UNL     1      27.564   4.699   5.248  1.00  0.00     0.000 C 
BRANCH   2   3
ATOM      3  C   UNL     1      28.429   4.107   6.371  1.00  0.00     0.006 C 
BRANCH   3   4
ATOM      4  C   UNL     1      29.409   5.134   6.953  1.00  0.00     0.053 C 
BRANCH   4   5
ATOM      5  C   UNL     1      30.193   5.826   5.880  1.00  0.00     0.041 C 
ATOM      6  O   UNL     1      30.165   7.081   5.786  1.00  0.00    -0.550 OA
ATOM      7  O   UNL     1      30.979   5.087   5.006  1.00  0.00    -0.550 OA
ENDBRANCH   4   5
ENDBRANCH   3   4
ENDBRANCH   2   3
ENDBRANCH   1   2
BRANCH   1   8
ATOM      8  C   UNL     1      28.532   2.611   4.204  1.00  0.00     0.000 C 
BRANCH   8   9
ATOM      9  C   UNL     1      27.671   1.367   4.475  1.00  0.00     0.006 C 
BRANCH   9  10
ATOM     10  C   UNL     1      28.521   0.108   4.695  1.00  0.00     0.053 C 
BRANCH  10  11
ATOM     11  C   UNL     1      28.658  -0.697   3.440  1.00  0.00     0.041 C 
ATOM     12  O   UNL     1      27.636  -1.167   2.875  1.00  0.00    -0.550 OA
ATOM     13  O   UNL     1      29.910  -0.901   2.876  1.00  0.00    -0.550 OA
ENDBRANCH  10  11
ENDBRANCH   9  10
ENDBRANCH   8   9
ENDBRANCH   1   8
TORSDOF 8
ENDMDL
MODEL 4
REMARK VINA RESULT:    -5.039      1.305      5.690
REMARK INTER + INTRA:          -7.853
REMARK INTER:                  -7.583
REMARK INTRA:                  -0.270
REMARK UNBOUND:                -0.457
REMARK SMILES O=C([O-])CCCCCCCC(=O)[O-]
REMARK SMILES IDX 7 1 6 2 5 3 4 4 2 5 1 6 3 7 8 8 9 9 10 10 11 11 12 12 13 13
REMARK H PARENT
REMARK Flexibility Score: inf
ROOT
ATOM      1  C   UNL     1      27.510   3.709   4.018  1.00  0.00     0.000 C 
ENDROOT
BRANCH   1   2
ATOM      2  C   UNL     1      28.407   2.533   4.423  1.00  0.00     0.000 C 
BRANCH   2   3
ATOM      3  C   UNL     1      27.571   1.362   4.959  1.00  0.00     0.006 C 
BRANCH   3   4
ATOM      4  C   UNL     1      28.443   0.247   5.552  1.00  0.00     0.053 C 
BRANCH   4   5
ATOM      5  C   UNL     1      28.781  -0.797   4.532  1.00  0.00     0.041 C 
ATOM      6  O   UNL     1      29.807  -1.512   4.675  1.00  0.00    -0.550 OA
ATOM      7  O   UNL     1      27.945  -1.002   3.442  1.00  0.00    -0.550 OA
ENDBRANCH   4   5
ENDBRANCH   3   4
ENDBRANCH   2   3
ENDBRANCH   1   2
BRANCH   1   8
ATOM      8  C   UNL     1      27.655   4.877   5.000  1.00  0.00     0.000 C 
BRANCH   8   9
ATOM      9  C   UNL     1      28.329   4.420   6.303  1.00  0.00     0.006 C 
BRANCH   9  10
ATOM     10  C   UNL     1      29.607   5.214   6.606  1.00  0.00     0.053 C 
BRANCH  10  11
ATOM     11  C   UNL     1      30.415   5.461   5.369  1.00  0.00     0.041 C 
ATOM     12  O   UNL     1      31.159   4.556   4.908  1.00  0.00    -0.550 OA
ATOM     13  O   UNL     1      30.321   6.678   4.706  1.00  0.00    -0.550 OA
ENDBRANCH  10  11
ENDBRANCH   9  10
ENDBRANCH   8   9
ENDBRANCH   1   8
TORSDOF 8
ENDMDL
MODEL 5
REMARK VINA RESULT:    -4.300      1.591      2.002
REMARK INTER + INTRA:          -6.768
REMARK INTER:                  -6.497
REMARK INTRA:                  -0.271
REMARK UNBOUND:                -0.457
REMARK SMILES O=C([O-])CCCCCCCC(=O)[O-]
REMARK SMILES IDX 7 1 6 2 5 3 4 4 2 5 1 6 3 7 8 8 9 9 10 10 11 11 12 12 13 13
REMARK H PARENT
REMARK Flexibility Score: inf
ROOT
ATOM      1  C   UNL     1      29.247   2.643   5.861  1.00  0.00     0.000 C 
ENDROOT
BRANCH   1   2
ATOM      2  C   UNL     1      28.368   3.752   6.452  1.00  0.00     0.000 C 
BRANCH   2   3
ATOM      3  C   UNL     1      29.192   4.688   7.349  1.00  0.00     0.006 C 
BRANCH   3   4
ATOM      4  C   UNL     1      29.477   6.037   6.676  1.00  0.00     0.053 C 
BRANCH   4   5
ATOM      5  C   UNL     1      29.863   5.870   5.238  1.00  0.00     0.041 C 
ATOM      6  O   UNL     1      29.092   6.269   4.326  1.00  0.00    -0.550 OA
ATOM      7  O   UNL     1      31.087   5.305   4.907  1.00  0.00    -0.550 OA
ENDBRANCH   4   5
ENDBRANCH   3   4
ENDBRANCH   2   3
ENDBRANCH   1   2
BRANCH   1   8
ATOM      8  C   UNL     1      28.752   2.231   4.470  1.00  0.00     0.000 C 
BRANCH   8   9
ATOM      9  C   UNL     1      27.577   1.248   4.571  1.00  0.00     0.006 C 
BRANCH   9  10
ATOM     10  C   UNL     1      27.702   0.087   3.576  1.00  0.00     0.053 C 
BRANCH  10  11
ATOM     11  C   UNL     1      28.948  -0.712   3.808  1.00  0.00     0.041 C 
ATOM     12  O   UNL     1      29.777  -0.875   2.875  1.00  0.00    -0.550 OA
ATOM     13  O   UNL     1      29.208  -1.248   5.062  1.00  0.00    -0.550 OA
ENDBRANCH  10  11
ENDBRANCH   9  10
ENDBRANCH   8   9
ENDBRANCH   1   8
TORSDOF 8
ENDMDL
MODEL 6
REMARK VINA RESULT:    -3.696      1.660      2.222
REMARK INTER + INTRA:          -5.882
REMARK INTER:                  -5.851
REMARK INTRA:                  -0.031
REMARK UNBOUND:                -0.457
REMARK SMILES O=C([O-])CCCCCCCC(=O)[O-]
REMARK SMILES IDX 7 1 6 2 5 3 4 4 2 5 1 6 3 7 8 8 9 9 10 10 11 11 12 12 13 13
REMARK H PARENT
REMARK Flexibility Score: inf
ROOT
ATOM      1  C   UNL     1      29.663   3.192   3.989  1.00  0.00     0.000 C 
ENDROOT
BRANCH   1   2
ATOM      2  C   UNL     1      30.340   4.157   4.969  1.00  0.00     0.000 C 
BRANCH   2   3
ATOM      3  C   UNL     1      29.482   5.413   5.187  1.00  0.00     0.006 C 
BRANCH   3   4
ATOM      4  C   UNL     1      29.583   5.945   6.623  1.00  0.00     0.053 C 
BRANCH   4   5
ATOM      5  C   UNL     1      28.977   4.995   7.611  1.00  0.00     0.041 C 
ATOM      6  O   UNL     1      29.028   5.247   8.843  1.00  0.00    -0.550 OA
ATOM      7  O   UNL     1      28.328   3.850   7.168  1.00  0.00    -0.550 OA
ENDBRANCH   4   5
ENDBRANCH   3   4
ENDBRANCH   2   3
ENDBRANCH   1   2
BRANCH   1   8
ATOM      8  C   UNL     1      28.136   3.302   4.075  1.00  0.00     0.000 C 
BRANCH   8   9
ATOM      9  C   UNL     1      27.513   1.975   4.532  1.00  0.00     0.006 C 
BRANCH   9  10
ATOM     10  C   UNL     1      28.227   0.758   3.927  1.00  0.00     0.053 C 
BRANCH  10  11
ATOM     11  C   UNL     1      28.641  -0.224   4.979  1.00  0.00     0.041 C 
ATOM     12  O   UNL     1      28.622   0.104   6.194  1.00  0.00    -0.550 OA
ATOM     13  O   UNL     1      29.017  -1.512   4.620  1.00  0.00    -0.550 OA
ENDBRANCH  10  11
ENDBRANCH   9  10
ENDBRANCH   8   9
ENDBRANCH   1   8
TORSDOF 8
ENDMDL
MODEL 7
REMARK VINA RESULT:    -3.475     16.727     18.293
REMARK INTER + INTRA:          -5.557
REMARK INTER:                  -5.158
REMARK INTRA:                  -0.400
REMARK UNBOUND:                -0.457
REMARK SMILES O=C([O-])CCCCCCCC(=O)[O-]
REMARK SMILES IDX 7 1 6 2 5 3 4 4 2 5 1 6 3 7 8 8 9 9 10 10 11 11 12 12 13 13
REMARK H PARENT
REMARK Flexibility Score: inf
ROOT
ATOM      1  C   UNL     1      30.147  13.075  20.019  1.00  0.00     0.000 C 
ENDROOT
BRANCH   1   2
ATOM      2  C   UNL     1      28.626  13.185  19.860  1.00  0.00     0.000 C 
BRANCH   2   3
ATOM      3  C   UNL     1      27.929  11.899  20.329  1.00  0.00     0.006 C 
BRANCH   3   4
ATOM      4  C   UNL     1      28.293  11.533  21.774  1.00  0.00     0.053 C 
BRANCH   4   5
ATOM      5  C   UNL     1      28.785  10.123  21.884  1.00  0.00     0.041 C 
ATOM      6  O   UNL     1      30.017   9.890  22.003  1.00  0.00    -0.550 OA
ATOM      7  O   UNL     1      27.881   9.068  21.889  1.00  0.00    -0.550 OA
ENDBRANCH   4   5
ENDBRANCH   3   4
ENDBRANCH   2   3
ENDBRANCH   1   2
BRANCH   1   8
ATOM      8  C   UNL     1      30.873  13.836  18.903  1.00  0.00     0.000 C 
BRANCH   8   9
ATOM      9  C   UNL     1      30.251  13.531  17.533  1.00  0.00     0.006 C 
BRANCH   9  10
ATOM     10  C   UNL     1      30.020  14.802  16.703  1.00  0.00     0.053 C 
BRANCH  10  11
ATOM     11  C   UNL     1      31.229  15.169  15.900  1.00  0.00     0.041 C 
ATOM     12  O   UNL     1      31.532  14.508  14.873  1.00  0.00    -0.550 OA
ATOM     13  O   UNL     1      32.003  16.263  16.268  1.00  0.00    -0.550 OA
ENDBRANCH  10  11
ENDBRANCH   9  10
ENDBRANCH   8   9
ENDBRANCH   1   8
TORSDOF 8
ENDMDL
MODEL 8
REMARK VINA RESULT:    -3.475     18.119     19.625
REMARK INTER + INTRA:          -5.557
REMARK INTER:                  -5.161
REMARK INTRA:                  -0.396
REMARK UNBOUND:                -0.457
REMARK SMILES O=C([O-])CCCCCCCC(=O)[O-]
REMARK SMILES IDX 7 1 6 2 5 3 4 4 2 5 1 6 3 7 8 8 9 9 10 10 11 11 12 12 13 13
REMARK H PARENT
REMARK Flexibility Score: inf
ROOT
ATOM      1  C   UNL     1      29.064  13.244  19.065  1.00  0.00     0.000 C 
ENDROOT
BRANCH   1   2
ATOM      2  C   UNL     1      28.621  12.921  20.496  1.00  0.00     0.000 C 
BRANCH   2   3
ATOM      3  C   UNL     1      27.761  11.648  20.533  1.00  0.00     0.006 C 
BRANCH   3   4
ATOM      4  C   UNL     1      27.720  11.013  21.929  1.00  0.00     0.053 C 
BRANCH   4   5
ATOM      5  C   UNL     1      28.455   9.708  21.968  1.00  0.00     0.041 C 
ATOM      6  O   UNL     1      29.712   9.688  21.904  1.00  0.00    -0.550 OA
ATOM      7  O   UNL     1      27.753   8.518  22.109  1.00  0.00    -0.550 OA
ENDBRANCH   4   5
ENDBRANCH   3   4
ENDBRANCH   2   3
ENDBRANCH   1   2
BRANCH   1   8
ATOM      8  C   UNL     1      30.521  13.720  19.033  1.00  0.00     0.000 C 
BRANCH   8   9
ATOM      9  C   UNL     1      31.341  13.055  20.149  1.00  0.00     0.006 C 
BRANCH   9  10
ATOM     10  C   UNL     1      32.409  13.996  20.725  1.00  0.00     0.053 C 
BRANCH  10  11
ATOM     11  C   UNL     1      32.786  13.618  22.124  1.00  0.00     0.041 C 
ATOM     12  O   UNL     1      33.546  14.362  22.798  1.00  0.00    -0.550 OA
ATOM     13  O   UNL     1      32.273  12.461  22.696  1.00  0.00    -0.550 OA
ENDBRANCH  10  11
ENDBRANCH   9  10
ENDBRANCH   8   9
ENDBRANCH   1   8
TORSDOF 8
ENDMDL
MODEL 9
REMARK VINA RESULT:    -3.349     16.999     18.757
REMARK INTER + INTRA:          -5.373
REMARK INTER:                  -4.834
REMARK INTRA:                  -0.538
REMARK UNBOUND:                -0.457
REMARK SMILES O=C([O-])CCCCCCCC(=O)[O-]
REMARK SMILES IDX 7 1 6 2 5 3 4 4 2 5 1 6 3 7 8 8 9 9 10 10 11 11 12 12 13 13
REMARK H PARENT
REMARK Flexibility Score: inf
ROOT
ATOM      1  C   UNL     1      30.965  12.686  20.654  1.00  0.00     0.000 C 
ENDROOT
BRANCH   1   2
ATOM      2  C   UNL     1      31.203  12.444  22.149  1.00  0.00     0.000 C 
BRANCH   2   3
ATOM      3  C   UNL     1      30.031  11.673  22.776  1.00  0.00     0.006 C 
BRANCH   3   4
ATOM      4  C   UNL     1      29.841  10.288  22.144  1.00  0.00     0.053 C 
BRANCH   4   5
ATOM      5  C   UNL     1      28.400  10.005  21.846  1.00  0.00     0.041 C 
ATOM      6  O   UNL     1      27.723  10.820  21.166  1.00  0.00    -0.550 OA
ATOM      7  O   UNL     1      27.816   8.826  22.291  1.00  0.00    -0.550 OA
ENDBRANCH   4   5
ENDBRANCH   3   4
ENDBRANCH   2   3
ENDBRANCH   1   2
BRANCH   1   8
ATOM      8  C   UNL     1      29.789  13.645  20.432  1.00  0.00     0.000 C 
BRANCH   8   9
ATOM      9  C   UNL     1      29.191  13.466  19.029  1.00  0.00     0.006 C 
BRANCH   9  10
ATOM     10  C   UNL     1      30.270  13.404  17.940  1.00  0.00     0.053 C 
BRANCH  10  11
ATOM     11  C   UNL     1      30.029  14.414  16.859  1.00  0.00     0.041 C 
ATOM     12  O   UNL     1      28.966  15.087  16.848  1.00  0.00    -0.550 OA
ATOM     13  O   UNL     1      30.993  14.633  15.884  1.00  0.00    -0.550 OA
ENDBRANCH  10  11
ENDBRANCH   9  10
ENDBRANCH   8   9
ENDBRANCH   1   8
TORSDOF 8
ENDMDL
