MODEL 1
REMARK VINA RESULT:    -7.076      0.000      0.000
REMARK INTER + INTRA:          -7.931
REMARK INTER:                  -7.696
REMARK INTRA:                  -0.235
REMARK UNBOUND:                -0.235
REMARK SMILES CC(C)c1cc2c(cc1O)[C@@]1(C)CCCC(C)(C)[C@@H]1CC2=O
REMARK SMILES IDX 4 1 9 2 8 3 7 4 6 5 5 6 21 7 22 8 20 9 19 10 11 11 13 12
REMARK SMILES IDX 14 13 15 14 16 15 17 16 18 17 12 18 2 19 1 20 3 21 10 22
REMARK H PARENT 10 23
REMARK Flexibility Score: inf
ROOT
ATOM      1  C   UNL     1      29.294  44.626  84.096  1.00  0.00    -0.003 A 
ATOM      2  C   UNL     1      30.017  44.615  82.874  1.00  0.00     0.119 A 
ATOM      3  C   UNL     1      31.189  43.862  82.766  1.00  0.00     0.051 A 
ATOM      4  C   UNL     1      31.700  43.113  83.845  1.00  0.00    -0.027 A 
ATOM      5  C   UNL     1      30.943  43.061  85.037  1.00  0.00     0.022 A 
ATOM      6  C   UNL     1      29.771  43.827  85.154  1.00  0.00     0.020 A 
ATOM      7  C   UNL     1      31.368  42.196  86.161  1.00  0.00     0.163 C 
ATOM      8  O   UNL     1      30.704  42.168  87.234  1.00  0.00    -0.294 OA
ATOM      9  C   UNL     1      32.553  41.297  86.025  1.00  0.00     0.086 C 
ATOM     10  C   UNL     1      33.597  41.912  85.068  1.00  0.00     0.013 C 
ATOM     11  C   UNL     1      32.980  42.269  83.662  1.00  0.00    -0.003 C 
ATOM     12  C   UNL     1      34.042  43.085  82.836  1.00  0.00     0.012 C 
ATOM     13  C   UNL     1      35.513  42.863  83.237  1.00  0.00     0.001 C 
ATOM     14  C   UNL     1      35.772  41.444  83.732  1.00  0.00     0.007 C 
ATOM     15  C   UNL     1      34.970  41.116  85.027  1.00  0.00    -0.031 C 
ATOM     16  C   UNL     1      35.832  41.534  86.248  1.00  0.00     0.011 C 
ATOM     17  C   UNL     1      34.780  39.579  85.110  1.00  0.00     0.011 C 
ATOM     18  C   UNL     1      32.554  41.009  82.864  1.00  0.00     0.017 C 
ENDROOT
BRANCH   1  19
ATOM     19  C   UNL     1      28.019  45.433  84.344  1.00  0.00     0.017 C 
ATOM     20  C   UNL     1      26.762  44.766  83.766  1.00  0.00     0.012 C 
ATOM     21  C   UNL     1      27.858  45.856  85.810  1.00  0.00     0.012 C 
ENDBRANCH   1  19
BRANCH   2  22
ATOM     22  O   UNL     1      29.626  45.321  81.734  1.00  0.00    -0.508 OA
ATOM     23  H   UNL     1      29.429  46.306  81.703  1.00  0.00     0.293 HD
ENDBRANCH   2  22
TORSDOF 2
ENDMDL
MODEL 2
REMARK VINA RESULT:    -6.966      2.281      3.281
REMARK INTER + INTRA:          -7.812
REMARK INTER:                  -7.589
REMARK INTRA:                  -0.223
REMARK UNBOUND:                -0.235
REMARK SMILES CC(C)c1cc2c(cc1O)[C@@]1(C)CCCC(C)(C)[C@@H]1CC2=O
REMARK SMILES IDX 4 1 9 2 8 3 7 4 6 5 5 6 21 7 22 8 20 9 19 10 11 11 13 12
REMARK SMILES IDX 14 13 15 14 16 15 17 16 18 17 12 18 2 19 1 20 3 21 10 22
REMARK H PARENT 10 23
REMARK Flexibility Score: inf
ROOT
ATOM      1  C   UNL     1      30.641  44.332  87.599  1.00  0.00    -0.003 A 
ATOM      2  C   UNL     1      29.963  43.745  86.498  1.00  0.00     0.119 A 
ATOM      3  C   UNL     1      30.635  42.841  85.670  1.00  0.00     0.051 A 
ATOM      4  C   UNL     1      31.985  42.496  85.878  1.00  0.00    -0.027 A 
ATOM      5  C   UNL     1      32.638  43.020  87.016  1.00  0.00     0.022 A 
ATOM      6  C   UNL     1      31.971  43.939  87.843  1.00  0.00     0.020 A 
ATOM      7  C   UNL     1      34.018  42.600  87.352  1.00  0.00     0.163 C 
ATOM      8  O   UNL     1      34.609  43.086  88.356  1.00  0.00    -0.294 OA
ATOM      9  C   UNL     1      34.712  41.550  86.547  1.00  0.00     0.086 C 
ATOM     10  C   UNL     1      34.237  41.587  85.079  1.00  0.00     0.013 C 
ATOM     11  C   UNL     1      32.670  41.465  84.955  1.00  0.00    -0.003 C 
ATOM     12  C   UNL     1      32.258  41.731  83.460  1.00  0.00     0.012 C 
ATOM     13  C   UNL     1      33.350  41.463  82.408  1.00  0.00     0.001 C 
ATOM     14  C   UNL     1      34.277  40.320  82.813  1.00  0.00     0.007 C 
ATOM     15  C   UNL     1      35.071  40.640  84.115  1.00  0.00    -0.031 C 
ATOM     16  C   UNL     1      36.387  41.359  83.715  1.00  0.00     0.011 C 
ATOM     17  C   UNL     1      35.473  39.299  84.785  1.00  0.00     0.011 C 
ATOM     18  C   UNL     1      32.146  40.074  85.401  1.00  0.00     0.017 C 
ENDROOT
BRANCH   1  19
ATOM     19  C   UNL     1      30.023  45.355  88.554  1.00  0.00     0.017 C 
ATOM     20  C   UNL     1      29.873  44.825  89.988  1.00  0.00     0.012 C 
ATOM     21  C   UNL     1      30.711  46.724  88.486  1.00  0.00     0.012 C 
ENDBRANCH   1  19
BRANCH   2  22
ATOM     22  O   UNL     1      28.630  44.009  86.176  1.00  0.00    -0.508 OA
ATOM     23  H   UNL     1      27.950  44.398  86.804  1.00  0.00     0.293 HD
ENDBRANCH   2  22
TORSDOF 2
ENDMDL
MODEL 3
REMARK VINA RESULT:    -6.930      1.554      6.272
REMARK INTER + INTRA:          -7.773
REMARK INTER:                  -7.547
REMARK INTRA:                  -0.226
REMARK UNBOUND:                -0.235
REMARK SMILES CC(C)c1cc2c(cc1O)[C@@]1(C)CCCC(C)(C)[C@@H]1CC2=O
REMARK SMILES IDX 4 1 9 2 8 3 7 4 6 5 5 6 21 7 22 8 20 9 19 10 11 11 13 12
REMARK SMILES IDX 14 13 15 14 16 15 17 16 18 17 12 18 2 19 1 20 3 21 10 22
REMARK H PARENT 10 23
REMARK Flexibility Score: inf
ROOT
ATOM      1  C   UNL     1      33.267  42.053  84.361  1.00  0.00    -0.003 A 
ATOM      2  C   UNL     1      33.161  42.756  83.131  1.00  0.00     0.119 A 
ATOM      3  C   UNL     1      32.052  43.572  82.890  1.00  0.00     0.051 A 
ATOM      4  C   UNL     1      31.011  43.716  83.829  1.00  0.00    -0.027 A 
ATOM      5  C   UNL     1      31.151  43.079  85.082  1.00  0.00     0.022 A 
ATOM      6  C   UNL     1      32.256  42.247  85.323  1.00  0.00     0.020 A 
ATOM      7  C   UNL     1      30.147  43.290  86.150  1.00  0.00     0.163 C 
ATOM      8  O   UNL     1      30.260  42.703  87.261  1.00  0.00    -0.294 OA
ATOM      9  C   UNL     1      29.017  44.248  85.955  1.00  0.00     0.086 C 
ATOM     10  C   UNL     1      28.607  44.312  84.467  1.00  0.00     0.013 C 
ATOM     11  C   UNL     1      29.825  44.659  83.528  1.00  0.00    -0.003 C 
ATOM     12  C   UNL     1      29.374  44.487  82.031  1.00  0.00     0.012 C 
ATOM     13  C   UNL     1      27.862  44.620  81.769  1.00  0.00     0.001 C 
ATOM     14  C   UNL     1      27.194  45.609  82.719  1.00  0.00     0.007 C 
ATOM     15  C   UNL     1      27.285  45.151  84.206  1.00  0.00    -0.031 C 
ATOM     16  C   UNL     1      26.053  44.260  84.514  1.00  0.00     0.011 C 
ATOM     17  C   UNL     1      27.177  46.406  85.113  1.00  0.00     0.011 C 
ATOM     18  C   UNL     1      30.355  46.100  83.752  1.00  0.00     0.017 C 
ENDROOT
BRANCH   1  19
ATOM     19  C   UNL     1      34.413  41.109  84.725  1.00  0.00     0.017 C 
ATOM     20  C   UNL     1      35.392  41.714  85.743  1.00  0.00     0.012 C 
ATOM     21  C   UNL     1      33.928  39.706  85.115  1.00  0.00     0.012 C 
ENDBRANCH   1  19
BRANCH   2  22
ATOM     22  O   UNL     1      34.116  42.692  82.115  1.00  0.00    -0.508 OA
ATOM     23  H   UNL     1      34.132  42.008  81.378  1.00  0.00     0.293 HD
ENDBRANCH   2  22
TORSDOF 2
ENDMDL
MODEL 4
REMARK VINA RESULT:    -6.811      1.855      3.316
REMARK INTER + INTRA:          -7.643
REMARK INTER:                  -7.419
REMARK INTRA:                  -0.224
REMARK UNBOUND:                -0.235
REMARK SMILES CC(C)c1cc2c(cc1O)[C@@]1(C)CCCC(C)(C)[C@@H]1CC2=O
REMARK SMILES IDX 4 1 9 2 8 3 7 4 6 5 5 6 21 7 22 8 20 9 19 10 11 11 13 12
REMARK SMILES IDX 14 13 15 14 16 15 17 16 18 17 12 18 2 19 1 20 3 21 10 22
REMARK H PARENT 10 23
REMARK Flexibility Score: inf
ROOT
ATOM      1  C   UNL     1      30.318  45.324  83.232  1.00  0.00    -0.003 A 
ATOM      2  C   UNL     1      29.768  44.342  84.099  1.00  0.00     0.119 A 
ATOM      3  C   UNL     1      30.609  43.415  84.720  1.00  0.00     0.051 A 
ATOM      4  C   UNL     1      32.001  43.404  84.504  1.00  0.00    -0.027 A 
ATOM      5  C   UNL     1      32.559  44.425  83.703  1.00  0.00     0.022 A 
ATOM      6  C   UNL     1      31.716  45.352  83.066  1.00  0.00     0.020 A 
ATOM      7  C   UNL     1      34.026  44.536  83.537  1.00  0.00     0.163 C 
ATOM      8  O   UNL     1      34.522  45.434  82.803  1.00  0.00    -0.294 OA
ATOM      9  C   UNL     1      34.947  43.627  84.283  1.00  0.00     0.086 C 
ATOM     10  C   UNL     1      34.285  42.253  84.519  1.00  0.00     0.013 C 
ATOM     11  C   UNL     1      32.890  42.380  85.244  1.00  0.00    -0.003 C 
ATOM     12  C   UNL     1      32.190  40.971  85.245  1.00  0.00     0.012 C 
ATOM     13  C   UNL     1      33.132  39.757  85.133  1.00  0.00     0.001 C 
ATOM     14  C   UNL     1      34.480  40.005  85.803  1.00  0.00     0.007 C 
ATOM     15  C   UNL     1      35.270  41.165  85.126  1.00  0.00    -0.031 C 
ATOM     16  C   UNL     1      36.125  40.564  83.979  1.00  0.00     0.011 C 
ATOM     17  C   UNL     1      36.257  41.758  86.166  1.00  0.00     0.011 C 
ATOM     18  C   UNL     1      33.023  42.898  86.700  1.00  0.00     0.017 C 
ENDROOT
BRANCH   1  19
ATOM     19  C   UNL     1      29.498  46.368  82.473  1.00  0.00     0.017 C 
ATOM     20  C   UNL     1      30.313  47.614  82.095  1.00  0.00     0.012 C 
ATOM     21  C   UNL     1      28.724  45.773  81.290  1.00  0.00     0.012 C 
ENDBRANCH   1  19
BRANCH   2  22
ATOM     22  O   UNL     1      28.406  44.237  84.389  1.00  0.00    -0.508 OA
ATOM     23  H   UNL     1      27.689  44.013  83.722  1.00  0.00     0.293 HD
ENDBRANCH   2  22
TORSDOF 2
ENDMDL
MODEL 5
REMARK VINA RESULT:    -6.760      6.590      8.944
REMARK INTER + INTRA:          -7.588
REMARK INTER:                  -7.352
REMARK INTRA:                  -0.236
REMARK UNBOUND:                -0.235
REMARK SMILES CC(C)c1cc2c(cc1O)[C@@]1(C)CCCC(C)(C)[C@@H]1CC2=O
REMARK SMILES IDX 4 1 9 2 8 3 7 4 6 5 5 6 21 7 22 8 20 9 19 10 11 11 13 12
REMARK SMILES IDX 14 13 15 14 16 15 17 16 18 17 12 18 2 19 1 20 3 21 10 22
REMARK H PARENT 10 23
REMARK Flexibility Score: inf
ROOT
ATOM      1  C   UNL     1      22.089  42.629  86.913  1.00  0.00    -0.003 A 
ATOM      2  C   UNL     1      22.863  41.821  86.039  1.00  0.00     0.119 A 
ATOM      3  C   UNL     1      23.894  42.396  85.291  1.00  0.00     0.051 A 
ATOM      4  C   UNL     1      24.190  43.772  85.358  1.00  0.00    -0.027 A 
ATOM      5  C   UNL     1      23.471  44.563  86.283  1.00  0.00     0.022 A 
ATOM      6  C   UNL     1      22.426  43.992  87.027  1.00  0.00     0.020 A 
ATOM      7  C   UNL     1      23.819  45.989  86.483  1.00  0.00     0.163 C 
ATOM      8  O   UNL     1      23.162  46.700  87.292  1.00  0.00    -0.294 OA
ATOM      9  C   UNL     1      24.989  46.594  85.779  1.00  0.00     0.086 C 
ATOM     10  C   UNL     1      25.212  45.916  84.410  1.00  0.00     0.013 C 
ATOM     11  C   UNL     1      25.363  44.351  84.537  1.00  0.00    -0.003 C 
ATOM     12  C   UNL     1      25.364  43.725  83.094  1.00  0.00     0.012 C 
ATOM     13  C   UNL     1      25.806  44.665  81.958  1.00  0.00     0.001 C 
ATOM     14  C   UNL     1      26.855  45.674  82.415  1.00  0.00     0.007 C 
ATOM     15  C   UNL     1      26.308  46.634  83.514  1.00  0.00    -0.031 C 
ATOM     16  C   UNL     1      25.662  47.857  82.811  1.00  0.00     0.011 C 
ATOM     17  C   UNL     1      27.509  47.167  84.340  1.00  0.00     0.011 C 
ATOM     18  C   UNL     1      26.657  43.939  85.287  1.00  0.00     0.017 C 
ENDROOT
BRANCH   1  19
ATOM     19  C   UNL     1      20.919  42.121  87.757  1.00  0.00     0.017 C 
ATOM     20  C   UNL     1      21.349  41.624  89.146  1.00  0.00     0.012 C 
ATOM     21  C   UNL     1      19.747  43.110  87.806  1.00  0.00     0.012 C 
ENDBRANCH   1  19
BRANCH   2  22
ATOM     22  O   UNL     1      22.667  40.448  85.872  1.00  0.00    -0.508 OA
ATOM     23  H   UNL     1      22.734  39.762  86.603  1.00  0.00     0.293 HD
ENDBRANCH   2  22
TORSDOF 2
ENDMDL
MODEL 6
REMARK VINA RESULT:    -6.739      2.159      2.872
REMARK INTER + INTRA:          -7.566
REMARK INTER:                  -7.331
REMARK INTRA:                  -0.234
REMARK UNBOUND:                -0.235
REMARK SMILES CC(C)c1cc2c(cc1O)[C@@]1(C)CCCC(C)(C)[C@@H]1CC2=O
REMARK SMILES IDX 4 1 9 2 8 3 7 4 6 5 5 6 21 7 22 8 20 9 19 10 11 11 13 12
REMARK SMILES IDX 14 13 15 14 16 15 17 16 18 17 12 18 2 19 1 20 3 21 10 22
REMARK H PARENT 10 23
REMARK Flexibility Score: inf
ROOT
ATOM      1  C   UNL     1      31.214  45.696  82.818  1.00  0.00    -0.003 A 
ATOM      2  C   UNL     1      30.693  44.443  82.398  1.00  0.00     0.119 A 
ATOM      3  C   UNL     1      31.338  43.262  82.773  1.00  0.00     0.051 A 
ATOM      4  C   UNL     1      32.513  43.265  83.551  1.00  0.00    -0.027 A 
ATOM      5  C   UNL     1      32.990  44.505  84.033  1.00  0.00     0.022 A 
ATOM      6  C   UNL     1      32.352  45.695  83.647  1.00  0.00     0.020 A 
ATOM      7  C   UNL     1      34.149  44.560  84.952  1.00  0.00     0.163 C 
ATOM      8  O   UNL     1      34.589  45.669  85.363  1.00  0.00    -0.294 OA
ATOM      9  C   UNL     1      34.782  43.304  85.456  1.00  0.00     0.086 C 
ATOM     10  C   UNL     1      34.660  42.174  84.411  1.00  0.00     0.013 C 
ATOM     11  C   UNL     1      33.167  41.929  83.969  1.00  0.00    -0.003 C 
ATOM     12  C   UNL     1      33.157  40.928  82.755  1.00  0.00     0.012 C 
ATOM     13  C   UNL     1      34.379  39.998  82.646  1.00  0.00     0.001 C 
ATOM     14  C   UNL     1      34.948  39.625  84.012  1.00  0.00     0.007 C 
ATOM     15  C   UNL     1      35.482  40.868  84.786  1.00  0.00    -0.031 C 
ATOM     16  C   UNL     1      36.969  41.078  84.396  1.00  0.00     0.011 C 
ATOM     17  C   UNL     1      35.452  40.550  86.304  1.00  0.00     0.011 C 
ATOM     18  C   UNL     1      32.293  41.364  85.119  1.00  0.00     0.017 C 
ENDROOT
BRANCH   1  19
ATOM     19  C   UNL     1      30.615  47.053  82.445  1.00  0.00     0.017 C 
ATOM     20  C   UNL     1      29.618  47.578  83.489  1.00  0.00     0.012 C 
ATOM     21  C   UNL     1      31.680  48.087  82.056  1.00  0.00     0.012 C 
ENDBRANCH   1  19
BRANCH   2  22
ATOM     22  O   UNL     1      29.544  44.301  81.617  1.00  0.00    -0.508 OA
ATOM     23  H   UNL     1      29.066  43.434  81.444  1.00  0.00     0.293 HD
ENDBRANCH   2  22
TORSDOF 2
ENDMDL
MODEL 7
REMARK VINA RESULT:    -6.714      2.305      6.697
REMARK INTER + INTRA:          -7.538
REMARK INTER:                  -7.304
REMARK INTRA:                  -0.234
REMARK UNBOUND:                -0.235
REMARK SMILES CC(C)c1cc2c(cc1O)[C@@]1(C)CCCC(C)(C)[C@@H]1CC2=O
REMARK SMILES IDX 4 1 9 2 8 3 7 4 6 5 5 6 21 7 22 8 20 9 19 10 11 11 13 12
REMARK SMILES IDX 14 13 15 14 16 15 17 16 18 17 12 18 2 19 1 20 3 21 10 22
REMARK H PARENT 10 23
REMARK Flexibility Score: inf
ROOT
ATOM      1  C   UNL     1      35.361  40.242  85.198  1.00  0.00    -0.003 A 
ATOM      2  C   UNL     1      35.346  40.834  86.489  1.00  0.00     0.119 A 
ATOM      3  C   UNL     1      34.354  41.762  86.816  1.00  0.00     0.051 A 
ATOM      4  C   UNL     1      33.361  42.153  85.895  1.00  0.00    -0.027 A 
ATOM      5  C   UNL     1      33.329  41.510  84.638  1.00  0.00     0.022 A 
ATOM      6  C   UNL     1      34.332  40.586  84.300  1.00  0.00     0.020 A 
ATOM      7  C   UNL     1      32.240  41.792  83.675  1.00  0.00     0.163 C 
ATOM      8  O   UNL     1      32.225  41.235  82.543  1.00  0.00    -0.294 OA
ATOM      9  C   UNL     1      31.108  42.693  84.049  1.00  0.00     0.086 C 
ATOM     10  C   UNL     1      31.579  43.777  85.043  1.00  0.00     0.013 C 
ATOM     11  C   UNL     1      32.266  43.156  86.320  1.00  0.00    -0.003 C 
ATOM     12  C   UNL     1      32.907  44.319  87.164  1.00  0.00     0.012 C 
ATOM     13  C   UNL     1      32.283  45.712  86.964  1.00  0.00     0.001 C 
ATOM     14  C   UNL     1      30.788  45.641  86.666  1.00  0.00     0.007 C 
ATOM     15  C   UNL     1      30.488  44.894  85.333  1.00  0.00    -0.031 C 
ATOM     16  C   UNL     1      30.511  45.932  84.180  1.00  0.00     0.011 C 
ATOM     17  C   UNL     1      29.046  44.325  85.403  1.00  0.00     0.011 C 
ATOM     18  C   UNL     1      31.270  42.358  87.201  1.00  0.00     0.017 C 
ENDROOT
BRANCH   1  19
ATOM     19  C   UNL     1      36.411  39.240  84.715  1.00  0.00     0.017 C 
ATOM     20  C   UNL     1      35.884  38.295  83.625  1.00  0.00     0.012 C 
ATOM     21  C   UNL     1      37.742  39.906  84.344  1.00  0.00     0.012 C 
ENDBRANCH   1  19
BRANCH   2  22
ATOM     22  O   UNL     1      36.276  40.542  87.489  1.00  0.00    -0.508 OA
ATOM     23  H   UNL     1      36.695  41.218  88.103  1.00  0.00     0.293 HD
ENDBRANCH   2  22
TORSDOF 2
ENDMDL
MODEL 8
REMARK VINA RESULT:    -6.436      3.221      4.638
REMARK INTER + INTRA:          -7.235
REMARK INTER:                  -6.997
REMARK INTRA:                  -0.239
REMARK UNBOUND:                -0.235
REMARK SMILES CC(C)c1cc2c(cc1O)[C@@]1(C)CCCC(C)(C)[C@@H]1CC2=O
REMARK SMILES IDX 4 1 9 2 8 3 7 4 6 5 5 6 21 7 22 8 20 9 19 10 11 11 13 12
REMARK SMILES IDX 14 13 15 14 16 15 17 16 18 17 12 18 2 19 1 20 3 21 10 22
REMARK H PARENT 10 23
REMARK Flexibility Score: inf
ROOT
ATOM      1  C   UNL     1      33.598  47.031  83.110  1.00  0.00    -0.003 A 
ATOM      2  C   UNL     1      32.329  46.557  83.535  1.00  0.00     0.119 A 
ATOM      3  C   UNL     1      32.206  45.261  84.044  1.00  0.00     0.051 A 
ATOM      4  C   UNL     1      33.308  44.387  84.140  1.00  0.00    -0.027 A 
ATOM      5  C   UNL     1      34.583  44.882  83.789  1.00  0.00     0.022 A 
ATOM      6  C   UNL     1      34.709  46.179  83.264  1.00  0.00     0.020 A 
ATOM      7  C   UNL     1      35.793  44.050  83.981  1.00  0.00     0.163 C 
ATOM      8  O   UNL     1      36.929  44.485  83.645  1.00  0.00    -0.294 OA
ATOM      9  C   UNL     1      35.699  42.708  84.629  1.00  0.00     0.086 C 
ATOM     10  C   UNL     1      34.333  42.052  84.331  1.00  0.00     0.013 C 
ATOM     11  C   UNL     1      33.125  42.977  84.744  1.00  0.00    -0.003 C 
ATOM     12  C   UNL     1      31.792  42.337  84.208  1.00  0.00     0.012 C 
ATOM     13  C   UNL     1      31.829  40.815  83.974  1.00  0.00     0.001 C 
ATOM     14  C   UNL     1      32.745  40.098  84.961  1.00  0.00     0.007 C 
ATOM     15  C   UNL     1      34.231  40.543  84.814  1.00  0.00    -0.031 C 
ATOM     16  C   UNL     1      34.909  39.629  83.759  1.00  0.00     0.011 C 
ATOM     17  C   UNL     1      34.953  40.291  86.164  1.00  0.00     0.011 C 
ATOM     18  C   UNL     1      33.029  43.177  86.279  1.00  0.00     0.017 C 
ENDROOT
BRANCH   1  19
ATOM     19  C   UNL     1      33.850  48.415  82.508  1.00  0.00     0.017 C 
ATOM     20  C   UNL     1      35.228  48.988  82.873  1.00  0.00     0.012 C 
ATOM     21  C   UNL     1      33.552  48.473  81.004  1.00  0.00     0.012 C 
ENDBRANCH   1  19
BRANCH   2  22
ATOM     22  O   UNL     1      31.158  47.316  83.485  1.00  0.00    -0.508 OA
ATOM     23  H   UNL     1      30.447  47.236  82.779  1.00  0.00     0.293 HD
ENDBRANCH   2  22
TORSDOF 2
ENDMDL
MODEL 9
REMARK VINA RESULT:    -6.418      2.110      2.898
REMARK INTER + INTRA:          -7.216
REMARK INTER:                  -6.977
REMARK INTRA:                  -0.238
REMARK UNBOUND:                -0.235
REMARK SMILES CC(C)c1cc2c(cc1O)[C@@]1(C)CCCC(C)(C)[C@@H]1CC2=O
REMARK SMILES IDX 4 1 9 2 8 3 7 4 6 5 5 6 21 7 22 8 20 9 19 10 11 11 13 12
REMARK SMILES IDX 14 13 15 14 16 15 17 16 18 17 12 18 2 19 1 20 3 21 10 22
REMARK H PARENT 10 23
REMARK Flexibility Score: inf
ROOT
ATOM      1  C   UNL     1      31.187  45.217  82.740  1.00  0.00    -0.003 A 
ATOM      2  C   UNL     1      32.264  46.110  82.985  1.00  0.00     0.119 A 
ATOM      3  C   UNL     1      33.491  45.613  83.432  1.00  0.00     0.051 A 
ATOM      4  C   UNL     1      33.702  44.240  83.667  1.00  0.00    -0.027 A 
ATOM      5  C   UNL     1      32.658  43.342  83.352  1.00  0.00     0.022 A 
ATOM      6  C   UNL     1      31.418  43.838  82.916  1.00  0.00     0.020 A 
ATOM      7  C   UNL     1      32.862  41.880  83.466  1.00  0.00     0.163 C 
ATOM      8  O   UNL     1      31.922  41.080  83.207  1.00  0.00    -0.294 OA
ATOM      9  C   UNL     1      34.200  41.324  83.831  1.00  0.00     0.086 C 
ATOM     10  C   UNL     1      34.963  42.299  84.754  1.00  0.00     0.013 C 
ATOM     11  C   UNL     1      35.090  43.739  84.126  1.00  0.00    -0.003 C 
ATOM     12  C   UNL     1      35.676  44.715  85.213  1.00  0.00     0.012 C 
ATOM     13  C   UNL     1      36.507  44.052  86.327  1.00  0.00     0.001 C 
ATOM     14  C   UNL     1      37.265  42.823  85.832  1.00  0.00     0.007 C 
ATOM     15  C   UNL     1      36.305  41.695  85.349  1.00  0.00    -0.031 C 
ATOM     16  C   UNL     1      35.959  40.799  86.568  1.00  0.00     0.011 C 
ATOM     17  C   UNL     1      37.069  40.804  84.333  1.00  0.00     0.011 C 
ATOM     18  C   UNL     1      35.992  43.759  82.865  1.00  0.00     0.017 C 
ENDROOT
BRANCH   1  19
ATOM     19  C   UNL     1      29.792  45.643  82.281  1.00  0.00     0.017 C 
ATOM     20  C   UNL     1      29.119  44.613  81.362  1.00  0.00     0.012 C 
ATOM     21  C   UNL     1      28.895  46.092  83.442  1.00  0.00     0.012 C 
ENDBRANCH   1  19
BRANCH   2  22
ATOM     22  O   UNL     1      32.184  47.492  82.801  1.00  0.00    -0.508 OA
ATOM     23  H   UNL     1      31.331  48.012  82.690  1.00  0.00     0.293 HD
ENDBRANCH   2  22
TORSDOF 2
ENDMDL
