MODEL 1
REMARK VINA RESULT:    -3.527      0.000      0.000
REMARK INTER + INTRA:          -8.049
REMARK INTER:                  -6.620
REMARK INTRA:                  -1.430
REMARK UNBOUND:                -1.430
REMARK SMILES O=C([O-])CCCCCCCCCCCCCCC(=O)[O-]
REMARK SMILES IDX 10 1 9 2 8 3 7 4 6 5 5 6 4 7 2 8 1 9 3 10 11 11 12 12 13 13
REMARK SMILES IDX 14 14 15 15 16 16 17 17 18 18 19 19 20 20
REMARK H PARENT
REMARK Flexibility Score: inf
ROOT
ATOM      1  C   UNL     1      33.867  11.996  22.434  1.00  0.00     0.000 C 
ENDROOT
BRANCH   1   2
ATOM      2  C   UNL     1      34.666  11.224  23.500  1.00  0.00     0.000 C 
BRANCH   2   3
ATOM      3  C   UNL     1      35.969  10.626  22.950  1.00  0.00     0.000 C 
BRANCH   3   4
ATOM      4  C   UNL     1      35.678   9.576  21.871  1.00  0.00     0.000 C 
BRANCH   4   5
ATOM      5  C   UNL     1      36.885   8.654  21.660  1.00  0.00     0.000 C 
BRANCH   5   6
ATOM      6  C   UNL     1      36.470   7.355  20.959  1.00  0.00     0.006 C 
BRANCH   6   7
ATOM      7  C   UNL     1      36.472   6.178  21.939  1.00  0.00     0.053 C 
BRANCH   7   8
ATOM      8  C   UNL     1      37.739   6.160  22.735  1.00  0.00     0.041 C 
ATOM      9  O   UNL     1      38.838   5.919  22.170  1.00  0.00    -0.550 OA
ATOM     10  O   UNL     1      37.699   6.359  24.109  1.00  0.00    -0.550 OA
ENDBRANCH   7   8
ENDBRANCH   6   7
ENDBRANCH   5   6
ENDBRANCH   4   5
ENDBRANCH   3   4
ENDBRANCH   2   3
ENDBRANCH   1   2
BRANCH   1  11
ATOM     11  C   UNL     1      32.396  11.562  22.281  1.00  0.00     0.000 C 
BRANCH  11  12
ATOM     12  C   UNL     1      31.899  10.543  23.325  1.00  0.00     0.000 C 
BRANCH  12  13
ATOM     13  C   UNL     1      31.236   9.282  22.742  1.00  0.00     0.000 C 
BRANCH  13  14
ATOM     14  C   UNL     1      32.105   8.587  21.679  1.00  0.00     0.000 C 
BRANCH  14  15
ATOM     15  C   UNL     1      31.455   7.292  21.144  1.00  0.00     0.000 C 
BRANCH  15  16
ATOM     16  C   UNL     1      32.457   6.152  20.894  1.00  0.00     0.006 C 
BRANCH  16  17
ATOM     17  C   UNL     1      32.257   4.963  21.839  1.00  0.00     0.053 C 
BRANCH  17  18
ATOM     18  C   UNL     1      32.925   3.741  21.292  1.00  0.00     0.041 C 
ATOM     19  O   UNL     1      34.150   3.764  21.003  1.00  0.00    -0.550 OA
ATOM     20  O   UNL     1      32.205   2.561  21.149  1.00  0.00    -0.550 OA
ENDBRANCH  17  18
ENDBRANCH  16  17
ENDBRANCH  15  16
ENDBRANCH  14  15
ENDBRANCH  13  14
ENDBRANCH  12  13
ENDBRANCH  11  12
ENDBRANCH   1  11
TORSDOF 15
ENDMDL
MODEL 2
REMARK VINA RESULT:    -3.526      0.960      4.955
REMARK INTER + INTRA:          -8.048
REMARK INTER:                  -6.537
REMARK INTRA:                  -1.512
REMARK UNBOUND:                -1.430
REMARK SMILES O=C([O-])CCCCCCCCCCCCCCC(=O)[O-]
REMARK SMILES IDX 10 1 9 2 8 3 7 4 6 5 5 6 4 7 2 8 1 9 3 10 11 11 12 12 13 13
REMARK SMILES IDX 14 14 15 15 16 16 17 17 18 18 19 19 20 20
REMARK H PARENT
REMARK Flexibility Score: inf
ROOT
ATOM      1  C   UNL     1      32.118  10.572  23.411  1.00  0.00     0.000 C 
ENDROOT
BRANCH   1   2
ATOM      2  C   UNL     1      31.263   9.456  22.786  1.00  0.00     0.000 C 
BRANCH   2   3
ATOM      3  C   UNL     1      32.047   8.593  21.786  1.00  0.00     0.000 C 
BRANCH   3   4
ATOM      4  C   UNL     1      31.344   7.251  21.551  1.00  0.00     0.000 C 
BRANCH   4   5
ATOM      5  C   UNL     1      32.320   6.209  20.991  1.00  0.00     0.000 C 
BRANCH   5   6
ATOM      6  C   UNL     1      32.294   4.925  21.828  1.00  0.00     0.006 C 
BRANCH   6   7
ATOM      7  C   UNL     1      33.194   3.850  21.213  1.00  0.00     0.053 C 
BRANCH   7   8
ATOM      8  C   UNL     1      32.371   2.728  20.662  1.00  0.00     0.041 C 
ATOM      9  O   UNL     1      31.500   2.957  19.781  1.00  0.00    -0.550 OA
ATOM     10  O   UNL     1      32.530   1.440  21.156  1.00  0.00    -0.550 OA
ENDBRANCH   7   8
ENDBRANCH   6   7
ENDBRANCH   5   6
ENDBRANCH   4   5
ENDBRANCH   3   4
ENDBRANCH   2   3
ENDBRANCH   1   2
BRANCH   1  11
ATOM     11  C   UNL     1      32.542  11.691  22.439  1.00  0.00     0.000 C 
BRANCH  11  12
ATOM     12  C   UNL     1      34.060  11.933  22.337  1.00  0.00     0.000 C 
BRANCH  12  13
ATOM     13  C   UNL     1      34.921  11.092  23.297  1.00  0.00     0.000 C 
BRANCH  13  14
ATOM     14  C   UNL     1      35.973  10.240  22.565  1.00  0.00     0.000 C 
BRANCH  14  15
ATOM     15  C   UNL     1      35.419   9.611  21.267  1.00  0.00     0.000 C 
BRANCH  15  16
ATOM     16  C   UNL     1      35.723   8.110  21.126  1.00  0.00     0.006 C 
BRANCH  16  17
ATOM     17  C   UNL     1      36.753   7.610  22.145  1.00  0.00     0.053 C 
BRANCH  17  18
ATOM     18  C   UNL     1      37.053   6.163  21.919  1.00  0.00     0.041 C 
ATOM     19  O   UNL     1      36.318   5.473  21.165  1.00  0.00    -0.550 OA
ATOM     20  O   UNL     1      38.175   5.587  22.502  1.00  0.00    -0.550 OA
ENDBRANCH  17  18
ENDBRANCH  16  17
ENDBRANCH  15  16
ENDBRANCH  14  15
ENDBRANCH  13  14
ENDBRANCH  12  13
ENDBRANCH  11  12
ENDBRANCH   1  11
TORSDOF 15
ENDMDL
MODEL 3
REMARK VINA RESULT:    -3.414      1.297      2.230
REMARK INTER + INTRA:          -7.837
REMARK INTER:                  -6.658
REMARK INTRA:                  -1.178
REMARK UNBOUND:                -1.430
REMARK SMILES O=C([O-])CCCCCCCCCCCCCCC(=O)[O-]
REMARK SMILES IDX 10 1 9 2 8 3 7 4 6 5 5 6 4 7 2 8 1 9 3 10 11 11 12 12 13 13
REMARK SMILES IDX 14 14 15 15 16 16 17 17 18 18 19 19 20 20
REMARK H PARENT
REMARK Flexibility Score: inf
ROOT
ATOM      1  C   UNL     1      35.440  10.840  23.117  1.00  0.00     0.000 C 
ENDROOT
BRANCH   1   2
ATOM      2  C   UNL     1      35.519   9.707  22.078  1.00  0.00     0.000 C 
BRANCH   2   3
ATOM      3  C   UNL     1      36.924   9.098  21.967  1.00  0.00     0.000 C 
BRANCH   3   4
ATOM      4  C   UNL     1      37.787   9.486  23.174  1.00  0.00     0.000 C 
BRANCH   4   5
ATOM      5  C   UNL     1      38.138   8.255  24.018  1.00  0.00     0.000 C 
BRANCH   5   6
ATOM      6  C   UNL     1      37.763   6.961  23.288  1.00  0.00     0.006 C 
BRANCH   6   7
ATOM      7  C   UNL     1      38.468   5.753  23.912  1.00  0.00     0.053 C 
BRANCH   7   8
ATOM      8  C   UNL     1      39.041   4.872  22.847  1.00  0.00     0.041 C 
ATOM      9  O   UNL     1      39.117   3.628  23.029  1.00  0.00    -0.550 OA
ATOM     10  O   UNL     1      39.538   5.429  21.676  1.00  0.00    -0.550 OA
ENDBRANCH   7   8
ENDBRANCH   6   7
ENDBRANCH   5   6
ENDBRANCH   4   5
ENDBRANCH   3   4
ENDBRANCH   2   3
ENDBRANCH   1   2
BRANCH   1  11
ATOM     11  C   UNL     1      34.283  11.837  22.907  1.00  0.00     0.000 C 
BRANCH  11  12
ATOM     12  C   UNL     1      33.000  11.237  22.299  1.00  0.00     0.000 C 
BRANCH  12  13
ATOM     13  C   UNL     1      31.948  10.774  23.322  1.00  0.00     0.000 C 
BRANCH  13  14
ATOM     14  C   UNL     1      31.238   9.475  22.902  1.00  0.00     0.000 C 
BRANCH  14  15
ATOM     15  C   UNL     1      31.998   8.725  21.786  1.00  0.00     0.000 C 
BRANCH  15  16
ATOM     16  C   UNL     1      31.414   7.340  21.460  1.00  0.00     0.006 C 
BRANCH  16  17
ATOM     17  C   UNL     1      32.468   6.352  20.948  1.00  0.00     0.053 C 
BRANCH  17  18
ATOM     18  C   UNL     1      32.103   4.952  21.329  1.00  0.00     0.041 C 
ATOM     19  O   UNL     1      31.111   4.388  20.795  1.00  0.00    -0.550 OA
ATOM     20  O   UNL     1      32.887   4.252  22.237  1.00  0.00    -0.550 OA
ENDBRANCH  17  18
ENDBRANCH  16  17
ENDBRANCH  15  16
ENDBRANCH  14  15
ENDBRANCH  13  14
ENDBRANCH  12  13
ENDBRANCH  11  12
ENDBRANCH   1  11
TORSDOF 15
ENDMDL
MODEL 4
REMARK VINA RESULT:    -3.378      1.221      4.762
REMARK INTER + INTRA:          -7.770
REMARK INTER:                  -6.104
REMARK INTRA:                  -1.666
REMARK UNBOUND:                -1.430
REMARK SMILES O=C([O-])CCCCCCCCCCCCCCC(=O)[O-]
REMARK SMILES IDX 10 1 9 2 8 3 7 4 6 5 5 6 4 7 2 8 1 9 3 10 11 11 12 12 13 13
REMARK SMILES IDX 14 14 15 15 16 16 17 17 18 18 19 19 20 20
REMARK H PARENT
REMARK Flexibility Score: inf
ROOT
ATOM      1  C   UNL     1      33.689  12.100  22.507  1.00  0.00     0.000 C 
ENDROOT
BRANCH   1   2
ATOM      2  C   UNL     1      32.345  11.400  22.238  1.00  0.00     0.000 C 
BRANCH   2   3
ATOM      3  C   UNL     1      31.979  10.377  23.322  1.00  0.00     0.000 C 
BRANCH   3   4
ATOM      4  C   UNL     1      31.174   9.213  22.730  1.00  0.00     0.000 C 
BRANCH   4   5
ATOM      5  C   UNL     1      32.009   8.427  21.714  1.00  0.00     0.000 C 
BRANCH   5   6
ATOM      6  C   UNL     1      31.293   7.139  21.290  1.00  0.00     0.006 C 
BRANCH   6   7
ATOM      7  C   UNL     1      32.151   6.327  20.316  1.00  0.00     0.053 C 
BRANCH   7   8
ATOM      8  C   UNL     1      32.466   4.982  20.890  1.00  0.00     0.041 C 
ATOM      9  O   UNL     1      32.296   4.762  22.119  1.00  0.00    -0.550 OA
ATOM     10  O   UNL     1      32.994   3.986  20.079  1.00  0.00    -0.550 OA
ENDBRANCH   7   8
ENDBRANCH   6   7
ENDBRANCH   5   6
ENDBRANCH   4   5
ENDBRANCH   3   4
ENDBRANCH   2   3
ENDBRANCH   1   2
BRANCH   1  11
ATOM     11  C   UNL     1      34.627  11.358  23.479  1.00  0.00     0.000 C 
BRANCH  11  12
ATOM     12  C   UNL     1      35.883  10.738  22.837  1.00  0.00     0.000 C 
BRANCH  12  13
ATOM     13  C   UNL     1      35.615   9.827  21.625  1.00  0.00     0.000 C 
BRANCH  13  14
ATOM     14  C   UNL     1      36.378   8.493  21.701  1.00  0.00     0.000 C 
BRANCH  14  15
ATOM     15  C   UNL     1      35.710   7.386  20.855  1.00  0.00     0.000 C 
BRANCH  15  16
ATOM     16  C   UNL     1      35.819   5.982  21.473  1.00  0.00     0.006 C 
BRANCH  16  17
ATOM     17  C   UNL     1      36.516   4.975  20.552  1.00  0.00     0.053 C 
BRANCH  17  18
ATOM     18  C   UNL     1      37.977   5.279  20.454  1.00  0.00     0.041 C 
ATOM     19  O   UNL     1      38.752   4.981  21.400  1.00  0.00    -0.550 OA
ATOM     20  O   UNL     1      38.493   5.847  19.295  1.00  0.00    -0.550 OA
ENDBRANCH  17  18
ENDBRANCH  16  17
ENDBRANCH  15  16
ENDBRANCH  14  15
ENDBRANCH  13  14
ENDBRANCH  12  13
ENDBRANCH  11  12
ENDBRANCH   1  11
TORSDOF 15
ENDMDL
MODEL 5
REMARK VINA RESULT:    -3.371      2.652      5.182
REMARK INTER + INTRA:          -7.756
REMARK INTER:                  -5.753
REMARK INTRA:                  -2.003
REMARK UNBOUND:                -1.430
REMARK SMILES O=C([O-])CCCCCCCCCCCCCCC(=O)[O-]
REMARK SMILES IDX 10 1 9 2 8 3 7 4 6 5 5 6 4 7 2 8 1 9 3 10 11 11 12 12 13 13
REMARK SMILES IDX 14 14 15 15 16 16 17 17 18 18 19 19 20 20
REMARK H PARENT
REMARK Flexibility Score: inf
ROOT
ATOM      1  C   UNL     1      32.791  11.543  22.142  1.00  0.00     0.000 C 
ENDROOT
BRANCH   1   2
ATOM      2  C   UNL     1      31.986  10.897  23.285  1.00  0.00     0.000 C 
BRANCH   2   3
ATOM      3  C   UNL     1      31.359   9.553  22.886  1.00  0.00     0.000 C 
BRANCH   3   4
ATOM      4  C   UNL     1      32.163   8.885  21.765  1.00  0.00     0.000 C 
BRANCH   4   5
ATOM      5  C   UNL     1      31.555   7.530  21.383  1.00  0.00     0.000 C 
BRANCH   5   6
ATOM      6  C   UNL     1      32.628   6.578  20.841  1.00  0.00     0.006 C 
BRANCH   6   7
ATOM      7  C   UNL     1      32.005   5.262  20.366  1.00  0.00     0.053 C 
BRANCH   7   8
ATOM      8  C   UNL     1      32.154   4.203  21.413  1.00  0.00     0.041 C 
ATOM      9  O   UNL     1      33.066   4.292  22.277  1.00  0.00    -0.550 OA
ATOM     10  O   UNL     1      31.319   3.093  21.403  1.00  0.00    -0.550 OA
ENDBRANCH   7   8
ENDBRANCH   6   7
ENDBRANCH   5   6
ENDBRANCH   4   5
ENDBRANCH   3   4
ENDBRANCH   2   3
ENDBRANCH   1   2
BRANCH   1  11
ATOM     11  C   UNL     1      34.157  12.125  22.556  1.00  0.00     0.000 C 
BRANCH  11  12
ATOM     12  C   UNL     1      35.085  11.152  23.309  1.00  0.00     0.000 C 
BRANCH  12  13
ATOM     13  C   UNL     1      35.577   9.949  22.484  1.00  0.00     0.000 C 
BRANCH  13  14
ATOM     14  C   UNL     1      36.232  10.365  21.154  1.00  0.00     0.000 C 
BRANCH  14  15
ATOM     15  C   UNL     1      35.536   9.726  19.932  1.00  0.00     0.000 C 
BRANCH  15  16
ATOM     16  C   UNL     1      34.732  10.725  19.083  1.00  0.00     0.006 C 
BRANCH  16  17
ATOM     17  C   UNL     1      33.444  10.124  18.511  1.00  0.00     0.053 C 
BRANCH  17  18
ATOM     18  C   UNL     1      33.762   9.078  17.490  1.00  0.00     0.041 C 
ATOM     19  O   UNL     1      33.630   7.857  17.770  1.00  0.00    -0.550 OA
ATOM     20  O   UNL     1      34.157   9.452  16.212  1.00  0.00    -0.550 OA
ENDBRANCH  17  18
ENDBRANCH  16  17
ENDBRANCH  15  16
ENDBRANCH  14  15
ENDBRANCH  13  14
ENDBRANCH  12  13
ENDBRANCH  11  12
ENDBRANCH   1  11
TORSDOF 15
ENDMDL
MODEL 6
REMARK VINA RESULT:    -3.332      2.086      5.076
REMARK INTER + INTRA:          -7.684
REMARK INTER:                  -6.077
REMARK INTRA:                  -1.607
REMARK UNBOUND:                -1.430
REMARK SMILES O=C([O-])CCCCCCCCCCCCCCC(=O)[O-]
REMARK SMILES IDX 10 1 9 2 8 3 7 4 6 5 5 6 4 7 2 8 1 9 3 10 11 11 12 12 13 13
REMARK SMILES IDX 14 14 15 15 16 16 17 17 18 18 19 19 20 20
REMARK H PARENT
REMARK Flexibility Score: inf
ROOT
ATOM      1  C   UNL     1      32.073   8.781  21.729  1.00  0.00     0.000 C 
ENDROOT
BRANCH   1   2
ATOM      2  C   UNL     1      31.503   7.405  21.341  1.00  0.00     0.000 C 
BRANCH   2   3
ATOM      3  C   UNL     1      32.577   6.442  20.815  1.00  0.00     0.000 C 
BRANCH   3   4
ATOM      4  C   UNL     1      33.957   7.111  20.808  1.00  0.00     0.000 C 
BRANCH   4   5
ATOM      5  C   UNL     1      35.052   6.111  20.419  1.00  0.00     0.000 C 
BRANCH   5   6
ATOM      6  C   UNL     1      36.445   6.731  20.575  1.00  0.00     0.006 C 
BRANCH   6   7
ATOM      7  C   UNL     1      37.418   5.742  21.222  1.00  0.00     0.053 C 
BRANCH   7   8
ATOM      8  C   UNL     1      37.943   6.290  22.512  1.00  0.00     0.041 C 
ATOM      9  O   UNL     1      37.274   6.164  23.572  1.00  0.00    -0.550 OA
ATOM     10  O   UNL     1      39.146   6.983  22.535  1.00  0.00    -0.550 OA
ENDBRANCH   7   8
ENDBRANCH   6   7
ENDBRANCH   5   6
ENDBRANCH   4   5
ENDBRANCH   3   4
ENDBRANCH   2   3
ENDBRANCH   1   2
BRANCH   1  11
ATOM     11  C   UNL     1      31.342   9.486  22.888  1.00  0.00     0.000 C 
BRANCH  11  12
ATOM     12  C   UNL     1      32.058  10.726  23.460  1.00  0.00     0.000 C 
BRANCH  12  13
ATOM     13  C   UNL     1      32.584  11.719  22.407  1.00  0.00     0.000 C 
BRANCH  13  14
ATOM     14  C   UNL     1      34.049  12.124  22.649  1.00  0.00     0.000 C 
BRANCH  14  15
ATOM     15  C   UNL     1      34.843  11.035  23.403  1.00  0.00     0.000 C 
BRANCH  15  16
ATOM     16  C   UNL     1      35.708  10.152  22.488  1.00  0.00     0.006 C 
BRANCH  16  17
ATOM     17  C   UNL     1      37.075   9.821  23.095  1.00  0.00     0.053 C 
BRANCH  17  18
ATOM     18  C   UNL     1      38.156  10.585  22.399  1.00  0.00     0.041 C 
ATOM     19  O   UNL     1      37.951  11.076  21.258  1.00  0.00    -0.550 OA
ATOM     20  O   UNL     1      39.374  10.799  23.032  1.00  0.00    -0.550 OA
ENDBRANCH  17  18
ENDBRANCH  16  17
ENDBRANCH  15  16
ENDBRANCH  14  15
ENDBRANCH  13  14
ENDBRANCH  12  13
ENDBRANCH  11  12
ENDBRANCH   1  11
TORSDOF 15
ENDMDL
MODEL 7
REMARK VINA RESULT:    -3.306      3.047      5.041
REMARK INTER + INTRA:          -7.636
REMARK INTER:                  -5.886
REMARK INTRA:                  -1.750
REMARK UNBOUND:                -1.430
REMARK SMILES O=C([O-])CCCCCCCCCCCCCCC(=O)[O-]
REMARK SMILES IDX 10 1 9 2 8 3 7 4 6 5 5 6 4 7 2 8 1 9 3 10 11 11 12 12 13 13
REMARK SMILES IDX 14 14 15 15 16 16 17 17 18 18 19 19 20 20
REMARK H PARENT
REMARK Flexibility Score: inf
ROOT
ATOM      1  C   UNL     1      31.851   8.664  21.792  1.00  0.00     0.000 C 
ENDROOT
BRANCH   1   2
ATOM      2  C   UNL     1      31.253   9.503  22.936  1.00  0.00     0.000 C 
BRANCH   2   3
ATOM      3  C   UNL     1      32.219  10.577  23.455  1.00  0.00     0.000 C 
BRANCH   3   4
ATOM      4  C   UNL     1      33.530  10.565  22.660  1.00  0.00     0.000 C 
BRANCH   4   5
ATOM      5  C   UNL     1      34.655  11.254  23.442  1.00  0.00     0.000 C 
BRANCH   5   6
ATOM      6  C   UNL     1      35.985  11.166  22.685  1.00  0.00     0.006 C 
BRANCH   6   7
ATOM      7  C   UNL     1      36.766   9.912  23.089  1.00  0.00     0.053 C 
BRANCH   7   8
ATOM      8  C   UNL     1      38.239  10.166  23.022  1.00  0.00     0.041 C 
ATOM      9  O   UNL     1      39.053   9.252  23.316  1.00  0.00    -0.550 OA
ATOM     10  O   UNL     1      38.711  11.428  22.684  1.00  0.00    -0.550 OA
ENDBRANCH   7   8
ENDBRANCH   6   7
ENDBRANCH   5   6
ENDBRANCH   4   5
ENDBRANCH   3   4
ENDBRANCH   2   3
ENDBRANCH   1   2
BRANCH   1  11
ATOM     11  C   UNL     1      31.076   7.374  21.457  1.00  0.00     0.000 C 
BRANCH  11  12
ATOM     12  C   UNL     1      31.945   6.112  21.285  1.00  0.00     0.000 C 
BRANCH  12  13
ATOM     13  C   UNL     1      33.109   6.252  20.287  1.00  0.00     0.000 C 
BRANCH  13  14
ATOM     14  C   UNL     1      34.476   5.934  20.917  1.00  0.00     0.000 C 
BRANCH  14  15
ATOM     15  C   UNL     1      35.511   7.054  20.671  1.00  0.00     0.000 C 
BRANCH  15  16
ATOM     16  C   UNL     1      34.902   8.348  20.107  1.00  0.00     0.006 C 
BRANCH  16  17
ATOM     17  C   UNL     1      35.947   9.278  19.481  1.00  0.00     0.053 C 
BRANCH  17  18
ATOM     18  C   UNL     1      35.289  10.483  18.889  1.00  0.00     0.041 C 
ATOM     19  O   UNL     1      34.105  10.776  19.200  1.00  0.00    -0.550 OA
ATOM     20  O   UNL     1      36.000  11.313  18.030  1.00  0.00    -0.550 OA
ENDBRANCH  17  18
ENDBRANCH  16  17
ENDBRANCH  15  16
ENDBRANCH  14  15
ENDBRANCH  13  14
ENDBRANCH  12  13
ENDBRANCH  11  12
ENDBRANCH   1  11
TORSDOF 15
ENDMDL
MODEL 8
REMARK VINA RESULT:    -3.304      2.081      4.783
REMARK INTER + INTRA:          -7.631
REMARK INTER:                  -5.586
REMARK INTRA:                  -2.044
REMARK UNBOUND:                -1.430
REMARK SMILES O=C([O-])CCCCCCCCCCCCCCC(=O)[O-]
REMARK SMILES IDX 10 1 9 2 8 3 7 4 6 5 5 6 4 7 2 8 1 9 3 10 11 11 12 12 13 13
REMARK SMILES IDX 14 14 15 15 16 16 17 17 18 18 19 19 20 20
REMARK H PARENT
REMARK Flexibility Score: inf
ROOT
ATOM      1  C   UNL     1      31.974   8.574  21.751  1.00  0.00     0.000 C 
ENDROOT
BRANCH   1   2
ATOM      2  C   UNL     1      31.242   7.288  21.328  1.00  0.00     0.000 C 
BRANCH   2   3
ATOM      3  C   UNL     1      31.586   6.850  19.897  1.00  0.00     0.000 C 
BRANCH   3   4
ATOM      4  C   UNL     1      32.851   7.556  19.396  1.00  0.00     0.000 C 
BRANCH   4   5
ATOM      5  C   UNL     1      33.809   6.563  18.728  1.00  0.00     0.000 C 
BRANCH   5   6
ATOM      6  C   UNL     1      34.409   5.599  19.757  1.00  0.00     0.006 C 
BRANCH   6   7
ATOM      7  C   UNL     1      34.973   6.360  20.961  1.00  0.00     0.053 C 
BRANCH   7   8
ATOM      8  C   UNL     1      36.384   5.943  21.231  1.00  0.00     0.041 C 
ATOM      9  O   UNL     1      37.162   6.710  21.857  1.00  0.00    -0.550 OA
ATOM     10  O   UNL     1      36.855   4.729  20.747  1.00  0.00    -0.550 OA
ENDBRANCH   7   8
ENDBRANCH   6   7
ENDBRANCH   5   6
ENDBRANCH   4   5
ENDBRANCH   3   4
ENDBRANCH   2   3
ENDBRANCH   1   2
BRANCH   1  11
ATOM     11  C   UNL     1      31.251   9.413  22.822  1.00  0.00     0.000 C 
BRANCH  11  12
ATOM     12  C   UNL     1      32.096  10.533  23.461  1.00  0.00     0.000 C 
BRANCH  12  13
ATOM     13  C   UNL     1      32.390  11.733  22.544  1.00  0.00     0.000 C 
BRANCH  13  14
ATOM     14  C   UNL     1      33.889  12.073  22.467  1.00  0.00     0.000 C 
BRANCH  14  15
ATOM     15  C   UNL     1      34.744  11.169  23.384  1.00  0.00     0.000 C 
BRANCH  15  16
ATOM     16  C   UNL     1      35.721  10.259  22.621  1.00  0.00     0.006 C 
BRANCH  16  17
ATOM     17  C   UNL     1      35.246   9.926  21.203  1.00  0.00     0.053 C 
BRANCH  17  18
ATOM     18  C   UNL     1      36.413   9.786  20.278  1.00  0.00     0.041 C 
ATOM     19  O   UNL     1      37.548  10.212  20.620  1.00  0.00    -0.550 OA
ATOM     20  O   UNL     1      36.260   9.140  19.058  1.00  0.00    -0.550 OA
ENDBRANCH  17  18
ENDBRANCH  16  17
ENDBRANCH  15  16
ENDBRANCH  14  15
ENDBRANCH  13  14
ENDBRANCH  12  13
ENDBRANCH  11  12
ENDBRANCH   1  11
TORSDOF 15
ENDMDL
MODEL 9
REMARK VINA RESULT:    -3.281      2.004      4.268
REMARK INTER + INTRA:          -7.588
REMARK INTER:                  -5.862
REMARK INTRA:                  -1.726
REMARK UNBOUND:                -1.430
REMARK SMILES O=C([O-])CCCCCCCCCCCCCCC(=O)[O-]
REMARK SMILES IDX 10 1 9 2 8 3 7 4 6 5 5 6 4 7 2 8 1 9 3 10 11 11 12 12 13 13
REMARK SMILES IDX 14 14 15 15 16 16 17 17 18 18 19 19 20 20
REMARK H PARENT
REMARK Flexibility Score: inf
ROOT
ATOM      1  C   UNL     1      32.684   9.084  21.502  1.00  0.00     0.000 C 
ENDROOT
BRANCH   1   2
ATOM      2  C   UNL     1      31.667   9.501  22.580  1.00  0.00     0.000 C 
BRANCH   2   3
ATOM      3  C   UNL     1      32.056  10.804  23.293  1.00  0.00     0.000 C 
BRANCH   3   4
ATOM      4  C   UNL     1      32.882  11.709  22.371  1.00  0.00     0.000 C 
BRANCH   4   5
ATOM      5  C   UNL     1      34.258  12.006  22.977  1.00  0.00     0.000 C 
BRANCH   5   6
ATOM      6  C   UNL     1      35.383  11.525  22.054  1.00  0.00     0.006 C 
BRANCH   6   7
ATOM      7  C   UNL     1      35.939  10.177  22.522  1.00  0.00     0.053 C 
BRANCH   7   8
ATOM      8  C   UNL     1      37.328  10.339  23.055  1.00  0.00     0.041 C 
ATOM      9  O   UNL     1      37.943  11.427  22.897  1.00  0.00    -0.550 OA
ATOM     10  O   UNL     1      37.962   9.273  23.681  1.00  0.00    -0.550 OA
ENDBRANCH   7   8
ENDBRANCH   6   7
ENDBRANCH   5   6
ENDBRANCH   4   5
ENDBRANCH   3   4
ENDBRANCH   2   3
ENDBRANCH   1   2
BRANCH   1  11
ATOM     11  C   UNL     1      32.252   7.891  20.627  1.00  0.00     0.000 C 
BRANCH  11  12
ATOM     12  C   UNL     1      31.217   6.946  21.267  1.00  0.00     0.000 C 
BRANCH  12  13
ATOM     13  C   UNL     1      31.575   5.450  21.209  1.00  0.00     0.000 C 
BRANCH  13  14
ATOM     14  C   UNL     1      32.795   5.162  20.317  1.00  0.00     0.000 C 
BRANCH  14  15
ATOM     15  C   UNL     1      34.049   4.790  21.139  1.00  0.00     0.000 C 
BRANCH  15  16
ATOM     16  C   UNL     1      35.374   5.164  20.454  1.00  0.00     0.006 C 
BRANCH  16  17
ATOM     17  C   UNL     1      35.746   6.639  20.636  1.00  0.00     0.053 C 
BRANCH  17  18
ATOM     18  C   UNL     1      37.027   6.766  21.398  1.00  0.00     0.041 C 
ATOM     19  O   UNL     1      37.988   7.423  20.918  1.00  0.00    -0.550 OA
ATOM     20  O   UNL     1      37.142   6.201  22.662  1.00  0.00    -0.550 OA
ENDBRANCH  17  18
ENDBRANCH  16  17
ENDBRANCH  15  16
ENDBRANCH  14  15
ENDBRANCH  13  14
ENDBRANCH  12  13
ENDBRANCH  11  12
ENDBRANCH   1  11
TORSDOF 15
ENDMDL
