MODEL 1
REMARK VINA RESULT:    -2.716      0.000      0.000
REMARK INTER + INTRA:          -3.256
REMARK INTER:                  -2.875
REMARK INTRA:                  -0.381
REMARK UNBOUND:                -0.381
REMARK SMILES CC1=CC[C@H]2[C@@H]3[C@@H](C(C)C)CC[C@@]2(C)[C@H]13
REMARK SMILES IDX 1 1 2 2 3 3 4 4 5 5 6 6 15 7 13 8 12 9 11 10 7 11 14 12 8 13
REMARK SMILES IDX 9 14 10 15
REMARK H PARENT
REMARK Flexibility Score: inf
ROOT
ATOM      1  C   UNL     1     167.692 170.729 140.201  1.00  0.00     0.039 C 
ATOM      2  C   UNL     1     167.916 171.800 139.176  1.00  0.00    -0.073 C 
ATOM      3  C   UNL     1     168.149 171.491 137.874  1.00  0.00    -0.027 C 
ATOM      4  C   UNL     1     168.390 172.627 136.875  1.00  0.00     0.031 C 
ATOM      5  C   UNL     1     168.278 174.014 137.590  1.00  0.00     0.003 C 
ATOM      6  C   UNL     1     167.003 173.986 138.464  1.00  0.00     0.004 C 
ATOM      7  C   UNL     1     167.873 173.286 139.542  1.00  0.00     0.024 C 
ATOM      8  C   UNL     1     169.076 174.034 138.917  1.00  0.00    -0.022 C 
ATOM      9  C   UNL     1     169.144 175.500 139.447  1.00  0.00     0.008 C 
ATOM     10  C   UNL     1     167.738 176.094 139.738  1.00  0.00     0.005 C 
ATOM     11  C   UNL     1     166.619 175.439 138.871  1.00  0.00    -0.005 C 
ATOM     12  C   UNL     1     170.471 173.368 138.956  1.00  0.00     0.012 C 
ENDROOT
BRANCH  11  13
ATOM     13  C   UNL     1     165.193 175.522 139.495  1.00  0.00    -0.014 C 
ATOM     14  C   UNL     1     164.429 174.188 139.501  1.00  0.00     0.007 C 
ATOM     15  C   UNL     1     165.227 176.125 140.906  1.00  0.00     0.007 C 
ENDBRANCH  11  13
TORSDOF 1
ENDMDL
MODEL 2
REMARK VINA RESULT:    -2.715     13.370     16.704
REMARK INTER + INTRA:          -3.255
REMARK INTER:                  -2.872
REMARK INTRA:                  -0.383
REMARK UNBOUND:                -0.381
REMARK SMILES CC1=CC[C@H]2[C@@H]3[C@@H](C(C)C)CC[C@@]2(C)[C@H]13
REMARK SMILES IDX 1 1 2 2 3 3 4 4 5 5 6 6 15 7 13 8 12 9 11 10 7 11 14 12 8 13
REMARK SMILES IDX 9 14 10 15
REMARK H PARENT
REMARK Flexibility Score: inf
ROOT
ATOM      1  C   UNL     1     164.220 161.233 140.311  1.00  0.00     0.039 C 
ATOM      2  C   UNL     1     164.006 160.184 139.262  1.00  0.00    -0.073 C 
ATOM      3  C   UNL     1     163.758 160.520 137.969  1.00  0.00    -0.027 C 
ATOM      4  C   UNL     1     163.529 159.403 136.945  1.00  0.00     0.031 C 
ATOM      5  C   UNL     1     163.671 158.002 137.625  1.00  0.00     0.003 C 
ATOM      6  C   UNL     1     164.953 158.032 138.491  1.00  0.00     0.004 C 
ATOM      7  C   UNL     1     164.079 158.690 139.591  1.00  0.00     0.024 C 
ATOM      8  C   UNL     1     162.885 157.936 138.957  1.00  0.00    -0.022 C 
ATOM      9  C   UNL     1     162.847 156.456 139.452  1.00  0.00     0.008 C 
ATOM     10  C   UNL     1     164.265 155.881 139.718  1.00  0.00     0.005 C 
ATOM     11  C   UNL     1     165.366 156.576 138.859  1.00  0.00    -0.005 C 
ATOM     12  C   UNL     1     161.479 158.576 139.023  1.00  0.00     0.012 C 
ENDROOT
BRANCH  11  13
ATOM     13  C   UNL     1     166.798 156.504 139.470  1.00  0.00    -0.014 C 
ATOM     14  C   UNL     1     167.542 157.850 139.495  1.00  0.00     0.007 C 
ATOM     15  C   UNL     1     166.785 155.875 140.870  1.00  0.00     0.007 C 
ENDBRANCH  11  13
TORSDOF 1
ENDMDL
MODEL 3
REMARK VINA RESULT:    -2.558      1.565      4.750
REMARK INTER + INTRA:          -3.089
REMARK INTER:                  -2.794
REMARK INTRA:                  -0.295
REMARK UNBOUND:                -0.381
REMARK SMILES CC1=CC[C@H]2[C@@H]3[C@@H](C(C)C)CC[C@@]2(C)[C@H]13
REMARK SMILES IDX 1 1 2 2 3 3 4 4 5 5 6 6 15 7 13 8 12 9 11 10 7 11 14 12 8 13
REMARK SMILES IDX 9 14 10 15
REMARK H PARENT
REMARK Flexibility Score: inf
ROOT
ATOM      1  C   UNL     1     167.881 173.503 141.826  1.00  0.00     0.039 C 
ATOM      2  C   UNL     1     167.930 173.916 140.386  1.00  0.00    -0.073 C 
ATOM      3  C   UNL     1     167.622 175.183 140.006  1.00  0.00    -0.027 C 
ATOM      4  C   UNL     1     167.671 175.542 138.517  1.00  0.00     0.031 C 
ATOM      5  C   UNL     1     168.132 174.308 137.674  1.00  0.00     0.003 C 
ATOM      6  C   UNL     1     169.362 173.693 138.382  1.00  0.00     0.004 C 
ATOM      7  C   UNL     1     168.348 172.940 139.282  1.00  0.00     0.024 C 
ATOM      8  C   UNL     1     167.371 173.024 138.085  1.00  0.00    -0.022 C 
ATOM      9  C   UNL     1     167.676 171.898 137.049  1.00  0.00     0.008 C 
ATOM     10  C   UNL     1     169.187 171.543 136.983  1.00  0.00     0.005 C 
ATOM     11  C   UNL     1     170.102 172.736 137.401  1.00  0.00    -0.005 C 
ATOM     12  C   UNL     1     165.853 173.117 138.366  1.00  0.00     0.012 C 
ENDROOT
BRANCH  11  13
ATOM     13  C   UNL     1     171.505 172.314 137.932  1.00  0.00    -0.014 C 
ATOM     14  C   UNL     1     172.623 172.370 136.877  1.00  0.00     0.007 C 
ATOM     15  C   UNL     1     171.905 173.118 139.176  1.00  0.00     0.007 C 
ENDBRANCH  11  13
TORSDOF 1
ENDMDL
MODEL 4
REMARK VINA RESULT:    -2.550     14.422     15.896
REMARK INTER + INTRA:          -3.080
REMARK INTER:                  -2.773
REMARK INTRA:                  -0.307
REMARK UNBOUND:                -0.381
REMARK SMILES CC1=CC[C@H]2[C@@H]3[C@@H](C(C)C)CC[C@@]2(C)[C@H]13
REMARK SMILES IDX 1 1 2 2 3 3 4 4 5 5 6 6 15 7 13 8 12 9 11 10 7 11 14 12 8 13
REMARK SMILES IDX 9 14 10 15
REMARK H PARENT
REMARK Flexibility Score: inf
ROOT
ATOM      1  C   UNL     1     164.125 158.501 141.837  1.00  0.00     0.039 C 
ATOM      2  C   UNL     1     164.070 158.096 140.395  1.00  0.00    -0.073 C 
ATOM      3  C   UNL     1     164.361 156.826 140.009  1.00  0.00    -0.027 C 
ATOM      4  C   UNL     1     164.305 156.475 138.518  1.00  0.00     0.031 C 
ATOM      5  C   UNL     1     163.859 157.718 137.681  1.00  0.00     0.003 C 
ATOM      6  C   UNL     1     162.638 158.345 138.393  1.00  0.00     0.004 C 
ATOM      7  C   UNL     1     163.662 159.081 139.296  1.00  0.00     0.024 C 
ATOM      8  C   UNL     1     164.637 158.991 138.097  1.00  0.00    -0.022 C 
ATOM      9  C   UNL     1     164.344 160.125 137.067  1.00  0.00     0.008 C 
ATOM     10  C   UNL     1     162.838 160.499 137.005  1.00  0.00     0.005 C 
ATOM     11  C   UNL     1     161.909 159.315 137.418  1.00  0.00    -0.005 C 
ATOM     12  C   UNL     1     166.154 158.877 138.376  1.00  0.00     0.012 C 
ENDROOT
BRANCH  11  13
ATOM     13  C   UNL     1     160.512 159.753 137.952  1.00  0.00    -0.014 C 
ATOM     14  C   UNL     1     159.415 159.818 136.875  1.00  0.00     0.007 C 
ATOM     15  C   UNL     1     160.055 158.877 139.127  1.00  0.00     0.007 C 
ENDBRANCH  11  13
TORSDOF 1
ENDMDL
MODEL 5
REMARK VINA RESULT:    -2.521      1.533      4.359
REMARK INTER + INTRA:          -3.050
REMARK INTER:                  -2.626
REMARK INTRA:                  -0.423
REMARK UNBOUND:                -0.381
REMARK SMILES CC1=CC[C@H]2[C@@H]3[C@@H](C(C)C)CC[C@@]2(C)[C@H]13
REMARK SMILES IDX 1 1 2 2 3 3 4 4 5 5 6 6 15 7 13 8 12 9 11 10 7 11 14 12 8 13
REMARK SMILES IDX 9 14 10 15
REMARK H PARENT
REMARK Flexibility Score: inf
ROOT
ATOM      1  C   UNL     1     164.343 172.181 140.315  1.00  0.00     0.039 C 
ATOM      2  C   UNL     1     165.127 173.408 140.667  1.00  0.00    -0.073 C 
ATOM      3  C   UNL     1     164.964 174.030 141.864  1.00  0.00    -0.027 C 
ATOM      4  C   UNL     1     165.780 175.292 142.161  1.00  0.00     0.031 C 
ATOM      5  C   UNL     1     166.731 175.620 140.963  1.00  0.00     0.003 C 
ATOM      6  C   UNL     1     167.430 174.304 140.550  1.00  0.00     0.004 C 
ATOM      7  C   UNL     1     166.161 174.006 139.709  1.00  0.00     0.024 C 
ATOM      8  C   UNL     1     165.986 175.541 139.608  1.00  0.00    -0.022 C 
ATOM      9  C   UNL     1     166.902 176.125 138.489  1.00  0.00     0.008 C 
ATOM     10  C   UNL     1     168.232 175.336 138.336  1.00  0.00     0.005 C 
ATOM     11  C   UNL     1     168.665 174.629 139.658  1.00  0.00    -0.005 C 
ATOM     12  C   UNL     1     164.556 176.123 139.511  1.00  0.00     0.012 C 
ENDROOT
BRANCH  11  13
ATOM     13  C   UNL     1     169.587 173.390 139.450  1.00  0.00    -0.014 C 
ATOM     14  C   UNL     1     169.481 172.330 140.560  1.00  0.00     0.007 C 
ATOM     15  C   UNL     1     169.367 172.745 138.074  1.00  0.00     0.007 C 
ENDBRANCH  11  13
TORSDOF 1
ENDMDL
MODEL 6
REMARK VINA RESULT:    -2.498     14.010     16.409
REMARK INTER + INTRA:          -3.024
REMARK INTER:                  -2.597
REMARK INTRA:                  -0.427
REMARK UNBOUND:                -0.381
REMARK SMILES CC1=CC[C@H]2[C@@H]3[C@@H](C(C)C)CC[C@@]2(C)[C@H]13
REMARK SMILES IDX 1 1 2 2 3 3 4 4 5 5 6 6 15 7 13 8 12 9 11 10 7 11 14 12 8 13
REMARK SMILES IDX 9 14 10 15
REMARK H PARENT
REMARK Flexibility Score: inf
ROOT
ATOM      1  C   UNL     1     167.869 160.021 139.512  1.00  0.00     0.039 C 
ATOM      2  C   UNL     1     166.945 159.000 140.104  1.00  0.00    -0.073 C 
ATOM      3  C   UNL     1     166.934 158.749 141.439  1.00  0.00    -0.027 C 
ATOM      4  C   UNL     1     165.981 157.681 141.985  1.00  0.00     0.031 C 
ATOM      5  C   UNL     1     165.123 157.074 140.826  1.00  0.00     0.003 C 
ATOM      6  C   UNL     1     164.591 158.250 139.975  1.00  0.00     0.004 C 
ATOM      7  C   UNL     1     165.957 158.211 139.240  1.00  0.00     0.024 C 
ATOM      8  C   UNL     1     165.999 156.707 139.604  1.00  0.00    -0.022 C 
ATOM      9  C   UNL     1     165.145 155.876 138.596  1.00  0.00     0.008 C 
ATOM     10  C   UNL     1     163.914 156.663 138.069  1.00  0.00     0.005 C 
ATOM     11  C   UNL     1     163.423 157.752 139.073  1.00  0.00    -0.005 C 
ATOM     12  C   UNL     1     167.372 156.037 139.847  1.00  0.00     0.012 C 
ENDROOT
BRANCH  11  13
ATOM     13  C   UNL     1     162.643 158.928 138.412  1.00  0.00    -0.014 C 
ATOM     14  C   UNL     1     162.809 160.278 139.130  1.00  0.00     0.007 C 
ATOM     15  C   UNL     1     162.987 159.070 136.923  1.00  0.00     0.007 C 
ENDBRANCH  11  13
TORSDOF 1
ENDMDL
MODEL 7
REMARK VINA RESULT:    -2.391      1.916      4.692
REMARK INTER + INTRA:          -2.912
REMARK INTER:                  -2.510
REMARK INTRA:                  -0.401
REMARK UNBOUND:                -0.381
REMARK SMILES CC1=CC[C@H]2[C@@H]3[C@@H](C(C)C)CC[C@@]2(C)[C@H]13
REMARK SMILES IDX 1 1 2 2 3 3 4 4 5 5 6 6 15 7 13 8 12 9 11 10 7 11 14 12 8 13
REMARK SMILES IDX 9 14 10 15
REMARK H PARENT
REMARK Flexibility Score: inf
ROOT
ATOM      1  C   UNL     1     167.689 173.534 143.498  1.00  0.00     0.039 C 
ATOM      2  C   UNL     1     166.675 174.165 142.592  1.00  0.00    -0.073 C 
ATOM      3  C   UNL     1     165.858 175.157 143.031  1.00  0.00    -0.027 C 
ATOM      4  C   UNL     1     164.828 175.751 142.065  1.00  0.00     0.031 C 
ATOM      5  C   UNL     1     164.951 175.080 140.657  1.00  0.00     0.003 C 
ATOM      6  C   UNL     1     166.453 175.042 140.289  1.00  0.00     0.004 C 
ATOM      7  C   UNL     1     166.528 173.739 141.128  1.00  0.00     0.024 C 
ATOM      8  C   UNL     1     165.035 173.538 140.769  1.00  0.00    -0.022 C 
ATOM      9  C   UNL     1     164.893 172.916 139.345  1.00  0.00     0.008 C 
ATOM     10  C   UNL     1     166.020 173.376 138.380  1.00  0.00     0.005 C 
ATOM     11  C   UNL     1     166.608 174.769 138.764  1.00  0.00    -0.005 C 
ATOM     12  C   UNL     1     164.115 172.815 141.781  1.00  0.00     0.012 C 
ENDROOT
BRANCH  11  13
ATOM     13  C   UNL     1     168.064 175.011 138.264  1.00  0.00    -0.014 C 
ATOM     14  C   UNL     1     168.992 175.653 139.310  1.00  0.00     0.007 C 
ATOM     15  C   UNL     1     168.693 173.725 137.710  1.00  0.00     0.007 C 
ENDBRANCH  11  13
TORSDOF 1
ENDMDL
MODEL 8
REMARK VINA RESULT:    -2.379     14.743     17.074
REMARK INTER + INTRA:          -2.899
REMARK INTER:                  -2.482
REMARK INTRA:                  -0.417
REMARK UNBOUND:                -0.381
REMARK SMILES CC1=CC[C@H]2[C@@H]3[C@@H](C(C)C)CC[C@@]2(C)[C@H]13
REMARK SMILES IDX 1 1 2 2 3 3 4 4 5 5 6 6 15 7 13 8 12 9 11 10 7 11 14 12 8 13
REMARK SMILES IDX 9 14 10 15
REMARK H PARENT
REMARK Flexibility Score: inf
ROOT
ATOM      1  C   UNL     1     165.441 159.594 137.391  1.00  0.00     0.039 C 
ATOM      2  C   UNL     1     164.950 158.474 138.257  1.00  0.00    -0.073 C 
ATOM      3  C   UNL     1     164.029 157.583 137.803  1.00  0.00    -0.027 C 
ATOM      4  C   UNL     1     163.551 156.470 138.741  1.00  0.00     0.031 C 
ATOM      5  C   UNL     1     164.292 156.560 140.116  1.00  0.00     0.003 C 
ATOM      6  C   UNL     1     165.797 156.756 139.822  1.00  0.00     0.004 C 
ATOM      7  C   UNL     1     165.475 158.266 139.680  1.00  0.00     0.024 C 
ATOM      8  C   UNL     1     164.304 158.009 140.659  1.00  0.00    -0.022 C 
ATOM      9  C   UNL     1     164.816 157.995 142.133  1.00  0.00     0.008 C 
ATOM     10  C   UNL     1     166.261 157.438 142.257  1.00  0.00     0.005 C 
ATOM     11  C   UNL     1     166.622 156.447 141.107  1.00  0.00    -0.005 C 
ATOM     12  C   UNL     1     163.022 158.864 140.529  1.00  0.00     0.012 C 
ENDROOT
BRANCH  11  13
ATOM     13  C   UNL     1     168.149 156.331 140.816  1.00  0.00    -0.014 C 
ATOM     14  C   UNL     1     168.486 155.875 139.387  1.00  0.00     0.007 C 
ATOM     15  C   UNL     1     168.889 157.634 141.149  1.00  0.00     0.007 C 
ENDBRANCH  11  13
TORSDOF 1
ENDMDL
MODEL 9
REMARK VINA RESULT:    -2.332      1.679      2.862
REMARK INTER + INTRA:          -2.850
REMARK INTER:                  -2.442
REMARK INTRA:                  -0.408
REMARK UNBOUND:                -0.381
REMARK SMILES CC1=CC[C@H]2[C@@H]3[C@@H](C(C)C)CC[C@@]2(C)[C@H]13
REMARK SMILES IDX 1 1 2 2 3 3 4 4 5 5 6 6 15 7 13 8 12 9 11 10 7 11 14 12 8 13
REMARK SMILES IDX 9 14 10 15
REMARK H PARENT
REMARK Flexibility Score: inf
ROOT
ATOM      1  C   UNL     1     166.259 172.547 137.641  1.00  0.00     0.039 C 
ATOM      2  C   UNL     1     166.820 173.654 138.481  1.00  0.00    -0.073 C 
ATOM      3  C   UNL     1     167.814 174.456 138.017  1.00  0.00    -0.027 C 
ATOM      4  C   UNL     1     168.361 175.560 138.928  1.00  0.00     0.031 C 
ATOM      5  C   UNL     1     167.593 175.572 140.291  1.00  0.00     0.003 C 
ATOM      6  C   UNL     1     166.082 175.483 139.974  1.00  0.00     0.004 C 
ATOM      7  C   UNL     1     166.288 173.948 139.886  1.00  0.00     0.024 C 
ATOM      8  C   UNL     1     167.459 174.147 140.880  1.00  0.00    -0.022 C 
ATOM      9  C   UNL     1     166.925 174.249 142.342  1.00  0.00     0.008 C 
ATOM     10  C   UNL     1     165.526 174.919 142.420  1.00  0.00     0.005 C 
ATOM     11  C   UNL     1     165.262 175.896 141.232  1.00  0.00    -0.005 C 
ATOM     12  C   UNL     1     168.674 173.192 140.801  1.00  0.00     0.012 C 
ENDROOT
BRANCH  11  13
ATOM     13  C   UNL     1     163.754 176.119 140.909  1.00  0.00    -0.014 C 
ATOM     14  C   UNL     1     163.425 176.125 139.406  1.00  0.00     0.007 C 
ATOM     15  C   UNL     1     162.861 175.112 141.647  1.00  0.00     0.007 C 
ENDBRANCH  11  13
TORSDOF 1
ENDMDL
