MODEL 1
REMARK VINA RESULT:    -5.119      0.000      0.000
REMARK INTER + INTRA:          -7.887
REMARK INTER:                  -7.812
REMARK INTRA:                  -0.075
REMARK UNBOUND:                -0.075
REMARK SMILES CC1=CCC[C@H](C)C(=O)C[C@@H](C(C)C)C(=O)C1
REMARK SMILES IDX 8 1 9 2 6 3 7 4 5 5 4 6 3 7 2 8 1 9 10 11 11 12 15 13 16 14
REMARK SMILES IDX 17 15 12 17 13 18 14 19
REMARK H PARENT
REMARK Flexibility Score: 70.00
ROOT
ATOM      1  C   UNL     1      -7.739  31.649  22.126  1.00  0.00     0.136 C 
ATOM      2  O   UNL     1      -7.561  31.244  20.985  1.00  0.00    -0.299 OA
ENDROOT
BRANCH   1   3
ATOM      3  C   UNL     1      -8.420  32.988  22.344  1.00  0.00     0.053 C 
ATOM      4  C   UNL     1      -9.937  32.801  22.479  1.00  0.00     0.016 C 
BRANCH   3   5
ATOM      5  C   UNL     1      -7.838  33.696  23.588  1.00  0.00     0.015 C 
BRANCH   5   6
ATOM      6  C   UNL     1      -8.944  34.096  24.584  1.00  0.00     0.028 C 
BRANCH   6   7
ATOM      7  C   UNL     1      -8.559  33.866  26.024  1.00  0.00    -0.028 C 
ATOM      8  C   UNL     1      -8.674  32.690  26.691  1.00  0.00    -0.070 CG0
ATOM      9  C   UNL     1      -8.143  32.631  28.101  1.00  0.00     0.039 C 
ATOM     10  G   UNL     1      -9.349  31.454  26.110  1.00  0.00     0.000 G0
ENDBRANCH   6   7
ENDBRANCH   5   6
ENDBRANCH   3   5
ENDBRANCH   1   3
BRANCH   1  11
ATOM     11  C   UNL     1      -7.259  30.807  23.286  1.00  0.00     0.087 C 
BRANCH  11  12
ATOM     12  C   UNL     1      -8.430  30.125  24.042  1.00  0.00     0.066 C 
BRANCH  12  13
ATOM     13  C   UNL     1      -8.391  30.450  25.529  1.00  0.00     0.140 C 
ATOM     14  O   UNL     1      -7.616  29.863  26.271  1.00  0.00    -0.299 OA
BRANCH  13  15
ATOM     15  C   UNL     1      -9.355  31.459  26.106  1.00  0.00     0.106 CG0
ATOM     16  G   UNL     1      -8.679  32.674  26.728  1.00  0.00     0.000 G0
ENDBRANCH  13  15
ENDBRANCH  12  13
BRANCH  12  17
ATOM     17  C   UNL     1      -8.524  28.585  23.784  1.00  0.00    -0.006 C 
ATOM     18  C   UNL     1      -9.755  27.972  24.470  1.00  0.00     0.008 C 
ATOM     19  C   UNL     1      -8.517  28.202  22.292  1.00  0.00     0.008 C 
ENDBRANCH  12  17
ENDBRANCH  11  12
ENDBRANCH   1  11
TORSDOF 1
ENDMDL
MODEL 2
REMARK VINA RESULT:    -4.983      1.868      2.685
REMARK INTER + INTRA:          -7.680
REMARK INTER:                  -7.463
REMARK INTRA:                  -0.217
REMARK UNBOUND:                -0.075
REMARK SMILES CC1=CCC[C@H](C)C(=O)C[C@@H](C(C)C)C(=O)C1
REMARK SMILES IDX 8 1 9 2 6 3 7 4 5 5 4 6 3 7 2 8 1 9 10 11 11 12 15 13 16 14
REMARK SMILES IDX 17 15 12 17 13 18 14 19
REMARK H PARENT
REMARK Flexibility Score: 70.00
ROOT
ATOM      1  C   UNL     1      -8.052  30.661  22.327  1.00  0.00     0.136 C 
ATOM      2  O   UNL     1      -8.032  29.465  22.070  1.00  0.00    -0.299 OA
ENDROOT
BRANCH   1   3
ATOM      3  C   UNL     1      -8.434  31.652  21.243  1.00  0.00     0.053 C 
ATOM      4  C   UNL     1      -9.892  32.100  21.416  1.00  0.00     0.016 C 
BRANCH   3   5
ATOM      5  C   UNL     1      -7.478  32.866  21.257  1.00  0.00     0.015 C 
BRANCH   5   6
ATOM      6  C   UNL     1      -8.230  34.179  21.556  1.00  0.00     0.028 C 
BRANCH   6   7
ATOM      7  C   UNL     1      -7.731  34.881  22.793  1.00  0.00    -0.028 C 
ATOM      8  C   UNL     1      -8.179  34.665  24.055  1.00  0.00    -0.070 CG0
ATOM      9  C   UNL     1      -7.486  35.395  25.178  1.00  0.00     0.039 C 
ATOM     10  G   UNL     1      -9.365  33.768  24.387  1.00  0.00     0.000 G0
ENDBRANCH   6   7
ENDBRANCH   5   6
ENDBRANCH   3   5
ENDBRANCH   1   3
BRANCH   1  11
ATOM     11  C   UNL     1      -7.678  31.117  23.720  1.00  0.00     0.087 C 
BRANCH  11  12
ATOM     12  C   UNL     1      -8.909  31.206  24.660  1.00  0.00     0.066 C 
BRANCH  12  13
ATOM     13  C   UNL     1      -9.034  32.592  25.277  1.00  0.00     0.140 C 
ATOM     14  O   UNL     1      -8.912  32.747  26.483  1.00  0.00    -0.299 OA
BRANCH  13  15
ATOM     15  C   UNL     1      -9.370  33.778  24.404  1.00  0.00     0.106 CG0
ATOM     16  G   UNL     1      -8.171  34.654  24.064  1.00  0.00     0.000 G0
ENDBRANCH  13  15
ENDBRANCH  12  13
BRANCH  12  17
ATOM     17  C   UNL     1      -8.946  30.081  25.746  1.00  0.00    -0.006 C 
ATOM     18  C   UNL     1      -9.813  28.892  25.298  1.00  0.00     0.008 C 
ATOM     19  C   UNL     1      -7.552  29.577  26.167  1.00  0.00     0.008 C 
ENDBRANCH  12  17
ENDBRANCH  11  12
ENDBRANCH   1  11
TORSDOF 1
ENDMDL
MODEL 3
REMARK VINA RESULT:    -4.866      1.799      3.691
REMARK INTER + INTRA:          -7.502
REMARK INTER:                  -7.436
REMARK INTRA:                  -0.066
REMARK UNBOUND:                -0.075
REMARK SMILES CC1=CCC[C@H](C)C(=O)C[C@@H](C(C)C)C(=O)C1
REMARK SMILES IDX 8 1 9 2 6 3 7 4 5 5 4 6 3 7 2 8 1 9 10 11 11 12 15 13 16 14
REMARK SMILES IDX 17 15 12 17 13 18 14 19
REMARK H PARENT
REMARK Flexibility Score: 70.00
ROOT
ATOM      1  C   UNL     1      -8.497  33.480  24.187  1.00  0.00     0.136 C 
ATOM      2  O   UNL     1      -9.563  33.882  23.739  1.00  0.00    -0.299 OA
ENDROOT
BRANCH   1   3
ATOM      3  C   UNL     1      -8.046  33.936  25.562  1.00  0.00     0.053 C 
ATOM      4  C   UNL     1      -8.314  35.437  25.743  1.00  0.00     0.016 C 
BRANCH   3   5
ATOM      5  C   UNL     1      -8.749  33.112  26.664  1.00  0.00     0.015 C 
BRANCH   5   6
ATOM      6  C   UNL     1      -8.086  31.734  26.855  1.00  0.00     0.028 C 
BRANCH   6   7
ATOM      7  C   UNL     1      -8.998  30.582  26.515  1.00  0.00    -0.028 C 
ATOM      8  C   UNL     1      -8.823  29.718  25.484  1.00  0.00    -0.070 CG0
ATOM      9  C   UNL     1      -9.790  28.567  25.365  1.00  0.00     0.039 C 
ATOM     10  G   UNL     1      -7.740  29.877  24.425  1.00  0.00     0.000 G0
ENDBRANCH   6   7
ENDBRANCH   5   6
ENDBRANCH   3   5
ENDBRANCH   1   3
BRANCH   1  11
ATOM     11  C   UNL     1      -7.653  32.550  23.345  1.00  0.00     0.087 C 
BRANCH  11  12
ATOM     12  C   UNL     1      -8.513  31.529  22.554  1.00  0.00     0.066 C 
BRANCH  12  13
ATOM     13  C   UNL     1      -8.250  30.105  23.023  1.00  0.00     0.140 C 
ATOM     14  O   UNL     1      -8.499  29.156  22.292  1.00  0.00    -0.299 OA
BRANCH  13  15
ATOM     15  C   UNL     1      -7.735  29.854  24.419  1.00  0.00     0.106 CG0
ATOM     16  G   UNL     1      -8.829  29.742  25.472  1.00  0.00     0.000 G0
ENDBRANCH  13  15
ENDBRANCH  12  13
BRANCH  12  17
ATOM     17  C   UNL     1      -8.370  31.667  21.002  1.00  0.00    -0.006 C 
ATOM     18  C   UNL     1      -9.688  31.336  20.282  1.00  0.00     0.008 C 
ATOM     19  C   UNL     1      -7.861  33.046  20.544  1.00  0.00     0.008 C 
ENDBRANCH  12  17
ENDBRANCH  11  12
ENDBRANCH   1  11
TORSDOF 1
ENDMDL
MODEL 4
REMARK VINA RESULT:    -4.830      1.964      4.357
REMARK INTER + INTRA:          -7.446
REMARK INTER:                  -7.465
REMARK INTRA:                   0.019
REMARK UNBOUND:                -0.075
REMARK SMILES CC1=CCC[C@H](C)C(=O)C[C@@H](C(C)C)C(=O)C1
REMARK SMILES IDX 8 1 9 2 6 3 7 4 5 5 4 6 3 7 2 8 1 9 10 11 11 12 15 13 16 14
REMARK SMILES IDX 17 15 12 17 13 18 14 19
REMARK H PARENT
REMARK Flexibility Score: 70.00
ROOT
ATOM      1  C   UNL     1      -8.114  29.483  24.611  1.00  0.00     0.136 C 
ATOM      2  O   UNL     1      -8.757  28.735  25.334  1.00  0.00    -0.299 OA
ENDROOT
BRANCH   1   3
ATOM      3  C   UNL     1      -7.686  29.006  23.234  1.00  0.00     0.053 C 
ATOM      4  C   UNL     1      -8.876  28.384  22.490  1.00  0.00     0.016 C 
BRANCH   3   5
ATOM      5  C   UNL     1      -7.074  30.169  22.423  1.00  0.00     0.015 C 
BRANCH   5   6
ATOM      6  C   UNL     1      -8.138  30.893  21.574  1.00  0.00     0.028 C 
BRANCH   6   7
ATOM      7  C   UNL     1      -7.879  32.371  21.428  1.00  0.00    -0.028 C 
ATOM      8  C   UNL     1      -8.427  33.345  22.197  1.00  0.00    -0.070 CG0
ATOM      9  C   UNL     1      -7.967  34.763  21.961  1.00  0.00     0.039 C 
ATOM     10  G   UNL     1      -9.505  33.090  23.241  1.00  0.00     0.000 G0
ENDBRANCH   6   7
ENDBRANCH   5   6
ENDBRANCH   3   5
ENDBRANCH   1   3
BRANCH   1  11
ATOM     11  C   UNL     1      -7.750  30.861  25.118  1.00  0.00     0.087 C 
BRANCH  11  12
ATOM     12  C   UNL     1      -9.003  31.721  25.432  1.00  0.00     0.066 C 
BRANCH  12  13
ATOM     13  C   UNL     1      -8.969  33.042  24.676  1.00  0.00     0.140 C 
ATOM     14  O   UNL     1      -8.561  34.057  25.222  1.00  0.00    -0.299 OA
BRANCH  13  15
ATOM     15  C   UNL     1      -9.497  33.116  23.264  1.00  0.00     0.106 CG0
ATOM     16  G   UNL     1      -8.422  33.363  22.214  1.00  0.00     0.000 G0
ENDBRANCH  13  15
ENDBRANCH  12  13
BRANCH  12  17
ATOM     17  C   UNL     1      -9.244  31.932  26.963  1.00  0.00    -0.006 C 
ATOM     18  C   UNL     1     -10.002  30.748  27.584  1.00  0.00     0.008 C 
ATOM     19  C   UNL     1      -7.957  32.202  27.765  1.00  0.00     0.008 C 
ENDBRANCH  12  17
ENDBRANCH  11  12
ENDBRANCH   1  11
TORSDOF 1
ENDMDL
MODEL 5
REMARK VINA RESULT:    -4.802      1.536      3.832
REMARK INTER + INTRA:          -7.403
REMARK INTER:                  -7.921
REMARK INTRA:                   0.518
REMARK UNBOUND:                -0.075
REMARK SMILES CC1=CCC[C@H](C)C(=O)C[C@@H](C(C)C)C(=O)C1
REMARK SMILES IDX 8 1 9 2 6 3 7 4 5 5 4 6 3 7 2 8 1 9 10 11 11 12 15 13 16 14
REMARK SMILES IDX 17 15 12 17 13 18 14 19
REMARK H PARENT
REMARK Flexibility Score: 70.00
ROOT
ATOM      1  C   UNL     1      -8.361  30.562  22.440  1.00  0.00     0.136 C 
ATOM      2  O   UNL     1      -7.253  30.544  21.922  1.00  0.00    -0.299 OA
ENDROOT
BRANCH   1   3
ATOM      3  C   UNL     1      -8.990  29.260  22.902  1.00  0.00     0.053 C 
ATOM      4  C   UNL     1      -8.266  28.062  22.272  1.00  0.00     0.016 C 
BRANCH   3   5
ATOM      5  C   UNL     1      -8.973  29.167  24.444  1.00  0.00     0.015 C 
BRANCH   5   6
ATOM      6  C   UNL     1      -7.671  29.742  25.035  1.00  0.00     0.028 C 
BRANCH   6   7
ATOM      7  C   UNL     1      -7.875  30.446  26.353  1.00  0.00    -0.028 C 
ATOM      8  C   UNL     1      -8.737  31.470  26.573  1.00  0.00    -0.070 CG0
ATOM      9  C   UNL     1      -8.872  31.979  27.987  1.00  0.00     0.039 C 
ATOM     10  G   UNL     1      -9.530  32.157  25.469  1.00  0.00     0.000 G0
ENDBRANCH   6   7
ENDBRANCH   5   6
ENDBRANCH   3   5
ENDBRANCH   1   3
BRANCH   1  11
ATOM     11  C   UNL     1      -9.079  31.885  22.591  1.00  0.00     0.087 C 
BRANCH  11  12
ATOM     12  C   UNL     1      -8.214  32.942  23.328  1.00  0.00     0.066 C 
BRANCH  12  13
ATOM     13  C   UNL     1      -8.767  33.239  24.714  1.00  0.00     0.140 C 
ATOM     14  O   UNL     1      -8.552  34.317  25.249  1.00  0.00    -0.299 OA
BRANCH  13  15
ATOM     15  C   UNL     1      -9.535  32.176  25.463  1.00  0.00     0.106 CG0
ATOM     16  G   UNL     1      -8.732  31.487  26.558  1.00  0.00     0.000 G0
ENDBRANCH  13  15
ENDBRANCH  12  13
BRANCH  12  17
ATOM     17  C   UNL     1      -7.991  34.250  22.498  1.00  0.00    -0.006 C 
ATOM     18  C   UNL     1      -6.763  35.030  22.993  1.00  0.00     0.008 C 
ATOM     19  C   UNL     1      -7.877  34.012  20.980  1.00  0.00     0.008 C 
ENDBRANCH  12  17
ENDBRANCH  11  12
ENDBRANCH   1  11
TORSDOF 1
ENDMDL
MODEL 6
REMARK VINA RESULT:    -4.404      1.674      3.695
REMARK INTER + INTRA:          -6.796
REMARK INTER:                  -7.021
REMARK INTRA:                   0.225
REMARK UNBOUND:                -0.075
REMARK SMILES CC1=CCC[C@H](C)C(=O)C[C@@H](C(C)C)C(=O)C1
REMARK SMILES IDX 8 1 9 2 6 3 7 4 5 5 4 6 3 7 2 8 1 9 10 11 11 12 15 13 16 14
REMARK SMILES IDX 17 15 12 17 13 18 14 19
REMARK H PARENT
REMARK Flexibility Score: 70.00
ROOT
ATOM      1  C   UNL     1      -9.159  29.987  25.823  1.00  0.00     0.136 C 
ATOM      2  O   UNL     1      -8.460  28.983  25.795  1.00  0.00    -0.299 OA
ENDROOT
BRANCH   1   3
ATOM      3  C   UNL     1      -9.745  30.452  27.144  1.00  0.00     0.053 C 
ATOM      4  C   UNL     1      -8.969  29.841  28.318  1.00  0.00     0.016 C 
BRANCH   3   5
ATOM      5  C   UNL     1      -9.744  31.995  27.224  1.00  0.00     0.015 C 
BRANCH   5   6
ATOM      6  C   UNL     1      -8.312  32.562  27.263  1.00  0.00     0.028 C 
BRANCH   6   7
ATOM      7  C   UNL     1      -8.228  33.998  26.810  1.00  0.00    -0.028 C 
ATOM      8  C   UNL     1      -8.708  34.482  25.637  1.00  0.00    -0.070 CG0
ATOM      9  C   UNL     1      -8.617  35.970  25.405  1.00  0.00     0.039 C 
ATOM     10  G   UNL     1      -9.284  33.604  24.534  1.00  0.00     0.000 G0
ENDBRANCH   6   7
ENDBRANCH   5   6
ENDBRANCH   3   5
ENDBRANCH   1   3
BRANCH   1  11
ATOM     11  C   UNL     1      -9.431  30.728  24.533  1.00  0.00     0.087 C 
BRANCH  11  12
ATOM     12  C   UNL     1      -8.140  31.328  23.916  1.00  0.00     0.066 C 
BRANCH  12  13
ATOM     13  C   UNL     1      -8.256  32.837  23.750  1.00  0.00     0.140 C 
ATOM     14  O   UNL     1      -7.476  33.442  23.028  1.00  0.00    -0.299 OA
BRANCH  13  15
ATOM     15  C   UNL     1      -9.302  33.601  24.525  1.00  0.00     0.106 CG0
ATOM     16  G   UNL     1      -8.733  34.478  25.632  1.00  0.00     0.000 G0
ENDBRANCH  13  15
ENDBRANCH  12  13
BRANCH  12  17
ATOM     17  C   UNL     1      -7.702  30.628  22.587  1.00  0.00    -0.006 C 
ATOM     18  C   UNL     1      -6.657  29.530  22.844  1.00  0.00     0.008 C 
ATOM     19  C   UNL     1      -8.874  30.048  21.774  1.00  0.00     0.008 C 
ENDBRANCH  12  17
ENDBRANCH  11  12
ENDBRANCH   1  11
TORSDOF 1
ENDMDL
MODEL 7
REMARK VINA RESULT:    -4.317      2.301      5.261
REMARK INTER + INTRA:          -6.664
REMARK INTER:                  -7.239
REMARK INTRA:                   0.575
REMARK UNBOUND:                -0.075
REMARK SMILES CC1=CCC[C@H](C)C(=O)C[C@@H](C(C)C)C(=O)C1
REMARK SMILES IDX 8 1 9 2 6 3 7 4 5 5 4 6 3 7 2 8 1 9 10 11 11 12 15 13 16 14
REMARK SMILES IDX 17 15 12 17 13 18 14 19
REMARK H PARENT
REMARK Flexibility Score: 70.00
ROOT
ATOM      1  C   UNL     1      -8.911  30.597  24.775  1.00  0.00     0.136 C 
ATOM      2  O   UNL     1     -10.074  30.575  25.155  1.00  0.00    -0.299 OA
ENDROOT
BRANCH   1   3
ATOM      3  C   UNL     1      -8.311  29.357  24.137  1.00  0.00     0.053 C 
ATOM      4  C   UNL     1      -9.384  28.273  23.961  1.00  0.00     0.016 C 
BRANCH   3   5
ATOM      5  C   UNL     1      -7.654  29.708  22.784  1.00  0.00     0.015 C 
BRANCH   5   6
ATOM      6  C   UNL     1      -8.661  30.355  21.812  1.00  0.00     0.028 C 
BRANCH   6   7
ATOM      7  C   UNL     1      -8.021  31.327  20.853  1.00  0.00    -0.028 C 
ATOM      8  C   UNL     1      -8.105  32.679  20.930  1.00  0.00    -0.070 CG0
ATOM      9  C   UNL     1      -7.313  33.486  19.931  1.00  0.00     0.039 C 
ATOM     10  G   UNL     1      -8.985  33.414  21.932  1.00  0.00     0.000 G0
ENDBRANCH   6   7
ENDBRANCH   5   6
ENDBRANCH   3   5
ENDBRANCH   1   3
BRANCH   1  11
ATOM     11  C   UNL     1      -8.100  31.858  24.967  1.00  0.00     0.087 C 
BRANCH  11  12
ATOM     12  C   UNL     1      -8.877  33.129  24.532  1.00  0.00     0.066 C 
BRANCH  12  13
ATOM     13  C   UNL     1      -8.302  33.715  23.250  1.00  0.00     0.140 C 
ATOM     14  O   UNL     1      -7.318  34.440  23.287  1.00  0.00    -0.299 OA
BRANCH  13  15
ATOM     15  C   UNL     1      -8.983  33.450  21.929  1.00  0.00     0.106 CG0
ATOM     16  G   UNL     1      -8.126  32.679  20.934  1.00  0.00     0.000 G0
ENDBRANCH  13  15
ENDBRANCH  12  13
BRANCH  12  17
ATOM     17  C   UNL     1      -8.995  34.204  25.662  1.00  0.00    -0.006 C 
ATOM     18  C   UNL     1      -8.067  33.884  26.845  1.00  0.00     0.008 C 
ATOM     19  C   UNL     1      -8.742  35.645  25.179  1.00  0.00     0.008 C 
ENDBRANCH  12  17
ENDBRANCH  11  12
ENDBRANCH   1  11
TORSDOF 1
ENDMDL
MODEL 8
REMARK VINA RESULT:    -4.288      1.865      2.477
REMARK INTER + INTRA:          -6.620
REMARK INTER:                  -7.249
REMARK INTRA:                   0.629
REMARK UNBOUND:                -0.075
REMARK SMILES CC1=CCC[C@H](C)C(=O)C[C@@H](C(C)C)C(=O)C1
REMARK SMILES IDX 8 1 9 2 6 3 7 4 5 5 4 6 3 7 2 8 1 9 10 11 11 12 15 13 16 14
REMARK SMILES IDX 17 15 12 17 13 18 14 19
REMARK H PARENT
REMARK Flexibility Score: 70.00
ROOT
ATOM      1  C   UNL     1      -9.232  32.327  21.239  1.00  0.00     0.136 C 
ATOM      2  O   UNL     1      -9.660  31.828  20.208  1.00  0.00    -0.299 OA
ENDROOT
BRANCH   1   3
ATOM      3  C   UNL     1      -7.875  33.006  21.232  1.00  0.00     0.053 C 
ATOM      4  C   UNL     1      -7.148  32.736  19.908  1.00  0.00     0.016 C 
BRANCH   3   5
ATOM      5  C   UNL     1      -8.027  34.524  21.479  1.00  0.00     0.015 C 
BRANCH   5   6
ATOM      6  C   UNL     1      -7.161  34.997  22.664  1.00  0.00     0.028 C 
BRANCH   6   7
ATOM      7  C   UNL     1      -7.960  35.266  23.915  1.00  0.00    -0.028 C 
ATOM      8  C   UNL     1      -8.229  34.359  24.886  1.00  0.00    -0.070 CG0
ATOM      9  C   UNL     1      -8.961  34.844  26.112  1.00  0.00     0.039 C 
ATOM     10  G   UNL     1      -7.876  32.881  24.782  1.00  0.00     0.000 G0
ENDBRANCH   6   7
ENDBRANCH   5   6
ENDBRANCH   3   5
ENDBRANCH   1   3
BRANCH   1  11
ATOM     11  C   UNL     1     -10.065  32.237  22.498  1.00  0.00     0.087 C 
BRANCH  11  12
ATOM     12  C   UNL     1      -9.480  31.227  23.521  1.00  0.00     0.066 C 
BRANCH  12  13
ATOM     13  C   UNL     1      -9.057  31.925  24.806  1.00  0.00     0.140 C 
ATOM     14  O   UNL     1      -9.698  31.769  25.835  1.00  0.00    -0.299 OA
BRANCH  13  15
ATOM     15  C   UNL     1      -7.873  32.862  24.800  1.00  0.00     0.106 CG0
ATOM     16  G   UNL     1      -8.250  34.335  24.895  1.00  0.00     0.000 G0
ENDBRANCH  13  15
ENDBRANCH  12  13
BRANCH  12  17
ATOM     17  C   UNL     1      -8.332  30.342  22.933  1.00  0.00    -0.006 C 
ATOM     18  C   UNL     1      -7.432  29.774  24.043  1.00  0.00     0.008 C 
ATOM     19  C   UNL     1      -8.828  29.197  22.031  1.00  0.00     0.008 C 
ENDBRANCH  12  17
ENDBRANCH  11  12
ENDBRANCH   1  11
TORSDOF 1
ENDMDL
MODEL 9
REMARK VINA RESULT:    -3.976      1.968      5.177
REMARK INTER + INTRA:          -6.144
REMARK INTER:                  -6.132
REMARK INTRA:                  -0.012
REMARK UNBOUND:                -0.075
REMARK SMILES CC1=CCC[C@H](C)C(=O)C[C@@H](C(C)C)C(=O)C1
REMARK SMILES IDX 8 1 9 2 6 3 7 4 5 5 4 6 3 7 2 8 1 9 10 11 11 12 15 13 16 14
REMARK SMILES IDX 17 15 12 17 13 18 14 19
REMARK H PARENT
REMARK Flexibility Score: 70.00
ROOT
ATOM      1  C   UNL     1      -8.402  32.338  26.819  1.00  0.00     0.136 C 
ATOM      2  O   UNL     1      -8.582  33.241  27.625  1.00  0.00    -0.299 OA
ENDROOT
BRANCH   1   3
ATOM      3  C   UNL     1      -8.643  30.900  27.242  1.00  0.00     0.053 C 
ATOM      4  C   UNL     1     -10.094  30.492  26.949  1.00  0.00     0.016 C 
BRANCH   3   5
ATOM      5  C   UNL     1      -7.649  29.953  26.535  1.00  0.00     0.015 C 
BRANCH   5   6
ATOM      6  C   UNL     1      -8.335  29.134  25.424  1.00  0.00     0.028 C 
BRANCH   6   7
ATOM      7  C   UNL     1      -7.796  29.430  24.047  1.00  0.00    -0.028 C 
ATOM      8  C   UNL     1      -8.292  30.358  23.192  1.00  0.00    -0.070 CG0
ATOM      9  C   UNL     1      -7.554  30.578  21.894  1.00  0.00     0.039 C 
ATOM     10  G   UNL     1      -9.568  31.148  23.450  1.00  0.00     0.000 G0
ENDBRANCH   6   7
ENDBRANCH   5   6
ENDBRANCH   3   5
ENDBRANCH   1   3
BRANCH   1  11
ATOM     11  C   UNL     1      -7.929  32.683  25.425  1.00  0.00     0.087 C 
BRANCH  11  12
ATOM     12  C   UNL     1      -9.010  33.440  24.608  1.00  0.00     0.066 C 
BRANCH  12  13
ATOM     13  C   UNL     1      -9.416  32.655  23.369  1.00  0.00     0.140 C 
ATOM     14  O   UNL     1      -9.660  33.234  22.320  1.00  0.00    -0.299 OA
BRANCH  13  15
ATOM     15  C   UNL     1      -9.578  31.156  23.447  1.00  0.00     0.106 CG0
ATOM     16  G   UNL     1      -8.291  30.381  23.202  1.00  0.00     0.000 G0
ENDBRANCH  13  15
ENDBRANCH  12  13
BRANCH  12  17
ATOM     17  C   UNL     1      -8.608  34.911  24.259  1.00  0.00    -0.006 C 
ATOM     18  C   UNL     1      -8.921  35.872  25.417  1.00  0.00     0.008 C 
ATOM     19  C   UNL     1      -7.136  35.071  23.835  1.00  0.00     0.008 C 
ENDBRANCH  12  17
ENDBRANCH  11  12
ENDBRANCH   1  11
TORSDOF 1
ENDMDL
