MODEL 1
REMARK VINA RESULT:    -2.750      0.000      0.000
REMARK INTER + INTRA:          -4.437
REMARK INTER:                  -4.197
REMARK INTRA:                  -0.240
REMARK UNBOUND:                -0.240
REMARK SMILES CC1=CCC[C@@H](C)C(=O)C[C@H](C(C)C)C(=O)C1
REMARK SMILES IDX 8 1 9 2 6 3 7 4 5 5 4 6 3 7 2 8 1 9 10 11 11 12 15 13 16 14
REMARK SMILES IDX 17 15 12 17 13 18 14 19
REMARK H PARENT
REMARK Flexibility Score: 70.00
ROOT
ATOM      1  C   UNL     1     184.431 190.046 226.764  1.00  0.00     0.136 C 
ATOM      2  O   UNL     1     185.589 190.200 227.122  1.00  0.00    -0.299 OA
ENDROOT
BRANCH   1   3
ATOM      3  C   UNL     1     183.574 189.027 227.504  1.00  0.00     0.053 C 
ATOM      4  C   UNL     1     184.133 187.599 227.417  1.00  0.00     0.016 C 
BRANCH   3   5
ATOM      5  C   UNL     1     182.072 189.131 227.145  1.00  0.00     0.015 C 
BRANCH   5   6
ATOM      6  C   UNL     1     181.551 188.082 226.140  1.00  0.00     0.028 C 
BRANCH   6   7
ATOM      7  C   UNL     1     180.398 188.629 225.336  1.00  0.00    -0.028 C 
ATOM      8  C   UNL     1     180.505 189.109 224.073  1.00  0.00    -0.070 CG0
ATOM      9  C   UNL     1     179.280 189.662 223.389  1.00  0.00     0.039 C 
ATOM     10  G   UNL     1     181.795 189.052 223.270  1.00  0.00     0.000 G0
ENDBRANCH   6   7
ENDBRANCH   5   6
ENDBRANCH   3   5
ENDBRANCH   1   3
BRANCH   1  11
ATOM     11  C   UNL     1     183.923 190.858 225.590  1.00  0.00     0.087 C 
BRANCH  11  12
ATOM     12  C   UNL     1     184.001 190.123 224.223  1.00  0.00     0.066 C 
BRANCH  12  13
ATOM     13  C   UNL     1     182.689 190.269 223.467  1.00  0.00     0.140 C 
ATOM     14  O   UNL     1     182.381 191.352 222.986  1.00  0.00    -0.299 OA
BRANCH  13  15
ATOM     15  C   UNL     1     181.794 189.075 223.243  1.00  0.00     0.106 CG0
ATOM     16  G   UNL     1     180.531 189.126 224.089  1.00  0.00     0.000 G0
ENDBRANCH  13  15
ENDBRANCH  12  13
BRANCH  12  17
ATOM     17  C   UNL     1     185.226 190.520 223.333  1.00  0.00    -0.006 C 
ATOM     18  C   UNL     1     185.654 191.985 223.531  1.00  0.00     0.008 C 
ATOM     19  C   UNL     1     186.433 189.609 223.628  1.00  0.00     0.008 C 
ENDBRANCH  12  17
ENDBRANCH  11  12
ENDBRANCH   1  11
TORSDOF 1
ENDMDL
MODEL 2
REMARK VINA RESULT:    -2.592      8.258     10.049
REMARK INTER + INTRA:          -4.195
REMARK INTER:                  -3.999
REMARK INTRA:                  -0.197
REMARK UNBOUND:                -0.240
REMARK SMILES CC1=CCC[C@@H](C)C(=O)C[C@H](C(C)C)C(=O)C1
REMARK SMILES IDX 8 1 9 2 6 3 7 4 5 5 4 6 3 7 2 8 1 9 10 11 11 12 15 13 16 14
REMARK SMILES IDX 17 15 12 17 13 18 14 19
REMARK H PARENT
REMARK Flexibility Score: 70.00
ROOT
ATOM      1  C   UNL     1     188.536 181.183 226.866  1.00  0.00     0.136 C 
ATOM      2  O   UNL     1     187.610 180.544 227.344  1.00  0.00    -0.299 OA
ENDROOT
BRANCH   1   3
ATOM      3  C   UNL     1     189.412 182.000 227.805  1.00  0.00     0.053 C 
ATOM      4  C   UNL     1     190.009 181.164 228.946  1.00  0.00     0.016 C 
BRANCH   3   5
ATOM      5  C   UNL     1     188.729 183.306 228.281  1.00  0.00     0.015 C 
BRANCH   5   6
ATOM      6  C   UNL     1     188.908 184.529 227.358  1.00  0.00     0.028 C 
BRANCH   6   7
ATOM      7  C   UNL     1     190.348 184.685 226.939  1.00  0.00    -0.028 C 
ATOM      8  C   UNL     1     190.780 184.661 225.654  1.00  0.00    -0.070 CG0
ATOM      9  C   UNL     1     192.254 184.793 225.369  1.00  0.00     0.039 C 
ATOM     10  G   UNL     1     189.836 184.584 224.464  1.00  0.00     0.000 G0
ENDBRANCH   6   7
ENDBRANCH   5   6
ENDBRANCH   3   5
ENDBRANCH   1   3
BRANCH   1  11
ATOM     11  C   UNL     1     188.741 181.145 225.366  1.00  0.00     0.087 C 
BRANCH  11  12
ATOM     12  C   UNL     1     188.323 182.448 224.629  1.00  0.00     0.066 C 
BRANCH  12  13
ATOM     13  C   UNL     1     189.545 183.151 224.059  1.00  0.00     0.140 C 
ATOM     14  O   UNL     1     190.245 182.581 223.232  1.00  0.00    -0.299 OA
BRANCH  13  15
ATOM     15  C   UNL     1     189.866 184.572 224.449  1.00  0.00     0.106 CG0
ATOM     16  G   UNL     1     190.796 184.652 225.650  1.00  0.00     0.000 G0
ENDBRANCH  13  15
ENDBRANCH  12  13
BRANCH  12  17
ATOM     17  C   UNL     1     187.208 182.261 223.546  1.00  0.00    -0.006 C 
ATOM     18  C   UNL     1     186.824 180.785 223.336  1.00  0.00     0.008 C 
ATOM     19  C   UNL     1     185.941 183.052 223.924  1.00  0.00     0.008 C 
ENDBRANCH  12  17
ENDBRANCH  11  12
ENDBRANCH   1  11
TORSDOF 1
ENDMDL
MODEL 3
REMARK VINA RESULT:    -2.497     14.539     15.838
REMARK INTER + INTRA:          -4.051
REMARK INTER:                  -3.738
REMARK INTRA:                  -0.313
REMARK UNBOUND:                -0.240
REMARK SMILES CC1=CCC[C@@H](C)C(=O)C[C@H](C(C)C)C(=O)C1
REMARK SMILES IDX 8 1 9 2 6 3 7 4 5 5 4 6 3 7 2 8 1 9 10 11 11 12 15 13 16 14
REMARK SMILES IDX 17 15 12 17 13 18 14 19
REMARK H PARENT
REMARK Flexibility Score: 70.00
ROOT
ATOM      1  C   UNL     1     177.167 179.198 235.528  1.00  0.00     0.136 C 
ATOM      2  O   UNL     1     176.518 178.435 234.828  1.00  0.00    -0.299 OA
ENDROOT
BRANCH   1   3
ATOM      3  C   UNL     1     176.643 180.612 235.736  1.00  0.00     0.053 C 
ATOM      4  C   UNL     1     176.688 181.462 234.458  1.00  0.00     0.016 C 
BRANCH   3   5
ATOM      5  C   UNL     1     177.267 181.309 236.970  1.00  0.00     0.015 C 
BRANCH   5   6
ATOM      6  C   UNL     1     178.328 182.387 236.662  1.00  0.00     0.028 C 
BRANCH   6   7
ATOM      7  C   UNL     1     179.382 182.432 237.739  1.00  0.00    -0.028 C 
ATOM      8  C   UNL     1     180.600 181.844 237.643  1.00  0.00    -0.070 CG0
ATOM      9  C   UNL     1     181.554 181.931 238.807  1.00  0.00     0.039 C 
ATOM     10  G   UNL     1     181.092 181.155 236.380  1.00  0.00     0.000 G0
ENDBRANCH   6   7
ENDBRANCH   5   6
ENDBRANCH   3   5
ENDBRANCH   1   3
BRANCH   1  11
ATOM     11  C   UNL     1     178.467 178.700 236.125  1.00  0.00     0.087 C 
BRANCH  11  12
ATOM     12  C   UNL     1     179.740 179.159 235.359  1.00  0.00     0.066 C 
BRANCH  12  13
ATOM     13  C   UNL     1     180.786 179.681 236.333  1.00  0.00     0.140 C 
ATOM     14  O   UNL     1     181.404 178.896 237.041  1.00  0.00    -0.299 OA
BRANCH  13  15
ATOM     15  C   UNL     1     181.120 181.151 236.385  1.00  0.00     0.106 CG0
ATOM     16  G   UNL     1     180.608 181.821 237.650  1.00  0.00     0.000 G0
ENDBRANCH  13  15
ENDBRANCH  12  13
BRANCH  12  17
ATOM     17  C   UNL     1     180.341 178.090 234.386  1.00  0.00    -0.006 C 
ATOM     18  C   UNL     1     179.896 176.657 234.728  1.00  0.00     0.008 C 
ATOM     19  C   UNL     1     179.945 178.395 232.928  1.00  0.00     0.008 C 
ENDBRANCH  12  17
ENDBRANCH  11  12
ENDBRANCH   1  11
TORSDOF 1
ENDMDL
MODEL 4
REMARK VINA RESULT:    -2.476      7.021      9.120
REMARK INTER + INTRA:          -4.019
REMARK INTER:                  -3.960
REMARK INTRA:                  -0.059
REMARK UNBOUND:                -0.240
REMARK SMILES CC1=CCC[C@@H](C)C(=O)C[C@H](C(C)C)C(=O)C1
REMARK SMILES IDX 8 1 9 2 6 3 7 4 5 5 4 6 3 7 2 8 1 9 10 11 11 12 15 13 16 14
REMARK SMILES IDX 17 15 12 17 13 18 14 19
REMARK H PARENT
REMARK Flexibility Score: 70.00
ROOT
ATOM      1  C   UNL     1     186.025 183.305 224.221  1.00  0.00     0.136 C 
ATOM      2  O   UNL     1     186.484 184.207 223.537  1.00  0.00    -0.299 OA
ENDROOT
BRANCH   1   3
ATOM      3  C   UNL     1     184.607 183.452 224.756  1.00  0.00     0.053 C 
ATOM      4  C   UNL     1     184.003 184.837 224.480  1.00  0.00     0.016 C 
BRANCH   3   5
ATOM      5  C   UNL     1     184.469 182.994 226.228  1.00  0.00     0.015 C 
BRANCH   5   6
ATOM      6  C   UNL     1     185.166 183.890 227.275  1.00  0.00     0.028 C 
BRANCH   6   7
ATOM      7  C   UNL     1     185.596 183.086 228.475  1.00  0.00    -0.028 C 
ATOM      8  C   UNL     1     186.860 182.648 228.692  1.00  0.00    -0.070 CG0
ATOM      9  C   UNL     1     187.154 181.820 229.916  1.00  0.00     0.039 C 
ATOM     10  G   UNL     1     188.030 183.015 227.792  1.00  0.00     0.000 G0
ENDBRANCH   6   7
ENDBRANCH   5   6
ENDBRANCH   3   5
ENDBRANCH   1   3
BRANCH   1  11
ATOM     11  C   UNL     1     186.903 182.107 224.519  1.00  0.00     0.087 C 
BRANCH  11  12
ATOM     12  C   UNL     1     188.246 182.456 225.219  1.00  0.00     0.066 C 
BRANCH  12  13
ATOM     13  C   UNL     1     188.225 181.994 226.668  1.00  0.00     0.140 C 
ATOM     14  O   UNL     1     188.414 180.814 226.934  1.00  0.00    -0.299 OA
BRANCH  13  15
ATOM     15  C   UNL     1     188.043 182.987 227.789  1.00  0.00     0.106 CG0
ATOM     16  G   UNL     1     186.855 182.654 228.677  1.00  0.00     0.000 G0
ENDBRANCH  13  15
ENDBRANCH  12  13
BRANCH  12  17
ATOM     17  C   UNL     1     189.525 181.951 224.472  1.00  0.00    -0.006 C 
ATOM     18  C   UNL     1     189.321 181.840 222.951  1.00  0.00     0.008 C 
ATOM     19  C   UNL     1     190.720 182.886 224.743  1.00  0.00     0.008 C 
ENDBRANCH  12  17
ENDBRANCH  11  12
ENDBRANCH   1  11
TORSDOF 1
ENDMDL
MODEL 5
REMARK VINA RESULT:    -2.469     13.756     16.069
REMARK INTER + INTRA:          -4.008
REMARK INTER:                  -3.820
REMARK INTRA:                  -0.188
REMARK UNBOUND:                -0.240
REMARK SMILES CC1=CCC[C@@H](C)C(=O)C[C@H](C(C)C)C(=O)C1
REMARK SMILES IDX 8 1 9 2 6 3 7 4 5 5 4 6 3 7 2 8 1 9 10 11 11 12 15 13 16 14
REMARK SMILES IDX 17 15 12 17 13 18 14 19
REMARK H PARENT
REMARK Flexibility Score: 70.00
ROOT
ATOM      1  C   UNL     1     193.298 192.812 236.499  1.00  0.00     0.136 C 
ATOM      2  O   UNL     1     193.186 193.067 235.309  1.00  0.00    -0.299 OA
ENDROOT
BRANCH   1   3
ATOM      3  C   UNL     1     194.647 192.327 237.013  1.00  0.00     0.053 C 
ATOM      4  C   UNL     1     195.774 193.347 236.790  1.00  0.00     0.016 C 
BRANCH   3   5
ATOM      5  C   UNL     1     194.995 190.898 236.530  1.00  0.00     0.015 C 
BRANCH   5   6
ATOM      6  C   UNL     1     193.869 189.852 236.669  1.00  0.00     0.028 C 
BRANCH   6   7
ATOM      7  C   UNL     1     193.520 189.621 238.117  1.00  0.00    -0.028 C 
ATOM      8  C   UNL     1     192.258 189.635 238.613  1.00  0.00    -0.070 CG0
ATOM      9  C   UNL     1     192.045 189.424 240.090  1.00  0.00     0.039 C 
ATOM     10  G   UNL     1     191.024 189.777 237.736  1.00  0.00     0.000 G0
ENDBRANCH   6   7
ENDBRANCH   5   6
ENDBRANCH   3   5
ENDBRANCH   1   3
BRANCH   1  11
ATOM     11  C   UNL     1     192.081 192.969 237.388  1.00  0.00     0.087 C 
BRANCH  11  12
ATOM     12  C   UNL     1     190.807 192.253 236.860  1.00  0.00     0.066 C 
BRANCH  12  13
ATOM     13  C   UNL     1     190.384 191.148 237.817  1.00  0.00     0.140 C 
ATOM     14  O   UNL     1     189.496 191.356 238.634  1.00  0.00    -0.299 OA
BRANCH  13  15
ATOM     15  C   UNL     1     191.000 189.774 237.724  1.00  0.00     0.106 CG0
ATOM     16  G   UNL     1     192.239 189.630 238.594  1.00  0.00     0.000 G0
ENDBRANCH  13  15
ENDBRANCH  12  13
BRANCH  12  17
ATOM     17  C   UNL     1     189.613 193.206 236.518  1.00  0.00    -0.006 C 
ATOM     18  C   UNL     1     190.066 194.650 236.237  1.00  0.00     0.008 C 
ATOM     19  C   UNL     1     188.833 192.687 235.294  1.00  0.00     0.008 C 
ENDBRANCH  12  17
ENDBRANCH  11  12
ENDBRANCH   1  11
TORSDOF 1
ENDMDL
MODEL 6
REMARK VINA RESULT:    -2.409      2.130      2.896
REMARK INTER + INTRA:          -3.916
REMARK INTER:                  -3.544
REMARK INTRA:                  -0.372
REMARK UNBOUND:                -0.240
REMARK SMILES CC1=CCC[C@@H](C)C(=O)C[C@H](C(C)C)C(=O)C1
REMARK SMILES IDX 8 1 9 2 6 3 7 4 5 5 4 6 3 7 2 8 1 9 10 11 11 12 15 13 16 14
REMARK SMILES IDX 17 15 12 17 13 18 14 19
REMARK H PARENT
REMARK Flexibility Score: 70.00
ROOT
ATOM      1  C   UNL     1     182.244 188.117 226.692  1.00  0.00     0.136 C 
ATOM      2  O   UNL     1     183.282 188.488 227.218  1.00  0.00    -0.299 OA
ENDROOT
BRANCH   1   3
ATOM      3  C   UNL     1     181.755 186.703 226.974  1.00  0.00     0.053 C 
ATOM      4  C   UNL     1     182.328 185.665 225.996  1.00  0.00     0.016 C 
BRANCH   3   5
ATOM      5  C   UNL     1     180.218 186.620 227.140  1.00  0.00     0.015 C 
BRANCH   5   6
ATOM      6  C   UNL     1     179.451 185.989 225.959  1.00  0.00     0.028 C 
BRANCH   6   7
ATOM      7  C   UNL     1     178.245 186.817 225.594  1.00  0.00    -0.028 C 
ATOM      8  C   UNL     1     178.166 187.618 224.504  1.00  0.00    -0.070 CG0
ATOM      9  C   UNL     1     176.914 188.423 224.269  1.00  0.00     0.039 C 
ATOM     10  G   UNL     1     179.260 187.693 223.449  1.00  0.00     0.000 G0
ENDBRANCH   6   7
ENDBRANCH   5   6
ENDBRANCH   3   5
ENDBRANCH   1   3
BRANCH   1  11
ATOM     11  C   UNL     1     181.519 189.075 225.770  1.00  0.00     0.087 C 
BRANCH  11  12
ATOM     12  C   UNL     1     181.556 188.672 224.270  1.00  0.00     0.066 C 
BRANCH  12  13
ATOM     13  C   UNL     1     180.189 188.869 223.633  1.00  0.00     0.140 C 
ATOM     14  O   UNL     1     179.862 189.975 223.222  1.00  0.00    -0.299 OA
BRANCH  13  15
ATOM     15  C   UNL     1     179.257 187.699 223.437  1.00  0.00     0.106 CG0
ATOM     16  G   UNL     1     178.168 187.637 224.497  1.00  0.00     0.000 G0
ENDBRANCH  13  15
ENDBRANCH  12  13
BRANCH  12  17
ATOM     17  C   UNL     1     182.686 189.362 223.433  1.00  0.00    -0.006 C 
ATOM     18  C   UNL     1     183.169 190.681 224.060  1.00  0.00     0.008 C 
ATOM     19  C   UNL     1     183.896 188.421 223.271  1.00  0.00     0.008 C 
ENDBRANCH  12  17
ENDBRANCH  11  12
ENDBRANCH   1  11
TORSDOF 1
ENDMDL
MODEL 7
REMARK VINA RESULT:    -2.305     13.506     15.610
REMARK INTER + INTRA:          -3.758
REMARK INTER:                  -3.584
REMARK INTRA:                  -0.173
REMARK UNBOUND:                -0.240
REMARK SMILES CC1=CCC[C@@H](C)C(=O)C[C@H](C(C)C)C(=O)C1
REMARK SMILES IDX 8 1 9 2 6 3 7 4 5 5 4 6 3 7 2 8 1 9 10 11 11 12 15 13 16 14
REMARK SMILES IDX 17 15 12 17 13 18 14 19
REMARK H PARENT
REMARK Flexibility Score: 70.00
ROOT
ATOM      1  C   UNL     1     179.586 182.411 237.581  1.00  0.00     0.136 C 
ATOM      2  O   UNL     1     178.940 183.386 237.937  1.00  0.00    -0.299 OA
ENDROOT
BRANCH   1   3
ATOM      3  C   UNL     1     181.024 182.621 237.127  1.00  0.00     0.053 C 
ATOM      4  C   UNL     1     181.130 183.461 235.845  1.00  0.00     0.016 C 
BRANCH   3   5
ATOM      5  C   UNL     1     181.838 181.306 237.080  1.00  0.00     0.015 C 
BRANCH   5   6
ATOM      6  C   UNL     1     182.179 180.781 235.669  1.00  0.00     0.028 C 
BRANCH   6   7
ATOM      7  C   UNL     1     182.279 179.277 235.661  1.00  0.00    -0.028 C 
ATOM      8  C   UNL     1     181.264 178.443 235.325  1.00  0.00    -0.070 CG0
ATOM      9  C   UNL     1     181.482 176.953 235.392  1.00  0.00     0.039 C 
ATOM     10  G   UNL     1     179.923 178.937 234.805  1.00  0.00     0.000 G0
ENDBRANCH   6   7
ENDBRANCH   5   6
ENDBRANCH   3   5
ENDBRANCH   1   3
BRANCH   1  11
ATOM     11  C   UNL     1     178.909 181.056 237.587  1.00  0.00     0.087 C 
BRANCH  11  12
ATOM     12  C   UNL     1     178.421 180.578 236.190  1.00  0.00     0.066 C 
BRANCH  12  13
ATOM     13  C   UNL     1     178.925 179.171 235.905  1.00  0.00     0.140 C 
ATOM     14  O   UNL     1     178.472 178.223 236.533  1.00  0.00    -0.299 OA
BRANCH  13  15
ATOM     15  C   UNL     1     179.928 178.922 234.806  1.00  0.00     0.106 CG0
ATOM     16  G   UNL     1     181.267 178.436 235.338  1.00  0.00     0.000 G0
ENDBRANCH  13  15
ENDBRANCH  12  13
BRANCH  12  17
ATOM     17  C   UNL     1     176.878 180.695 235.960  1.00  0.00    -0.006 C 
ATOM     18  C   UNL     1     176.088 180.831 237.273  1.00  0.00     0.008 C 
ATOM     19  C   UNL     1     176.550 181.902 235.059  1.00  0.00     0.008 C 
ENDBRANCH  12  17
ENDBRANCH  11  12
ENDBRANCH   1  11
TORSDOF 1
ENDMDL
MODEL 8
REMARK VINA RESULT:    -2.285      9.023     10.605
REMARK INTER + INTRA:          -3.727
REMARK INTER:                  -3.607
REMARK INTRA:                  -0.120
REMARK UNBOUND:                -0.240
REMARK SMILES CC1=CCC[C@@H](C)C(=O)C[C@H](C(C)C)C(=O)C1
REMARK SMILES IDX 8 1 9 2 6 3 7 4 5 5 4 6 3 7 2 8 1 9 10 11 11 12 15 13 16 14
REMARK SMILES IDX 17 15 12 17 13 18 14 19
REMARK H PARENT
REMARK Flexibility Score: 70.00
ROOT
ATOM      1  C   UNL     1     189.351 184.396 226.925  1.00  0.00     0.136 C 
ATOM      2  O   UNL     1     188.565 184.825 227.757  1.00  0.00    -0.299 OA
ENDROOT
BRANCH   1   3
ATOM      3  C   UNL     1     190.842 184.540 227.195  1.00  0.00     0.053 C 
ATOM      4  C   UNL     1     191.712 184.062 226.023  1.00  0.00     0.016 C 
BRANCH   3   5
ATOM      5  C   UNL     1     191.265 183.955 228.564  1.00  0.00     0.015 C 
BRANCH   5   6
ATOM      6  C   UNL     1     191.302 182.414 228.650  1.00  0.00     0.028 C 
BRANCH   6   7
ATOM      7  C   UNL     1     190.151 181.890 229.471  1.00  0.00    -0.028 C 
ATOM      8  C   UNL     1     189.153 181.115 228.984  1.00  0.00    -0.070 CG0
ATOM      9  C   UNL     1     188.038 180.684 229.903  1.00  0.00     0.039 C 
ATOM     10  G   UNL     1     189.134 180.585 227.559  1.00  0.00     0.000 G0
ENDBRANCH   6   7
ENDBRANCH   5   6
ENDBRANCH   3   5
ENDBRANCH   1   3
BRANCH   1  11
ATOM     11  C   UNL     1     188.795 183.769 225.663  1.00  0.00     0.087 C 
BRANCH  11  12
ATOM     12  C   UNL     1     189.091 182.250 225.519  1.00  0.00     0.066 C 
BRANCH  12  13
ATOM     13  C   UNL     1     188.366 181.463 226.600  1.00  0.00     0.140 C 
ATOM     14  O   UNL     1     187.144 181.496 226.662  1.00  0.00    -0.299 OA
BRANCH  13  15
ATOM     15  C   UNL     1     189.134 180.583 227.556  1.00  0.00     0.106 CG0
ATOM     16  G   UNL     1     189.140 181.130 228.975  1.00  0.00     0.000 G0
ENDBRANCH  13  15
ENDBRANCH  12  13
BRANCH  12  17
ATOM     17  C   UNL     1     188.817 181.660 224.095  1.00  0.00    -0.006 C 
ATOM     18  C   UNL     1     187.663 182.373 223.368  1.00  0.00     0.008 C 
ATOM     19  C   UNL     1     190.081 181.744 223.217  1.00  0.00     0.008 C 
ENDBRANCH  12  17
ENDBRANCH  11  12
ENDBRANCH   1  11
TORSDOF 1
ENDMDL
MODEL 9
REMARK VINA RESULT:    -2.277      8.434     10.536
REMARK INTER + INTRA:          -3.714
REMARK INTER:                  -3.623
REMARK INTRA:                  -0.091
REMARK UNBOUND:                -0.240
REMARK SMILES CC1=CCC[C@@H](C)C(=O)C[C@H](C(C)C)C(=O)C1
REMARK SMILES IDX 8 1 9 2 6 3 7 4 5 5 4 6 3 7 2 8 1 9 10 11 11 12 15 13 16 14
REMARK SMILES IDX 17 15 12 17 13 18 14 19
REMARK H PARENT
REMARK Flexibility Score: 70.00
ROOT
ATOM      1  C   UNL     1     190.135 182.976 227.480  1.00  0.00     0.136 C 
ATOM      2  O   UNL     1     189.354 183.256 228.376  1.00  0.00    -0.299 OA
ENDROOT
BRANCH   1   3
ATOM      3  C   UNL     1     191.551 183.529 227.554  1.00  0.00     0.053 C 
ATOM      4  C   UNL     1     192.296 183.101 228.827  1.00  0.00     0.016 C 
BRANCH   3   5
ATOM      5  C   UNL     1     191.618 185.051 227.276  1.00  0.00     0.015 C 
BRANCH   5   6
ATOM      6  C   UNL     1     191.534 185.463 225.791  1.00  0.00     0.028 C 
BRANCH   6   7
ATOM      7  C   UNL     1     192.455 184.622 224.943  1.00  0.00    -0.028 C 
ATOM      8  C   UNL     1     192.054 183.876 223.885  1.00  0.00    -0.070 CG0
ATOM      9  C   UNL     1     193.070 183.050 223.139  1.00  0.00     0.039 C 
ATOM     10  G   UNL     1     190.629 183.887 223.355  1.00  0.00     0.000 G0
ENDBRANCH   6   7
ENDBRANCH   5   6
ENDBRANCH   3   5
ENDBRANCH   1   3
BRANCH   1  11
ATOM     11  C   UNL     1     189.641 182.115 226.335  1.00  0.00     0.087 C 
BRANCH  11  12
ATOM     12  C   UNL     1     188.988 182.912 225.171  1.00  0.00     0.066 C 
BRANCH  12  13
ATOM     13  C   UNL     1     189.794 182.740 223.892  1.00  0.00     0.140 C 
ATOM     14  O   UNL     1     189.729 181.688 223.269  1.00  0.00    -0.299 OA
BRANCH  13  15
ATOM     15  C   UNL     1     190.619 183.878 223.345  1.00  0.00     0.106 CG0
ATOM     16  G   UNL     1     192.046 183.869 223.871  1.00  0.00     0.000 G0
ENDBRANCH  13  15
ENDBRANCH  12  13
BRANCH  12  17
ATOM     17  C   UNL     1     187.470 182.610 224.940  1.00  0.00    -0.006 C 
ATOM     18  C   UNL     1     186.572 183.193 226.046  1.00  0.00     0.008 C 
ATOM     19  C   UNL     1     187.003 183.168 223.581  1.00  0.00     0.008 C 
ENDBRANCH  12  17
ENDBRANCH  11  12
ENDBRANCH   1  11
TORSDOF 1
ENDMDL
