MODEL 1
REMARK VINA RESULT:    -4.076      0.000      0.000
REMARK INTER + INTRA:         -13.121
REMARK INTER:                  -9.319
REMARK INTRA:                  -3.802
REMARK UNBOUND:                -3.802
REMARK SMILES CCCCCCCCCCCCCCCCCCCCCCCC(=O)[O-]
REMARK SMILES IDX 13 1 14 2 15 3 16 4 17 5 18 6 19 7 20 8 21 9 22 10 23 11
REMARK SMILES IDX 24 12 25 13 26 14 12 15 11 16 10 17 9 18 8 19 7 20 6 21 5 22
REMARK SMILES IDX 4 23 3 24 2 25 1 26
REMARK H PARENT
REMARK Flexibility Score: inf
ROOT
ATOM      1  C   UNL     1     -30.896 -49.729  24.746  1.00  0.00     0.000 C 
ENDROOT
BRANCH   1   2
ATOM      2  C   UNL     1     -31.501 -51.012  25.344  1.00  0.00     0.000 C 
BRANCH   2   3
ATOM      3  C   UNL     1     -32.976 -50.836  25.743  1.00  0.00     0.000 C 
BRANCH   3   4
ATOM      4  C   UNL     1     -33.921 -51.678  24.867  1.00  0.00     0.000 C 
BRANCH   4   5
ATOM      5  C   UNL     1     -34.987 -50.824  24.153  1.00  0.00     0.000 C 
BRANCH   5   6
ATOM      6  C   UNL     1     -34.490 -49.430  23.723  1.00  0.00     0.000 C 
BRANCH   6   7
ATOM      7  C   UNL     1     -35.507 -48.316  24.034  1.00  0.00     0.000 C 
BRANCH   7   8
ATOM      8  C   UNL     1     -34.852 -46.994  24.481  1.00  0.00     0.000 C 
BRANCH   8   9
ATOM      9  C   UNL     1     -33.479 -47.155  25.169  1.00  0.00     0.000 C 
BRANCH   9  10
ATOM     10  C   UNL     1     -32.339 -46.300  24.586  1.00  0.00     0.006 C 
BRANCH  10  11
ATOM     11  C   UNL     1     -32.194 -46.438  23.064  1.00  0.00     0.053 C 
BRANCH  11  12
ATOM     12  C   UNL     1     -30.922 -45.798  22.602  1.00  0.00     0.041 C 
ATOM     13  O   UNL     1     -29.909 -46.506  22.360  1.00  0.00    -0.550 OA
ATOM     14  O   UNL     1     -30.870 -44.427  22.389  1.00  0.00    -0.550 OA
ENDBRANCH  11  12
ENDBRANCH  10  11
ENDBRANCH   9  10
ENDBRANCH   8   9
ENDBRANCH   7   8
ENDBRANCH   6   7
ENDBRANCH   5   6
ENDBRANCH   4   5
ENDBRANCH   3   4
ENDBRANCH   2   3
ENDBRANCH   1   2
BRANCH   1  15
ATOM     15  C   UNL     1     -30.368 -49.938  23.318  1.00  0.00     0.000 C 
BRANCH  15  16
ATOM     16  C   UNL     1     -31.040 -51.134  22.617  1.00  0.00     0.000 C 
BRANCH  16  17
ATOM     17  C   UNL     1     -30.024 -52.113  22.005  1.00  0.00     0.000 C 
BRANCH  17  18
ATOM     18  C   UNL     1     -30.049 -53.494  22.684  1.00  0.00    -0.000 C 
BRANCH  18  19
ATOM     19  C   UNL     1     -28.710 -53.843  23.354  1.00  0.00    -0.000 C 
BRANCH  19  20
ATOM     20  C   UNL     1     -28.529 -53.139  24.712  1.00  0.00    -0.000 C 
BRANCH  20  21
ATOM     21  C   UNL     1     -27.234 -52.308  24.769  1.00  0.00    -0.000 C 
BRANCH  21  22
ATOM     22  C   UNL     1     -27.308 -51.118  25.753  1.00  0.00    -0.000 C 
BRANCH  22  23
ATOM     23  C   UNL     1     -27.185 -49.742  25.072  1.00  0.00    -0.000 C 
BRANCH  23  24
ATOM     24  C   UNL     1     -26.142 -49.675  23.944  1.00  0.00    -0.000 C 
BRANCH  24  25
ATOM     25  C   UNL     1     -25.552 -48.267  23.763  1.00  0.00    -0.003 C 
ATOM     26  C   UNL     1     -26.537 -47.198  24.230  1.00  0.00     0.004 C 
ENDBRANCH  24  25
ENDBRANCH  23  24
ENDBRANCH  22  23
ENDBRANCH  21  22
ENDBRANCH  20  21
ENDBRANCH  19  20
ENDBRANCH  18  19
ENDBRANCH  17  18
ENDBRANCH  16  17
ENDBRANCH  15  16
ENDBRANCH   1  15
TORSDOF 22
ENDMDL
MODEL 2
REMARK VINA RESULT:    -4.055      4.009      7.288
REMARK INTER + INTRA:         -13.073
REMARK INTER:                  -8.430
REMARK INTRA:                  -4.643
REMARK UNBOUND:                -3.802
REMARK SMILES CCCCCCCCCCCCCCCCCCCCCCCC(=O)[O-]
REMARK SMILES IDX 13 1 14 2 15 3 16 4 17 5 18 6 19 7 20 8 21 9 22 10 23 11
REMARK SMILES IDX 24 12 25 13 26 14 12 15 11 16 10 17 9 18 8 19 7 20 6 21 5 22
REMARK SMILES IDX 4 23 3 24 2 25 1 26
REMARK H PARENT
REMARK Flexibility Score: inf
ROOT
ATOM      1  C   UNL     1     -25.661 -51.251  25.128  1.00  0.00     0.000 C 
ENDROOT
BRANCH   1   2
ATOM      2  C   UNL     1     -26.609 -52.395  24.728  1.00  0.00     0.000 C 
BRANCH   2   3
ATOM      3  C   UNL     1     -26.619 -53.538  25.758  1.00  0.00     0.000 C 
BRANCH   3   4
ATOM      4  C   UNL     1     -28.042 -54.047  26.051  1.00  0.00     0.000 C 
BRANCH   4   5
ATOM      5  C   UNL     1     -29.130 -53.033  25.647  1.00  0.00     0.000 C 
BRANCH   5   6
ATOM      6  C   UNL     1     -29.778 -52.299  26.837  1.00  0.00     0.000 C 
BRANCH   6   7
ATOM      7  C   UNL     1     -29.238 -50.868  27.017  1.00  0.00     0.000 C 
BRANCH   7   8
ATOM      8  C   UNL     1     -28.480 -50.660  28.342  1.00  0.00     0.000 C 
BRANCH   8   9
ATOM      9  C   UNL     1     -26.942 -50.673  28.215  1.00  0.00     0.000 C 
BRANCH   9  10
ATOM     10  C   UNL     1     -26.205 -51.651  29.148  1.00  0.00     0.006 C 
BRANCH  10  11
ATOM     11  C   UNL     1     -27.016 -52.915  29.466  1.00  0.00     0.053 C 
BRANCH  11  12
ATOM     12  C   UNL     1     -26.100 -54.050  29.801  1.00  0.00     0.041 C 
ATOM     13  O   UNL     1     -25.534 -54.096  30.925  1.00  0.00    -0.550 OA
ATOM     14  O   UNL     1     -25.912 -55.084  28.893  1.00  0.00    -0.550 OA
ENDBRANCH  11  12
ENDBRANCH  10  11
ENDBRANCH   9  10
ENDBRANCH   8   9
ENDBRANCH   7   8
ENDBRANCH   6   7
ENDBRANCH   5   6
ENDBRANCH   4   5
ENDBRANCH   3   4
ENDBRANCH   2   3
ENDBRANCH   1   2
BRANCH   1  15
ATOM     15  C   UNL     1     -25.675 -50.095  24.116  1.00  0.00     0.000 C 
BRANCH  15  16
ATOM     16  C   UNL     1     -26.705 -49.011  24.483  1.00  0.00     0.000 C 
BRANCH  16  17
ATOM     17  C   UNL     1     -28.031 -49.165  23.718  1.00  0.00     0.000 C 
BRANCH  17  18
ATOM     18  C   UNL     1     -27.827 -49.277  22.196  1.00  0.00    -0.000 C 
BRANCH  18  19
ATOM     19  C   UNL     1     -28.901 -50.148  21.523  1.00  0.00    -0.000 C 
BRANCH  19  20
ATOM     20  C   UNL     1     -29.395 -51.286  22.436  1.00  0.00    -0.000 C 
BRANCH  20  21
ATOM     21  C   UNL     1     -30.928 -51.295  22.578  1.00  0.00    -0.000 C 
BRANCH  21  22
ATOM     22  C   UNL     1     -31.429 -50.643  23.887  1.00  0.00    -0.000 C 
BRANCH  22  23
ATOM     23  C   UNL     1     -32.183 -49.318  23.670  1.00  0.00    -0.000 C 
BRANCH  23  24
ATOM     24  C   UNL     1     -32.650 -49.074  22.225  1.00  0.00    -0.000 C 
BRANCH  24  25
ATOM     25  C   UNL     1     -31.884 -47.933  21.537  1.00  0.00    -0.003 C 
ATOM     26  C   UNL     1     -31.025 -47.168  22.540  1.00  0.00     0.004 C 
ENDBRANCH  24  25
ENDBRANCH  23  24
ENDBRANCH  22  23
ENDBRANCH  21  22
ENDBRANCH  20  21
ENDBRANCH  19  20
ENDBRANCH  18  19
ENDBRANCH  17  18
ENDBRANCH  16  17
ENDBRANCH  15  16
ENDBRANCH   1  15
TORSDOF 22
ENDMDL
MODEL 3
REMARK VINA RESULT:    -4.041      9.347     11.092
REMARK INTER + INTRA:         -13.040
REMARK INTER:                  -9.107
REMARK INTRA:                  -3.934
REMARK UNBOUND:                -3.802
REMARK SMILES CCCCCCCCCCCCCCCCCCCCCCCC(=O)[O-]
REMARK SMILES IDX 13 1 14 2 15 3 16 4 17 5 18 6 19 7 20 8 21 9 22 10 23 11
REMARK SMILES IDX 24 12 25 13 26 14 12 15 11 16 10 17 9 18 8 19 7 20 6 21 5 22
REMARK SMILES IDX 4 23 3 24 2 25 1 26
REMARK H PARENT
REMARK Flexibility Score: inf
ROOT
ATOM      1  C   UNL     1     -27.708 -47.828  32.957  1.00  0.00     0.000 C 
ENDROOT
BRANCH   1   2
ATOM      2  C   UNL     1     -29.245 -47.822  33.024  1.00  0.00     0.000 C 
BRANCH   2   3
ATOM      3  C   UNL     1     -29.844 -46.453  32.662  1.00  0.00     0.000 C 
BRANCH   3   4
ATOM      4  C   UNL     1     -29.538 -45.382  33.725  1.00  0.00     0.000 C 
BRANCH   4   5
ATOM      5  C   UNL     1     -30.728 -45.128  34.671  1.00  0.00     0.000 C 
BRANCH   5   6
ATOM      6  C   UNL     1     -30.921 -46.217  35.744  1.00  0.00     0.000 C 
BRANCH   6   7
ATOM      7  C   UNL     1     -32.353 -46.783  35.764  1.00  0.00     0.000 C 
BRANCH   7   8
ATOM      8  C   UNL     1     -32.591 -47.887  34.715  1.00  0.00     0.000 C 
BRANCH   8   9
ATOM      9  C   UNL     1     -33.581 -47.508  33.592  1.00  0.00     0.000 C 
BRANCH   9  10
ATOM     10  C   UNL     1     -34.938 -48.236  33.627  1.00  0.00     0.006 C 
BRANCH  10  11
ATOM     11  C   UNL     1     -36.108 -47.361  33.156  1.00  0.00     0.053 C 
BRANCH  11  12
ATOM     12  C   UNL     1     -36.058 -47.181  31.671  1.00  0.00     0.041 C 
ATOM     13  O   UNL     1     -36.134 -48.182  30.909  1.00  0.00    -0.550 OA
ATOM     14  O   UNL     1     -35.979 -45.907  31.126  1.00  0.00    -0.550 OA
ENDBRANCH  11  12
ENDBRANCH  10  11
ENDBRANCH   9  10
ENDBRANCH   8   9
ENDBRANCH   7   8
ENDBRANCH   6   7
ENDBRANCH   5   6
ENDBRANCH   4   5
ENDBRANCH   3   4
ENDBRANCH   2   3
ENDBRANCH   1   2
BRANCH   1  15
ATOM     15  C   UNL     1     -27.059 -47.969  34.343  1.00  0.00     0.000 C 
BRANCH  15  16
ATOM     16  C   UNL     1     -28.097 -48.231  35.449  1.00  0.00     0.000 C 
BRANCH  16  17
ATOM     17  C   UNL     1     -27.692 -49.379  36.388  1.00  0.00     0.000 C 
BRANCH  17  18
ATOM     18  C   UNL     1     -28.899 -50.207  36.867  1.00  0.00    -0.000 C 
BRANCH  18  19
ATOM     19  C   UNL     1     -30.140 -50.002  35.983  1.00  0.00    -0.000 C 
BRANCH  19  20
ATOM     20  C   UNL     1     -30.579 -51.297  35.274  1.00  0.00    -0.000 C 
BRANCH  20  21
ATOM     21  C   UNL     1     -29.678 -51.639  34.074  1.00  0.00    -0.000 C 
BRANCH  21  22
ATOM     22  C   UNL     1     -28.833 -52.916  34.282  1.00  0.00    -0.000 C 
BRANCH  22  23
ATOM     23  C   UNL     1     -27.313 -52.663  34.262  1.00  0.00    -0.000 C 
BRANCH  23  24
ATOM     24  C   UNL     1     -26.868 -51.497  33.364  1.00  0.00    -0.000 C 
BRANCH  24  25
ATOM     25  C   UNL     1     -25.339 -51.356  33.288  1.00  0.00    -0.003 C 
ATOM     26  C   UNL     1     -24.764 -50.903  34.627  1.00  0.00     0.004 C 
ENDBRANCH  24  25
ENDBRANCH  23  24
ENDBRANCH  22  23
ENDBRANCH  21  22
ENDBRANCH  20  21
ENDBRANCH  19  20
ENDBRANCH  18  19
ENDBRANCH  17  18
ENDBRANCH  16  17
ENDBRANCH  15  16
ENDBRANCH   1  15
TORSDOF 22
ENDMDL
MODEL 4
REMARK VINA RESULT:    -4.029      2.831      7.332
REMARK INTER + INTRA:         -13.013
REMARK INTER:                  -9.247
REMARK INTRA:                  -3.765
REMARK UNBOUND:                -3.802
REMARK SMILES CCCCCCCCCCCCCCCCCCCCCCCC(=O)[O-]
REMARK SMILES IDX 13 1 14 2 15 3 16 4 17 5 18 6 19 7 20 8 21 9 22 10 23 11
REMARK SMILES IDX 24 12 25 13 26 14 12 15 11 16 10 17 9 18 8 19 7 20 6 21 5 22
REMARK SMILES IDX 4 23 3 24 2 25 1 26
REMARK H PARENT
REMARK Flexibility Score: inf
ROOT
ATOM      1  C   UNL     1     -27.240 -48.383  23.015  1.00  0.00     0.000 C 
ENDROOT
BRANCH   1   2
ATOM      2  C   UNL     1     -27.422 -49.875  23.342  1.00  0.00     0.000 C 
BRANCH   2   3
ATOM      3  C   UNL     1     -28.370 -50.105  24.531  1.00  0.00     0.000 C 
BRANCH   3   4
ATOM      4  C   UNL     1     -29.714 -50.717  24.097  1.00  0.00     0.000 C 
BRANCH   4   5
ATOM      5  C   UNL     1     -29.755 -51.052  22.594  1.00  0.00     0.000 C 
BRANCH   5   6
ATOM      6  C   UNL     1     -30.196 -52.496  22.284  1.00  0.00     0.000 C 
BRANCH   6   7
ATOM      7  C   UNL     1     -29.700 -53.507  23.335  1.00  0.00     0.000 C 
BRANCH   7   8
ATOM      8  C   UNL     1     -28.240 -53.950  23.119  1.00  0.00     0.000 C 
BRANCH   8   9
ATOM      9  C   UNL     1     -27.347 -53.862  24.375  1.00  0.00     0.000 C 
BRANCH   9  10
ATOM     10  C   UNL     1     -28.094 -53.740  25.716  1.00  0.00     0.006 C 
BRANCH  10  11
ATOM     11  C   UNL     1     -27.354 -52.875  26.746  1.00  0.00     0.053 C 
BRANCH  11  12
ATOM     12  C   UNL     1     -25.902 -52.775  26.394  1.00  0.00     0.041 C 
ATOM     13  O   UNL     1     -25.467 -51.759  25.788  1.00  0.00    -0.550 OA
ATOM     14  O   UNL     1     -25.021 -53.776  26.779  1.00  0.00    -0.550 OA
ENDBRANCH  11  12
ENDBRANCH  10  11
ENDBRANCH   9  10
ENDBRANCH   8   9
ENDBRANCH   7   8
ENDBRANCH   6   7
ENDBRANCH   5   6
ENDBRANCH   4   5
ENDBRANCH   3   4
ENDBRANCH   2   3
ENDBRANCH   1   2
BRANCH   1  15
ATOM     15  C   UNL     1     -27.688 -47.469  24.167  1.00  0.00     0.000 C 
BRANCH  15  16
ATOM     16  C   UNL     1     -28.812 -46.506  23.744  1.00  0.00     0.000 C 
BRANCH  16  17
ATOM     17  C   UNL     1     -29.673 -47.061  22.597  1.00  0.00     0.000 C 
BRANCH  17  18
ATOM     18  C   UNL     1     -31.054 -47.544  23.074  1.00  0.00    -0.000 C 
BRANCH  18  19
ATOM     19  C   UNL     1     -32.027 -47.788  21.908  1.00  0.00    -0.000 C 
BRANCH  19  20
ATOM     20  C   UNL     1     -32.975 -48.973  22.169  1.00  0.00    -0.000 C 
BRANCH  20  21
ATOM     21  C   UNL     1     -33.436 -49.039  23.636  1.00  0.00    -0.000 C 
BRANCH  21  22
ATOM     22  C   UNL     1     -34.780 -49.778  23.827  1.00  0.00    -0.000 C 
BRANCH  22  23
ATOM     23  C   UNL     1     -34.628 -51.207  24.379  1.00  0.00    -0.000 C 
BRANCH  23  24
ATOM     24  C   UNL     1     -33.175 -51.652  24.619  1.00  0.00    -0.000 C 
BRANCH  24  25
ATOM     25  C   UNL     1     -32.775 -51.605  26.102  1.00  0.00    -0.003 C 
ATOM     26  C   UNL     1     -33.933 -52.045  26.994  1.00  0.00     0.004 C 
ENDBRANCH  24  25
ENDBRANCH  23  24
ENDBRANCH  22  23
ENDBRANCH  21  22
ENDBRANCH  20  21
ENDBRANCH  19  20
ENDBRANCH  18  19
ENDBRANCH  17  18
ENDBRANCH  16  17
ENDBRANCH  15  16
ENDBRANCH   1  15
TORSDOF 22
ENDMDL
MODEL 5
REMARK VINA RESULT:    -4.011      2.074      4.274
REMARK INTER + INTRA:         -12.971
REMARK INTER:                  -8.609
REMARK INTRA:                  -4.362
REMARK UNBOUND:                -3.802
REMARK SMILES CCCCCCCCCCCCCCCCCCCCCCCC(=O)[O-]
REMARK SMILES IDX 13 1 14 2 15 3 16 4 17 5 18 6 19 7 20 8 21 9 22 10 23 11
REMARK SMILES IDX 24 12 25 13 26 14 12 15 11 16 10 17 9 18 8 19 7 20 6 21 5 22
REMARK SMILES IDX 4 23 3 24 2 25 1 26
REMARK H PARENT
REMARK Flexibility Score: inf
ROOT
ATOM      1  C   UNL     1     -29.350 -51.442  26.474  1.00  0.00     0.000 C 
ENDROOT
BRANCH   1   2
ATOM      2  C   UNL     1     -29.669 -50.058  25.882  1.00  0.00     0.000 C 
BRANCH   2   3
ATOM      3  C   UNL     1     -31.176 -49.848  25.657  1.00  0.00     0.000 C 
BRANCH   3   4
ATOM      4  C   UNL     1     -31.947 -51.178  25.588  1.00  0.00     0.000 C 
BRANCH   4   5
ATOM      5  C   UNL     1     -32.701 -51.360  24.257  1.00  0.00     0.000 C 
BRANCH   5   6
ATOM      6  C   UNL     1     -34.184 -50.945  24.312  1.00  0.00     0.000 C 
BRANCH   6   7
ATOM      7  C   UNL     1     -34.463 -49.634  23.554  1.00  0.00     0.000 C 
BRANCH   7   8
ATOM      8  C   UNL     1     -33.347 -49.248  22.564  1.00  0.00     0.000 C 
BRANCH   8   9
ATOM      9  C   UNL     1     -33.032 -47.738  22.503  1.00  0.00     0.000 C 
BRANCH   9  10
ATOM     10  C   UNL     1     -32.688 -47.075  23.850  1.00  0.00     0.006 C 
BRANCH  10  11
ATOM     11  C   UNL     1     -33.725 -46.035  24.297  1.00  0.00     0.053 C 
BRANCH  11  12
ATOM     12  C   UNL     1     -34.398 -46.479  25.558  1.00  0.00     0.041 C 
ATOM     13  O   UNL     1     -33.898 -47.407  26.248  1.00  0.00    -0.550 OA
ATOM     14  O   UNL     1     -35.546 -45.835  25.999  1.00  0.00    -0.550 OA
ENDBRANCH  11  12
ENDBRANCH  10  11
ENDBRANCH   9  10
ENDBRANCH   8   9
ENDBRANCH   7   8
ENDBRANCH   6   7
ENDBRANCH   5   6
ENDBRANCH   4   5
ENDBRANCH   3   4
ENDBRANCH   2   3
ENDBRANCH   1   2
BRANCH   1  15
ATOM     15  C   UNL     1     -28.078 -52.060  25.872  1.00  0.00     0.000 C 
BRANCH  15  16
ATOM     16  C   UNL     1     -26.826 -51.211  26.160  1.00  0.00     0.000 C 
BRANCH  16  17
ATOM     17  C   UNL     1     -25.719 -51.406  25.110  1.00  0.00     0.000 C 
BRANCH  17  18
ATOM     18  C   UNL     1     -25.955 -50.571  23.839  1.00  0.00    -0.000 C 
BRANCH  18  19
ATOM     19  C   UNL     1     -25.738 -49.067  24.074  1.00  0.00    -0.000 C 
BRANCH  19  20
ATOM     20  C   UNL     1     -26.990 -48.232  23.747  1.00  0.00    -0.000 C 
BRANCH  20  21
ATOM     21  C   UNL     1     -27.656 -48.672  22.431  1.00  0.00    -0.000 C 
BRANCH  21  22
ATOM     22  C   UNL     1     -29.195 -48.779  22.525  1.00  0.00    -0.000 C 
BRANCH  22  23
ATOM     23  C   UNL     1     -29.769 -50.050  21.871  1.00  0.00    -0.000 C 
BRANCH  23  24
ATOM     24  C   UNL     1     -29.196 -51.368  22.417  1.00  0.00    -0.000 C 
BRANCH  24  25
ATOM     25  C   UNL     1     -30.160 -52.553  22.243  1.00  0.00    -0.003 C 
ATOM     26  C   UNL     1     -29.636 -53.794  22.961  1.00  0.00     0.004 C 
ENDBRANCH  24  25
ENDBRANCH  23  24
ENDBRANCH  22  23
ENDBRANCH  21  22
ENDBRANCH  20  21
ENDBRANCH  19  20
ENDBRANCH  18  19
ENDBRANCH  17  18
ENDBRANCH  16  17
ENDBRANCH  15  16
ENDBRANCH   1  15
TORSDOF 22
ENDMDL
MODEL 6
REMARK VINA RESULT:    -4.003      3.217      7.092
REMARK INTER + INTRA:         -12.954
REMARK INTER:                  -9.137
REMARK INTRA:                  -3.817
REMARK UNBOUND:                -3.802
REMARK SMILES CCCCCCCCCCCCCCCCCCCCCCCC(=O)[O-]
REMARK SMILES IDX 13 1 14 2 15 3 16 4 17 5 18 6 19 7 20 8 21 9 22 10 23 11
REMARK SMILES IDX 24 12 25 13 26 14 12 15 11 16 10 17 9 18 8 19 7 20 6 21 5 22
REMARK SMILES IDX 4 23 3 24 2 25 1 26
REMARK H PARENT
REMARK Flexibility Score: inf
ROOT
ATOM      1  C   UNL     1     -34.768 -48.490  24.096  1.00  0.00     0.000 C 
ENDROOT
BRANCH   1   2
ATOM      2  C   UNL     1     -33.348 -48.779  24.611  1.00  0.00     0.000 C 
BRANCH   2   3
ATOM      3  C   UNL     1     -32.743 -50.048  23.986  1.00  0.00     0.000 C 
BRANCH   3   4
ATOM      4  C   UNL     1     -32.081 -49.769  22.624  1.00  0.00     0.000 C 
BRANCH   4   5
ATOM      5  C   UNL     1     -30.696 -50.430  22.490  1.00  0.00     0.000 C 
BRANCH   5   6
ATOM      6  C   UNL     1     -29.767 -49.742  21.471  1.00  0.00     0.000 C 
BRANCH   6   7
ATOM      7  C   UNL     1     -28.300 -49.703  21.938  1.00  0.00     0.000 C 
BRANCH   7   8
ATOM      8  C   UNL     1     -28.109 -50.145  23.401  1.00  0.00     0.000 C 
BRANCH   8   9
ATOM      9  C   UNL     1     -26.705 -50.696  23.731  1.00  0.00     0.000 C 
BRANCH   9  10
ATOM     10  C   UNL     1     -26.576 -52.230  23.737  1.00  0.00     0.006 C 
BRANCH  10  11
ATOM     11  C   UNL     1     -27.924 -52.953  23.606  1.00  0.00     0.053 C 
BRANCH  11  12
ATOM     12  C   UNL     1     -27.794 -54.380  24.039  1.00  0.00     0.041 C 
ATOM     13  O   UNL     1     -27.600 -55.285  23.184  1.00  0.00    -0.550 OA
ATOM     14  O   UNL     1     -27.833 -54.705  25.388  1.00  0.00    -0.550 OA
ENDBRANCH  11  12
ENDBRANCH  10  11
ENDBRANCH   9  10
ENDBRANCH   8   9
ENDBRANCH   7   8
ENDBRANCH   6   7
ENDBRANCH   5   6
ENDBRANCH   4   5
ENDBRANCH   3   4
ENDBRANCH   2   3
ENDBRANCH   1   2
BRANCH   1  15
ATOM     15  C   UNL     1     -35.122 -46.995  24.156  1.00  0.00     0.000 C 
BRANCH  15  16
ATOM     16  C   UNL     1     -35.200 -46.472  25.602  1.00  0.00     0.000 C 
BRANCH  16  17
ATOM     17  C   UNL     1     -34.422 -45.161  25.806  1.00  0.00     0.000 C 
BRANCH  17  18
ATOM     18  C   UNL     1     -32.913 -45.322  25.546  1.00  0.00    -0.000 C 
BRANCH  18  19
ATOM     19  C   UNL     1     -32.307 -44.104  24.830  1.00  0.00    -0.000 C 
BRANCH  19  20
ATOM     20  C   UNL     1     -32.060 -44.364  23.332  1.00  0.00    -0.000 C 
BRANCH  20  21
ATOM     21  C   UNL     1     -31.901 -45.863  23.019  1.00  0.00    -0.000 C 
BRANCH  21  22
ATOM     22  C   UNL     1     -30.572 -46.206  22.310  1.00  0.00    -0.000 C 
BRANCH  22  23
ATOM     23  C   UNL     1     -29.404 -46.474  23.278  1.00  0.00    -0.000 C 
BRANCH  23  24
ATOM     24  C   UNL     1     -29.810 -47.133  24.607  1.00  0.00    -0.000 C 
BRANCH  24  25
ATOM     25  C   UNL     1     -28.925 -46.692  25.784  1.00  0.00    -0.003 C 
ATOM     26  C   UNL     1     -27.465 -47.061  25.538  1.00  0.00     0.004 C 
ENDBRANCH  24  25
ENDBRANCH  23  24
ENDBRANCH  22  23
ENDBRANCH  21  22
ENDBRANCH  20  21
ENDBRANCH  19  20
ENDBRANCH  18  19
ENDBRANCH  17  18
ENDBRANCH  16  17
ENDBRANCH  15  16
ENDBRANCH   1  15
TORSDOF 22
ENDMDL
MODEL 7
REMARK VINA RESULT:    -4.003      9.379     11.432
REMARK INTER + INTRA:         -12.954
REMARK INTER:                  -8.843
REMARK INTRA:                  -4.110
REMARK UNBOUND:                -3.802
REMARK SMILES CCCCCCCCCCCCCCCCCCCCCCCC(=O)[O-]
REMARK SMILES IDX 13 1 14 2 15 3 16 4 17 5 18 6 19 7 20 8 21 9 22 10 23 11
REMARK SMILES IDX 24 12 25 13 26 14 12 15 11 16 10 17 9 18 8 19 7 20 6 21 5 22
REMARK SMILES IDX 4 23 3 24 2 25 1 26
REMARK H PARENT
REMARK Flexibility Score: inf
ROOT
ATOM      1  C   UNL     1     -28.433 -49.747  35.596  1.00  0.00     0.000 C 
ENDROOT
BRANCH   1   2
ATOM      2  C   UNL     1     -28.339 -48.413  34.835  1.00  0.00     0.000 C 
BRANCH   2   3
ATOM      3  C   UNL     1     -28.604 -48.574  33.329  1.00  0.00     0.000 C 
BRANCH   3   4
ATOM      4  C   UNL     1     -28.352 -47.271  32.549  1.00  0.00     0.000 C 
BRANCH   4   5
ATOM      5  C   UNL     1     -27.980 -46.092  33.468  1.00  0.00     0.000 C 
BRANCH   5   6
ATOM      6  C   UNL     1     -28.577 -44.741  33.029  1.00  0.00     0.000 C 
BRANCH   6   7
ATOM      7  C   UNL     1     -29.616 -44.198  34.029  1.00  0.00     0.000 C 
BRANCH   7   8
ATOM      8  C   UNL     1     -30.367 -45.304  34.794  1.00  0.00     0.000 C 
BRANCH   8   9
ATOM      9  C   UNL     1     -31.895 -45.315  34.577  1.00  0.00     0.000 C 
BRANCH   9  10
ATOM     10  C   UNL     1     -32.367 -45.794  33.191  1.00  0.00     0.006 C 
BRANCH  10  11
ATOM     11  C   UNL     1     -33.840 -45.471  32.906  1.00  0.00     0.053 C 
BRANCH  11  12
ATOM     12  C   UNL     1     -34.711 -46.622  33.301  1.00  0.00     0.041 C 
ATOM     13  O   UNL     1     -35.239 -47.349  32.417  1.00  0.00    -0.550 OA
ATOM     14  O   UNL     1     -34.900 -46.925  34.643  1.00  0.00    -0.550 OA
ENDBRANCH  11  12
ENDBRANCH  10  11
ENDBRANCH   9  10
ENDBRANCH   8   9
ENDBRANCH   7   8
ENDBRANCH   6   7
ENDBRANCH   5   6
ENDBRANCH   4   5
ENDBRANCH   3   4
ENDBRANCH   2   3
ENDBRANCH   1   2
BRANCH   1  15
ATOM     15  C   UNL     1     -29.696 -49.840  36.466  1.00  0.00     0.000 C 
BRANCH  15  16
ATOM     16  C   UNL     1     -30.520 -48.540  36.438  1.00  0.00     0.000 C 
BRANCH  16  17
ATOM     17  C   UNL     1     -32.034 -48.795  36.332  1.00  0.00     0.000 C 
BRANCH  17  18
ATOM     18  C   UNL     1     -32.379 -49.892  35.311  1.00  0.00    -0.000 C 
BRANCH  18  19
ATOM     19  C   UNL     1     -32.208 -49.418  33.858  1.00  0.00    -0.000 C 
BRANCH  19  20
ATOM     20  C   UNL     1     -32.395 -50.559  32.840  1.00  0.00    -0.000 C 
BRANCH  20  21
ATOM     21  C   UNL     1     -32.898 -51.855  33.502  1.00  0.00    -0.000 C 
BRANCH  21  22
ATOM     22  C   UNL     1     -32.240 -53.132  32.933  1.00  0.00    -0.000 C 
BRANCH  22  23
ATOM     23  C   UNL     1     -31.393 -53.904  33.962  1.00  0.00    -0.000 C 
BRANCH  23  24
ATOM     24  C   UNL     1     -30.288 -53.073  34.635  1.00  0.00    -0.000 C 
BRANCH  24  25
ATOM     25  C   UNL     1     -28.905 -53.300  34.004  1.00  0.00    -0.003 C 
ATOM     26  C   UNL     1     -28.629 -52.273  32.909  1.00  0.00     0.004 C 
ENDBRANCH  24  25
ENDBRANCH  23  24
ENDBRANCH  22  23
ENDBRANCH  21  22
ENDBRANCH  20  21
ENDBRANCH  19  20
ENDBRANCH  18  19
ENDBRANCH  17  18
ENDBRANCH  16  17
ENDBRANCH  15  16
ENDBRANCH   1  15
TORSDOF 22
ENDMDL
MODEL 8
REMARK VINA RESULT:    -3.995      9.145     11.008
REMARK INTER + INTRA:         -12.936
REMARK INTER:                  -8.577
REMARK INTRA:                  -4.359
REMARK UNBOUND:                -3.802
REMARK SMILES CCCCCCCCCCCCCCCCCCCCCCCC(=O)[O-]
REMARK SMILES IDX 13 1 14 2 15 3 16 4 17 5 18 6 19 7 20 8 21 9 22 10 23 11
REMARK SMILES IDX 24 12 25 13 26 14 12 15 11 16 10 17 9 18 8 19 7 20 6 21 5 22
REMARK SMILES IDX 4 23 3 24 2 25 1 26
REMARK H PARENT
REMARK Flexibility Score: inf
ROOT
ATOM      1  C   UNL     1     -30.007 -44.678  34.324  1.00  0.00     0.000 C 
ENDROOT
BRANCH   1   2
ATOM      2  C   UNL     1     -31.243 -45.500  34.727  1.00  0.00     0.000 C 
BRANCH   2   3
ATOM      3  C   UNL     1     -31.122 -46.088  36.143  1.00  0.00     0.000 C 
BRANCH   3   4
ATOM      4  C   UNL     1     -31.959 -47.369  36.317  1.00  0.00     0.000 C 
BRANCH   4   5
ATOM      5  C   UNL     1     -31.090 -48.638  36.400  1.00  0.00     0.000 C 
BRANCH   5   6
ATOM      6  C   UNL     1     -31.665 -49.844  35.632  1.00  0.00     0.000 C 
BRANCH   6   7
ATOM      7  C   UNL     1     -32.915 -49.482  34.807  1.00  0.00     0.000 C 
BRANCH   7   8
ATOM      8  C   UNL     1     -32.606 -49.168  33.331  1.00  0.00     0.000 C 
BRANCH   8   9
ATOM      9  C   UNL     1     -33.230 -47.857  32.806  1.00  0.00     0.000 C 
BRANCH   9  10
ATOM     10  C   UNL     1     -34.644 -47.538  33.326  1.00  0.00     0.006 C 
BRANCH  10  11
ATOM     11  C   UNL     1     -35.268 -46.299  32.668  1.00  0.00     0.053 C 
BRANCH  11  12
ATOM     12  C   UNL     1     -35.881 -46.662  31.351  1.00  0.00     0.041 C 
ATOM     13  O   UNL     1     -36.358 -47.815  31.172  1.00  0.00    -0.550 OA
ATOM     14  O   UNL     1     -35.973 -45.714  30.341  1.00  0.00    -0.550 OA
ENDBRANCH  11  12
ENDBRANCH  10  11
ENDBRANCH   9  10
ENDBRANCH   8   9
ENDBRANCH   7   8
ENDBRANCH   6   7
ENDBRANCH   5   6
ENDBRANCH   4   5
ENDBRANCH   3   4
ENDBRANCH   2   3
ENDBRANCH   1   2
BRANCH   1  15
ATOM     15  C   UNL     1     -29.014 -45.487  33.474  1.00  0.00     0.000 C 
BRANCH  15  16
ATOM     16  C   UNL     1     -29.651 -46.759  32.886  1.00  0.00     0.000 C 
BRANCH  16  17
ATOM     17  C   UNL     1     -28.953 -48.047  33.354  1.00  0.00     0.000 C 
BRANCH  17  18
ATOM     18  C   UNL     1     -27.988 -47.805  34.528  1.00  0.00    -0.000 C 
BRANCH  18  19
ATOM     19  C   UNL     1     -27.752 -49.072  35.366  1.00  0.00    -0.000 C 
BRANCH  19  20
ATOM     20  C   UNL     1     -27.854 -50.360  34.528  1.00  0.00    -0.000 C 
BRANCH  20  21
ATOM     21  C   UNL     1     -28.446 -51.532  35.332  1.00  0.00    -0.000 C 
BRANCH  21  22
ATOM     22  C   UNL     1     -29.092 -52.622  34.447  1.00  0.00    -0.000 C 
BRANCH  22  23
ATOM     23  C   UNL     1     -29.387 -52.158  33.009  1.00  0.00    -0.000 C 
BRANCH  23  24
ATOM     24  C   UNL     1     -30.870 -52.220  32.605  1.00  0.00    -0.000 C 
BRANCH  24  25
ATOM     25  C   UNL     1     -31.755 -52.855  33.690  1.00  0.00    -0.003 C 
ATOM     26  C   UNL     1     -33.038 -53.420  33.086  1.00  0.00     0.004 C 
ENDBRANCH  24  25
ENDBRANCH  23  24
ENDBRANCH  22  23
ENDBRANCH  21  22
ENDBRANCH  20  21
ENDBRANCH  19  20
ENDBRANCH  18  19
ENDBRANCH  17  18
ENDBRANCH  16  17
ENDBRANCH  15  16
ENDBRANCH   1  15
TORSDOF 22
ENDMDL
MODEL 9
REMARK VINA RESULT:    -3.949      2.976      7.598
REMARK INTER + INTRA:         -12.829
REMARK INTER:                  -8.846
REMARK INTRA:                  -3.983
REMARK UNBOUND:                -3.802
REMARK SMILES CCCCCCCCCCCCCCCCCCCCCCCC(=O)[O-]
REMARK SMILES IDX 13 1 14 2 15 3 16 4 17 5 18 6 19 7 20 8 21 9 22 10 23 11
REMARK SMILES IDX 24 12 25 13 26 14 12 15 11 16 10 17 9 18 8 19 7 20 6 21 5 22
REMARK SMILES IDX 4 23 3 24 2 25 1 26
REMARK H PARENT
REMARK Flexibility Score: inf
ROOT
ATOM      1  C   UNL     1     -28.925 -47.883  26.189  1.00  0.00     0.000 C 
ENDROOT
BRANCH   1   2
ATOM      2  C   UNL     1     -28.171 -46.601  25.795  1.00  0.00     0.000 C 
BRANCH   2   3
ATOM      3  C   UNL     1     -27.769 -46.588  24.311  1.00  0.00     0.000 C 
BRANCH   3   4
ATOM      4  C   UNL     1     -26.338 -47.112  24.089  1.00  0.00     0.000 C 
BRANCH   4   5
ATOM      5  C   UNL     1     -26.302 -48.617  23.761  1.00  0.00     0.000 C 
BRANCH   5   6
ATOM      6  C   UNL     1     -27.465 -49.094  22.870  1.00  0.00     0.000 C 
BRANCH   6   7
ATOM      7  C   UNL     1     -27.834 -50.569  23.116  1.00  0.00     0.000 C 
BRANCH   7   8
ATOM      8  C   UNL     1     -29.185 -50.753  23.833  1.00  0.00     0.000 C 
BRANCH   8   9
ATOM      9  C   UNL     1     -30.208 -51.624  23.071  1.00  0.00     0.000 C 
BRANCH   9  10
ATOM     10  C   UNL     1     -30.157 -53.132  23.378  1.00  0.00     0.006 C 
BRANCH  10  11
ATOM     11  C   UNL     1     -28.968 -53.846  22.721  1.00  0.00     0.053 C 
BRANCH  11  12
ATOM     12  C   UNL     1     -28.179 -54.596  23.748  1.00  0.00     0.041 C 
ATOM     13  O   UNL     1     -27.769 -55.762  23.504  1.00  0.00    -0.550 OA
ATOM     14  O   UNL     1     -27.852 -53.990  24.954  1.00  0.00    -0.550 OA
ENDBRANCH  11  12
ENDBRANCH  10  11
ENDBRANCH   9  10
ENDBRANCH   8   9
ENDBRANCH   7   8
ENDBRANCH   6   7
ENDBRANCH   5   6
ENDBRANCH   4   5
ENDBRANCH   3   4
ENDBRANCH   2   3
ENDBRANCH   1   2
BRANCH   1  15
ATOM     15  C   UNL     1     -30.404 -47.846  25.774  1.00  0.00     0.000 C 
BRANCH  15  16
ATOM     16  C   UNL     1     -31.139 -46.618  26.342  1.00  0.00     0.000 C 
BRANCH  16  17
ATOM     17  C   UNL     1     -32.042 -45.930  25.304  1.00  0.00     0.000 C 
BRANCH  17  18
ATOM     18  C   UNL     1     -31.243 -45.288  24.157  1.00  0.00    -0.000 C 
BRANCH  18  19
ATOM     19  C   UNL     1     -31.674 -45.810  22.776  1.00  0.00    -0.000 C 
BRANCH  19  20
ATOM     20  C   UNL     1     -30.586 -46.667  22.103  1.00  0.00    -0.000 C 
BRANCH  20  21
ATOM     21  C   UNL     1     -30.968 -48.157  22.051  1.00  0.00    -0.000 C 
BRANCH  21  22
ATOM     22  C   UNL     1     -32.488 -48.409  22.172  1.00  0.00    -0.000 C 
BRANCH  22  23
ATOM     23  C   UNL     1     -32.891 -49.165  23.451  1.00  0.00    -0.000 C 
BRANCH  23  24
ATOM     24  C   UNL     1     -34.377 -49.047  23.826  1.00  0.00    -0.000 C 
BRANCH  24  25
ATOM     25  C   UNL     1     -35.051 -50.414  24.028  1.00  0.00    -0.003 C 
ATOM     26  C   UNL     1     -34.051 -51.445  24.545  1.00  0.00     0.004 C 
ENDBRANCH  24  25
ENDBRANCH  23  24
ENDBRANCH  22  23
ENDBRANCH  21  22
ENDBRANCH  20  21
ENDBRANCH  19  20
ENDBRANCH  18  19
ENDBRANCH  17  18
ENDBRANCH  16  17
ENDBRANCH  15  16
ENDBRANCH   1  15
TORSDOF 22
ENDMDL
