MODEL 1
REMARK VINA RESULT:    -3.339      0.000      0.000
REMARK INTER + INTRA:          -6.376
REMARK INTER:                  -5.291
REMARK INTRA:                  -1.085
REMARK UNBOUND:                -1.085
REMARK SMILES CCCCCCCCCCCC(=O)[O-]
REMARK SMILES IDX 7 1 8 2 9 3 10 4 11 5 12 6 13 7 14 8 6 9 5 10 4 11 3 12 2 13
REMARK SMILES IDX 1 14
REMARK H PARENT
REMARK Flexibility Score: inf
ROOT
ATOM      1  C   UNL     1      -2.009   9.769   2.677  1.00  0.00     0.000 C 
ENDROOT
BRANCH   1   2
ATOM      2  C   UNL     1      -0.622   9.335   3.177  1.00  0.00     0.000 C 
BRANCH   2   3
ATOM      3  C   UNL     1      -0.623   8.944   4.662  1.00  0.00     0.000 C 
BRANCH   3   4
ATOM      4  C   UNL     1       0.750   8.418   5.092  1.00  0.00     0.006 C 
BRANCH   4   5
ATOM      5  C   UNL     1       1.331   9.262   6.231  1.00  0.00     0.053 C 
BRANCH   5   6
ATOM      6  C   UNL     1       2.552   8.608   6.797  1.00  0.00     0.041 C 
ATOM      7  O   UNL     1       2.834   7.420   6.491  1.00  0.00    -0.550 OA
ATOM      8  O   UNL     1       3.353   9.296   7.700  1.00  0.00    -0.550 OA
ENDBRANCH   5   6
ENDBRANCH   4   5
ENDBRANCH   3   4
ENDBRANCH   2   3
ENDBRANCH   1   2
BRANCH   1   9
ATOM      9  C   UNL     1      -2.984  10.083   3.826  1.00  0.00     0.000 C 
BRANCH   9  10
ATOM     10  C   UNL     1      -4.283   9.256   3.727  1.00  0.00    -0.000 C 
BRANCH  10  11
ATOM     11  C   UNL     1      -4.170   7.852   4.345  1.00  0.00    -0.000 C 
BRANCH  11  12
ATOM     12  C   UNL     1      -4.286   6.730   3.301  1.00  0.00    -0.000 C 
BRANCH  12  13
ATOM     13  C   UNL     1      -2.915   6.221   2.828  1.00  0.00    -0.003 C 
ATOM     14  C   UNL     1      -2.727   6.344   1.315  1.00  0.00     0.004 C 
ENDBRANCH  12  13
ENDBRANCH  11  12
ENDBRANCH  10  11
ENDBRANCH   9  10
ENDBRANCH   1   9
TORSDOF 10
ENDMDL
MODEL 2
REMARK VINA RESULT:    -3.305      1.527      2.601
REMARK INTER + INTRA:          -6.322
REMARK INTER:                  -5.659
REMARK INTRA:                  -0.663
REMARK UNBOUND:                -1.085
REMARK SMILES CCCCCCCCCCCC(=O)[O-]
REMARK SMILES IDX 7 1 8 2 9 3 10 4 11 5 12 6 13 7 14 8 6 9 5 10 4 11 3 12 2 13
REMARK SMILES IDX 1 14
REMARK H PARENT
REMARK Flexibility Score: inf
ROOT
ATOM      1  C   UNL     1      -2.131   8.186   2.992  1.00  0.00     0.000 C 
ENDROOT
BRANCH   1   2
ATOM      2  C   UNL     1      -0.977   8.067   4.000  1.00  0.00     0.000 C 
BRANCH   2   3
ATOM      3  C   UNL     1      -0.818   9.322   4.869  1.00  0.00     0.000 C 
BRANCH   3   4
ATOM      4  C   UNL     1       0.660   9.698   5.025  1.00  0.00     0.006 C 
BRANCH   4   5
ATOM      5  C   UNL     1       1.043   9.825   6.503  1.00  0.00     0.053 C 
BRANCH   5   6
ATOM      6  C   UNL     1       2.070   8.801   6.869  1.00  0.00     0.041 C 
ATOM      7  O   UNL     1       1.980   7.627   6.423  1.00  0.00    -0.550 OA
ATOM      8  O   UNL     1       3.099   9.130   7.741  1.00  0.00    -0.550 OA
ENDBRANCH   5   6
ENDBRANCH   4   5
ENDBRANCH   3   4
ENDBRANCH   2   3
ENDBRANCH   1   2
BRANCH   1   9
ATOM      9  C   UNL     1      -3.353   7.338   3.384  1.00  0.00     0.000 C 
BRANCH   9  10
ATOM     10  C   UNL     1      -4.395   8.152   4.180  1.00  0.00    -0.000 C 
BRANCH  10  11
ATOM     11  C   UNL     1      -4.419   9.647   3.816  1.00  0.00    -0.000 C 
BRANCH  11  12
ATOM     12  C   UNL     1      -5.267   9.943   2.569  1.00  0.00    -0.000 C 
BRANCH  12  13
ATOM     13  C   UNL     1      -6.533   9.073   2.497  1.00  0.00    -0.003 C 
ATOM     14  C   UNL     1      -7.821   9.892   2.585  1.00  0.00     0.004 C 
ENDBRANCH  12  13
ENDBRANCH  11  12
ENDBRANCH  10  11
ENDBRANCH   9  10
ENDBRANCH   1   9
TORSDOF 10
ENDMDL
MODEL 3
REMARK VINA RESULT:    -3.256      1.639      2.261
REMARK INTER + INTRA:          -6.245
REMARK INTER:                  -5.422
REMARK INTRA:                  -0.823
REMARK UNBOUND:                -1.085
REMARK SMILES CCCCCCCCCCCC(=O)[O-]
REMARK SMILES IDX 7 1 8 2 9 3 10 4 11 5 12 6 13 7 14 8 6 9 5 10 4 11 3 12 2 13
REMARK SMILES IDX 1 14
REMARK H PARENT
REMARK Flexibility Score: inf
ROOT
ATOM      1  C   UNL     1      -0.558   8.696   3.006  1.00  0.00     0.000 C 
ENDROOT
BRANCH   1   2
ATOM      2  C   UNL     1      -0.144   8.160   4.385  1.00  0.00     0.000 C 
BRANCH   2   3
ATOM      3  C   UNL     1       0.833   6.979   4.293  1.00  0.00     0.000 C 
BRANCH   3   4
ATOM      4  C   UNL     1       2.178   7.327   4.940  1.00  0.00     0.006 C 
BRANCH   4   5
ATOM      5  C   UNL     1       1.977   8.028   6.287  1.00  0.00     0.053 C 
BRANCH   5   6
ATOM      6  C   UNL     1       2.899   9.199   6.410  1.00  0.00     0.041 C 
ATOM      7  O   UNL     1       3.137   9.926   5.411  1.00  0.00    -0.550 OA
ATOM      8  O   UNL     1       3.533   9.459   7.619  1.00  0.00    -0.550 OA
ENDBRANCH   5   6
ENDBRANCH   4   5
ENDBRANCH   3   4
ENDBRANCH   2   3
ENDBRANCH   1   2
BRANCH   1   9
ATOM      9  C   UNL     1      -1.694   9.731   3.086  1.00  0.00     0.000 C 
BRANCH   9  10
ATOM     10  C   UNL     1      -2.184   9.944   4.534  1.00  0.00    -0.000 C 
BRANCH  10  11
ATOM     11  C   UNL     1      -3.670   9.605   4.740  1.00  0.00    -0.000 C 
BRANCH  11  12
ATOM     12  C   UNL     1      -4.035   8.197   4.246  1.00  0.00    -0.000 C 
BRANCH  12  13
ATOM     13  C   UNL     1      -5.203   8.206   3.246  1.00  0.00    -0.003 C 
ATOM     14  C   UNL     1      -5.659   9.619   2.882  1.00  0.00     0.004 C 
ENDBRANCH  12  13
ENDBRANCH  11  12
ENDBRANCH  10  11
ENDBRANCH   9  10
ENDBRANCH   1   9
TORSDOF 10
ENDMDL
MODEL 4
REMARK VINA RESULT:    -3.235      5.175      7.751
REMARK INTER + INTRA:          -6.212
REMARK INTER:                  -5.701
REMARK INTRA:                  -0.511
REMARK UNBOUND:                -1.085
REMARK SMILES CCCCCCCCCCCC(=O)[O-]
REMARK SMILES IDX 7 1 8 2 9 3 10 4 11 5 12 6 13 7 14 8 6 9 5 10 4 11 3 12 2 13
REMARK SMILES IDX 1 14
REMARK H PARENT
REMARK Flexibility Score: inf
ROOT
ATOM      1  C   UNL     1      -3.091   8.655   4.094  1.00  0.00     0.000 C 
ENDROOT
BRANCH   1   2
ATOM      2  C   UNL     1      -4.554   8.503   3.647  1.00  0.00     0.000 C 
BRANCH   2   3
ATOM      3  C   UNL     1      -5.203   9.846   3.281  1.00  0.00     0.000 C 
BRANCH   3   4
ATOM      4  C   UNL     1      -6.343   9.648   2.275  1.00  0.00     0.006 C 
BRANCH   4   5
ATOM      5  C   UNL     1      -6.859   8.206   2.303  1.00  0.00     0.053 C 
BRANCH   5   6
ATOM      6  C   UNL     1      -8.349   8.181   2.184  1.00  0.00     0.041 C 
ATOM      7  O   UNL     1      -8.987   7.124   2.433  1.00  0.00    -0.550 OA
ATOM      8  O   UNL     1      -9.031   9.311   1.751  1.00  0.00    -0.550 OA
ENDBRANCH   5   6
ENDBRANCH   4   5
ENDBRANCH   3   4
ENDBRANCH   2   3
ENDBRANCH   1   2
BRANCH   1   9
ATOM      9  C   UNL     1      -2.877   9.856   5.030  1.00  0.00     0.000 C 
BRANCH   9  10
ATOM     10  C   UNL     1      -1.390  10.055   5.390  1.00  0.00    -0.000 C 
BRANCH  10  11
ATOM     11  C   UNL     1      -0.423   9.310   4.453  1.00  0.00    -0.000 C 
BRANCH  11  12
ATOM     12  C   UNL     1       0.711   8.600   5.209  1.00  0.00    -0.000 C 
BRANCH  12  13
ATOM     13  C   UNL     1       1.304   9.468   6.332  1.00  0.00    -0.003 C 
ATOM     14  C   UNL     1       2.384   8.742   7.133  1.00  0.00     0.004 C 
ENDBRANCH  12  13
ENDBRANCH  11  12
ENDBRANCH  10  11
ENDBRANCH   9  10
ENDBRANCH   1   9
TORSDOF 10
ENDMDL
MODEL 5
REMARK VINA RESULT:    -3.170     11.016     13.092
REMARK INTER + INTRA:          -6.108
REMARK INTER:                  -4.392
REMARK INTRA:                  -1.716
REMARK UNBOUND:                -1.085
REMARK SMILES CCCCCCCCCCCC(=O)[O-]
REMARK SMILES IDX 7 1 8 2 9 3 10 4 11 5 12 6 13 7 14 8 6 9 5 10 4 11 3 12 2 13
REMARK SMILES IDX 1 14
REMARK H PARENT
REMARK Flexibility Score: inf
ROOT
ATOM      1  C   UNL     1      -9.369   0.135  11.178  1.00  0.00     0.000 C 
ENDROOT
BRANCH   1   2
ATOM      2  C   UNL     1      -9.260  -1.398  11.208  1.00  0.00     0.000 C 
BRANCH   2   3
ATOM      3  C   UNL     1      -9.193  -2.015   9.803  1.00  0.00     0.000 C 
BRANCH   3   4
ATOM      4  C   UNL     1      -8.976  -0.933   8.739  1.00  0.00     0.006 C 
BRANCH   4   5
ATOM      5  C   UNL     1      -7.598  -1.072   8.085  1.00  0.00     0.053 C 
BRANCH   5   6
ATOM      6  C   UNL     1      -7.082   0.266   7.660  1.00  0.00     0.041 C 
ATOM      7  O   UNL     1      -7.883   1.210   7.430  1.00  0.00    -0.550 OA
ATOM      8  O   UNL     1      -5.719   0.458   7.471  1.00  0.00    -0.550 OA
ENDBRANCH   5   6
ENDBRANCH   4   5
ENDBRANCH   3   4
ENDBRANCH   2   3
ENDBRANCH   1   2
BRANCH   1   9
ATOM      9  C   UNL     1      -8.246   0.827  11.969  1.00  0.00     0.000 C 
BRANCH   9  10
ATOM     10  C   UNL     1      -7.200   1.481  11.041  1.00  0.00    -0.000 C 
BRANCH  10  11
ATOM     11  C   UNL     1      -5.756   1.032  11.325  1.00  0.00    -0.000 C 
BRANCH  11  12
ATOM     12  C   UNL     1      -5.675  -0.396  11.884  1.00  0.00    -0.000 C 
BRANCH  12  13
ATOM     13  C   UNL     1      -5.225  -1.419  10.827  1.00  0.00    -0.003 C 
ATOM     14  C   UNL     1      -5.762  -2.824  11.097  1.00  0.00     0.004 C 
ENDBRANCH  12  13
ENDBRANCH  11  12
ENDBRANCH  10  11
ENDBRANCH   9  10
ENDBRANCH   1   9
TORSDOF 10
ENDMDL
MODEL 6
REMARK VINA RESULT:    -3.109      1.716      2.231
REMARK INTER + INTRA:          -6.011
REMARK INTER:                  -5.441
REMARK INTRA:                  -0.570
REMARK UNBOUND:                -1.085
REMARK SMILES CCCCCCCCCCCC(=O)[O-]
REMARK SMILES IDX 7 1 8 2 9 3 10 4 11 5 12 6 13 7 14 8 6 9 5 10 4 11 3 12 2 13
REMARK SMILES IDX 1 14
REMARK H PARENT
REMARK Flexibility Score: inf
ROOT
ATOM      1  C   UNL     1      -1.573   9.158   4.412  1.00  0.00     0.000 C 
ENDROOT
BRANCH   1   2
ATOM      2  C   UNL     1      -1.366  10.125   5.589  1.00  0.00     0.000 C 
BRANCH   2   3
ATOM      3  C   UNL     1       0.075  10.114   6.118  1.00  0.00     0.000 C 
BRANCH   3   4
ATOM      4  C   UNL     1       0.904   9.023   5.431  1.00  0.00     0.006 C 
BRANCH   4   5
ATOM      5  C   UNL     1       1.887   8.378   6.413  1.00  0.00     0.053 C 
BRANCH   5   6
ATOM      6  C   UNL     1       3.137   9.194   6.516  1.00  0.00     0.041 C 
ATOM      7  O   UNL     1       4.072   9.027   5.690  1.00  0.00    -0.550 OA
ATOM      8  O   UNL     1       3.288  10.105   7.553  1.00  0.00    -0.550 OA
ENDBRANCH   5   6
ENDBRANCH   4   5
ENDBRANCH   3   4
ENDBRANCH   2   3
ENDBRANCH   1   2
BRANCH   1   9
ATOM      9  C   UNL     1      -3.014   8.628   4.324  1.00  0.00     0.000 C 
BRANCH   9  10
ATOM     10  C   UNL     1      -4.050   9.771   4.267  1.00  0.00    -0.000 C 
BRANCH  10  11
ATOM     11  C   UNL     1      -4.935   9.741   3.009  1.00  0.00    -0.000 C 
BRANCH  11  12
ATOM     12  C   UNL     1      -4.169  10.123   1.733  1.00  0.00    -0.000 C 
BRANCH  12  13
ATOM     13  C   UNL     1      -3.887   8.911   0.829  1.00  0.00    -0.003 C 
ATOM     14  C   UNL     1      -3.219   9.299  -0.490  1.00  0.00     0.004 C 
ENDBRANCH  12  13
ENDBRANCH  11  12
ENDBRANCH  10  11
ENDBRANCH   9  10
ENDBRANCH   1   9
TORSDOF 10
ENDMDL
MODEL 7
REMARK VINA RESULT:    -3.095     14.370     16.313
REMARK INTER + INTRA:          -5.990
REMARK INTER:                  -4.404
REMARK INTRA:                  -1.586
REMARK UNBOUND:                -1.085
REMARK SMILES CCCCCCCCCCCC(=O)[O-]
REMARK SMILES IDX 7 1 8 2 9 3 10 4 11 5 12 6 13 7 14 8 6 9 5 10 4 11 3 12 2 13
REMARK SMILES IDX 1 14
REMARK H PARENT
REMARK Flexibility Score: inf
ROOT
ATOM      1  C   UNL     1       8.796  -2.087  -6.556  1.00  0.00     0.000 C 
ENDROOT
BRANCH   1   2
ATOM      2  C   UNL     1       8.644  -0.565  -6.706  1.00  0.00     0.000 C 
BRANCH   2   3
ATOM      3  C   UNL     1       8.739   0.174  -5.364  1.00  0.00     0.000 C 
BRANCH   3   4
ATOM      4  C   UNL     1       7.502   1.048  -5.130  1.00  0.00     0.006 C 
BRANCH   4   5
ATOM      5  C   UNL     1       6.736   1.280  -6.436  1.00  0.00     0.053 C 
BRANCH   5   6
ATOM      6  C   UNL     1       5.274   1.438  -6.165  1.00  0.00     0.041 C 
ATOM      7  O   UNL     1       4.872   1.733  -5.009  1.00  0.00    -0.550 OA
ATOM      8  O   UNL     1       4.351   1.213  -7.178  1.00  0.00    -0.550 OA
ENDBRANCH   5   6
ENDBRANCH   4   5
ENDBRANCH   3   4
ENDBRANCH   2   3
ENDBRANCH   1   2
BRANCH   1   9
ATOM      9  C   UNL     1       7.492  -2.847  -6.855  1.00  0.00     0.000 C 
BRANCH   9  10
ATOM     10  C   UNL     1       6.592  -2.087  -7.851  1.00  0.00    -0.000 C 
BRANCH  10  11
ATOM     11  C   UNL     1       5.089  -2.206  -7.542  1.00  0.00    -0.000 C 
BRANCH  11  12
ATOM     12  C   UNL     1       4.812  -2.821  -6.161  1.00  0.00    -0.000 C 
BRANCH  12  13
ATOM     13  C   UNL     1       4.235  -1.799  -5.167  1.00  0.00    -0.003 C 
ATOM     14  C   UNL     1       5.098  -1.640  -3.915  1.00  0.00     0.004 C 
ENDBRANCH  12  13
ENDBRANCH  11  12
ENDBRANCH  10  11
ENDBRANCH   9  10
ENDBRANCH   1   9
TORSDOF 10
ENDMDL
MODEL 8
REMARK VINA RESULT:    -3.067      4.128      6.683
REMARK INTER + INTRA:          -5.944
REMARK INTER:                  -5.310
REMARK INTRA:                  -0.634
REMARK UNBOUND:                -1.085
REMARK SMILES CCCCCCCCCCCC(=O)[O-]
REMARK SMILES IDX 7 1 8 2 9 3 10 4 11 5 12 6 13 7 14 8 6 9 5 10 4 11 3 12 2 13
REMARK SMILES IDX 1 14
REMARK H PARENT
REMARK Flexibility Score: inf
ROOT
ATOM      1  C   UNL     1      -0.372   9.398   4.422  1.00  0.00     0.000 C 
ENDROOT
BRANCH   1   2
ATOM      2  C   UNL     1      -1.859   9.009   4.410  1.00  0.00     0.000 C 
BRANCH   2   3
ATOM      3  C   UNL     1      -2.768  10.125   4.945  1.00  0.00     0.000 C 
BRANCH   3   4
ATOM      4  C   UNL     1      -4.135  10.099   4.253  1.00  0.00     0.006 C 
BRANCH   4   5
ATOM      5  C   UNL     1      -4.527   8.672   3.861  1.00  0.00     0.053 C 
BRANCH   5   6
ATOM      6  C   UNL     1      -5.436   8.686   2.673  1.00  0.00     0.041 C 
ATOM      7  O   UNL     1      -6.561   9.247   2.742  1.00  0.00    -0.550 OA
ATOM      8  O   UNL     1      -5.060   8.038   1.503  1.00  0.00    -0.550 OA
ENDBRANCH   5   6
ENDBRANCH   4   5
ENDBRANCH   3   4
ENDBRANCH   2   3
ENDBRANCH   1   2
BRANCH   1   9
ATOM      9  C   UNL     1       0.081   9.971   5.776  1.00  0.00     0.000 C 
BRANCH   9  10
ATOM     10  C   UNL     1       1.599   9.802   6.000  1.00  0.00    -0.000 C 
BRANCH  10  11
ATOM     11  C   UNL     1       1.969   8.534   6.789  1.00  0.00    -0.000 C 
BRANCH  11  12
ATOM     12  C   UNL     1       3.313   7.931   6.353  1.00  0.00    -0.000 C 
BRANCH  12  13
ATOM     13  C   UNL     1       3.170   6.977   5.156  1.00  0.00    -0.003 C 
ATOM     14  C   UNL     1       1.880   6.158   5.203  1.00  0.00     0.004 C 
ENDBRANCH  12  13
ENDBRANCH  11  12
ENDBRANCH  10  11
ENDBRANCH   9  10
ENDBRANCH   1   9
TORSDOF 10
ENDMDL
MODEL 9
REMARK VINA RESULT:    -2.524      3.407      6.147
REMARK INTER + INTRA:          -5.083
REMARK INTER:                  -4.021
REMARK INTRA:                  -1.063
REMARK UNBOUND:                -1.085
REMARK SMILES CCCCCCCCCCCC(=O)[O-]
REMARK SMILES IDX 7 1 8 2 9 3 10 4 11 5 12 6 13 7 14 8 6 9 5 10 4 11 3 12 2 13
REMARK SMILES IDX 1 14
REMARK H PARENT
REMARK Flexibility Score: inf
ROOT
ATOM      1  C   UNL     1       1.258  10.059   5.443  1.00  0.00     0.000 C 
ENDROOT
BRANCH   1   2
ATOM      2  C   UNL     1      -0.242   9.736   5.371  1.00  0.00     0.000 C 
BRANCH   2   3
ATOM      3  C   UNL     1      -0.651   9.115   4.028  1.00  0.00     0.000 C 
BRANCH   3   4
ATOM      4  C   UNL     1      -1.957   8.325   4.163  1.00  0.00     0.006 C 
BRANCH   4   5
ATOM      5  C   UNL     1      -3.025   8.856   3.203  1.00  0.00     0.053 C 
BRANCH   5   6
ATOM      6  C   UNL     1      -4.012   9.709   3.936  1.00  0.00     0.041 C 
ATOM      7  O   UNL     1      -3.751  10.125   5.095  1.00  0.00    -0.550 OA
ATOM      8  O   UNL     1      -5.240  10.005   3.358  1.00  0.00    -0.550 OA
ENDBRANCH   5   6
ENDBRANCH   4   5
ENDBRANCH   3   4
ENDBRANCH   2   3
ENDBRANCH   1   2
BRANCH   1   9
ATOM      9  C   UNL     1       1.798  10.062   6.883  1.00  0.00     0.000 C 
BRANCH   9  10
ATOM     10  C   UNL     1       2.812   8.924   7.126  1.00  0.00    -0.000 C 
BRANCH  10  11
ATOM     11  C   UNL     1       3.368   8.306   5.832  1.00  0.00    -0.000 C 
BRANCH  11  12
ATOM     12  C   UNL     1       3.212   6.778   5.785  1.00  0.00    -0.000 C 
BRANCH  12  13
ATOM     13  C   UNL     1       1.755   6.342   5.561  1.00  0.00    -0.003 C 
ATOM     14  C   UNL     1       1.438   6.069   4.090  1.00  0.00     0.004 C 
ENDBRANCH  12  13
ENDBRANCH  11  12
ENDBRANCH  10  11
ENDBRANCH   9  10
ENDBRANCH   1   9
TORSDOF 10
ENDMDL
