MODEL 1
REMARK VINA RESULT:     8.657      0.000      0.000
REMARK INTER + INTRA:          10.285
REMARK INTER:                  10.681
REMARK INTRA:                  -0.396
REMARK UNBOUND:                -0.396
REMARK SMILES C=C(CCC=C(C)C)[C@H]1CC=C(C)CC1
REMARK SMILES IDX 3 1 2 2 1 3 9 4 13 5 12 6 11 7 14 8 10 9 15 10 4 11 5 12
REMARK SMILES IDX 6 13 7 14 8 15
REMARK H PARENT
REMARK Flexibility Score: inf
ROOT
ATOM      1  C   UNL     1      -0.870   6.343 -11.278  1.00  0.00     0.035 C 
ENDROOT
BRANCH   1   2
ATOM      2  C   UNL     1       0.281   5.974 -10.363  1.00  0.00    -0.074 C 
ATOM      3  C   UNL     1       1.535   6.079 -10.837  1.00  0.00     0.008 C 
BRANCH   2   4
ATOM      4  C   UNL     1      -0.015   5.471  -8.949  1.00  0.00     0.018 C 
ATOM      5  C   UNL     1      -1.099   9.094  -6.655  1.00  0.00     0.039 C 
ATOM      6  C   UNL     1      -0.757   7.803  -7.346  1.00  0.00    -0.077 C 
ATOM      7  C   UNL     1       0.500   7.323  -7.250  1.00  0.00    -0.027 C 
ATOM      8  C   UNL     1      -1.794   7.154  -8.238  1.00  0.00     0.031 C 
ATOM      9  C   UNL     1       0.948   6.023  -7.876  1.00  0.00     0.035 C 
ATOM     10  C   UNL     1      -1.482   5.686  -8.541  1.00  0.00     0.013 C 
ENDBRANCH   2   4
ENDBRANCH   1   2
BRANCH   1  11
ATOM     11  C   UNL     1      -0.758   5.614 -12.623  1.00  0.00     0.032 C 
BRANCH  11  12
ATOM     12  C   UNL     1      -1.848   4.582 -12.764  1.00  0.00    -0.028 C 
ATOM     13  C   UNL     1      -3.152   4.871 -12.972  1.00  0.00    -0.080 C 
ATOM     14  C   UNL     1      -4.125   3.732 -13.133  1.00  0.00     0.039 C 
ATOM     15  C   UNL     1      -3.655   6.295 -13.031  1.00  0.00     0.039 C 
ENDBRANCH  11  12
ENDBRANCH   1  11
TORSDOF 4
ENDMDL
MODEL 2
REMARK VINA RESULT:     9.066     10.346     13.322
REMARK INTER + INTRA:          10.789
REMARK INTER:                  11.147
REMARK INTRA:                  -0.358
REMARK UNBOUND:                -0.396
REMARK SMILES C=C(CCC=C(C)C)[C@H]1CC=C(C)CC1
REMARK SMILES IDX 3 1 2 2 1 3 9 4 13 5 12 6 11 7 14 8 10 9 15 10 4 11 5 12
REMARK SMILES IDX 6 13 7 14 8 15
REMARK H PARENT
REMARK Flexibility Score: inf
ROOT
ATOM      1  C   UNL     1      11.571   7.362  -6.085  1.00  0.00     0.035 C 
ENDROOT
BRANCH   1   2
ATOM      2  C   UNL     1      11.731   8.139  -7.376  1.00  0.00    -0.074 C 
ATOM      3  C   UNL     1      11.938   9.467  -7.303  1.00  0.00     0.008 C 
BRANCH   2   4
ATOM      4  C   UNL     1      11.626   7.405  -8.714  1.00  0.00     0.018 C 
ATOM      5  C   UNL     1      14.097   9.777 -11.511  1.00  0.00     0.039 C 
ATOM      6  C   UNL     1      13.244   8.897 -10.640  1.00  0.00    -0.077 C 
ATOM      7  C   UNL     1      11.907   9.076 -10.639  1.00  0.00    -0.027 C 
ATOM      8  C   UNL     1      13.921   7.929  -9.693  1.00  0.00     0.031 C 
ATOM      9  C   UNL     1      10.951   8.232  -9.829  1.00  0.00     0.035 C 
ATOM     10  C   UNL     1      12.976   6.838  -9.183  1.00  0.00     0.013 C 
ENDBRANCH   2   4
ENDBRANCH   1   2
BRANCH   1  11
ATOM     11  C   UNL     1      10.111   6.939  -5.876  1.00  0.00     0.032 C 
BRANCH  11  12
ATOM     12  C   UNL     1       9.175   8.087  -6.160  1.00  0.00    -0.028 C 
ATOM     13  C   UNL     1       7.827   7.994  -6.150  1.00  0.00    -0.080 C 
ATOM     14  C   UNL     1       7.019   9.237  -6.416  1.00  0.00     0.039 C 
ATOM     15  C   UNL     1       7.118   6.683  -5.899  1.00  0.00     0.039 C 
ENDBRANCH  11  12
ENDBRANCH   1  11
TORSDOF 4
ENDMDL
MODEL 3
REMARK VINA RESULT:    10.017      1.136      5.373
REMARK INTER + INTRA:          11.963
REMARK INTER:                  11.909
REMARK INTRA:                   0.054
REMARK UNBOUND:                -0.396
REMARK SMILES C=C(CCC=C(C)C)[C@H]1CC=C(C)CC1
REMARK SMILES IDX 3 1 2 2 1 3 9 4 13 5 12 6 11 7 14 8 10 9 15 10 4 11 5 12
REMARK SMILES IDX 6 13 7 14 8 15
REMARK H PARENT
REMARK Flexibility Score: inf
ROOT
ATOM      1  C   UNL     1       1.658   5.423  -8.496  1.00  0.00     0.035 C 
ENDROOT
BRANCH   1   2
ATOM      2  C   UNL     1       0.986   5.170  -9.830  1.00  0.00    -0.074 C 
ATOM      3  C   UNL     1       1.036   3.929 -10.349  1.00  0.00     0.008 C 
BRANCH   2   4
ATOM      4  C   UNL     1       0.299   6.327 -10.558  1.00  0.00     0.018 C 
ATOM      5  C   UNL     1      -2.508   4.395 -13.376  1.00  0.00     0.039 C 
ATOM      6  C   UNL     1      -1.597   5.148 -12.448  1.00  0.00    -0.077 C 
ATOM      7  C   UNL     1      -0.402   5.574 -12.907  1.00  0.00    -0.027 C 
ATOM      8  C   UNL     1      -1.989   5.288 -10.992  1.00  0.00     0.031 C 
ATOM      9  C   UNL     1       0.580   6.365 -12.075  1.00  0.00     0.035 C 
ATOM     10  C   UNL     1      -1.211   6.391 -10.270  1.00  0.00     0.013 C 
ENDBRANCH   2   4
ENDBRANCH   1   2
BRANCH   1  11
ATOM     11  C   UNL     1       0.621   5.723  -7.406  1.00  0.00     0.032 C 
BRANCH  11  12
ATOM     12  C   UNL     1       0.493   7.210  -7.185  1.00  0.00    -0.028 C 
ATOM     13  C   UNL     1      -0.673   7.890  -7.227  1.00  0.00    -0.080 C 
ATOM     14  C   UNL     1      -0.652   9.371  -6.948  1.00  0.00     0.039 C 
ATOM     15  C   UNL     1      -1.983   7.214  -7.558  1.00  0.00     0.039 C 
ENDBRANCH  11  12
ENDBRANCH   1  11
TORSDOF 4
ENDMDL
MODEL 4
REMARK VINA RESULT:    10.886     11.188     13.820
REMARK INTER + INTRA:          13.036
REMARK INTER:                  13.132
REMARK INTRA:                  -0.096
REMARK UNBOUND:                -0.396
REMARK SMILES C=C(CCC=C(C)C)[C@H]1CC=C(C)CC1
REMARK SMILES IDX 3 1 2 2 1 3 9 4 13 5 12 6 11 7 14 8 10 9 15 10 4 11 5 12
REMARK SMILES IDX 6 13 7 14 8 15
REMARK H PARENT
REMARK Flexibility Score: inf
ROOT
ATOM      1  C   UNL     1      11.612   8.610  -9.519  1.00  0.00     0.035 C 
ENDROOT
BRANCH   1   2
ATOM      2  C   UNL     1      12.145   7.857  -8.317  1.00  0.00    -0.074 C 
ATOM      3  C   UNL     1      12.850   6.730  -8.526  1.00  0.00     0.008 C 
BRANCH   2   4
ATOM      4  C   UNL     1      11.846   8.378  -6.910  1.00  0.00     0.018 C 
ATOM      5  C   UNL     1       7.840   6.779  -5.932  1.00  0.00     0.039 C 
ATOM      6  C   UNL     1       9.207   7.360  -6.162  1.00  0.00    -0.077 C 
ATOM      7  C   UNL     1       9.311   8.631  -6.605  1.00  0.00    -0.027 C 
ATOM      8  C   UNL     1      10.418   6.463  -6.017  1.00  0.00     0.031 C 
ATOM      9  C   UNL     1      10.630   9.328  -6.842  1.00  0.00     0.035 C 
ATOM     10  C   UNL     1      11.725   7.247  -5.875  1.00  0.00     0.013 C 
ENDBRANCH   2   4
ENDBRANCH   1   2
BRANCH   1  11
ATOM     11  C   UNL     1      12.759   9.147 -10.384  1.00  0.00     0.032 C 
BRANCH  11  12
ATOM     12  C   UNL     1      13.495   8.017 -11.059  1.00  0.00    -0.028 C 
ATOM     13  C   UNL     1      14.753   8.107 -11.544  1.00  0.00    -0.080 C 
ATOM     14  C   UNL     1      15.375   6.880 -12.160  1.00  0.00     0.039 C 
ATOM     15  C   UNL     1      15.537   9.397 -11.499  1.00  0.00     0.039 C 
ENDBRANCH  11  12
ENDBRANCH   1  11
TORSDOF 4
ENDMDL
