MODEL 1
REMARK VINA RESULT:    -4.089      0.000      0.000
REMARK INTER + INTRA:          -6.930
REMARK INTER:                  -6.241
REMARK INTRA:                  -0.689
REMARK UNBOUND:                -0.689
REMARK SMILES CCCCCCCCCCC(=O)[O-]
REMARK SMILES IDX 7 1 8 2 9 3 10 4 11 5 12 6 13 7 6 8 5 9 4 10 3 11 2 12 1 13
REMARK H PARENT
REMARK Flexibility Score: inf
ROOT
ATOM      1  C   UNL     1      25.404  -5.528  52.211  1.00  0.00     0.000 C 
ENDROOT
BRANCH   1   2
ATOM      2  C   UNL     1      25.868  -5.995  53.601  1.00  0.00     0.000 C 
BRANCH   2   3
ATOM      3  C   UNL     1      27.385  -6.247  53.667  1.00  0.00     0.006 C 
BRANCH   3   4
ATOM      4  C   UNL     1      28.069  -6.014  52.313  1.00  0.00     0.053 C 
BRANCH   4   5
ATOM      5  C   UNL     1      29.234  -6.933  52.113  1.00  0.00     0.041 C 
ATOM      6  O   UNL     1      30.129  -7.023  52.993  1.00  0.00    -0.550 OA
ATOM      7  O   UNL     1      29.313  -7.718  50.969  1.00  0.00    -0.550 OA
ENDBRANCH   4   5
ENDBRANCH   3   4
ENDBRANCH   2   3
ENDBRANCH   1   2
BRANCH   1   8
ATOM      8  C   UNL     1      23.943  -5.045  52.209  1.00  0.00     0.000 C 
BRANCH   8   9
ATOM      9  C   UNL     1      23.086  -5.758  53.267  1.00  0.00    -0.000 C 
BRANCH   9  10
ATOM     10  C   UNL     1      22.368  -4.777  54.210  1.00  0.00    -0.000 C 
BRANCH  10  11
ATOM     11  C   UNL     1      23.112  -3.439  54.346  1.00  0.00    -0.000 C 
BRANCH  11  12
ATOM     12  C   UNL     1      24.068  -3.415  55.547  1.00  0.00    -0.003 C 
ATOM     13  C   UNL     1      23.509  -2.554  56.677  1.00  0.00     0.004 C 
ENDBRANCH  11  12
ENDBRANCH  10  11
ENDBRANCH   9  10
ENDBRANCH   8   9
ENDBRANCH   1   8
TORSDOF 9
ENDMDL
MODEL 2
REMARK VINA RESULT:    -4.051      3.527      5.157
REMARK INTER + INTRA:          -6.872
REMARK INTER:                  -5.737
REMARK INTRA:                  -1.135
REMARK UNBOUND:                -0.689
REMARK SMILES CCCCCCCCCCC(=O)[O-]
REMARK SMILES IDX 7 1 8 2 9 3 10 4 11 5 12 6 13 7 6 8 5 9 4 10 3 11 2 12 1 13
REMARK H PARENT
REMARK Flexibility Score: inf
ROOT
ATOM      1  C   UNL     1      24.308  -3.169  56.097  1.00  0.00     0.000 C 
ENDROOT
BRANCH   1   2
ATOM      2  C   UNL     1      23.642  -2.234  55.074  1.00  0.00     0.000 C 
BRANCH   2   3
ATOM      3  C   UNL     1      23.135  -2.981  53.828  1.00  0.00     0.006 C 
BRANCH   3   4
ATOM      4  C   UNL     1      22.861  -4.464  54.114  1.00  0.00     0.053 C 
BRANCH   4   5
ATOM      5  C   UNL     1      23.535  -5.356  53.118  1.00  0.00     0.041 C 
ATOM      6  O   UNL     1      24.302  -4.868  52.247  1.00  0.00    -0.550 OA
ATOM      7  O   UNL     1      23.345  -6.731  53.174  1.00  0.00    -0.550 OA
ENDBRANCH   4   5
ENDBRANCH   3   4
ENDBRANCH   2   3
ENDBRANCH   1   2
BRANCH   1   8
ATOM      8  C   UNL     1      23.691  -3.042  57.501  1.00  0.00     0.000 C 
BRANCH   8   9
ATOM      9  C   UNL     1      22.396  -3.857  57.650  1.00  0.00    -0.000 C 
BRANCH   9  10
ATOM     10  C   UNL     1      21.132  -2.986  57.541  1.00  0.00    -0.000 C 
BRANCH  10  11
ATOM     11  C   UNL     1      21.363  -1.547  58.028  1.00  0.00    -0.000 C 
BRANCH  11  12
ATOM     12  C   UNL     1      21.059  -0.502  56.945  1.00  0.00    -0.003 C 
ATOM     13  C   UNL     1      20.230  -1.105  55.816  1.00  0.00     0.004 C 
ENDBRANCH  11  12
ENDBRANCH  10  11
ENDBRANCH   9  10
ENDBRANCH   8   9
ENDBRANCH   1   8
TORSDOF 9
ENDMDL
MODEL 3
REMARK VINA RESULT:    -4.045      4.267      6.683
REMARK INTER + INTRA:          -6.863
REMARK INTER:                  -6.300
REMARK INTRA:                  -0.563
REMARK UNBOUND:                -0.689
REMARK SMILES CCCCCCCCCCC(=O)[O-]
REMARK SMILES IDX 7 1 8 2 9 3 10 4 11 5 12 6 13 7 6 8 5 9 4 10 3 11 2 12 1 13
REMARK H PARENT
REMARK Flexibility Score: inf
ROOT
ATOM      1  C   UNL     1      23.465  -3.694  53.203  1.00  0.00     0.000 C 
ENDROOT
BRANCH   1   2
ATOM      2  C   UNL     1      22.911  -3.540  54.629  1.00  0.00     0.000 C 
BRANCH   2   3
ATOM      3  C   UNL     1      23.920  -2.887  55.591  1.00  0.00     0.006 C 
BRANCH   3   4
ATOM      4  C   UNL     1      23.626  -3.230  57.058  1.00  0.00     0.053 C 
BRANCH   4   5
ATOM      5  C   UNL     1      22.204  -2.934  57.424  1.00  0.00     0.041 C 
ATOM      6  O   UNL     1      21.431  -3.867  57.766  1.00  0.00    -0.550 OA
ATOM      7  O   UNL     1      21.743  -1.623  57.423  1.00  0.00    -0.550 OA
ENDBRANCH   4   5
ENDBRANCH   3   4
ENDBRANCH   2   3
ENDBRANCH   1   2
BRANCH   1   8
ATOM      8  C   UNL     1      23.582  -5.166  52.772  1.00  0.00     0.000 C 
BRANCH   8   9
ATOM      9  C   UNL     1      25.043  -5.616  52.606  1.00  0.00    -0.000 C 
BRANCH   9  10
ATOM     10  C   UNL     1      25.783  -5.737  53.950  1.00  0.00    -0.000 C 
BRANCH  10  11
ATOM     11  C   UNL     1      27.217  -6.265  53.788  1.00  0.00    -0.000 C 
BRANCH  11  12
ATOM     12  C   UNL     1      27.780  -6.022  52.381  1.00  0.00    -0.003 C 
ATOM     13  C   UNL     1      29.169  -6.636  52.230  1.00  0.00     0.004 C 
ENDBRANCH  11  12
ENDBRANCH  10  11
ENDBRANCH   9  10
ENDBRANCH   8   9
ENDBRANCH   1   8
TORSDOF 9
ENDMDL
MODEL 4
REMARK VINA RESULT:    -3.959     15.215     16.693
REMARK INTER + INTRA:          -6.731
REMARK INTER:                  -6.283
REMARK INTRA:                  -0.448
REMARK UNBOUND:                -0.689
REMARK SMILES CCCCCCCCCCC(=O)[O-]
REMARK SMILES IDX 7 1 8 2 9 3 10 4 11 5 12 6 13 7 6 8 5 9 4 10 3 11 2 12 1 13
REMARK H PARENT
REMARK Flexibility Score: inf
ROOT
ATOM      1  C   UNL     1      25.018   4.439  40.661  1.00  0.00     0.000 C 
ENDROOT
BRANCH   1   2
ATOM      2  C   UNL     1      24.855   3.340  39.598  1.00  0.00     0.000 C 
BRANCH   2   3
ATOM      3  C   UNL     1      23.524   2.579  39.728  1.00  0.00     0.006 C 
BRANCH   3   4
ATOM      4  C   UNL     1      23.483   1.327  38.841  1.00  0.00     0.053 C 
BRANCH   4   5
ATOM      5  C   UNL     1      23.590   0.070  39.647  1.00  0.00     0.041 C 
ATOM      6  O   UNL     1      23.376   0.092  40.887  1.00  0.00    -0.550 OA
ATOM      7  O   UNL     1      23.890  -1.134  39.022  1.00  0.00    -0.550 OA
ENDBRANCH   4   5
ENDBRANCH   3   4
ENDBRANCH   2   3
ENDBRANCH   1   2
BRANCH   1   8
ATOM      8  C   UNL     1      26.220   4.188  41.588  1.00  0.00     0.000 C 
BRANCH   8   9
ATOM      9  C   UNL     1      27.422   5.083  41.245  1.00  0.00    -0.000 C 
BRANCH   9  10
ATOM     10  C   UNL     1      28.682   4.274  40.891  1.00  0.00    -0.000 C 
BRANCH  10  11
ATOM     11  C   UNL     1      28.949   4.230  39.378  1.00  0.00    -0.000 C 
BRANCH  11  12
ATOM     12  C   UNL     1      30.355   4.725  39.012  1.00  0.00    -0.003 C 
ATOM     13  C   UNL     1      31.108   5.206  40.250  1.00  0.00     0.004 C 
ENDBRANCH  11  12
ENDBRANCH  10  11
ENDBRANCH   9  10
ENDBRANCH   8   9
ENDBRANCH   1   8
TORSDOF 9
ENDMDL
MODEL 5
REMARK VINA RESULT:    -3.746     10.181     10.810
REMARK INTER + INTRA:          -6.406
REMARK INTER:                  -5.843
REMARK INTRA:                  -0.563
REMARK UNBOUND:                -0.689
REMARK SMILES CCCCCCCCCCC(=O)[O-]
REMARK SMILES IDX 7 1 8 2 9 3 10 4 11 5 12 6 13 7 6 8 5 9 4 10 3 11 2 12 1 13
REMARK H PARENT
REMARK Flexibility Score: inf
ROOT
ATOM      1  C   UNL     1      26.993   4.578  47.274  1.00  0.00     0.000 C 
ENDROOT
BRANCH   1   2
ATOM      2  C   UNL     1      27.377   5.590  48.365  1.00  0.00     0.000 C 
BRANCH   2   3
ATOM      3  C   UNL     1      28.900   5.738  48.529  1.00  0.00     0.006 C 
BRANCH   3   4
ATOM      4  C   UNL     1      29.504   4.606  49.371  1.00  0.00     0.053 C 
BRANCH   4   5
ATOM      5  C   UNL     1      30.997   4.697  49.438  1.00  0.00     0.041 C 
ATOM      6  O   UNL     1      31.657   3.835  50.076  1.00  0.00    -0.550 OA
ATOM      7  O   UNL     1      31.663   5.713  48.763  1.00  0.00    -0.550 OA
ENDBRANCH   4   5
ENDBRANCH   3   4
ENDBRANCH   2   3
ENDBRANCH   1   2
BRANCH   1   8
ATOM      8  C   UNL     1      25.730   3.775  47.632  1.00  0.00     0.000 C 
BRANCH   8   9
ATOM      9  C   UNL     1      25.514   3.666  49.150  1.00  0.00    -0.000 C 
BRANCH   9  10
ATOM     10  C   UNL     1      25.083   2.255  49.588  1.00  0.00    -0.000 C 
BRANCH  10  11
ATOM     11  C   UNL     1      24.215   1.550  48.534  1.00  0.00    -0.000 C 
BRANCH  11  12
ATOM     12  C   UNL     1      24.380   0.024  48.559  1.00  0.00    -0.003 C 
ATOM     13  C   UNL     1      24.983  -0.443  49.881  1.00  0.00     0.004 C 
ENDBRANCH  11  12
ENDBRANCH  10  11
ENDBRANCH   9  10
ENDBRANCH   8   9
ENDBRANCH   1   8
TORSDOF 9
ENDMDL
MODEL 6
REMARK VINA RESULT:    -3.706     14.783     15.766
REMARK INTER + INTRA:          -6.345
REMARK INTER:                  -5.433
REMARK INTRA:                  -0.911
REMARK UNBOUND:                -0.689
REMARK SMILES CCCCCCCCCCC(=O)[O-]
REMARK SMILES IDX 7 1 8 2 9 3 10 4 11 5 12 6 13 7 6 8 5 9 4 10 3 11 2 12 1 13
REMARK H PARENT
REMARK Flexibility Score: inf
ROOT
ATOM      1  C   UNL     1      31.304   5.988  44.839  1.00  0.00     0.000 C 
ENDROOT
BRANCH   1   2
ATOM      2  C   UNL     1      31.443   5.254  46.182  1.00  0.00     0.000 C 
BRANCH   2   3
ATOM      3  C   UNL     1      30.896   6.072  47.365  1.00  0.00     0.006 C 
BRANCH   3   4
ATOM      4  C   UNL     1      31.469   5.600  48.709  1.00  0.00     0.053 C 
BRANCH   4   5
ATOM      5  C   UNL     1      30.588   4.580  49.362  1.00  0.00     0.041 C 
ATOM      6  O   UNL     1      31.094   3.582  49.939  1.00  0.00    -0.550 OA
ATOM      7  O   UNL     1      29.209   4.751  49.366  1.00  0.00    -0.550 OA
ENDBRANCH   4   5
ENDBRANCH   3   4
ENDBRANCH   2   3
ENDBRANCH   1   2
BRANCH   1   8
ATOM      8  C   UNL     1      32.647   6.122  44.098  1.00  0.00     0.000 C 
BRANCH   8   9
ATOM      9  C   UNL     1      33.214   7.549  44.163  1.00  0.00    -0.000 C 
BRANCH   9  10
ATOM     10  C   UNL     1      33.979   7.825  45.469  1.00  0.00    -0.000 C 
BRANCH  10  11
ATOM     11  C   UNL     1      33.392   9.008  46.257  1.00  0.00    -0.000 C 
BRANCH  11  12
ATOM     12  C   UNL     1      32.115   9.568  45.615  1.00  0.00    -0.003 C 
ATOM     13  C   UNL     1      31.674  10.857  46.303  1.00  0.00     0.004 C 
ENDBRANCH  11  12
ENDBRANCH  10  11
ENDBRANCH   9  10
ENDBRANCH   8   9
ENDBRANCH   1   8
TORSDOF 9
ENDMDL
MODEL 7
REMARK VINA RESULT:    -3.688     15.882     16.884
REMARK INTER + INTRA:          -6.317
REMARK INTER:                  -5.756
REMARK INTRA:                  -0.562
REMARK UNBOUND:                -0.689
REMARK SMILES CCCCCCCCCCC(=O)[O-]
REMARK SMILES IDX 7 1 8 2 9 3 10 4 11 5 12 6 13 7 6 8 5 9 4 10 3 11 2 12 1 13
REMARK H PARENT
REMARK Flexibility Score: inf
ROOT
ATOM      1  C   UNL     1      26.885   5.270  42.088  1.00  0.00     0.000 C 
ENDROOT
BRANCH   1   2
ATOM      2  C   UNL     1      28.192   5.690  41.396  1.00  0.00     0.000 C 
BRANCH   2   3
ATOM      3  C   UNL     1      29.034   4.487  40.936  1.00  0.00     0.006 C 
BRANCH   3   4
ATOM      4  C   UNL     1      29.152   4.415  39.407  1.00  0.00     0.053 C 
BRANCH   4   5
ATOM      5  C   UNL     1      30.403   5.073  38.914  1.00  0.00     0.041 C 
ATOM      6  O   UNL     1      31.518   4.769  39.414  1.00  0.00    -0.550 OA
ATOM      7  O   UNL     1      30.342   5.995  37.877  1.00  0.00    -0.550 OA
ENDBRANCH   4   5
ENDBRANCH   3   4
ENDBRANCH   2   3
ENDBRANCH   1   2
BRANCH   1   8
ATOM      8  C   UNL     1      25.635   5.728  41.316  1.00  0.00     0.000 C 
BRANCH   8   9
ATOM      9  C   UNL     1      24.680   4.566  41.000  1.00  0.00    -0.000 C 
BRANCH   9  10
ATOM     10  C   UNL     1      25.287   3.550  40.017  1.00  0.00    -0.000 C 
BRANCH  10  11
ATOM     11  C   UNL     1      24.223   2.869  39.141  1.00  0.00    -0.000 C 
BRANCH  11  12
ATOM     12  C   UNL     1      23.440   1.787  39.898  1.00  0.00    -0.003 C 
ATOM     13  C   UNL     1      23.709   0.403  39.314  1.00  0.00     0.004 C 
ENDBRANCH  11  12
ENDBRANCH  10  11
ENDBRANCH   9  10
ENDBRANCH   8   9
ENDBRANCH   1   8
TORSDOF 9
ENDMDL
MODEL 8
REMARK VINA RESULT:    -3.649      5.697      7.744
REMARK INTER + INTRA:          -6.258
REMARK INTER:                  -4.987
REMARK INTRA:                  -1.271
REMARK UNBOUND:                -0.689
REMARK SMILES CCCCCCCCCCC(=O)[O-]
REMARK SMILES IDX 7 1 8 2 9 3 10 4 11 5 12 6 13 7 6 8 5 9 4 10 3 11 2 12 1 13
REMARK H PARENT
REMARK Flexibility Score: inf
ROOT
ATOM      1  C   UNL     1      23.408  -2.904  57.532  1.00  0.00     0.000 C 
ENDROOT
BRANCH   1   2
ATOM      2  C   UNL     1      22.362  -4.017  57.712  1.00  0.00     0.000 C 
BRANCH   2   3
ATOM      3  C   UNL     1      20.918  -3.506  57.557  1.00  0.00     0.006 C 
BRANCH   3   4
ATOM      4  C   UNL     1      20.832  -1.977  57.658  1.00  0.00     0.053 C 
BRANCH   4   5
ATOM      5  C   UNL     1      19.877  -1.406  56.655  1.00  0.00     0.041 C 
ATOM      6  O   UNL     1      20.275  -1.106  55.499  1.00  0.00    -0.550 OA
ATOM      7  O   UNL     1      18.538  -1.239  56.986  1.00  0.00    -0.550 OA
ENDBRANCH   4   5
ENDBRANCH   3   4
ENDBRANCH   2   3
ENDBRANCH   1   2
BRANCH   1   8
ATOM      8  C   UNL     1      24.159  -3.012  56.194  1.00  0.00     0.000 C 
BRANCH   8   9
ATOM      9  C   UNL     1      23.560  -2.105  55.108  1.00  0.00    -0.000 C 
BRANCH   9  10
ATOM     10  C   UNL     1      23.214  -2.871  53.819  1.00  0.00    -0.000 C 
BRANCH  10  11
ATOM     11  C   UNL     1      22.952  -4.364  54.072  1.00  0.00    -0.000 C 
BRANCH  11  12
ATOM     12  C   UNL     1      21.455  -4.697  54.143  1.00  0.00    -0.003 C 
ATOM     13  C   UNL     1      21.227  -6.076  54.754  1.00  0.00     0.004 C 
ENDBRANCH  11  12
ENDBRANCH  10  11
ENDBRANCH   9  10
ENDBRANCH   8   9
ENDBRANCH   1   8
TORSDOF 9
ENDMDL
MODEL 9
REMARK VINA RESULT:    -3.645      3.300      5.025
REMARK INTER + INTRA:          -6.252
REMARK INTER:                  -5.007
REMARK INTRA:                  -1.245
REMARK UNBOUND:                -0.689
REMARK SMILES CCCCCCCCCCC(=O)[O-]
REMARK SMILES IDX 7 1 8 2 9 3 10 4 11 5 12 6 13 7 6 8 5 9 4 10 3 11 2 12 1 13
REMARK H PARENT
REMARK Flexibility Score: inf
ROOT
ATOM      1  C   UNL     1      20.296  -4.370  55.924  1.00  0.00     0.000 C 
ENDROOT
BRANCH   1   2
ATOM      2  C   UNL     1      21.272  -5.289  55.171  1.00  0.00     0.000 C 
BRANCH   2   3
ATOM      3  C   UNL     1      21.697  -4.714  53.808  1.00  0.00     0.006 C 
BRANCH   3   4
ATOM      4  C   UNL     1      23.222  -4.695  53.640  1.00  0.00     0.053 C 
BRANCH   4   5
ATOM      5  C   UNL     1      23.694  -5.774  52.714  1.00  0.00     0.041 C 
ATOM      6  O   UNL     1      23.161  -6.914  52.747  1.00  0.00    -0.550 OA
ATOM      7  O   UNL     1      24.696  -5.509  51.790  1.00  0.00    -0.550 OA
ENDBRANCH   4   5
ENDBRANCH   3   4
ENDBRANCH   2   3
ENDBRANCH   1   2
BRANCH   1   8
ATOM      8  C   UNL     1      20.668  -4.204  57.408  1.00  0.00     0.000 C 
BRANCH   8   9
ATOM      9  C   UNL     1      22.186  -4.255  57.643  1.00  0.00    -0.000 C 
BRANCH   9  10
ATOM     10  C   UNL     1      22.824  -2.856  57.711  1.00  0.00    -0.000 C 
BRANCH  10  11
ATOM     11  C   UNL     1      23.635  -2.516  56.450  1.00  0.00    -0.000 C 
BRANCH  11  12
ATOM     12  C   UNL     1      22.878  -1.581  55.496  1.00  0.00    -0.003 C 
ATOM     13  C   UNL     1      21.773  -0.825  56.229  1.00  0.00     0.004 C 
ENDBRANCH  11  12
ENDBRANCH  10  11
ENDBRANCH   9  10
ENDBRANCH   8   9
ENDBRANCH   1   8
TORSDOF 9
ENDMDL
