MODEL 1
REMARK VINA RESULT:    -3.780      0.000      0.000
REMARK INTER + INTRA:          -4.863
REMARK INTER:                  -4.774
REMARK INTRA:                  -0.089
REMARK UNBOUND:                -0.089
REMARK SMILES CCCCCCO
REMARK SMILES IDX 4 1 3 2 2 3 1 4 5 5 6 6 7 7
REMARK H PARENT 7 8
REMARK Flexibility Score: inf
ROOT
ATOM      1  C   UNL     1       2.895  -1.004  14.776  1.00  0.00     0.002 C 
ENDROOT
BRANCH   1   2
ATOM      2  C   UNL     1       1.527  -0.315  14.982  1.00  0.00    -0.000 C 
BRANCH   2   3
ATOM      3  C   UNL     1       0.531  -0.578  13.839  1.00  0.00    -0.003 C 
ATOM      4  C   UNL     1      -0.228   0.677  13.411  1.00  0.00     0.004 C 
ENDBRANCH   2   3
ENDBRANCH   1   2
BRANCH   1   5
ATOM      5  C   UNL     1       2.786  -2.381  14.095  1.00  0.00     0.028 C 
BRANCH   5   6
ATOM      6  C   UNL     1       2.470  -3.511  15.081  1.00  0.00     0.156 C 
BRANCH   6   7
ATOM      7  O   UNL     1       2.370  -4.732  14.400  1.00  0.00    -0.396 OA
ATOM      8  H   UNL     1       2.434  -4.514  13.434  1.00  0.00     0.210 HD
ENDBRANCH   6   7
ENDBRANCH   5   6
ENDBRANCH   1   5
TORSDOF 5
ENDMDL
MODEL 2
REMARK VINA RESULT:    -3.724      7.620      8.745
REMARK INTER + INTRA:          -4.793
REMARK INTER:                  -4.642
REMARK INTRA:                  -0.151
REMARK UNBOUND:                -0.089
REMARK SMILES CCCCCCO
REMARK SMILES IDX 4 1 3 2 2 3 1 4 5 5 6 6 7 7
REMARK H PARENT 7 8
REMARK Flexibility Score: inf
ROOT
ATOM      1  C   UNL     1       2.925   4.956  11.157  1.00  0.00     0.002 C 
ENDROOT
BRANCH   1   2
ATOM      2  C   UNL     1       1.902   4.338  10.177  1.00  0.00    -0.000 C 
BRANCH   2   3
ATOM      3  C   UNL     1       0.819   3.495  10.872  1.00  0.00    -0.003 C 
ATOM      4  C   UNL     1      -0.059   4.317  11.814  1.00  0.00     0.004 C 
ENDBRANCH   2   3
ENDBRANCH   1   2
BRANCH   1   5
ATOM      5  C   UNL     1       3.257   6.427  10.841  1.00  0.00     0.028 C 
BRANCH   5   6
ATOM      6  C   UNL     1       2.008   7.287  10.623  1.00  0.00     0.156 C 
BRANCH   6   7
ATOM      7  O   UNL     1       1.876   8.219  11.662  1.00  0.00    -0.396 OA
ATOM      8  H   UNL     1       2.797   8.412  11.976  1.00  0.00     0.210 HD
ENDBRANCH   6   7
ENDBRANCH   5   6
ENDBRANCH   1   5
TORSDOF 5
ENDMDL
MODEL 3
REMARK VINA RESULT:    -3.719      1.849      3.553
REMARK INTER + INTRA:          -4.786
REMARK INTER:                  -4.575
REMARK INTRA:                  -0.211
REMARK UNBOUND:                -0.089
REMARK SMILES CCCCCCO
REMARK SMILES IDX 4 1 3 2 2 3 1 4 5 5 6 6 7 7
REMARK H PARENT 7 8
REMARK Flexibility Score: inf
ROOT
ATOM      1  C   UNL     1       2.112  -0.621  15.436  1.00  0.00     0.002 C 
ENDROOT
BRANCH   1   2
ATOM      2  C   UNL     1       3.155  -1.323  14.535  1.00  0.00    -0.000 C 
BRANCH   2   3
ATOM      3  C   UNL     1       2.786  -2.776  14.190  1.00  0.00    -0.003 C 
ATOM      4  C   UNL     1       2.646  -3.663  15.426  1.00  0.00     0.004 C 
ENDBRANCH   2   3
ENDBRANCH   1   2
BRANCH   1   5
ATOM      5  C   UNL     1       0.902  -0.078  14.653  1.00  0.00     0.028 C 
BRANCH   5   6
ATOM      6  C   UNL     1      -0.348  -0.952  14.804  1.00  0.00     0.156 C 
BRANCH   6   7
ATOM      7  O   UNL     1      -0.256  -1.727  15.968  1.00  0.00    -0.396 OA
ATOM      8  H   UNL     1      -0.972  -1.402  16.573  1.00  0.00     0.210 HD
ENDBRANCH   6   7
ENDBRANCH   5   6
ENDBRANCH   1   5
TORSDOF 5
ENDMDL
MODEL 4
REMARK VINA RESULT:    -3.629      8.050      8.803
REMARK INTER + INTRA:          -4.674
REMARK INTER:                  -4.464
REMARK INTRA:                  -0.210
REMARK UNBOUND:                -0.089
REMARK SMILES CCCCCCO
REMARK SMILES IDX 4 1 3 2 2 3 1 4 5 5 6 6 7 7
REMARK H PARENT 7 8
REMARK Flexibility Score: inf
ROOT
ATOM      1  C   UNL     1       2.945   4.812   9.970  1.00  0.00     0.002 C 
ENDROOT
BRANCH   1   2
ATOM      2  C   UNL     1       3.371   5.545  11.263  1.00  0.00    -0.000 C 
BRANCH   2   3
ATOM      3  C   UNL     1       2.304   6.516  11.796  1.00  0.00    -0.003 C 
ATOM      4  C   UNL     1       2.173   7.780  10.947  1.00  0.00     0.004 C 
ENDBRANCH   2   3
ENDBRANCH   1   2
BRANCH   1   5
ATOM      5  C   UNL     1       1.511   4.252  10.034  1.00  0.00     0.028 C 
BRANCH   5   6
ATOM      6  C   UNL     1       0.609   4.792   8.920  1.00  0.00     0.156 C 
BRANCH   6   7
ATOM      7  O   UNL     1      -0.274   5.750   9.435  1.00  0.00    -0.396 OA
ATOM      8  H   UNL     1      -0.979   5.245   9.916  1.00  0.00     0.210 HD
ENDBRANCH   6   7
ENDBRANCH   5   6
ENDBRANCH   1   5
TORSDOF 5
ENDMDL
MODEL 5
REMARK VINA RESULT:    -3.582      7.724      8.643
REMARK INTER + INTRA:          -4.614
REMARK INTER:                  -4.412
REMARK INTRA:                  -0.202
REMARK UNBOUND:                -0.089
REMARK SMILES CCCCCCO
REMARK SMILES IDX 4 1 3 2 2 3 1 4 5 5 6 6 7 7
REMARK H PARENT 7 8
REMARK Flexibility Score: inf
ROOT
ATOM      1  C   UNL     1       1.710   4.215  10.736  1.00  0.00     0.002 C 
ENDROOT
BRANCH   1   2
ATOM      2  C   UNL     1       2.881   5.146  11.121  1.00  0.00    -0.000 C 
BRANCH   2   3
ATOM      3  C   UNL     1       2.427   6.468  11.764  1.00  0.00    -0.003 C 
ATOM      4  C   UNL     1       2.390   7.629  10.772  1.00  0.00     0.004 C 
ENDBRANCH   2   3
ENDBRANCH   1   2
BRANCH   1   5
ATOM      5  C   UNL     1       0.358   4.666  11.321  1.00  0.00     0.028 C 
BRANCH   5   6
ATOM      6  C   UNL     1      -0.716   4.878  10.248  1.00  0.00     0.156 C 
BRANCH   6   7
ATOM      7  O   UNL     1      -0.286   5.834   9.318  1.00  0.00    -0.396 OA
ATOM      8  H   UNL     1       0.123   5.326   8.570  1.00  0.00     0.210 HD
ENDBRANCH   6   7
ENDBRANCH   5   6
ENDBRANCH   1   5
TORSDOF 5
ENDMDL
MODEL 6
REMARK VINA RESULT:    -3.511      2.250      4.036
REMARK INTER + INTRA:          -4.525
REMARK INTER:                  -4.440
REMARK INTRA:                  -0.085
REMARK UNBOUND:                -0.089
REMARK SMILES CCCCCCO
REMARK SMILES IDX 4 1 3 2 2 3 1 4 5 5 6 6 7 7
REMARK H PARENT 7 8
REMARK Flexibility Score: inf
ROOT
ATOM      1  C   UNL     1       1.845  -0.531  14.815  1.00  0.00     0.002 C 
ENDROOT
BRANCH   1   2
ATOM      2  C   UNL     1       2.910  -1.591  14.449  1.00  0.00    -0.000 C 
BRANCH   2   3
ATOM      3  C   UNL     1       3.120  -2.651  15.544  1.00  0.00    -0.003 C 
ATOM      4  C   UNL     1       2.295  -3.916  15.312  1.00  0.00     0.004 C 
ENDBRANCH   2   3
ENDBRANCH   1   2
BRANCH   1   5
ATOM      5  C   UNL     1       0.450  -0.850  14.244  1.00  0.00     0.028 C 
BRANCH   5   6
ATOM      6  C   UNL     1      -0.038   0.200  13.240  1.00  0.00     0.156 C 
BRANCH   6   7
ATOM      7  O   UNL     1      -0.625  -0.427  12.133  1.00  0.00    -0.396 OA
ATOM      8  H   UNL     1      -1.266  -1.090  12.500  1.00  0.00     0.210 HD
ENDBRANCH   6   7
ENDBRANCH   5   6
ENDBRANCH   1   5
TORSDOF 5
ENDMDL
MODEL 7
REMARK VINA RESULT:    -3.511      6.498      7.564
REMARK INTER + INTRA:          -4.524
REMARK INTER:                  -4.410
REMARK INTRA:                  -0.114
REMARK UNBOUND:                -0.089
REMARK SMILES CCCCCCO
REMARK SMILES IDX 4 1 3 2 2 3 1 4 5 5 6 6 7 7
REMARK H PARENT 7 8
REMARK Flexibility Score: inf
ROOT
ATOM      1  C   UNL     1       1.121   3.837  11.106  1.00  0.00     0.002 C 
ENDROOT
BRANCH   1   2
ATOM      2  C   UNL     1       0.999   5.378  11.155  1.00  0.00    -0.000 C 
BRANCH   2   3
ATOM      3  C   UNL     1       2.194   6.065  11.839  1.00  0.00    -0.003 C 
ATOM      4  C   UNL     1       3.524   5.768  11.149  1.00  0.00     0.004 C 
ENDBRANCH   2   3
ENDBRANCH   1   2
BRANCH   1   5
ATOM      5  C   UNL     1      -0.099   3.113  11.707  1.00  0.00     0.028 C 
BRANCH   5   6
ATOM      6  C   UNL     1      -0.801   3.929  12.797  1.00  0.00     0.156 C 
BRANCH   6   7
ATOM      7  O   UNL     1      -2.163   4.067  12.495  1.00  0.00    -0.396 OA
ATOM      8  H   UNL     1      -2.619   4.248  13.357  1.00  0.00     0.210 HD
ENDBRANCH   6   7
ENDBRANCH   5   6
ENDBRANCH   1   5
TORSDOF 5
ENDMDL
MODEL 8
REMARK VINA RESULT:    -3.447      6.924      7.854
REMARK INTER + INTRA:          -4.443
REMARK INTER:                  -4.365
REMARK INTRA:                  -0.079
REMARK UNBOUND:                -0.089
REMARK SMILES CCCCCCO
REMARK SMILES IDX 4 1 3 2 2 3 1 4 5 5 6 6 7 7
REMARK H PARENT 7 8
REMARK Flexibility Score: inf
ROOT
ATOM      1  C   UNL     1       1.357   4.070  10.918  1.00  0.00     0.002 C 
ENDROOT
BRANCH   1   2
ATOM      2  C   UNL     1       2.639   4.926  11.035  1.00  0.00    -0.000 C 
BRANCH   2   3
ATOM      3  C   UNL     1       2.443   6.212  11.855  1.00  0.00    -0.003 C 
ATOM      4  C   UNL     1       2.273   7.454  10.982  1.00  0.00     0.004 C 
ENDBRANCH   2   3
ENDBRANCH   1   2
BRANCH   1   5
ATOM      5  C   UNL     1       0.223   4.544  11.846  1.00  0.00     0.028 C 
BRANCH   5   6
ATOM      6  C   UNL     1      -0.967   3.579  11.876  1.00  0.00     0.156 C 
BRANCH   6   7
ATOM      7  O   UNL     1      -2.012   4.125  12.633  1.00  0.00    -0.396 OA
ATOM      8  H   UNL     1      -1.952   3.704  13.529  1.00  0.00     0.210 HD
ENDBRANCH   6   7
ENDBRANCH   5   6
ENDBRANCH   1   5
TORSDOF 5
ENDMDL
MODEL 9
REMARK VINA RESULT:    -3.360      2.644      4.489
REMARK INTER + INTRA:          -4.333
REMARK INTER:                  -4.264
REMARK INTRA:                  -0.069
REMARK UNBOUND:                -0.089
REMARK SMILES CCCCCCO
REMARK SMILES IDX 4 1 3 2 2 3 1 4 5 5 6 6 7 7
REMARK H PARENT 7 8
REMARK Flexibility Score: inf
ROOT
ATOM      1  C   UNL     1       0.284   0.504  14.422  1.00  0.00     0.002 C 
ENDROOT
BRANCH   1   2
ATOM      2  C   UNL     1       1.062  -0.825  14.294  1.00  0.00    -0.000 C 
BRANCH   2   3
ATOM      3  C   UNL     1       2.417  -0.815  15.023  1.00  0.00    -0.003 C 
ATOM      4  C   UNL     1       3.430  -1.779  14.409  1.00  0.00     0.004 C 
ENDBRANCH   2   3
ENDBRANCH   1   2
BRANCH   1   5
ATOM      5  C   UNL     1      -0.373   0.952  13.103  1.00  0.00     0.028 C 
BRANCH   5   6
ATOM      6  C   UNL     1      -1.900   0.825  13.124  1.00  0.00     0.156 C 
BRANCH   6   7
ATOM      7  O   UNL     1      -2.277  -0.507  12.910  1.00  0.00    -0.396 OA
ATOM      8  H   UNL     1      -2.886  -0.499  12.127  1.00  0.00     0.210 HD
ENDBRANCH   6   7
ENDBRANCH   5   6
ENDBRANCH   1   5
TORSDOF 5
ENDMDL
