MODEL 1
REMARK VINA RESULT:    -4.358      0.000      0.000
REMARK INTER + INTRA:          -5.334
REMARK INTER:                  -4.995
REMARK INTRA:                  -0.339
REMARK UNBOUND:                -0.339
REMARK SMILES COc1ccc(C(C)=O)c(O)c1
REMARK SMILES IDX 6 1 10 2 12 3 3 4 4 5 5 6 7 7 8 8 9 9 11 10 2 12 1 13
REMARK H PARENT 11 11
REMARK Flexibility Score: inf
ROOT
ATOM      1  C   UNL     1       9.247 -29.530  14.506  1.00  0.00     0.059 A 
ATOM      2  C   UNL     1       9.850 -29.000  15.671  1.00  0.00     0.130 A 
ATOM      3  C   UNL     1       9.167 -29.041  16.896  1.00  0.00     0.093 A 
ATOM      4  C   UNL     1       7.876 -29.591  16.979  1.00  0.00     0.122 A 
ATOM      5  C   UNL     1       7.276 -30.097  15.824  1.00  0.00     0.047 A 
ATOM      6  C   UNL     1       7.949 -30.065  14.601  1.00  0.00     0.019 A 
ENDROOT
BRANCH   1   7
ATOM      7  C   UNL     1       9.927 -29.533  13.183  1.00  0.00     0.163 C 
ATOM      8  C   UNL     1       9.253 -29.056  11.932  1.00  0.00     0.093 C 
ATOM      9  O   UNL     1      11.114 -29.948  13.099  1.00  0.00    -0.294 OA
ENDBRANCH   1   7
BRANCH   2  10
ATOM     10  O   UNL     1      11.113 -28.411  15.616  1.00  0.00    -0.507 OA
ATOM     11  H   UNL     1      11.469 -27.988  14.767  1.00  0.00     0.293 HD
ENDBRANCH   2  10
BRANCH   4  12
ATOM     12  O   UNL     1       7.158 -29.650  18.182  1.00  0.00    -0.497 OA
ATOM     13  C   UNL     1       5.884 -29.047  18.390  1.00  0.00     0.278 C 
ENDBRANCH   4  12
TORSDOF 3
ENDMDL
MODEL 2
REMARK VINA RESULT:    -4.305      1.894      2.410
REMARK INTER + INTRA:          -5.273
REMARK INTER:                  -4.939
REMARK INTRA:                  -0.334
REMARK UNBOUND:                -0.339
REMARK SMILES COc1ccc(C(C)=O)c(O)c1
REMARK SMILES IDX 6 1 10 2 12 3 3 4 4 5 5 6 7 7 8 8 9 9 11 10 2 12 1 13
REMARK H PARENT 11 11
REMARK Flexibility Score: inf
ROOT
ATOM      1  C   UNL     1       7.382 -29.932  14.259  1.00  0.00     0.059 A 
ATOM      2  C   UNL     1       8.677 -29.533  14.663  1.00  0.00     0.130 A 
ATOM      3  C   UNL     1       9.006 -29.492  16.026  1.00  0.00     0.093 A 
ATOM      4  C   UNL     1       8.055 -29.831  17.004  1.00  0.00     0.122 A 
ATOM      5  C   UNL     1       6.772 -30.207  16.604  1.00  0.00     0.047 A 
ATOM      6  C   UNL     1       6.435 -30.254  15.249  1.00  0.00     0.019 A 
ENDROOT
BRANCH   1   7
ATOM      7  C   UNL     1       6.977 -30.012  12.830  1.00  0.00     0.163 C 
ATOM      8  C   UNL     1       6.181 -31.158  12.282  1.00  0.00     0.093 C 
ATOM      9  O   UNL     1       7.310 -29.087  12.041  1.00  0.00    -0.294 OA
ENDBRANCH   1   7
BRANCH   2  10
ATOM     10  O   UNL     1       9.633 -29.152  13.720  1.00  0.00    -0.507 OA
ATOM     11  H   UNL     1       9.647 -28.222  13.320  1.00  0.00     0.293 HD
ENDBRANCH   2  10
BRANCH   4  12
ATOM     12  O   UNL     1       8.342 -29.802  18.377  1.00  0.00    -0.497 OA
ATOM     13  C   UNL     1       9.208 -28.857  18.999  1.00  0.00     0.278 C 
ENDBRANCH   4  12
TORSDOF 3
ENDMDL
MODEL 3
REMARK VINA RESULT:    -4.273      1.481      4.614
REMARK INTER + INTRA:          -5.237
REMARK INTER:                  -4.901
REMARK INTRA:                  -0.335
REMARK UNBOUND:                -0.339
REMARK SMILES COc1ccc(C(C)=O)c(O)c1
REMARK SMILES IDX 6 1 10 2 12 3 3 4 4 5 5 6 7 7 8 8 9 9 11 10 2 12 1 13
REMARK H PARENT 11 11
REMARK Flexibility Score: inf
ROOT
ATOM      1  C   UNL     1       8.469 -29.977  16.613  1.00  0.00     0.059 A 
ATOM      2  C   UNL     1       9.374 -29.175  15.880  1.00  0.00     0.130 A 
ATOM      3  C   UNL     1       9.803 -29.584  14.608  1.00  0.00     0.093 A 
ATOM      4  C   UNL     1       9.354 -30.796  14.055  1.00  0.00     0.122 A 
ATOM      5  C   UNL     1       8.476 -31.595  14.789  1.00  0.00     0.047 A 
ATOM      6  C   UNL     1       8.040 -31.195  16.054  1.00  0.00     0.019 A 
ENDROOT
BRANCH   1   7
ATOM      7  C   UNL     1       7.964 -29.590  17.958  1.00  0.00     0.163 C 
ATOM      8  C   UNL     1       6.503 -29.554  18.288  1.00  0.00     0.093 C 
ATOM      9  O   UNL     1       8.787 -29.280  18.861  1.00  0.00    -0.294 OA
ENDBRANCH   1   7
BRANCH   2  10
ATOM     10  O   UNL     1       9.870 -27.986  16.415  1.00  0.00    -0.507 OA
ATOM     11  H   UNL     1      10.316 -27.285  15.836  1.00  0.00     0.293 HD
ENDBRANCH   2  10
BRANCH   4  12
ATOM     12  O   UNL     1       9.760 -31.243  12.789  1.00  0.00    -0.497 OA
ATOM     13  C   UNL     1      11.117 -31.419  12.393  1.00  0.00     0.278 C 
ENDBRANCH   4  12
TORSDOF 3
ENDMDL
MODEL 4
REMARK VINA RESULT:    -4.210      1.888      2.108
REMARK INTER + INTRA:          -5.164
REMARK INTER:                  -4.820
REMARK INTRA:                  -0.345
REMARK UNBOUND:                -0.339
REMARK SMILES COc1ccc(C(C)=O)c(O)c1
REMARK SMILES IDX 6 1 10 2 12 3 3 4 4 5 5 6 7 7 8 8 9 9 11 10 2 12 1 13
REMARK H PARENT 11 11
REMARK Flexibility Score: inf
ROOT
ATOM      1  C   UNL     1       9.504 -30.051  14.752  1.00  0.00     0.059 A 
ATOM      2  C   UNL     1       9.161 -29.489  16.004  1.00  0.00     0.130 A 
ATOM      3  C   UNL     1       8.457 -30.253  16.948  1.00  0.00     0.093 A 
ATOM      4  C   UNL     1       8.073 -31.574  16.657  1.00  0.00     0.122 A 
ATOM      5  C   UNL     1       8.396 -32.119  15.414  1.00  0.00     0.047 A 
ATOM      6  C   UNL     1       9.101 -31.369  14.470  1.00  0.00     0.019 A 
ENDROOT
BRANCH   1   7
ATOM      7  C   UNL     1      10.264 -29.298  13.718  1.00  0.00     0.163 C 
ATOM      8  C   UNL     1       9.783 -29.164  12.305  1.00  0.00     0.093 C 
ATOM      9  O   UNL     1      11.354 -28.748  14.032  1.00  0.00    -0.294 OA
ENDBRANCH   1   7
BRANCH   2  10
ATOM     10  O   UNL     1       9.493 -28.169  16.310  1.00  0.00    -0.507 OA
ATOM     11  H   UNL     1       8.790 -27.490  16.578  1.00  0.00     0.293 HD
ENDBRANCH   2  10
BRANCH   4  12
ATOM     12  O   UNL     1       7.367 -32.372  17.570  1.00  0.00    -0.497 OA
ATOM     13  C   UNL     1       6.807 -33.645  17.263  1.00  0.00     0.278 C 
ENDBRANCH   4  12
TORSDOF 3
ENDMDL
MODEL 5
REMARK VINA RESULT:    -4.197      1.872      4.021
REMARK INTER + INTRA:          -5.150
REMARK INTER:                  -4.848
REMARK INTRA:                  -0.302
REMARK UNBOUND:                -0.339
REMARK SMILES COc1ccc(C(C)=O)c(O)c1
REMARK SMILES IDX 6 1 10 2 12 3 3 4 4 5 5 6 7 7 8 8 9 9 11 10 2 12 1 13
REMARK H PARENT 11 11
REMARK Flexibility Score: inf
ROOT
ATOM      1  C   UNL     1       8.838 -29.285  16.440  1.00  0.00     0.059 A 
ATOM      2  C   UNL     1       9.435 -29.348  15.159  1.00  0.00     0.130 A 
ATOM      3  C   UNL     1       8.738 -29.926  14.087  1.00  0.00     0.093 A 
ATOM      4  C   UNL     1       7.451 -30.461  14.274  1.00  0.00     0.122 A 
ATOM      5  C   UNL     1       6.873 -30.414  15.543  1.00  0.00     0.047 A 
ATOM      6  C   UNL     1       7.556 -29.837  16.616  1.00  0.00     0.019 A 
ENDROOT
BRANCH   1   7
ATOM      7  C   UNL     1       9.519 -28.669  17.611  1.00  0.00     0.163 C 
ATOM      8  C   UNL     1       9.208 -29.067  19.022  1.00  0.00     0.093 C 
ATOM      9  O   UNL     1      10.392 -27.781  17.421  1.00  0.00    -0.294 OA
ENDBRANCH   1   7
BRANCH   2  10
ATOM     10  O   UNL     1      10.726 -28.862  14.948  1.00  0.00    -0.507 OA
ATOM     11  H   UNL     1      11.527 -29.479  14.901  1.00  0.00     0.293 HD
ENDBRANCH   2  10
BRANCH   4  12
ATOM     12  O   UNL     1       6.721 -31.049  13.231  1.00  0.00    -0.497 OA
ATOM     13  C   UNL     1       6.759 -30.613  11.875  1.00  0.00     0.278 C 
ENDBRANCH   4  12
TORSDOF 3
ENDMDL
MODEL 6
REMARK VINA RESULT:    -4.109      1.858      4.979
REMARK INTER + INTRA:          -5.048
REMARK INTER:                  -4.778
REMARK INTRA:                  -0.270
REMARK UNBOUND:                -0.339
REMARK SMILES COc1ccc(C(C)=O)c(O)c1
REMARK SMILES IDX 6 1 10 2 12 3 3 4 4 5 5 6 7 7 8 8 9 9 11 10 2 12 1 13
REMARK H PARENT 11 11
REMARK Flexibility Score: inf
ROOT
ATOM      1  C   UNL     1       8.185 -29.713  16.798  1.00  0.00     0.059 A 
ATOM      2  C   UNL     1       7.057 -30.170  16.076  1.00  0.00     0.130 A 
ATOM      3  C   UNL     1       7.111 -30.265  14.677  1.00  0.00     0.093 A 
ATOM      4  C   UNL     1       8.273 -29.896  13.977  1.00  0.00     0.122 A 
ATOM      5  C   UNL     1       9.378 -29.429  14.691  1.00  0.00     0.047 A 
ATOM      6  C   UNL     1       9.336 -29.334  16.084  1.00  0.00     0.019 A 
ENDROOT
BRANCH   1   7
ATOM      7  C   UNL     1       8.196 -29.607  18.282  1.00  0.00     0.163 C 
ATOM      8  C   UNL     1       9.169 -28.736  19.018  1.00  0.00     0.093 C 
ATOM      9  O   UNL     1       7.360 -30.267  18.955  1.00  0.00    -0.294 OA
ENDBRANCH   1   7
BRANCH   2  10
ATOM     10  O   UNL     1       5.875 -30.506  16.736  1.00  0.00    -0.507 OA
ATOM     11  H   UNL     1       5.173 -29.812  16.961  1.00  0.00     0.293 HD
ENDBRANCH   2  10
BRANCH   4  12
ATOM     12  O   UNL     1       8.368 -29.975  12.580  1.00  0.00    -0.497 OA
ATOM     13  C   UNL     1       9.313 -30.780  11.881  1.00  0.00     0.278 C 
ENDBRANCH   4  12
TORSDOF 3
ENDMDL
MODEL 7
REMARK VINA RESULT:    -3.950      1.684      2.498
REMARK INTER + INTRA:          -4.866
REMARK INTER:                  -4.543
REMARK INTRA:                  -0.323
REMARK UNBOUND:                -0.339
REMARK SMILES COc1ccc(C(C)=O)c(O)c1
REMARK SMILES IDX 6 1 10 2 12 3 3 4 4 5 5 6 7 7 8 8 9 9 11 10 2 12 1 13
REMARK H PARENT 11 11
REMARK Flexibility Score: inf
ROOT
ATOM      1  C   UNL     1       8.694 -29.761  13.914  1.00  0.00     0.059 A 
ATOM      2  C   UNL     1       7.329 -30.097  13.763  1.00  0.00     0.130 A 
ATOM      3  C   UNL     1       6.505 -30.212  14.893  1.00  0.00     0.093 A 
ATOM      4  C   UNL     1       7.025 -30.011  16.183  1.00  0.00     0.122 A 
ATOM      5  C   UNL     1       8.377 -29.698  16.331  1.00  0.00     0.047 A 
ATOM      6  C   UNL     1       9.204 -29.577  15.213  1.00  0.00     0.019 A 
ENDROOT
BRANCH   1   7
ATOM      7  C   UNL     1       9.614 -29.606  12.755  1.00  0.00     0.163 C 
ATOM      8  C   UNL     1      10.844 -30.447  12.588  1.00  0.00     0.093 C 
ATOM      9  O   UNL     1       9.359 -28.741  11.875  1.00  0.00    -0.294 OA
ENDBRANCH   1   7
BRANCH   2  10
ATOM     10  O   UNL     1       6.789 -30.341  12.500  1.00  0.00    -0.507 OA
ATOM     11  H   UNL     1       7.356 -30.305  11.661  1.00  0.00     0.293 HD
ENDBRANCH   2  10
BRANCH   4  12
ATOM     12  O   UNL     1       6.236 -30.119  17.339  1.00  0.00    -0.497 OA
ATOM     13  C   UNL     1       6.050 -29.072  18.287  1.00  0.00     0.278 C 
ENDBRANCH   4  12
TORSDOF 3
ENDMDL
MODEL 8
REMARK VINA RESULT:    -3.936      2.595      4.303
REMARK INTER + INTRA:          -4.850
REMARK INTER:                  -4.547
REMARK INTRA:                  -0.303
REMARK UNBOUND:                -0.339
REMARK SMILES COc1ccc(C(C)=O)c(O)c1
REMARK SMILES IDX 6 1 10 2 12 3 3 4 4 5 5 6 7 7 8 8 9 9 11 10 2 12 1 13
REMARK H PARENT 11 11
REMARK Flexibility Score: inf
ROOT
ATOM      1  C   UNL     1       8.418 -29.577  17.014  1.00  0.00     0.059 A 
ATOM      2  C   UNL     1       7.130 -29.941  17.473  1.00  0.00     0.130 A 
ATOM      3  C   UNL     1       6.282 -30.701  16.652  1.00  0.00     0.093 A 
ATOM      4  C   UNL     1       6.693 -31.095  15.367  1.00  0.00     0.122 A 
ATOM      5  C   UNL     1       7.957 -30.718  14.910  1.00  0.00     0.047 A 
ATOM      6  C   UNL     1       8.809 -29.966  15.720  1.00  0.00     0.019 A 
ENDROOT
BRANCH   1   7
ATOM      7  C   UNL     1       9.369 -28.787  17.843  1.00  0.00     0.163 C 
ATOM      8  C   UNL     1      10.469 -27.966  17.242  1.00  0.00     0.093 C 
ATOM      9  O   UNL     1       9.253 -28.802  19.098  1.00  0.00    -0.294 OA
ENDBRANCH   1   7
BRANCH   2  10
ATOM     10  O   UNL     1       6.676 -29.533  18.727  1.00  0.00    -0.507 OA
ATOM     11  H   UNL     1       5.769 -29.810  19.082  1.00  0.00     0.293 HD
ENDBRANCH   2  10
BRANCH   4  12
ATOM     12  O   UNL     1       5.876 -31.854  14.514  1.00  0.00    -0.497 OA
ATOM     13  C   UNL     1       6.340 -32.541  13.356  1.00  0.00     0.278 C 
ENDBRANCH   4  12
TORSDOF 3
ENDMDL
MODEL 9
REMARK VINA RESULT:    -3.743      2.668      5.148
REMARK INTER + INTRA:          -4.629
REMARK INTER:                  -4.292
REMARK INTRA:                  -0.337
REMARK UNBOUND:                -0.339
REMARK SMILES COc1ccc(C(C)=O)c(O)c1
REMARK SMILES IDX 6 1 10 2 12 3 3 4 4 5 5 6 7 7 8 8 9 9 11 10 2 12 1 13
REMARK H PARENT 11 11
REMARK Flexibility Score: inf
ROOT
ATOM      1  C   UNL     1       9.596 -30.643  14.389  1.00  0.00     0.059 A 
ATOM      2  C   UNL     1      10.527 -30.078  13.487  1.00  0.00     0.130 A 
ATOM      3  C   UNL     1      11.364 -30.912  12.729  1.00  0.00     0.093 A 
ATOM      4  C   UNL     1      11.298 -32.310  12.866  1.00  0.00     0.122 A 
ATOM      5  C   UNL     1      10.391 -32.863  13.771  1.00  0.00     0.047 A 
ATOM      6  C   UNL     1       9.551 -32.042  14.527  1.00  0.00     0.019 A 
ENDROOT
BRANCH   1   7
ATOM      7  C   UNL     1       8.670 -29.813  15.207  1.00  0.00     0.163 C 
ATOM      8  C   UNL     1       7.180 -29.954  15.127  1.00  0.00     0.093 C 
ATOM      9  O   UNL     1       9.146 -28.958  16.002  1.00  0.00    -0.294 OA
ENDBRANCH   1   7
BRANCH   2  10
ATOM     10  O   UNL     1      10.646 -28.695  13.355  1.00  0.00    -0.507 OA
ATOM     11  H   UNL     1      11.548 -28.235  13.343  1.00  0.00     0.293 HD
ENDBRANCH   2  10
BRANCH   4  12
ATOM     12  O   UNL     1      12.117 -33.179  12.129  1.00  0.00    -0.497 OA
ATOM     13  C   UNL     1      12.202 -34.584  12.347  1.00  0.00     0.278 C 
ENDBRANCH   4  12
TORSDOF 3
ENDMDL
