MODEL 1
REMARK VINA RESULT:    -4.801      0.000      0.000
REMARK INTER + INTRA:          -5.702
REMARK INTER:                  -5.924
REMARK INTRA:                   0.222
REMARK UNBOUND:                 0.222
REMARK SMILES O=c1c(O)c(-c2cc(O)c(O)c(O)c2)oc2cc(O)cc(O)c12
REMARK SMILES IDX 5 1 3 2 2 3 1 4 23 5 21 6 20 7 18 8 17 9 16 10 15 11 6 12
REMARK SMILES IDX 7 13 8 14 14 15 10 16 12 17 9 18 11 20 13 22 4 24 22 26
REMARK SMILES IDX 19 28
REMARK H PARENT 9 19 11 21 13 23 4 25 22 27 19 29
REMARK Flexibility Score: inf
ROOT
ATOM      1  C   UNL     1      -4.619 -12.610  31.748  1.00  0.00     0.180 A 
ATOM      2  C   UNL     1      -3.339 -12.072  31.532  1.00  0.00     0.208 A 
ATOM      3  C   UNL     1      -2.714 -12.275  30.292  1.00  0.00     0.238 A 
ATOM      4  O   UNL     1      -1.591 -11.745  30.086  1.00  0.00    -0.285 OA
ATOM      5  C   UNL     1      -3.370 -13.028  29.288  1.00  0.00     0.111 A 
ATOM      6  C   UNL     1      -2.813 -13.330  28.008  1.00  0.00     0.134 A 
ATOM      7  C   UNL     1      -3.605 -13.971  27.046  1.00  0.00     0.093 A 
ATOM      8  C   UNL     1      -4.906 -14.377  27.337  1.00  0.00     0.123 A 
ATOM      9  C   UNL     1      -5.438 -14.139  28.605  1.00  0.00     0.094 A 
ATOM     10  C   UNL     1      -4.687 -13.471  29.574  1.00  0.00     0.146 A 
ATOM     11  O   UNL     1      -5.236 -13.255  30.764  1.00  0.00    -0.452 OA
ENDROOT
BRANCH   1  12
ATOM     12  C   UNL     1      -5.330 -12.459  33.038  1.00  0.00     0.029 A 
ATOM     13  C   UNL     1      -5.206 -11.260  33.759  1.00  0.00     0.062 A 
ATOM     14  C   UNL     1      -5.882 -11.082  34.969  1.00  0.00     0.162 A 
ATOM     15  C   UNL     1      -6.174 -13.467  33.531  1.00  0.00     0.062 A 
ATOM     16  C   UNL     1      -6.709 -12.102  35.468  1.00  0.00     0.200 A 
ATOM     17  C   UNL     1      -6.858 -13.297  34.742  1.00  0.00     0.162 A 
BRANCH  14  18
ATOM     18  O   UNL     1      -5.721  -9.882  35.662  1.00  0.00    -0.504 OA
ATOM     19  H   UNL     1      -5.793  -9.829  36.671  1.00  0.00     0.293 HD
ENDBRANCH  14  18
BRANCH  16  20
ATOM     20  O   UNL     1      -7.378 -11.918  36.679  1.00  0.00    -0.502 OA
ATOM     21  H   UNL     1      -8.367 -11.700  36.722  1.00  0.00     0.293 HD
ENDBRANCH  16  20
BRANCH  17  22
ATOM     22  O   UNL     1      -7.687 -14.307  35.225  1.00  0.00    -0.504 OA
ATOM     23  H   UNL     1      -7.623 -14.636  36.181  1.00  0.00     0.293 HD
ENDBRANCH  17  22
ENDBRANCH   1  12
BRANCH   2  24
ATOM     24  O   UNL     1      -2.718 -11.314  32.530  1.00  0.00    -0.502 OA
ATOM     25  H   UNL     1      -2.679 -10.302  32.498  1.00  0.00     0.293 HD
ENDBRANCH   2  24
BRANCH   6  26
ATOM     26  O   UNL     1      -1.494 -13.050  27.645  1.00  0.00    -0.507 OA
ATOM     27  H   UNL     1      -0.864 -12.464  28.173  1.00  0.00     0.293 HD
ENDBRANCH   6  26
BRANCH   8  28
ATOM     28  O   UNL     1      -5.658 -15.026  26.360  1.00  0.00    -0.508 OA
ATOM     29  H   UNL     1      -5.780 -14.632  25.435  1.00  0.00     0.293 HD
ENDBRANCH   8  28
TORSDOF 7
ENDMDL
MODEL 2
REMARK VINA RESULT:    -4.758      0.156      1.761
REMARK INTER + INTRA:          -5.649
REMARK INTER:                  -5.805
REMARK INTRA:                   0.156
REMARK UNBOUND:                 0.222
REMARK SMILES O=c1c(O)c(-c2cc(O)c(O)c(O)c2)oc2cc(O)cc(O)c12
REMARK SMILES IDX 5 1 3 2 2 3 1 4 23 5 21 6 20 7 18 8 17 9 16 10 15 11 6 12
REMARK SMILES IDX 7 13 8 14 14 15 10 16 12 17 9 18 11 20 13 22 4 24 22 26
REMARK SMILES IDX 19 28
REMARK H PARENT 9 19 11 21 13 23 4 25 22 27 19 29
REMARK Flexibility Score: inf
ROOT
ATOM      1  C   UNL     1      -4.527 -12.607  31.683  1.00  0.00     0.180 A 
ATOM      2  C   UNL     1      -3.210 -12.150  31.505  1.00  0.00     0.208 A 
ATOM      3  C   UNL     1      -2.562 -12.396  30.284  1.00  0.00     0.238 A 
ATOM      4  O   UNL     1      -1.403 -11.936  30.110  1.00  0.00    -0.285 OA
ATOM      5  C   UNL     1      -3.233 -13.111  29.263  1.00  0.00     0.111 A 
ATOM      6  C   UNL     1      -2.658 -13.452  28.001  1.00  0.00     0.134 A 
ATOM      7  C   UNL     1      -3.458 -14.047  27.017  1.00  0.00     0.093 A 
ATOM      8  C   UNL     1      -4.790 -14.371  27.269  1.00  0.00     0.123 A 
ATOM      9  C   UNL     1      -5.344 -14.096  28.520  1.00  0.00     0.094 A 
ATOM     10  C   UNL     1      -4.583 -13.471  29.510  1.00  0.00     0.146 A 
ATOM     11  O   UNL     1      -5.152 -13.217  30.683  1.00  0.00    -0.452 OA
ENDROOT
BRANCH   1  12
ATOM     12  C   UNL     1      -5.265 -12.407  32.950  1.00  0.00     0.029 A 
ATOM     13  C   UNL     1      -6.064 -13.446  33.455  1.00  0.00     0.062 A 
ATOM     14  C   UNL     1      -6.756 -13.293  34.660  1.00  0.00     0.162 A 
ATOM     15  C   UNL     1      -5.139 -11.221  33.692  1.00  0.00     0.062 A 
ATOM     16  C   UNL     1      -6.643 -12.095  35.388  1.00  0.00     0.200 A 
ATOM     17  C   UNL     1      -5.827 -11.059  34.902  1.00  0.00     0.162 A 
BRANCH  14  18
ATOM     18  O   UNL     1      -7.552 -14.342  35.120  1.00  0.00    -0.504 OA
ATOM     19  H   UNL     1      -7.960 -15.024  34.493  1.00  0.00     0.293 HD
ENDBRANCH  14  18
BRANCH  16  20
ATOM     20  O   UNL     1      -7.340 -11.949  36.588  1.00  0.00    -0.502 OA
ATOM     21  H   UNL     1      -7.638 -12.746  37.140  1.00  0.00     0.293 HD
ENDBRANCH  16  20
BRANCH  17  22
ATOM     22  O   UNL     1      -5.699  -9.875  35.625  1.00  0.00    -0.504 OA
ATOM     23  H   UNL     1      -6.255  -9.056  35.407  1.00  0.00     0.293 HD
ENDBRANCH  17  22
ENDBRANCH   1  12
BRANCH   2  24
ATOM     24  O   UNL     1      -2.574 -11.427  32.519  1.00  0.00    -0.502 OA
ATOM     25  H   UNL     1      -3.068 -11.081  33.332  1.00  0.00     0.293 HD
ENDBRANCH   2  24
BRANCH   6  26
ATOM     26  O   UNL     1      -1.313 -13.255  27.677  1.00  0.00    -0.507 OA
ATOM     27  H   UNL     1      -0.949 -13.215  26.737  1.00  0.00     0.293 HD
ENDBRANCH   6  26
BRANCH   8  28
ATOM     28  O   UNL     1      -5.551 -14.977  26.272  1.00  0.00    -0.508 OA
ATOM     29  H   UNL     1      -6.488 -15.317  26.454  1.00  0.00     0.293 HD
ENDBRANCH   8  28
TORSDOF 7
ENDMDL
MODEL 3
REMARK VINA RESULT:    -4.441      1.521      3.645
REMARK INTER + INTRA:          -5.258
REMARK INTER:                  -5.301
REMARK INTRA:                   0.044
REMARK UNBOUND:                 0.222
REMARK SMILES O=c1c(O)c(-c2cc(O)c(O)c(O)c2)oc2cc(O)cc(O)c12
REMARK SMILES IDX 5 1 3 2 2 3 1 4 23 5 21 6 20 7 18 8 17 9 16 10 15 11 6 12
REMARK SMILES IDX 7 13 8 14 14 15 10 16 12 17 9 18 11 20 13 22 4 24 22 26
REMARK SMILES IDX 19 28
REMARK H PARENT 9 19 11 21 13 23 4 25 22 27 19 29
REMARK Flexibility Score: inf
ROOT
ATOM      1  C   UNL     1      -4.513 -12.946  32.277  1.00  0.00     0.180 A 
ATOM      2  C   UNL     1      -4.982 -13.542  31.093  1.00  0.00     0.208 A 
ATOM      3  C   UNL     1      -4.077 -13.788  30.049  1.00  0.00     0.238 A 
ATOM      4  O   UNL     1      -4.492 -14.372  29.014  1.00  0.00    -0.285 OA
ATOM      5  C   UNL     1      -2.718 -13.419  30.194  1.00  0.00     0.111 A 
ATOM      6  C   UNL     1      -1.721 -13.584  29.184  1.00  0.00     0.134 A 
ATOM      7  C   UNL     1      -0.382 -13.305  29.485  1.00  0.00     0.093 A 
ATOM      8  C   UNL     1      -0.012 -12.806  30.733  1.00  0.00     0.123 A 
ATOM      9  C   UNL     1      -0.987 -12.585  31.707  1.00  0.00     0.094 A 
ATOM     10  C   UNL     1      -2.326 -12.887  31.450  1.00  0.00     0.146 A 
ATOM     11  O   UNL     1      -3.220 -12.672  32.408  1.00  0.00    -0.452 OA
ENDROOT
BRANCH   1  12
ATOM     12  C   UNL     1      -5.412 -12.634  33.411  1.00  0.00     0.029 A 
ATOM     13  C   UNL     1      -6.288 -13.621  33.891  1.00  0.00     0.062 A 
ATOM     14  C   UNL     1      -7.133 -13.361  34.973  1.00  0.00     0.162 A 
ATOM     15  C   UNL     1      -5.369 -11.387  34.057  1.00  0.00     0.062 A 
ATOM     16  C   UNL     1      -7.100 -12.105  35.603  1.00  0.00     0.200 A 
ATOM     17  C   UNL     1      -6.211 -11.117  35.145  1.00  0.00     0.162 A 
BRANCH  14  18
ATOM     18  O   UNL     1      -7.998 -14.363  35.411  1.00  0.00    -0.504 OA
ATOM     19  H   UNL     1      -7.803 -15.346  35.265  1.00  0.00     0.293 HD
ENDBRANCH  14  18
BRANCH  16  20
ATOM     20  O   UNL     1      -7.950 -11.852  36.682  1.00  0.00    -0.502 OA
ATOM     21  H   UNL     1      -8.818 -12.357  36.815  1.00  0.00     0.293 HD
ENDBRANCH  16  20
BRANCH  17  22
ATOM     22  O   UNL     1      -6.163  -9.875  35.774  1.00  0.00    -0.504 OA
ATOM     23  H   UNL     1      -6.859  -9.599  36.456  1.00  0.00     0.293 HD
ENDBRANCH  17  22
ENDBRANCH   1  12
BRANCH   2  24
ATOM     24  O   UNL     1      -6.324 -13.918  30.980  1.00  0.00    -0.502 OA
ATOM     25  H   UNL     1      -6.912 -13.612  30.214  1.00  0.00     0.293 HD
ENDBRANCH   2  24
BRANCH   6  26
ATOM     26  O   UNL     1      -1.996 -13.990  27.876  1.00  0.00    -0.507 OA
ATOM     27  H   UNL     1      -1.295 -14.186  27.176  1.00  0.00     0.293 HD
ENDBRANCH   6  26
BRANCH   8  28
ATOM     28  O   UNL     1       1.327 -12.524  30.991  1.00  0.00    -0.508 OA
ATOM     29  H   UNL     1       1.621 -12.100  31.864  1.00  0.00     0.293 HD
ENDBRANCH   8  28
TORSDOF 7
ENDMDL
MODEL 4
REMARK VINA RESULT:    -4.336      2.285      3.282
REMARK INTER + INTRA:          -5.129
REMARK INTER:                  -4.818
REMARK INTRA:                  -0.311
REMARK UNBOUND:                 0.222
REMARK SMILES O=c1c(O)c(-c2cc(O)c(O)c(O)c2)oc2cc(O)cc(O)c12
REMARK SMILES IDX 5 1 3 2 2 3 1 4 23 5 21 6 20 7 18 8 17 9 16 10 15 11 6 12
REMARK SMILES IDX 7 13 8 14 14 15 10 16 12 17 9 18 11 20 13 22 4 24 22 26
REMARK SMILES IDX 19 28
REMARK H PARENT 9 19 11 21 13 23 4 25 22 27 19 29
REMARK Flexibility Score: inf
ROOT
ATOM      1  C   UNL     1      -4.954 -11.634  32.796  1.00  0.00     0.180 A 
ATOM      2  C   UNL     1      -5.300 -10.713  31.792  1.00  0.00     0.208 A 
ATOM      3  C   UNL     1      -4.543 -10.677  30.610  1.00  0.00     0.238 A 
ATOM      4  O   UNL     1      -4.891  -9.888  29.693  1.00  0.00    -0.285 OA
ATOM      5  C   UNL     1      -3.440 -11.550  30.453  1.00  0.00     0.111 A 
ATOM      6  C   UNL     1      -2.580 -11.571  29.313  1.00  0.00     0.134 A 
ATOM      7  C   UNL     1      -1.599 -12.566  29.208  1.00  0.00     0.093 A 
ATOM      8  C   UNL     1      -1.405 -13.498  30.226  1.00  0.00     0.123 A 
ATOM      9  C   UNL     1      -2.202 -13.448  31.371  1.00  0.00     0.094 A 
ATOM     10  C   UNL     1      -3.212 -12.491  31.490  1.00  0.00     0.146 A 
ATOM     11  O   UNL     1      -3.954 -12.485  32.591  1.00  0.00    -0.452 OA
ENDROOT
BRANCH   1  12
ATOM     12  C   UNL     1      -5.688 -11.715  34.078  1.00  0.00     0.029 A 
ATOM     13  C   UNL     1      -6.526 -12.814  34.327  1.00  0.00     0.062 A 
ATOM     14  C   UNL     1      -7.215 -12.927  35.538  1.00  0.00     0.162 A 
ATOM     15  C   UNL     1      -5.522 -10.743  35.079  1.00  0.00     0.062 A 
ATOM     16  C   UNL     1      -7.062 -11.941  36.527  1.00  0.00     0.200 A 
ATOM     17  C   UNL     1      -6.207 -10.848  36.297  1.00  0.00     0.162 A 
BRANCH  14  18
ATOM     18  O   UNL     1      -8.049 -14.026  35.740  1.00  0.00    -0.504 OA
ATOM     19  H   UNL     1      -7.801 -14.956  35.426  1.00  0.00     0.293 HD
ENDBRANCH  14  18
BRANCH  16  20
ATOM     20  O   UNL     1      -7.757 -12.059  37.733  1.00  0.00    -0.502 OA
ATOM     21  H   UNL     1      -8.403 -12.819  37.911  1.00  0.00     0.293 HD
ENDBRANCH  16  20
BRANCH  17  22
ATOM     22  O   UNL     1      -6.040  -9.875  37.279  1.00  0.00    -0.504 OA
ATOM     23  H   UNL     1      -6.555  -9.002  37.257  1.00  0.00     0.293 HD
ENDBRANCH  17  22
ENDBRANCH   1  12
BRANCH   2  24
ATOM     24  O   UNL     1      -6.406  -9.875  31.959  1.00  0.00    -0.502 OA
ATOM     25  H   UNL     1      -6.361  -9.014  32.491  1.00  0.00     0.293 HD
ENDBRANCH   2  24
BRANCH   6  26
ATOM     26  O   UNL     1      -2.628 -10.631  28.281  1.00  0.00    -0.507 OA
ATOM     27  H   UNL     1      -2.359  -9.662  28.374  1.00  0.00     0.293 HD
ENDBRANCH   6  26
BRANCH   8  28
ATOM     28  O   UNL     1      -0.409 -14.463  30.095  1.00  0.00    -0.508 OA
ATOM     29  H   UNL     1       0.246 -14.448  29.322  1.00  0.00     0.293 HD
ENDBRANCH   8  28
TORSDOF 7
ENDMDL
MODEL 5
REMARK VINA RESULT:    -4.084      1.032      6.967
REMARK INTER + INTRA:          -4.818
REMARK INTER:                  -4.967
REMARK INTRA:                   0.149
REMARK UNBOUND:                 0.222
REMARK SMILES O=c1c(O)c(-c2cc(O)c(O)c(O)c2)oc2cc(O)cc(O)c12
REMARK SMILES IDX 5 1 3 2 2 3 1 4 23 5 21 6 20 7 18 8 17 9 16 10 15 11 6 12
REMARK SMILES IDX 7 13 8 14 14 15 10 16 12 17 9 18 11 20 13 22 4 24 22 26
REMARK SMILES IDX 19 28
REMARK H PARENT 9 19 11 21 13 23 4 25 22 27 19 29
REMARK Flexibility Score: inf
ROOT
ATOM      1  C   UNL     1      -4.655 -12.593  31.488  1.00  0.00     0.180 A 
ATOM      2  C   UNL     1      -4.088 -11.404  31.976  1.00  0.00     0.208 A 
ATOM      3  C   UNL     1      -4.506 -10.911  33.223  1.00  0.00     0.238 A 
ATOM      4  O   UNL     1      -3.955  -9.875  33.679  1.00  0.00    -0.285 OA
ATOM      5  C   UNL     1      -5.497 -11.605  33.958  1.00  0.00     0.111 A 
ATOM      6  C   UNL     1      -6.024 -11.174  35.213  1.00  0.00     0.134 A 
ATOM      7  C   UNL     1      -6.906 -12.008  35.913  1.00  0.00     0.093 A 
ATOM      8  C   UNL     1      -7.330 -13.222  35.375  1.00  0.00     0.123 A 
ATOM      9  C   UNL     1      -6.867 -13.623  34.122  1.00  0.00     0.094 A 
ATOM     10  C   UNL     1      -5.959 -12.832  33.415  1.00  0.00     0.146 A 
ATOM     11  O   UNL     1      -5.535 -13.256  32.231  1.00  0.00    -0.452 OA
ENDROOT
BRANCH   1  12
ATOM     12  C   UNL     1      -4.284 -13.161  30.172  1.00  0.00     0.029 A 
ATOM     13  C   UNL     1      -5.284 -13.697  29.344  1.00  0.00     0.062 A 
ATOM     14  C   UNL     1      -4.965 -14.221  28.088  1.00  0.00     0.162 A 
ATOM     15  C   UNL     1      -2.960 -13.123  29.706  1.00  0.00     0.062 A 
ATOM     16  C   UNL     1      -3.635 -14.200  27.635  1.00  0.00     0.200 A 
ATOM     17  C   UNL     1      -2.631 -13.644  28.447  1.00  0.00     0.162 A 
BRANCH  14  18
ATOM     18  O   UNL     1      -5.985 -14.758  27.302  1.00  0.00    -0.504 OA
ATOM     19  H   UNL     1      -5.878 -15.634  26.805  1.00  0.00     0.293 HD
ENDBRANCH  14  18
BRANCH  16  20
ATOM     20  O   UNL     1      -3.325 -14.727  26.380  1.00  0.00    -0.502 OA
ATOM     21  H   UNL     1      -2.962 -14.154  25.628  1.00  0.00     0.293 HD
ENDBRANCH  16  20
BRANCH  17  22
ATOM     22  O   UNL     1      -1.313 -13.606  27.998  1.00  0.00    -0.504 OA
ATOM     23  H   UNL     1      -0.565 -14.062  28.508  1.00  0.00     0.293 HD
ENDBRANCH  17  22
ENDBRANCH   1  12
BRANCH   2  24
ATOM     24  O   UNL     1      -3.095 -10.747  31.243  1.00  0.00    -0.502 OA
ATOM     25  H   UNL     1      -2.118 -10.769  31.509  1.00  0.00     0.293 HD
ENDBRANCH   2  24
BRANCH   6  26
ATOM     26  O   UNL     1      -5.737  -9.938  35.798  1.00  0.00    -0.507 OA
ATOM     27  H   UNL     1      -4.974  -9.337  35.525  1.00  0.00     0.293 HD
ENDBRANCH   6  26
BRANCH   8  28
ATOM     28  O   UNL     1      -8.222 -14.017  36.092  1.00  0.00    -0.508 OA
ATOM     29  H   UNL     1      -8.093 -15.019  36.171  1.00  0.00     0.293 HD
ENDBRANCH   8  28
TORSDOF 7
ENDMDL
MODEL 6
REMARK VINA RESULT:    -3.595      1.522      2.342
REMARK INTER + INTRA:          -4.214
REMARK INTER:                  -3.850
REMARK INTRA:                  -0.364
REMARK UNBOUND:                 0.222
REMARK SMILES O=c1c(O)c(-c2cc(O)c(O)c(O)c2)oc2cc(O)cc(O)c12
REMARK SMILES IDX 5 1 3 2 2 3 1 4 23 5 21 6 20 7 18 8 17 9 16 10 15 11 6 12
REMARK SMILES IDX 7 13 8 14 14 15 10 16 12 17 9 18 11 20 13 22 4 24 22 26
REMARK SMILES IDX 19 28
REMARK H PARENT 9 19 11 21 13 23 4 25 22 27 19 29
REMARK Flexibility Score: inf
ROOT
ATOM      1  C   UNL     1      -5.396 -11.653  33.287  1.00  0.00     0.180 A 
ATOM      2  C   UNL     1      -4.244 -10.852  33.208  1.00  0.00     0.208 A 
ATOM      3  C   UNL     1      -3.369 -11.022  32.124  1.00  0.00     0.238 A 
ATOM      4  O   UNL     1      -2.367 -10.264  32.030  1.00  0.00    -0.285 OA
ATOM      5  C   UNL     1      -3.648 -12.001  31.141  1.00  0.00     0.111 A 
ATOM      6  C   UNL     1      -2.809 -12.286  30.021  1.00  0.00     0.134 A 
ATOM      7  C   UNL     1      -3.249 -13.186  29.041  1.00  0.00     0.093 A 
ATOM      8  C   UNL     1      -4.464 -13.857  29.172  1.00  0.00     0.123 A 
ATOM      9  C   UNL     1      -5.263 -13.629  30.293  1.00  0.00     0.094 A 
ATOM     10  C   UNL     1      -4.869 -12.712  31.270  1.00  0.00     0.146 A 
ATOM     11  O   UNL     1      -5.664 -12.517  32.315  1.00  0.00    -0.452 OA
ENDROOT
BRANCH   1  12
ATOM     12  C   UNL     1      -6.352 -11.549  34.412  1.00  0.00     0.029 A 
ATOM     13  C   UNL     1      -7.511 -10.770  34.265  1.00  0.00     0.062 A 
ATOM     14  C   UNL     1      -8.442 -10.671  35.303  1.00  0.00     0.162 A 
ATOM     15  C   UNL     1      -6.155 -12.259  35.608  1.00  0.00     0.062 A 
ATOM     16  C   UNL     1      -8.229 -11.366  36.505  1.00  0.00     0.200 A 
ATOM     17  C   UNL     1      -7.083 -12.167  36.655  1.00  0.00     0.162 A 
BRANCH  14  18
ATOM     18  O   UNL     1      -9.573  -9.875  35.122  1.00  0.00    -0.504 OA
ATOM     19  H   UNL     1      -9.595  -9.111  34.458  1.00  0.00     0.293 HD
ENDBRANCH  14  18
BRANCH  16  20
ATOM     20  O   UNL     1      -9.162 -11.259  37.539  1.00  0.00    -0.502 OA
ATOM     21  H   UNL     1      -8.894 -11.306  38.515  1.00  0.00     0.293 HD
ENDBRANCH  16  20
BRANCH  17  22
ATOM     22  O   UNL     1      -6.874 -12.871  37.838  1.00  0.00    -0.504 OA
ATOM     23  H   UNL     1      -7.587 -13.474  38.231  1.00  0.00     0.293 HD
ENDBRANCH  17  22
ENDBRANCH   1  12
BRANCH   2  24
ATOM     24  O   UNL     1      -3.999  -9.876  34.179  1.00  0.00    -0.502 OA
ATOM     25  H   UNL     1      -3.633 -10.100  35.096  1.00  0.00     0.293 HD
ENDBRANCH   2  24
BRANCH   6  26
ATOM     26  O   UNL     1      -1.536 -11.740  29.840  1.00  0.00    -0.507 OA
ATOM     27  H   UNL     1      -1.204 -10.897  30.284  1.00  0.00     0.293 HD
ENDBRANCH   6  26
BRANCH   8  28
ATOM     28  O   UNL     1      -4.862 -14.756  28.186  1.00  0.00    -0.508 OA
ATOM     29  H   UNL     1      -5.546 -14.503  27.482  1.00  0.00     0.293 HD
ENDBRANCH   8  28
TORSDOF 7
ENDMDL
