MODEL 1
REMARK VINA RESULT:    -3.716      0.000      0.000
REMARK INTER + INTRA:          -5.964
REMARK INTER:                  -5.671
REMARK INTRA:                  -0.293
REMARK UNBOUND:                -0.293
REMARK SMILES CC1=CCC[C@@H](C)C(=O)C[C@@H](C(C)C)C(=O)C1
REMARK SMILES IDX 8 1 9 2 6 3 7 4 5 5 4 6 3 7 2 8 1 9 10 11 11 12 15 13 16 14
REMARK SMILES IDX 17 15 12 17 13 18 14 19
REMARK H PARENT
REMARK Flexibility Score: 70.00
ROOT
ATOM      1  C   UNL     1      16.885  20.126   8.929  1.00  0.00     0.136 C 
ATOM      2  O   UNL     1      15.824  20.127   8.322  1.00  0.00    -0.299 OA
ENDROOT
BRANCH   1   3
ATOM      3  C   UNL     1      16.987  20.814  10.281  1.00  0.00     0.053 C 
ATOM      4  C   UNL     1      15.773  20.475  11.157  1.00  0.00     0.016 C 
BRANCH   3   5
ATOM      5  C   UNL     1      17.131  22.347  10.109  1.00  0.00     0.015 C 
BRANCH   5   6
ATOM      6  C   UNL     1      18.497  22.869  10.599  1.00  0.00     0.028 C 
BRANCH   6   7
ATOM      7  C   UNL     1      19.297  23.464   9.468  1.00  0.00    -0.028 C 
ATOM      8  C   UNL     1      20.378  22.876   8.898  1.00  0.00    -0.070 CG0
ATOM      9  C   UNL     1      21.075  23.563   7.752  1.00  0.00     0.039 C 
ATOM     10  G   UNL     1      20.954  21.555   9.382  1.00  0.00     0.000 G0
ENDBRANCH   6   7
ENDBRANCH   5   6
ENDBRANCH   3   5
ENDBRANCH   1   3
BRANCH   1  11
ATOM     11  C   UNL     1      18.089  19.456   8.307  1.00  0.00     0.087 C 
BRANCH  11  12
ATOM     12  C   UNL     1      19.358  19.465   9.206  1.00  0.00     0.066 C 
BRANCH  12  13
ATOM     13  C   UNL     1      20.427  20.373   8.612  1.00  0.00     0.140 C 
ATOM     14  O   UNL     1      20.901  20.113   7.514  1.00  0.00    -0.299 OA
BRANCH  13  15
ATOM     15  C   UNL     1      20.957  21.552   9.387  1.00  0.00     0.106 CG0
ATOM     16  G   UNL     1      20.380  22.870   8.899  1.00  0.00     0.000 G0
ENDBRANCH  13  15
ENDBRANCH  12  13
BRANCH  12  17
ATOM     17  C   UNL     1      19.933  18.047   9.538  1.00  0.00    -0.006 C 
ATOM     18  C   UNL     1      18.877  17.103  10.144  1.00  0.00     0.008 C 
ATOM     19  C   UNL     1      21.119  18.153  10.515  1.00  0.00     0.008 C 
ENDBRANCH  12  17
ENDBRANCH  11  12
ENDBRANCH   1  11
TORSDOF 1
ENDMDL
MODEL 2
REMARK VINA RESULT:    -3.663      1.603      3.782
REMARK INTER + INTRA:          -5.883
REMARK INTER:                  -5.813
REMARK INTRA:                  -0.070
REMARK UNBOUND:                -0.293
REMARK SMILES CC1=CCC[C@@H](C)C(=O)C[C@@H](C(C)C)C(=O)C1
REMARK SMILES IDX 8 1 9 2 6 3 7 4 5 5 4 6 3 7 2 8 1 9 10 11 11 12 15 13 16 14
REMARK SMILES IDX 17 15 12 17 13 18 14 19
REMARK H PARENT
REMARK Flexibility Score: 70.00
ROOT
ATOM      1  C   UNL     1      18.473  19.105   8.823  1.00  0.00     0.136 C 
ATOM      2  O   UNL     1      17.493  18.746   8.188  1.00  0.00    -0.299 OA
ENDROOT
BRANCH   1   3
ATOM      3  C   UNL     1      19.854  18.594   8.442  1.00  0.00     0.053 C 
ATOM      4  C   UNL     1      20.094  17.193   9.023  1.00  0.00     0.016 C 
BRANCH   3   5
ATOM      5  C   UNL     1      20.953  19.579   8.910  1.00  0.00     0.015 C 
BRANCH   5   6
ATOM      6  C   UNL     1      21.000  20.860   8.051  1.00  0.00     0.028 C 
BRANCH   6   7
ATOM      7  C   UNL     1      21.506  22.037   8.845  1.00  0.00    -0.028 C 
ATOM      8  C   UNL     1      20.735  23.074   9.257  1.00  0.00    -0.070 CG0
ATOM      9  C   UNL     1      21.357  24.180  10.072  1.00  0.00     0.039 C 
ATOM     10  G   UNL     1      19.261  23.201   8.910  1.00  0.00     0.000 G0
ENDBRANCH   6   7
ENDBRANCH   5   6
ENDBRANCH   3   5
ENDBRANCH   1   3
BRANCH   1  11
ATOM     11  C   UNL     1      18.289  20.041   9.995  1.00  0.00     0.087 C 
BRANCH  11  12
ATOM     12  C   UNL     1      17.510  21.344   9.654  1.00  0.00     0.066 C 
BRANCH  12  13
ATOM     13  C   UNL     1      18.354  22.570   9.975  1.00  0.00     0.140 C 
ATOM     14  O   UNL     1      18.280  23.083  11.084  1.00  0.00    -0.299 OA
BRANCH  13  15
ATOM     15  C   UNL     1      19.231  23.201   8.924  1.00  0.00     0.106 CG0
ATOM     16  G   UNL     1      20.709  23.080   9.257  1.00  0.00     0.000 G0
ENDBRANCH  13  15
ENDBRANCH  12  13
BRANCH  12  17
ATOM     17  C   UNL     1      16.088  21.442  10.302  1.00  0.00    -0.006 C 
ATOM     18  C   UNL     1      15.894  20.449  11.464  1.00  0.00     0.008 C 
ATOM     19  C   UNL     1      14.989  21.193   9.251  1.00  0.00     0.008 C 
ENDBRANCH  12  17
ENDBRANCH  11  12
ENDBRANCH   1  11
TORSDOF 1
ENDMDL
MODEL 3
REMARK VINA RESULT:    -3.641      6.079      7.410
REMARK INTER + INTRA:          -5.850
REMARK INTER:                  -5.540
REMARK INTRA:                  -0.310
REMARK UNBOUND:                -0.293
REMARK SMILES CC1=CCC[C@@H](C)C(=O)C[C@@H](C(C)C)C(=O)C1
REMARK SMILES IDX 8 1 9 2 6 3 7 4 5 5 4 6 3 7 2 8 1 9 10 11 11 12 15 13 16 14
REMARK SMILES IDX 17 15 12 17 13 18 14 19
REMARK H PARENT
REMARK Flexibility Score: 70.00
ROOT
ATOM      1  C   UNL     1      16.565  17.689  16.713  1.00  0.00     0.136 C 
ATOM      2  O   UNL     1      15.433  17.841  17.149  1.00  0.00    -0.299 OA
ENDROOT
BRANCH   1   3
ATOM      3  C   UNL     1      17.591  18.802  16.859  1.00  0.00     0.053 C 
ATOM      4  C   UNL     1      18.169  18.826  18.281  1.00  0.00     0.016 C 
BRANCH   3   5
ATOM      5  C   UNL     1      16.970  20.173  16.495  1.00  0.00     0.015 C 
BRANCH   5   6
ATOM      6  C   UNL     1      16.863  20.385  14.971  1.00  0.00     0.028 C 
BRANCH   6   7
ATOM      7  C   UNL     1      15.439  20.251  14.494  1.00  0.00    -0.028 C 
ATOM      8  C   UNL     1      15.004  19.302  13.630  1.00  0.00    -0.070 CG0
ATOM      9  C   UNL     1      13.545  19.257  13.253  1.00  0.00     0.039 C 
ATOM     10  G   UNL     1      15.928  18.282  12.983  1.00  0.00     0.000 G0
ENDBRANCH   6   7
ENDBRANCH   5   6
ENDBRANCH   3   5
ENDBRANCH   1   3
BRANCH   1  11
ATOM     11  C   UNL     1      16.918  16.396  16.014  1.00  0.00     0.087 C 
BRANCH  11  12
ATOM     12  C   UNL     1      17.224  16.555  14.497  1.00  0.00     0.066 C 
BRANCH  12  13
ATOM     13  C   UNL     1      15.967  16.964  13.740  1.00  0.00     0.140 C 
ATOM     14  O   UNL     1      15.005  16.208  13.709  1.00  0.00    -0.299 OA
BRANCH  13  15
ATOM     15  C   UNL     1      15.915  18.260  12.971  1.00  0.00     0.106 CG0
ATOM     16  G   UNL     1      15.021  19.292  13.639  1.00  0.00     0.000 G0
ENDBRANCH  13  15
ENDBRANCH  12  13
BRANCH  12  17
ATOM     17  C   UNL     1      17.910  15.313  13.836  1.00  0.00    -0.006 C 
ATOM     18  C   UNL     1      18.965  14.661  14.749  1.00  0.00     0.008 C 
ATOM     19  C   UNL     1      18.583  15.704  12.506  1.00  0.00     0.008 C 
ENDBRANCH  12  17
ENDBRANCH  11  12
ENDBRANCH   1  11
TORSDOF 1
ENDMDL
MODEL 4
REMARK VINA RESULT:    -3.475      4.892      6.847
REMARK INTER + INTRA:          -5.596
REMARK INTER:                  -5.168
REMARK INTRA:                  -0.428
REMARK UNBOUND:                -0.293
REMARK SMILES CC1=CCC[C@@H](C)C(=O)C[C@@H](C(C)C)C(=O)C1
REMARK SMILES IDX 8 1 9 2 6 3 7 4 5 5 4 6 3 7 2 8 1 9 10 11 11 12 15 13 16 14
REMARK SMILES IDX 17 15 12 17 13 18 14 19
REMARK H PARENT
REMARK Flexibility Score: 70.00
ROOT
ATOM      1  C   UNL     1      16.682  14.507  13.245  1.00  0.00     0.136 C 
ATOM      2  O   UNL     1      15.711  14.600  13.982  1.00  0.00    -0.299 OA
ENDROOT
BRANCH   1   3
ATOM      3  C   UNL     1      18.062  14.892  13.756  1.00  0.00     0.053 C 
ATOM      4  C   UNL     1      18.266  14.399  15.195  1.00  0.00     0.016 C 
BRANCH   3   5
ATOM      5  C   UNL     1      18.274  16.424  13.663  1.00  0.00     0.015 C 
BRANCH   5   6
ATOM      6  C   UNL     1      19.300  16.811  12.578  1.00  0.00     0.028 C 
BRANCH   6   7
ATOM      7  C   UNL     1      18.621  17.380  11.357  1.00  0.00    -0.028 C 
ATOM      8  C   UNL     1      18.511  16.736  10.169  1.00  0.00    -0.070 CG0
ATOM      9  C   UNL     1      17.782  17.404   9.031  1.00  0.00     0.039 C 
ATOM     10  G   UNL     1      19.121  15.369   9.907  1.00  0.00     0.000 G0
ENDBRANCH   6   7
ENDBRANCH   5   6
ENDBRANCH   3   5
ENDBRANCH   1   3
BRANCH   1  11
ATOM     11  C   UNL     1      16.486  14.029  11.825  1.00  0.00     0.087 C 
BRANCH  11  12
ATOM     12  C   UNL     1      17.777  13.476  11.156  1.00  0.00     0.066 C 
BRANCH  12  13
ATOM     13  C   UNL     1      18.093  14.251   9.883  1.00  0.00     0.140 C 
ATOM     14  O   UNL     1      17.547  13.940   8.833  1.00  0.00    -0.299 OA
BRANCH  13  15
ATOM     15  C   UNL     1      19.120  15.355   9.886  1.00  0.00     0.106 CG0
ATOM     16  G   UNL     1      18.503  16.715  10.168  1.00  0.00     0.000 G0
ENDBRANCH  13  15
ENDBRANCH  12  13
BRANCH  12  17
ATOM     17  C   UNL     1      17.767  11.932  10.897  1.00  0.00    -0.006 C 
ATOM     18  C   UNL     1      16.831  11.173  11.857  1.00  0.00     0.008 C 
ATOM     19  C   UNL     1      19.187  11.346  11.027  1.00  0.00     0.008 C 
ENDBRANCH  12  17
ENDBRANCH  11  12
ENDBRANCH   1  11
TORSDOF 1
ENDMDL
MODEL 5
REMARK VINA RESULT:    -3.382      4.664      6.913
REMARK INTER + INTRA:          -5.455
REMARK INTER:                  -5.312
REMARK INTRA:                  -0.143
REMARK UNBOUND:                -0.293
REMARK SMILES CC1=CCC[C@@H](C)C(=O)C[C@@H](C(C)C)C(=O)C1
REMARK SMILES IDX 8 1 9 2 6 3 7 4 5 5 4 6 3 7 2 8 1 9 10 11 11 12 15 13 16 14
REMARK SMILES IDX 17 15 12 17 13 18 14 19
REMARK H PARENT
REMARK Flexibility Score: 70.00
ROOT
ATOM      1  C   UNL     1      18.717  14.387  12.255  1.00  0.00     0.136 C 
ATOM      2  O   UNL     1      19.643  13.969  11.575  1.00  0.00    -0.299 OA
ENDROOT
BRANCH   1   3
ATOM      3  C   UNL     1      18.478  13.818  13.645  1.00  0.00     0.053 C 
ATOM      4  C   UNL     1      17.109  13.130  13.723  1.00  0.00     0.016 C 
BRANCH   3   5
ATOM      5  C   UNL     1      18.599  14.927  14.720  1.00  0.00     0.015 C 
BRANCH   5   6
ATOM      6  C   UNL     1      17.223  15.427  15.207  1.00  0.00     0.028 C 
BRANCH   6   7
ATOM      7  C   UNL     1      17.243  16.909  15.485  1.00  0.00    -0.028 C 
ATOM      8  C   UNL     1      16.870  17.863  14.597  1.00  0.00    -0.070 CG0
ATOM      9  C   UNL     1      16.908  19.312  15.008  1.00  0.00     0.039 C 
ATOM     10  G   UNL     1      16.440  17.547  13.173  1.00  0.00     0.000 G0
ENDBRANCH   6   7
ENDBRANCH   5   6
ENDBRANCH   3   5
ENDBRANCH   1   3
BRANCH   1  11
ATOM     11  C   UNL     1      17.810  15.454  11.687  1.00  0.00     0.087 C 
BRANCH  11  12
ATOM     12  C   UNL     1      18.455  16.868  11.619  1.00  0.00     0.066 C 
BRANCH  12  13
ATOM     13  C   UNL     1      17.491  17.921  12.152  1.00  0.00     0.140 C 
ATOM     14  O   UNL     1      17.611  19.086  11.799  1.00  0.00    -0.299 OA
BRANCH  13  15
ATOM     15  C   UNL     1      16.432  17.557  13.161  1.00  0.00     0.106 CG0
ATOM     16  G   UNL     1      16.874  17.835  14.588  1.00  0.00     0.000 G0
ENDBRANCH  13  15
ENDBRANCH  12  13
BRANCH  12  17
ATOM     17  C   UNL     1      19.010  17.264  10.209  1.00  0.00    -0.006 C 
ATOM     18  C   UNL     1      18.575  16.285   9.102  1.00  0.00     0.008 C 
ATOM     19  C   UNL     1      20.549  17.335  10.228  1.00  0.00     0.008 C 
ENDBRANCH  12  17
ENDBRANCH  11  12
ENDBRANCH   1  11
TORSDOF 1
ENDMDL
MODEL 6
REMARK VINA RESULT:    -3.365      4.316      5.825
REMARK INTER + INTRA:          -5.428
REMARK INTER:                  -4.989
REMARK INTRA:                  -0.439
REMARK UNBOUND:                -0.293
REMARK SMILES CC1=CCC[C@@H](C)C(=O)C[C@@H](C(C)C)C(=O)C1
REMARK SMILES IDX 8 1 9 2 6 3 7 4 5 5 4 6 3 7 2 8 1 9 10 11 11 12 15 13 16 14
REMARK SMILES IDX 17 15 12 17 13 18 14 19
REMARK H PARENT
REMARK Flexibility Score: 70.00
ROOT
ATOM      1  C   UNL     1      15.857  15.244  11.623  1.00  0.00     0.136 C 
ATOM      2  O   UNL     1      14.938  14.922  10.884  1.00  0.00    -0.299 OA
ENDROOT
BRANCH   1   3
ATOM      3  C   UNL     1      15.688  16.415  12.579  1.00  0.00     0.053 C 
ATOM      4  C   UNL     1      14.307  16.375  13.248  1.00  0.00     0.016 C 
BRANCH   3   5
ATOM      5  C   UNL     1      15.906  17.760  11.845  1.00  0.00     0.015 C 
BRANCH   5   6
ATOM      6  C   UNL     1      17.317  18.337  12.079  1.00  0.00     0.028 C 
BRANCH   6   7
ATOM      7  C   UNL     1      18.179  18.202  10.849  1.00  0.00    -0.028 C 
ATOM      8  C   UNL     1      19.318  17.470  10.785  1.00  0.00    -0.070 CG0
ATOM      9  C   UNL     1      20.076  17.392   9.484  1.00  0.00     0.039 C 
ATOM     10  G   UNL     1      19.900  16.737  11.982  1.00  0.00     0.000 G0
ENDBRANCH   6   7
ENDBRANCH   5   6
ENDBRANCH   3   5
ENDBRANCH   1   3
BRANCH   1  11
ATOM     11  C   UNL     1      17.160  14.480  11.554  1.00  0.00     0.087 C 
BRANCH  11  12
ATOM     12  C   UNL     1      18.182  14.864  12.662  1.00  0.00     0.066 C 
BRANCH  12  13
ATOM     13  C   UNL     1      19.510  15.281  12.042  1.00  0.00     0.140 C 
ATOM     14  O   UNL     1      20.283  14.425  11.632  1.00  0.00    -0.299 OA
BRANCH  13  15
ATOM     15  C   UNL     1      19.913  16.733  11.985  1.00  0.00     0.106 CG0
ATOM     16  G   UNL     1      19.325  17.448  10.780  1.00  0.00     0.000 G0
ENDBRANCH  13  15
ENDBRANCH  12  13
BRANCH  12  17
ATOM     17  C   UNL     1      18.385  13.775  13.768  1.00  0.00    -0.006 C 
ATOM     18  C   UNL     1      17.349  12.639  13.682  1.00  0.00     0.008 C 
ATOM     19  C   UNL     1      18.314  14.402  15.173  1.00  0.00     0.008 C 
ENDBRANCH  12  17
ENDBRANCH  11  12
ENDBRANCH   1  11
TORSDOF 1
ENDMDL
MODEL 7
REMARK VINA RESULT:    -3.354      5.297      8.030
REMARK INTER + INTRA:          -5.411
REMARK INTER:                  -5.085
REMARK INTRA:                  -0.326
REMARK UNBOUND:                -0.293
REMARK SMILES CC1=CCC[C@@H](C)C(=O)C[C@@H](C(C)C)C(=O)C1
REMARK SMILES IDX 8 1 9 2 6 3 7 4 5 5 4 6 3 7 2 8 1 9 10 11 11 12 15 13 16 14
REMARK SMILES IDX 17 15 12 17 13 18 14 19
REMARK H PARENT
REMARK Flexibility Score: 70.00
ROOT
ATOM      1  C   UNL     1      17.756  16.037  13.698  1.00  0.00     0.136 C 
ATOM      2  O   UNL     1      17.942  16.740  14.680  1.00  0.00    -0.299 OA
ENDROOT
BRANCH   1   3
ATOM      3  C   UNL     1      16.449  15.273  13.547  1.00  0.00     0.053 C 
ATOM      4  C   UNL     1      15.255  16.157  13.935  1.00  0.00     0.016 C 
BRANCH   3   5
ATOM      5  C   UNL     1      16.471  13.976  14.392  1.00  0.00     0.015 C 
BRANCH   5   6
ATOM      6  C   UNL     1      17.660  13.060  14.034  1.00  0.00     0.028 C 
BRANCH   6   7
ATOM      7  C   UNL     1      17.379  12.253  12.792  1.00  0.00    -0.028 C 
ATOM      8  C   UNL     1      18.130  12.294  11.663  1.00  0.00    -0.070 CG0
ATOM      9  C   UNL     1      17.760  11.414  10.496  1.00  0.00     0.039 C 
ATOM     10  G   UNL     1      19.326  13.217  11.496  1.00  0.00     0.000 G0
ENDBRANCH   6   7
ENDBRANCH   5   6
ENDBRANCH   3   5
ENDBRANCH   1   3
BRANCH   1  11
ATOM     11  C   UNL     1      18.845  15.924  12.656  1.00  0.00     0.087 C 
BRANCH  11  12
ATOM     12  C   UNL     1      18.323  15.653  11.216  1.00  0.00     0.066 C 
BRANCH  12  13
ATOM     13  C   UNL     1      19.005  14.426  10.623  1.00  0.00     0.140 C 
ATOM     14  O   UNL     1      19.245  14.386   9.424  1.00  0.00    -0.299 OA
BRANCH  13  15
ATOM     15  C   UNL     1      19.329  13.232  11.485  1.00  0.00     0.106 CG0
ATOM     16  G   UNL     1      18.133  12.312  11.669  1.00  0.00     0.000 G0
ENDBRANCH  13  15
ENDBRANCH  12  13
BRANCH  12  17
ATOM     17  C   UNL     1      18.413  16.879  10.248  1.00  0.00    -0.006 C 
ATOM     18  C   UNL     1      19.519  17.874  10.648  1.00  0.00     0.008 C 
ATOM     19  C   UNL     1      17.070  17.632  10.194  1.00  0.00     0.008 C 
ENDBRANCH  12  17
ENDBRANCH  11  12
ENDBRANCH   1  11
TORSDOF 1
ENDMDL
MODEL 8
REMARK VINA RESULT:    -3.330      4.115      6.603
REMARK INTER + INTRA:          -5.375
REMARK INTER:                  -5.398
REMARK INTRA:                   0.024
REMARK UNBOUND:                -0.293
REMARK SMILES CC1=CCC[C@@H](C)C(=O)C[C@@H](C(C)C)C(=O)C1
REMARK SMILES IDX 8 1 9 2 6 3 7 4 5 5 4 6 3 7 2 8 1 9 10 11 11 12 15 13 16 14
REMARK SMILES IDX 17 15 12 17 13 18 14 19
REMARK H PARENT
REMARK Flexibility Score: 70.00
ROOT
ATOM      1  C   UNL     1      18.951  13.661  11.927  1.00  0.00     0.136 C 
ATOM      2  O   UNL     1      18.429  12.659  12.394  1.00  0.00    -0.299 OA
ENDROOT
BRANCH   1   3
ATOM      3  C   UNL     1      19.442  13.661  10.487  1.00  0.00     0.053 C 
ATOM      4  C   UNL     1      20.907  14.115  10.412  1.00  0.00     0.016 C 
BRANCH   3   5
ATOM      5  C   UNL     1      18.542  14.556   9.600  1.00  0.00     0.015 C 
BRANCH   5   6
ATOM      6  C   UNL     1      19.339  15.661   8.878  1.00  0.00     0.028 C 
BRANCH   6   7
ATOM      7  C   UNL     1      18.613  16.981   8.919  1.00  0.00    -0.028 C 
ATOM      8  C   UNL     1      18.557  17.794  10.003  1.00  0.00    -0.070 CG0
ATOM      9  C   UNL     1      17.820  19.106   9.907  1.00  0.00     0.039 C 
ATOM     10  G   UNL     1      19.181  17.435  11.342  1.00  0.00     0.000 G0
ENDBRANCH   6   7
ENDBRANCH   5   6
ENDBRANCH   3   5
ENDBRANCH   1   3
BRANCH   1  11
ATOM     11  C   UNL     1      19.117  14.882  12.803  1.00  0.00     0.087 C 
BRANCH  11  12
ATOM     12  C   UNL     1      17.852  15.783  12.886  1.00  0.00     0.066 C 
BRANCH  12  13
ATOM     13  C   UNL     1      18.175  17.200  12.430  1.00  0.00     0.140 C 
ATOM     14  O   UNL     1      17.564  18.145  12.910  1.00  0.00    -0.299 OA
BRANCH  13  15
ATOM     15  C   UNL     1      19.194  17.449  11.347  1.00  0.00     0.106 CG0
ATOM     16  G   UNL     1      18.547  17.788  10.014  1.00  0.00     0.000 G0
ENDBRANCH  13  15
ENDBRANCH  12  13
BRANCH  12  17
ATOM     17  C   UNL     1      17.140  15.780  14.280  1.00  0.00    -0.006 C 
ATOM     18  C   UNL     1      18.032  15.218  15.403  1.00  0.00     0.008 C 
ATOM     19  C   UNL     1      15.838  14.958  14.227  1.00  0.00     0.008 C 
ENDBRANCH  12  17
ENDBRANCH  11  12
ENDBRANCH   1  11
TORSDOF 1
ENDMDL
MODEL 9
REMARK VINA RESULT:    -3.247      4.834      7.613
REMARK INTER + INTRA:          -5.248
REMARK INTER:                  -4.812
REMARK INTRA:                  -0.436
REMARK UNBOUND:                -0.293
REMARK SMILES CC1=CCC[C@@H](C)C(=O)C[C@@H](C(C)C)C(=O)C1
REMARK SMILES IDX 8 1 9 2 6 3 7 4 5 5 4 6 3 7 2 8 1 9 10 11 11 12 15 13 16 14
REMARK SMILES IDX 17 15 12 17 13 18 14 19
REMARK H PARENT
REMARK Flexibility Score: 70.00
ROOT
ATOM      1  C   UNL     1      17.286  14.164  10.949  1.00  0.00     0.136 C 
ATOM      2  O   UNL     1      16.557  13.393  10.344  1.00  0.00    -0.299 OA
ENDROOT
BRANCH   1   3
ATOM      3  C   UNL     1      18.384  13.622  11.851  1.00  0.00     0.053 C 
ATOM      4  C   UNL     1      19.316  12.685  11.069  1.00  0.00     0.016 C 
BRANCH   3   5
ATOM      5  C   UNL     1      17.779  12.898  13.079  1.00  0.00     0.015 C 
BRANCH   5   6
ATOM      6  C   UNL     1      17.922  13.720  14.376  1.00  0.00     0.028 C 
BRANCH   6   7
ATOM      7  C   UNL     1      16.651  14.463  14.701  1.00  0.00    -0.028 C 
ATOM      8  C   UNL     1      16.493  15.804  14.578  1.00  0.00    -0.070 CG0
ATOM      9  C   UNL     1      15.159  16.425  14.908  1.00  0.00     0.039 C 
ATOM     10  G   UNL     1      17.615  16.736  14.149  1.00  0.00     0.000 G0
ENDBRANCH   6   7
ENDBRANCH   5   6
ENDBRANCH   3   5
ENDBRANCH   1   3
BRANCH   1  11
ATOM     11  C   UNL     1      17.067  15.653  10.803  1.00  0.00     0.087 C 
BRANCH  11  12
ATOM     12  C   UNL     1      18.108  16.527  11.559  1.00  0.00     0.066 C 
BRANCH  12  13
ATOM     13  C   UNL     1      17.452  17.246  12.731  1.00  0.00     0.140 C 
ATOM     14  O   UNL     1      16.820  18.275  12.533  1.00  0.00    -0.299 OA
BRANCH  13  15
ATOM     15  C   UNL     1      17.626  16.742  14.141  1.00  0.00     0.106 CG0
ATOM     16  G   UNL     1      16.491  15.827  14.571  1.00  0.00     0.000 G0
ENDBRANCH  13  15
ENDBRANCH  12  13
BRANCH  12  17
ATOM     17  C   UNL     1      18.905  17.523  10.652  1.00  0.00    -0.006 C 
ATOM     18  C   UNL     1      18.206  17.791   9.305  1.00  0.00     0.008 C 
ATOM     19  C   UNL     1      20.325  16.993  10.373  1.00  0.00     0.008 C 
ENDBRANCH  12  17
ENDBRANCH  11  12
ENDBRANCH   1  11
TORSDOF 1
ENDMDL
