MODEL 1
REMARK VINA RESULT:    -3.323      0.000      0.000
REMARK INTER + INTRA:          -4.226
REMARK INTER:                  -4.002
REMARK INTRA:                  -0.223
REMARK UNBOUND:                -0.223
REMARK SMILES OCC(O)CO
REMARK SMILES IDX 3 1 5 2 6 3 2 5 1 6 4 8
REMARK H PARENT 6 4 1 7 4 9
REMARK Flexibility Score: inf
ROOT
ATOM      1  C   UNL     1       0.390  15.276  22.883  1.00  0.00     0.165 C 
ENDROOT
BRANCH   1   2
ATOM      2  C   UNL     1       1.689  14.548  22.507  1.00  0.00     0.190 C 
BRANCH   2   3
ATOM      3  O   UNL     1       2.762  15.450  22.440  1.00  0.00    -0.394 OA
ATOM      4  H   UNL     1       3.051  15.488  21.491  1.00  0.00     0.210 HD
ENDBRANCH   2   3
ENDBRANCH   1   2
BRANCH   1   5
ATOM      5  C   UNL     1       0.570  16.800  22.838  1.00  0.00     0.190 C 
BRANCH   5   6
ATOM      6  O   UNL     1       1.137  17.263  24.034  1.00  0.00    -0.394 OA
ATOM      7  H   UNL     1       0.836  16.644  24.749  1.00  0.00     0.210 HD
ENDBRANCH   5   6
ENDBRANCH   1   5
BRANCH   1   8
ATOM      8  O   UNL     1       0.000  14.901  24.179  1.00  0.00    -0.388 OA
ATOM      9  H   UNL     1       0.213  15.665  24.776  1.00  0.00     0.211 HD
ENDBRANCH   1   8
TORSDOF 5
ENDMDL
MODEL 2
REMARK VINA RESULT:    -3.308      1.527      1.960
REMARK INTER + INTRA:          -4.208
REMARK INTER:                  -3.991
REMARK INTRA:                  -0.218
REMARK UNBOUND:                -0.223
REMARK SMILES OCC(O)CO
REMARK SMILES IDX 3 1 5 2 6 3 2 5 1 6 4 8
REMARK H PARENT 6 4 1 7 4 9
REMARK Flexibility Score: inf
ROOT
ATOM      1  C   UNL     1      -0.298  15.282  23.113  1.00  0.00     0.165 C 
ENDROOT
BRANCH   1   2
ATOM      2  C   UNL     1       1.146  15.757  23.332  1.00  0.00     0.190 C 
BRANCH   2   3
ATOM      3  O   UNL     1       1.172  16.934  24.097  1.00  0.00    -0.394 OA
ATOM      4  H   UNL     1       0.232  17.148  24.331  1.00  0.00     0.210 HD
ENDBRANCH   2   3
ENDBRANCH   1   2
BRANCH   1   5
ATOM      5  C   UNL     1      -0.997  16.104  22.020  1.00  0.00     0.190 C 
BRANCH   5   6
ATOM      6  O   UNL     1      -0.173  17.156  21.594  1.00  0.00    -0.394 OA
ATOM      7  H   UNL     1      -0.758  17.951  21.492  1.00  0.00     0.210 HD
ENDBRANCH   5   6
ENDBRANCH   1   5
BRANCH   1   8
ATOM      8  O   UNL     1      -1.021  15.410  24.311  1.00  0.00    -0.388 OA
ATOM      9  H   UNL     1      -1.703  14.689  24.314  1.00  0.00     0.211 HD
ENDBRANCH   1   8
TORSDOF 5
ENDMDL
MODEL 3
REMARK VINA RESULT:    -3.305      5.768      7.071
REMARK INTER + INTRA:          -4.205
REMARK INTER:                  -3.981
REMARK INTRA:                  -0.224
REMARK UNBOUND:                -0.223
REMARK SMILES OCC(O)CO
REMARK SMILES IDX 3 1 5 2 6 3 2 5 1 6 4 8
REMARK H PARENT 6 4 1 7 4 9
REMARK Flexibility Score: inf
ROOT
ATOM      1  C   UNL     1      -0.291   9.920  22.838  1.00  0.00     0.165 C 
ENDROOT
BRANCH   1   2
ATOM      2  C   UNL     1      -1.582  10.641  22.424  1.00  0.00     0.190 C 
BRANCH   2   3
ATOM      3  O   UNL     1      -2.678   9.766  22.474  1.00  0.00    -0.394 OA
ATOM      4  H   UNL     1      -2.475   9.012  21.862  1.00  0.00     0.210 HD
ENDBRANCH   2   3
ENDBRANCH   1   2
BRANCH   1   5
ATOM      5  C   UNL     1      -0.486   8.397  22.867  1.00  0.00     0.190 C 
BRANCH   5   6
ATOM      6  O   UNL     1      -1.013   7.993  24.102  1.00  0.00    -0.394 OA
ATOM      7  H   UNL     1      -0.397   8.338  24.800  1.00  0.00     0.210 HD
ENDBRANCH   5   6
ENDBRANCH   1   5
BRANCH   1   8
ATOM      8  O   UNL     1       0.100  10.354  24.116  1.00  0.00    -0.388 OA
ATOM      9  H   UNL     1      -0.370  11.212  24.284  1.00  0.00     0.211 HD
ENDBRANCH   1   8
TORSDOF 5
ENDMDL
MODEL 4
REMARK VINA RESULT:    -3.304      6.181      7.321
REMARK INTER + INTRA:          -4.204
REMARK INTER:                  -3.983
REMARK INTRA:                  -0.220
REMARK UNBOUND:                -0.223
REMARK SMILES OCC(O)CO
REMARK SMILES IDX 3 1 5 2 6 3 2 5 1 6 4 8
REMARK H PARENT 6 4 1 7 4 9
REMARK Flexibility Score: inf
ROOT
ATOM      1  C   UNL     1       0.411   9.785  23.107  1.00  0.00     0.165 C 
ENDROOT
BRANCH   1   2
ATOM      2  C   UNL     1      -1.045   9.350  23.332  1.00  0.00     0.190 C 
BRANCH   2   3
ATOM      3  O   UNL     1      -1.100   8.185  24.112  1.00  0.00    -0.394 OA
ATOM      4  H   UNL     1      -0.191   8.041  24.484  1.00  0.00     0.210 HD
ENDBRANCH   2   3
ENDBRANCH   1   2
BRANCH   1   5
ATOM      5  C   UNL     1       1.102   8.901  22.057  1.00  0.00     0.190 C 
BRANCH   5   6
ATOM      6  O   UNL     1       0.213   7.931  21.571  1.00  0.00    -0.394 OA
ATOM      7  H   UNL     1      -0.686   8.352  21.556  1.00  0.00     0.210 HD
ENDBRANCH   5   6
ENDBRANCH   1   5
BRANCH   1   8
ATOM      8  O   UNL     1       1.121   9.696  24.316  1.00  0.00    -0.388 OA
ATOM      9  H   UNL     1       0.445   9.638  25.041  1.00  0.00     0.211 HD
ENDBRANCH   1   8
TORSDOF 5
ENDMDL
MODEL 5
REMARK VINA RESULT:    -3.294      1.527      2.682
REMARK INTER + INTRA:          -4.191
REMARK INTER:                  -3.983
REMARK INTRA:                  -0.208
REMARK UNBOUND:                -0.223
REMARK SMILES OCC(O)CO
REMARK SMILES IDX 3 1 5 2 6 3 2 5 1 6 4 8
REMARK H PARENT 6 4 1 7 4 9
REMARK Flexibility Score: inf
ROOT
ATOM      1  C   UNL     1      -0.026  15.859  22.276  1.00  0.00     0.165 C 
ENDROOT
BRANCH   1   2
ATOM      2  C   UNL     1      -1.348  15.598  23.013  1.00  0.00     0.190 C 
BRANCH   2   3
ATOM      3  O   UNL     1      -1.121  15.386  24.382  1.00  0.00    -0.394 OA
ATOM      4  H   UNL     1      -1.883  14.849  24.722  1.00  0.00     0.210 HD
ENDBRANCH   2   3
ENDBRANCH   1   2
BRANCH   1   5
ATOM      5  C   UNL     1       1.166  15.840  23.244  1.00  0.00     0.190 C 
BRANCH   5   6
ATOM      6  O   UNL     1       1.153  16.980  24.061  1.00  0.00    -0.394 OA
ATOM      7  H   UNL     1       1.562  17.713  23.531  1.00  0.00     0.210 HD
ENDBRANCH   5   6
ENDBRANCH   1   5
BRANCH   1   8
ATOM      8  O   UNL     1      -0.081  17.112  21.644  1.00  0.00    -0.388 OA
ATOM      9  H   UNL     1       0.506  17.721  22.162  1.00  0.00     0.211 HD
ENDBRANCH   1   8
TORSDOF 5
ENDMDL
MODEL 6
REMARK VINA RESULT:    -3.258      1.159      2.508
REMARK INTER + INTRA:          -4.147
REMARK INTER:                  -3.924
REMARK INTRA:                  -0.224
REMARK UNBOUND:                -0.223
REMARK SMILES OCC(O)CO
REMARK SMILES IDX 3 1 5 2 6 3 2 5 1 6 4 8
REMARK H PARENT 6 4 1 7 4 9
REMARK Flexibility Score: inf
ROOT
ATOM      1  C   UNL     1       0.599  15.159  22.594  1.00  0.00     0.165 C 
ENDROOT
BRANCH   1   2
ATOM      2  C   UNL     1       0.692  16.675  22.821  1.00  0.00     0.190 C 
BRANCH   2   3
ATOM      3  O   UNL     1       1.101  16.956  24.134  1.00  0.00    -0.394 OA
ATOM      4  H   UNL     1       0.759  17.861  24.356  1.00  0.00     0.210 HD
ENDBRANCH   2   3
ENDBRANCH   1   2
BRANCH   1   5
ATOM      5  C   UNL     1       1.993  14.526  22.465  1.00  0.00     0.190 C 
BRANCH   5   6
ATOM      6  O   UNL     1       2.978  15.521  22.391  1.00  0.00    -0.394 OA
ATOM      7  H   UNL     1       3.320  15.512  21.459  1.00  0.00     0.210 HD
ENDBRANCH   5   6
ENDBRANCH   1   5
BRANCH   1   8
ATOM      8  O   UNL     1      -0.127  14.904  21.419  1.00  0.00    -0.388 OA
ATOM      9  H   UNL     1       0.230  14.060  21.037  1.00  0.00     0.211 HD
ENDBRANCH   1   8
TORSDOF 5
ENDMDL
MODEL 7
REMARK VINA RESULT:    -3.256      6.078      6.993
REMARK INTER + INTRA:          -4.146
REMARK INTER:                  -3.924
REMARK INTRA:                  -0.222
REMARK UNBOUND:                -0.223
REMARK SMILES OCC(O)CO
REMARK SMILES IDX 3 1 5 2 6 3 2 5 1 6 4 8
REMARK H PARENT 6 4 1 7 4 9
REMARK Flexibility Score: inf
ROOT
ATOM      1  C   UNL     1      -0.458   9.969  22.572  1.00  0.00     0.165 C 
ENDROOT
BRANCH   1   2
ATOM      2  C   UNL     1      -0.511   8.461  22.858  1.00  0.00     0.190 C 
BRANCH   2   3
ATOM      3  O   UNL     1      -1.036   8.215  24.136  1.00  0.00    -0.394 OA
ATOM      4  H   UNL     1      -1.255   7.248  24.179  1.00  0.00     0.210 HD
ENDBRANCH   2   3
ENDBRANCH   1   2
BRANCH   1   5
ATOM      5  C   UNL     1      -1.868  10.578  22.524  1.00  0.00     0.190 C 
BRANCH   5   6
ATOM      6  O   UNL     1      -2.829   9.574  22.338  1.00  0.00    -0.394 OA
ATOM      7  H   UNL     1      -2.975   9.154  23.226  1.00  0.00     0.210 HD
ENDBRANCH   5   6
ENDBRANCH   1   5
BRANCH   1   8
ATOM      8  O   UNL     1       0.177  10.191  21.339  1.00  0.00    -0.388 OA
ATOM      9  H   UNL     1      -0.028   9.408  20.765  1.00  0.00     0.211 HD
ENDBRANCH   1   8
TORSDOF 5
ENDMDL
MODEL 8
REMARK VINA RESULT:    -3.248      6.256      7.057
REMARK INTER + INTRA:          -4.136
REMARK INTER:                  -3.932
REMARK INTRA:                  -0.204
REMARK UNBOUND:                -0.223
REMARK SMILES OCC(O)CO
REMARK SMILES IDX 3 1 5 2 6 3 2 5 1 6 4 8
REMARK H PARENT 6 4 1 7 4 9
REMARK Flexibility Score: inf
ROOT
ATOM      1  C   UNL     1       0.091   9.341  22.304  1.00  0.00     0.165 C 
ENDROOT
BRANCH   1   2
ATOM      2  C   UNL     1       1.404   9.627  23.049  1.00  0.00     0.190 C 
BRANCH   2   3
ATOM      3  O   UNL     1       1.182   9.710  24.432  1.00  0.00    -0.394 OA
ATOM      4  H   UNL     1       1.554  10.580  24.733  1.00  0.00     0.210 HD
ENDBRANCH   2   3
ENDBRANCH   1   2
BRANCH   1   5
ATOM      5  C   UNL     1      -1.106   9.333  23.265  1.00  0.00     0.190 C 
BRANCH   5   6
ATOM      6  O   UNL     1      -1.097   8.171  24.051  1.00  0.00    -0.394 OA
ATOM      7  H   UNL     1      -2.041   7.989  24.298  1.00  0.00     0.210 HD
ENDBRANCH   5   6
ENDBRANCH   1   5
BRANCH   1   8
ATOM      8  O   UNL     1       0.175   8.091  21.669  1.00  0.00    -0.388 OA
ATOM      9  H   UNL     1       1.134   7.836  21.660  1.00  0.00     0.211 HD
ENDBRANCH   1   8
TORSDOF 5
ENDMDL
MODEL 9
REMARK VINA RESULT:    -3.138      1.527      2.814
REMARK INTER + INTRA:          -4.004
REMARK INTER:                  -3.780
REMARK INTRA:                  -0.224
REMARK UNBOUND:                -0.223
REMARK SMILES OCC(O)CO
REMARK SMILES IDX 3 1 5 2 6 3 2 5 1 6 4 8
REMARK H PARENT 6 4 1 7 4 9
REMARK Flexibility Score: inf
ROOT
ATOM      1  C   UNL     1       0.706  16.232  22.951  1.00  0.00     0.165 C 
ENDROOT
BRANCH   1   2
ATOM      2  C   UNL     1      -0.230  17.013  22.018  1.00  0.00     0.190 C 
BRANCH   2   3
ATOM      3  O   UNL     1      -1.378  16.262  21.721  1.00  0.00    -0.394 OA
ATOM      4  H   UNL     1      -1.078  15.462  21.216  1.00  0.00     0.210 HD
ENDBRANCH   2   3
ENDBRANCH   1   2
BRANCH   1   5
ATOM      5  C   UNL     1       0.020  14.974  23.505  1.00  0.00     0.190 C 
BRANCH   5   6
ATOM      6  O   UNL     1      -0.937  15.320  24.469  1.00  0.00    -0.394 OA
ATOM      7  H   UNL     1      -0.823  16.290  24.646  1.00  0.00     0.210 HD
ENDBRANCH   5   6
ENDBRANCH   1   5
BRANCH   1   8
ATOM      8  O   UNL     1       1.089  17.052  24.026  1.00  0.00    -0.388 OA
ATOM      9  H   UNL     1       2.018  17.350  23.842  1.00  0.00     0.211 HD
ENDBRANCH   1   8
TORSDOF 5
ENDMDL
