MODEL 1
REMARK VINA RESULT:    -5.039      0.000      0.000
REMARK INTER + INTRA:          -7.775
REMARK INTER:                  -7.690
REMARK INTRA:                  -0.085
REMARK UNBOUND:                -0.085
REMARK SMILES CC1=CCC[C@@H](C)C(=O)C[C@@H](C(C)C)C(=O)C1
REMARK SMILES IDX 8 1 9 2 6 3 7 4 5 5 4 6 3 7 2 8 1 9 10 11 11 12 15 13 16 14
REMARK SMILES IDX 17 15 12 17 13 18 14 19
REMARK H PARENT
REMARK Flexibility Score: 70.00
ROOT
ATOM      1  C   UNL     1      -8.102  33.575  26.304  1.00  0.00     0.136 C 
ATOM      2  O   UNL     1      -7.612  33.140  27.336  1.00  0.00    -0.299 OA
ENDROOT
BRANCH   1   3
ATOM      3  C   UNL     1      -7.642  34.905  25.748  1.00  0.00     0.053 C 
ATOM      4  C   UNL     1      -8.780  35.925  25.864  1.00  0.00     0.016 C 
BRANCH   3   5
ATOM      5  C   UNL     1      -7.158  34.805  24.284  1.00  0.00     0.015 C 
BRANCH   5   6
ATOM      6  C   UNL     1      -8.250  35.148  23.252  1.00  0.00     0.028 C 
BRANCH   6   7
ATOM      7  C   UNL     1      -8.134  34.283  22.016  1.00  0.00    -0.028 C 
ATOM      8  C   UNL     1      -8.728  33.083  21.819  1.00  0.00    -0.070 CG0
ATOM      9  C   UNL     1      -8.463  32.369  20.516  1.00  0.00     0.039 C 
ATOM     10  G   UNL     1      -9.687  32.450  22.804  1.00  0.00     0.000 G0
ENDBRANCH   6   7
ENDBRANCH   5   6
ENDBRANCH   3   5
ENDBRANCH   1   3
BRANCH   1  11
ATOM     11  C   UNL     1      -9.137  32.756  25.571  1.00  0.00     0.087 C 
BRANCH  11  12
ATOM     12  C   UNL     1      -8.547  31.462  24.960  1.00  0.00     0.066 C 
BRANCH  12  13
ATOM     13  C   UNL     1      -9.041  31.300  23.534  1.00  0.00     0.140 C 
ATOM     14  O   UNL     1      -8.888  30.231  22.960  1.00  0.00    -0.299 OA
BRANCH  13  15
ATOM     15  C   UNL     1      -9.702  32.436  22.799  1.00  0.00     0.106 CG0
ATOM     16  G   UNL     1      -8.725  33.076  21.836  1.00  0.00     0.000 G0
ENDBRANCH  13  15
ENDBRANCH  12  13
BRANCH  12  17
ATOM     17  C   UNL     1      -8.902  30.194  25.800  1.00  0.00    -0.006 C 
ATOM     18  C   UNL     1      -7.657  29.637  26.517  1.00  0.00     0.008 C 
ATOM     19  C   UNL     1      -9.994  30.474  26.848  1.00  0.00     0.008 C 
ENDBRANCH  12  17
ENDBRANCH  11  12
ENDBRANCH   1  11
TORSDOF 1
ENDMDL
MODEL 2
REMARK VINA RESULT:    -5.032      1.688      3.851
REMARK INTER + INTRA:          -7.765
REMARK INTER:                  -7.462
REMARK INTRA:                  -0.303
REMARK UNBOUND:                -0.085
REMARK SMILES CC1=CCC[C@@H](C)C(=O)C[C@@H](C(C)C)C(=O)C1
REMARK SMILES IDX 8 1 9 2 6 3 7 4 5 5 4 6 3 7 2 8 1 9 10 11 11 12 15 13 16 14
REMARK SMILES IDX 17 15 12 17 13 18 14 19
REMARK H PARENT
REMARK Flexibility Score: 70.00
ROOT
ATOM      1  C   UNL     1      -7.456  29.762  23.472  1.00  0.00     0.136 C 
ATOM      2  O   UNL     1      -6.474  29.132  23.107  1.00  0.00    -0.299 OA
ENDROOT
BRANCH   1   3
ATOM      3  C   UNL     1      -8.803  29.502  22.833  1.00  0.00     0.053 C 
ATOM      4  C   UNL     1      -9.060  27.992  22.784  1.00  0.00     0.016 C 
BRANCH   3   5
ATOM      5  C   UNL     1      -8.922  30.112  21.419  1.00  0.00     0.015 C 
BRANCH   5   6
ATOM      6  C   UNL     1      -9.691  31.447  21.389  1.00  0.00     0.028 C 
BRANCH   6   7
ATOM      7  C   UNL     1      -8.747  32.629  21.365  1.00  0.00    -0.028 C 
ATOM      8  C   UNL     1      -8.637  33.587  22.314  1.00  0.00    -0.070 CG0
ATOM      9  C   UNL     1      -7.643  34.699  22.085  1.00  0.00     0.039 C 
ATOM     10  G   UNL     1      -9.409  33.570  23.616  1.00  0.00     0.000 G0
ENDBRANCH   6   7
ENDBRANCH   5   6
ENDBRANCH   3   5
ENDBRANCH   1   3
BRANCH   1  11
ATOM     11  C   UNL     1      -7.321  30.769  24.588  1.00  0.00     0.087 C 
BRANCH  11  12
ATOM     12  C   UNL     1      -8.673  31.425  24.963  1.00  0.00     0.066 C 
BRANCH  12  13
ATOM     13  C   UNL     1      -8.602  32.920  24.708  1.00  0.00     0.140 C 
ATOM     14  O   UNL     1      -7.875  33.616  25.403  1.00  0.00    -0.299 OA
BRANCH  13  15
ATOM     15  C   UNL     1      -9.420  33.571  23.626  1.00  0.00     0.106 CG0
ATOM     16  G   UNL     1      -8.650  33.590  22.324  1.00  0.00     0.000 G0
ENDBRANCH  13  15
ENDBRANCH  12  13
BRANCH  12  17
ATOM     17  C   UNL     1      -9.076  31.149  26.446  1.00  0.00    -0.006 C 
ATOM     18  C   UNL     1      -9.830  29.812  26.578  1.00  0.00     0.008 C 
ATOM     19  C   UNL     1      -7.858  31.127  27.388  1.00  0.00     0.008 C 
ENDBRANCH  12  17
ENDBRANCH  11  12
ENDBRANCH   1  11
TORSDOF 1
ENDMDL
MODEL 3
REMARK VINA RESULT:    -4.939      1.924      4.849
REMARK INTER + INTRA:          -7.624
REMARK INTER:                  -7.825
REMARK INTRA:                   0.201
REMARK UNBOUND:                -0.085
REMARK SMILES CC1=CCC[C@@H](C)C(=O)C[C@@H](C(C)C)C(=O)C1
REMARK SMILES IDX 8 1 9 2 6 3 7 4 5 5 4 6 3 7 2 8 1 9 10 11 11 12 15 13 16 14
REMARK SMILES IDX 17 15 12 17 13 18 14 19
REMARK H PARENT
REMARK Flexibility Score: 70.00
ROOT
ATOM      1  C   UNL     1      -8.041  30.577  23.986  1.00  0.00     0.136 C 
ATOM      2  O   UNL     1      -7.064  30.194  23.360  1.00  0.00    -0.299 OA
ENDROOT
BRANCH   1   3
ATOM      3  C   UNL     1      -8.455  29.865  25.256  1.00  0.00     0.053 C 
ATOM      4  C   UNL     1      -9.671  28.978  24.969  1.00  0.00     0.016 C 
BRANCH   3   5
ATOM      5  C   UNL     1      -8.763  30.840  26.414  1.00  0.00     0.015 C 
BRANCH   5   6
ATOM      6  C   UNL     1      -7.716  31.960  26.569  1.00  0.00     0.028 C 
BRANCH   6   7
ATOM      7  C   UNL     1      -8.366  33.325  26.607  1.00  0.00    -0.028 C 
ATOM      8  C   UNL     1      -8.094  34.366  25.786  1.00  0.00    -0.070 CG0
ATOM      9  C   UNL     1      -8.844  35.655  26.007  1.00  0.00     0.039 C 
ATOM     10  G   UNL     1      -7.126  34.286  24.624  1.00  0.00     0.000 G0
ENDBRANCH   6   7
ENDBRANCH   5   6
ENDBRANCH   3   5
ENDBRANCH   1   3
BRANCH   1  11
ATOM     11  C   UNL     1      -8.806  31.787  23.505  1.00  0.00     0.087 C 
BRANCH  11  12
ATOM     12  C   UNL     1      -7.935  32.736  22.646  1.00  0.00     0.066 C 
BRANCH  12  13
ATOM     13  C   UNL     1      -7.860  34.099  23.310  1.00  0.00     0.140 C 
ATOM     14  O   UNL     1      -8.399  35.060  22.778  1.00  0.00    -0.299 OA
BRANCH  13  15
ATOM     15  C   UNL     1      -7.121  34.301  24.605  1.00  0.00     0.106 CG0
ATOM     16  G   UNL     1      -8.095  34.362  25.762  1.00  0.00     0.000 G0
ENDBRANCH  13  15
ENDBRANCH  12  13
BRANCH  12  17
ATOM     17  C   UNL     1      -8.471  32.877  21.186  1.00  0.00    -0.006 C 
ATOM     18  C   UNL     1      -7.332  32.731  20.159  1.00  0.00     0.008 C 
ATOM     19  C   UNL     1      -9.565  31.842  20.864  1.00  0.00     0.008 C 
ENDBRANCH  12  17
ENDBRANCH  11  12
ENDBRANCH   1  11
TORSDOF 1
ENDMDL
MODEL 4
REMARK VINA RESULT:    -4.909      1.939      4.255
REMARK INTER + INTRA:          -7.578
REMARK INTER:                  -8.317
REMARK INTRA:                   0.739
REMARK UNBOUND:                -0.085
REMARK SMILES CC1=CCC[C@@H](C)C(=O)C[C@@H](C(C)C)C(=O)C1
REMARK SMILES IDX 8 1 9 2 6 3 7 4 5 5 4 6 3 7 2 8 1 9 10 11 11 12 15 13 16 14
REMARK SMILES IDX 17 15 12 17 13 18 14 19
REMARK H PARENT
REMARK Flexibility Score: 70.00
ROOT
ATOM      1  C   UNL     1      -8.599  33.519  25.026  1.00  0.00     0.136 C 
ATOM      2  O   UNL     1      -8.995  34.671  24.927  1.00  0.00    -0.299 OA
ENDROOT
BRANCH   1   3
ATOM      3  C   UNL     1      -8.892  32.722  26.279  1.00  0.00     0.053 C 
ATOM      4  C   UNL     1      -7.637  32.672  27.156  1.00  0.00     0.016 C 
BRANCH   3   5
ATOM      5  C   UNL     1      -9.391  31.291  25.974  1.00  0.00     0.015 C 
BRANCH   5   6
ATOM      6  C   UNL     1      -8.251  30.274  25.772  1.00  0.00     0.028 C 
BRANCH   6   7
ATOM      7  C   UNL     1      -8.643  29.189  24.794  1.00  0.00    -0.028 C 
ATOM      8  C   UNL     1      -8.442  29.205  23.456  1.00  0.00    -0.070 CG0
ATOM      9  C   UNL     1      -8.932  28.025  22.654  1.00  0.00     0.039 C 
ATOM     10  G   UNL     1      -7.700  30.308  22.733  1.00  0.00     0.000 G0
ENDBRANCH   6   7
ENDBRANCH   5   6
ENDBRANCH   3   5
ENDBRANCH   1   3
BRANCH   1  11
ATOM     11  C   UNL     1      -7.851  32.888  23.877  1.00  0.00     0.087 C 
BRANCH  11  12
ATOM     12  C   UNL     1      -8.728  32.736  22.610  1.00  0.00     0.066 C 
BRANCH  12  13
ATOM     13  C   UNL     1      -8.669  31.301  22.118  1.00  0.00     0.140 C 
ATOM     14  O   UNL     1      -9.430  30.935  21.233  1.00  0.00    -0.299 OA
BRANCH  13  15
ATOM     15  C   UNL     1      -7.706  30.308  22.710  1.00  0.00     0.106 CG0
ATOM     16  G   UNL     1      -8.459  29.213  23.434  1.00  0.00     0.000 G0
ENDBRANCH  13  15
ENDBRANCH  12  13
BRANCH  12  17
ATOM     17  C   UNL     1      -8.300  33.714  21.471  1.00  0.00    -0.006 C 
ATOM     18  C   UNL     1      -7.491  34.899  22.030  1.00  0.00     0.008 C 
ATOM     19  C   UNL     1      -7.466  33.014  20.382  1.00  0.00     0.008 C 
ENDBRANCH  12  17
ENDBRANCH  11  12
ENDBRANCH   1  11
TORSDOF 1
ENDMDL
MODEL 5
REMARK VINA RESULT:    -4.817      1.981      3.920
REMARK INTER + INTRA:          -7.436
REMARK INTER:                  -8.338
REMARK INTRA:                   0.902
REMARK UNBOUND:                -0.085
REMARK SMILES CC1=CCC[C@@H](C)C(=O)C[C@@H](C(C)C)C(=O)C1
REMARK SMILES IDX 8 1 9 2 6 3 7 4 5 5 4 6 3 7 2 8 1 9 10 11 11 12 15 13 16 14
REMARK SMILES IDX 17 15 12 17 13 18 14 19
REMARK H PARENT
REMARK Flexibility Score: 70.00
ROOT
ATOM      1  C   UNL     1      -8.996  32.663  21.877  1.00  0.00     0.136 C 
ATOM      2  O   UNL     1     -10.111  32.824  22.354  1.00  0.00    -0.299 OA
ENDROOT
BRANCH   1   3
ATOM      3  C   UNL     1      -8.355  33.765  21.063  1.00  0.00     0.053 C 
ATOM      4  C   UNL     1      -7.160  33.196  20.289  1.00  0.00     0.016 C 
BRANCH   3   5
ATOM      5  C   UNL     1      -7.910  34.966  21.928  1.00  0.00     0.015 C 
BRANCH   5   6
ATOM      6  C   UNL     1      -6.963  34.576  23.079  1.00  0.00     0.028 C 
BRANCH   6   7
ATOM      7  C   UNL     1      -7.663  34.638  24.418  1.00  0.00    -0.028 C 
ATOM      8  C   UNL     1      -7.968  33.587  25.213  1.00  0.00    -0.070 CG0
ATOM      9  C   UNL     1      -8.693  33.866  26.507  1.00  0.00     0.039 C 
ATOM     10  G   UNL     1      -7.568  32.159  24.906  1.00  0.00     0.000 G0
ENDBRANCH   6   7
ENDBRANCH   5   6
ENDBRANCH   3   5
ENDBRANCH   1   3
BRANCH   1  11
ATOM     11  C   UNL     1      -8.254  31.375  22.140  1.00  0.00     0.087 C 
BRANCH  11  12
ATOM     12  C   UNL     1      -8.891  30.544  23.280  1.00  0.00     0.066 C 
BRANCH  12  13
ATOM     13  C   UNL     1      -8.775  31.304  24.590  1.00  0.00     0.140 C 
ATOM     14  O   UNL     1      -9.689  31.250  25.401  1.00  0.00    -0.299 OA
BRANCH  13  15
ATOM     15  C   UNL     1      -7.565  32.140  24.906  1.00  0.00     0.106 CG0
ATOM     16  G   UNL     1      -7.977  33.565  25.211  1.00  0.00     0.000 G0
ENDBRANCH  13  15
ENDBRANCH  12  13
BRANCH  12  17
ATOM     17  C   UNL     1      -8.245  29.130  23.418  1.00  0.00    -0.006 C 
ATOM     18  C   UNL     1      -8.690  28.201  22.273  1.00  0.00     0.008 C 
ATOM     19  C   UNL     1      -6.706  29.191  23.438  1.00  0.00     0.008 C 
ENDBRANCH  12  17
ENDBRANCH  11  12
ENDBRANCH   1  11
TORSDOF 1
ENDMDL
MODEL 6
REMARK VINA RESULT:    -4.793      2.240      4.203
REMARK INTER + INTRA:          -7.400
REMARK INTER:                  -7.477
REMARK INTRA:                   0.077
REMARK UNBOUND:                -0.085
REMARK SMILES CC1=CCC[C@@H](C)C(=O)C[C@@H](C(C)C)C(=O)C1
REMARK SMILES IDX 8 1 9 2 6 3 7 4 5 5 4 6 3 7 2 8 1 9 10 11 11 12 15 13 16 14
REMARK SMILES IDX 17 15 12 17 13 18 14 19
REMARK H PARENT
REMARK Flexibility Score: 70.00
ROOT
ATOM      1  C   UNL     1      -8.521  33.257  22.976  1.00  0.00     0.136 C 
ATOM      2  O   UNL     1      -9.335  33.081  22.081  1.00  0.00    -0.299 OA
ENDROOT
BRANCH   1   3
ATOM      3  C   UNL     1      -8.328  34.637  23.564  1.00  0.00     0.053 C 
ATOM      4  C   UNL     1      -6.833  34.973  23.595  1.00  0.00     0.016 C 
BRANCH   3   5
ATOM      5  C   UNL     1      -8.938  34.775  24.978  1.00  0.00     0.015 C 
BRANCH   5   6
ATOM      6  C   UNL     1      -7.908  34.602  26.110  1.00  0.00     0.028 C 
BRANCH   6   7
ATOM      7  C   UNL     1      -8.446  33.724  27.219  1.00  0.00    -0.028 C 
ATOM      8  C   UNL     1      -8.353  32.376  27.291  1.00  0.00    -0.070 CG0
ATOM      9  C   UNL     1      -8.980  31.687  28.477  1.00  0.00     0.039 C 
ATOM     10  G   UNL     1      -7.604  31.532  26.282  1.00  0.00     0.000 G0
ENDBRANCH   6   7
ENDBRANCH   5   6
ENDBRANCH   3   5
ENDBRANCH   1   3
BRANCH   1  11
ATOM     11  C   UNL     1      -7.742  32.081  23.513  1.00  0.00     0.087 C 
BRANCH  11  12
ATOM     12  C   UNL     1      -8.659  30.917  23.963  1.00  0.00     0.066 C 
BRANCH  12  13
ATOM     13  C   UNL     1      -8.502  30.694  25.457  1.00  0.00     0.140 C 
ATOM     14  O   UNL     1      -9.154  29.818  26.007  1.00  0.00    -0.299 OA
BRANCH  13  15
ATOM     15  C   UNL     1      -7.574  31.542  26.283  1.00  0.00     0.106 CG0
ATOM     16  G   UNL     1      -8.362  32.372  27.274  1.00  0.00     0.000 G0
ENDBRANCH  13  15
ENDBRANCH  12  13
BRANCH  12  17
ATOM     17  C   UNL     1      -8.364  29.594  23.187  1.00  0.00    -0.006 C 
ATOM     18  C   UNL     1      -9.011  29.614  21.789  1.00  0.00     0.008 C 
ATOM     19  C   UNL     1      -6.854  29.332  23.031  1.00  0.00     0.008 C 
ENDBRANCH  12  17
ENDBRANCH  11  12
ENDBRANCH   1  11
TORSDOF 1
ENDMDL
MODEL 7
REMARK VINA RESULT:    -4.680      2.147      4.303
REMARK INTER + INTRA:          -7.228
REMARK INTER:                  -7.169
REMARK INTRA:                  -0.059
REMARK UNBOUND:                -0.085
REMARK SMILES CC1=CCC[C@@H](C)C(=O)C[C@@H](C(C)C)C(=O)C1
REMARK SMILES IDX 8 1 9 2 6 3 7 4 5 5 4 6 3 7 2 8 1 9 10 11 11 12 15 13 16 14
REMARK SMILES IDX 17 15 12 17 13 18 14 19
REMARK H PARENT
REMARK Flexibility Score: 70.00
ROOT
ATOM      1  C   UNL     1      -7.578  33.784  24.498  1.00  0.00     0.136 C 
ATOM      2  O   UNL     1      -6.701  34.587  24.211  1.00  0.00    -0.299 OA
ENDROOT
BRANCH   1   3
ATOM      3  C   UNL     1      -8.778  34.230  25.306  1.00  0.00     0.053 C 
ATOM      4  C   UNL     1      -9.070  35.705  25.012  1.00  0.00     0.016 C 
BRANCH   3   5
ATOM      5  C   UNL     1      -8.590  34.013  26.824  1.00  0.00     0.015 C 
BRANCH   5   6
ATOM      6  C   UNL     1      -7.586  32.894  27.164  1.00  0.00     0.028 C 
BRANCH   6   7
ATOM      7  C   UNL     1      -8.284  31.678  27.733  1.00  0.00    -0.028 C 
ATOM      8  C   UNL     1      -8.470  30.493  27.105  1.00  0.00    -0.070 CG0
ATOM      9  C   UNL     1      -9.215  29.411  27.846  1.00  0.00     0.039 C 
ATOM     10  G   UNL     1      -7.918  30.177  25.732  1.00  0.00     0.000 G0
ENDBRANCH   6   7
ENDBRANCH   5   6
ENDBRANCH   3   5
ENDBRANCH   1   3
BRANCH   1  11
ATOM     11  C   UNL     1      -7.473  32.360  24.007  1.00  0.00     0.087 C 
BRANCH  11  12
ATOM     12  C   UNL     1      -8.858  31.699  23.805  1.00  0.00     0.066 C 
BRANCH  12  13
ATOM     13  C   UNL     1      -8.963  30.462  24.680  1.00  0.00     0.140 C 
ATOM     14  O   UNL     1      -9.910  29.701  24.536  1.00  0.00    -0.299 OA
BRANCH  13  15
ATOM     15  C   UNL     1      -7.935  30.158  25.735  1.00  0.00     0.106 CG0
ATOM     16  G   UNL     1      -8.481  30.484  27.109  1.00  0.00     0.000 G0
ENDBRANCH  13  15
ENDBRANCH  12  13
BRANCH  12  17
ATOM     17  C   UNL     1      -9.127  31.328  22.313  1.00  0.00    -0.006 C 
ATOM     18  C   UNL     1     -10.085  32.339  21.653  1.00  0.00     0.008 C 
ATOM     19  C   UNL     1      -7.831  31.261  21.484  1.00  0.00     0.008 C 
ENDBRANCH  12  17
ENDBRANCH  11  12
ENDBRANCH   1  11
TORSDOF 1
ENDMDL
MODEL 8
REMARK VINA RESULT:    -4.679      1.906      5.333
REMARK INTER + INTRA:          -7.226
REMARK INTER:                  -7.410
REMARK INTRA:                   0.183
REMARK UNBOUND:                -0.085
REMARK SMILES CC1=CCC[C@@H](C)C(=O)C[C@@H](C(C)C)C(=O)C1
REMARK SMILES IDX 8 1 9 2 6 3 7 4 5 5 4 6 3 7 2 8 1 9 10 11 11 12 15 13 16 14
REMARK SMILES IDX 17 15 12 17 13 18 14 19
REMARK H PARENT
REMARK Flexibility Score: 70.00
ROOT
ATOM      1  C   UNL     1      -8.829  31.145  22.673  1.00  0.00     0.136 C 
ATOM      2  O   UNL     1      -8.952  30.880  21.486  1.00  0.00    -0.299 OA
ENDROOT
BRANCH   1   3
ATOM      3  C   UNL     1      -8.126  30.175  23.597  1.00  0.00     0.053 C 
ATOM      4  C   UNL     1      -6.901  29.590  22.885  1.00  0.00     0.016 C 
BRANCH   3   5
ATOM      5  C   UNL     1      -9.052  29.040  24.089  1.00  0.00     0.015 C 
BRANCH   5   6
ATOM      6  C   UNL     1      -9.673  29.311  25.473  1.00  0.00     0.028 C 
BRANCH   6   7
ATOM      7  C   UNL     1      -8.678  29.962  26.408  1.00  0.00    -0.028 C 
ATOM      8  C   UNL     1      -8.597  31.280  26.702  1.00  0.00    -0.070 CG0
ATOM      9  C   UNL     1      -7.510  31.728  27.647  1.00  0.00     0.039 C 
ATOM     10  G   UNL     1      -9.571  32.316  26.183  1.00  0.00     0.000 G0
ENDBRANCH   6   7
ENDBRANCH   5   6
ENDBRANCH   3   5
ENDBRANCH   1   3
BRANCH   1  11
ATOM     11  C   UNL     1      -9.348  32.461  23.198  1.00  0.00     0.087 C 
BRANCH  11  12
ATOM     12  C   UNL     1      -8.296  33.218  24.047  1.00  0.00     0.066 C 
BRANCH  12  13
ATOM     13  C   UNL     1      -8.832  33.428  25.452  1.00  0.00     0.140 C 
ATOM     14  O   UNL     1      -8.653  34.501  26.011  1.00  0.00    -0.299 OA
BRANCH  13  15
ATOM     15  C   UNL     1      -9.566  32.337  26.183  1.00  0.00     0.106 CG0
ATOM     16  G   UNL     1      -8.590  31.301  26.698  1.00  0.00     0.000 G0
ENDBRANCH  13  15
ENDBRANCH  12  13
BRANCH  12  17
ATOM     17  C   UNL     1      -7.895  34.587  23.412  1.00  0.00    -0.006 C 
ATOM     18  C   UNL     1      -6.518  35.053  23.923  1.00  0.00     0.008 C 
ATOM     19  C   UNL     1      -7.859  34.530  21.874  1.00  0.00     0.008 C 
ENDBRANCH  12  17
ENDBRANCH  11  12
ENDBRANCH   1  11
TORSDOF 1
ENDMDL
MODEL 9
REMARK VINA RESULT:    -3.419      2.053      3.465
REMARK INTER + INTRA:          -5.304
REMARK INTER:                  -6.583
REMARK INTRA:                   1.279
REMARK UNBOUND:                -0.085
REMARK SMILES CC1=CCC[C@@H](C)C(=O)C[C@@H](C(C)C)C(=O)C1
REMARK SMILES IDX 8 1 9 2 6 3 7 4 5 5 4 6 3 7 2 8 1 9 10 11 11 12 15 13 16 14
REMARK SMILES IDX 17 15 12 17 13 18 14 19
REMARK H PARENT
REMARK Flexibility Score: 70.00
ROOT
ATOM      1  C   UNL     1      -7.684  33.354  23.621  1.00  0.00     0.136 C 
ATOM      2  O   UNL     1      -7.213  34.370  24.113  1.00  0.00    -0.299 OA
ENDROOT
BRANCH   1   3
ATOM      3  C   UNL     1      -8.736  33.455  22.539  1.00  0.00     0.053 C 
ATOM      4  C   UNL     1     -10.124  33.251  23.157  1.00  0.00     0.016 C 
BRANCH   3   5
ATOM      5  C   UNL     1      -8.509  32.447  21.389  1.00  0.00     0.015 C 
BRANCH   5   6
ATOM      6  C   UNL     1      -9.515  31.280  21.388  1.00  0.00     0.028 C 
BRANCH   6   7
ATOM      7  C   UNL     1      -8.839  29.966  21.709  1.00  0.00    -0.028 C 
ATOM      8  C   UNL     1      -8.765  29.378  22.926  1.00  0.00    -0.070 CG0
ATOM      9  C   UNL     1      -8.021  28.071  23.035  1.00  0.00     0.039 C 
ATOM     10  G   UNL     1      -9.439  29.928  24.165  1.00  0.00     0.000 G0
ENDBRANCH   6   7
ENDBRANCH   5   6
ENDBRANCH   3   5
ENDBRANCH   1   3
BRANCH   1  11
ATOM     11  C   UNL     1      -7.180  32.005  24.075  1.00  0.00     0.087 C 
BRANCH  11  12
ATOM     12  C   UNL     1      -7.794  31.566  25.426  1.00  0.00     0.066 C 
BRANCH  12  13
ATOM     13  C   UNL     1      -8.455  30.208  25.267  1.00  0.00     0.140 C 
ATOM     14  O   UNL     1      -8.161  29.301  26.032  1.00  0.00    -0.299 OA
BRANCH  13  15
ATOM     15  C   UNL     1      -9.455  29.946  24.174  1.00  0.00     0.106 CG0
ATOM     16  G   UNL     1      -8.764  29.371  22.956  1.00  0.00     0.000 G0
ENDBRANCH  13  15
ENDBRANCH  12  13
BRANCH  12  17
ATOM     17  C   UNL     1      -8.821  32.604  25.978  1.00  0.00    -0.006 C 
ATOM     18  C   UNL     1      -9.989  31.903  26.697  1.00  0.00     0.008 C 
ATOM     19  C   UNL     1      -8.172  33.608  26.949  1.00  0.00     0.008 C 
ENDBRANCH  12  17
ENDBRANCH  11  12
ENDBRANCH   1  11
TORSDOF 1
ENDMDL
