MODEL 1
REMARK VINA RESULT:    -5.529      0.000      0.000
REMARK INTER + INTRA:          -9.285
REMARK INTER:                  -7.791
REMARK INTRA:                  -1.494
REMARK UNBOUND:                -1.494
REMARK SMILES OC[C@@H]1O[C@@H](O[C@@H]2OC=C[C@@H]3[C@H](O)[C@@H]4O[C@]4(CO)[C@@H]23)[C@@H](O)[C@@H](O)[C@@H]1O
REMARK SMILES IDX 6 1 7 2 10 3 9 4 11 5 8 6 19 7 12 8 16 9 14 10 15 11 13 12
REMARK SMILES IDX 17 14 18 15 5 17 20 18 4 19 22 20 3 21 24 22 21 23 23 25
REMARK SMILES IDX 2 27 1 28 25 30
REMARK H PARENT 13 13 18 16 21 24 23 26 1 29 25 31
REMARK Flexibility Score: inf
ROOT
ATOM      1  O   UNL     1      19.663  18.375   8.103  1.00  0.00    -0.310 OA
ENDROOT
BRANCH   1   2
ATOM      2  C   UNL     1      18.677  19.067   7.361  1.00  0.00     0.315 C 
ATOM      3  C   UNL     1      15.995  18.779   6.251  1.00  0.00     0.018 C 
ATOM      4  C   UNL     1      16.159  18.941   7.571  1.00  0.00     0.186 C 
ATOM      5  C   UNL     1      17.200  18.960   5.387  1.00  0.00     0.059 C 
ATOM      6  O   UNL     1      17.448  19.120   8.125  1.00  0.00    -0.472 OA
ATOM      7  C   UNL     1      18.402  18.314   6.049  1.00  0.00     0.105 C 
ATOM      8  C   UNL     1      17.199  18.413   3.961  1.00  0.00     0.154 C 
ATOM      9  C   UNL     1      19.435  18.295   4.921  1.00  0.00     0.130 C 
ATOM     10  C   UNL     1      18.699  18.303   3.624  1.00  0.00     0.183 C 
ATOM     11  O   UNL     1      19.363  17.150   4.102  1.00  0.00    -0.360 OA
BRANCH   8  12
ATOM     12  O   UNL     1      16.532  17.180   3.833  1.00  0.00    -0.390 OA
ATOM     13  H   UNL     1      15.745  17.181   4.438  1.00  0.00     0.211 HD
ENDBRANCH   8  12
BRANCH   9  14
ATOM     14  C   UNL     1      20.788  19.014   4.945  1.00  0.00     0.195 C 
BRANCH  14  15
ATOM     15  O   UNL     1      21.819  18.102   5.190  1.00  0.00    -0.393 OA
ATOM     16  H   UNL     1      22.440  18.161   4.417  1.00  0.00     0.210 HD
ENDBRANCH  14  15
ENDBRANCH   9  14
ENDBRANCH   1   2
BRANCH   1  17
ATOM     17  C   UNL     1      20.672  19.256   8.588  1.00  0.00     0.286 C 
ATOM     18  C   UNL     1      20.617  19.361  10.132  1.00  0.00     0.202 C 
ATOM     19  O   UNL     1      21.954  18.828   8.150  1.00  0.00    -0.341 OA
ATOM     20  C   UNL     1      21.061  18.048  10.801  1.00  0.00     0.179 C 
ATOM     21  C   UNL     1      22.290  17.548   8.665  1.00  0.00     0.178 C 
ATOM     22  C   UNL     1      22.401  17.587  10.206  1.00  0.00     0.177 C 
BRANCH  18  23
ATOM     23  O   UNL     1      19.324  19.702  10.560  1.00  0.00    -0.385 OA
ATOM     24  H   UNL     1      18.720  19.572   9.783  1.00  0.00     0.211 HD
ENDBRANCH  18  23
BRANCH  20  25
ATOM     25  O   UNL     1      20.096  17.042  10.613  1.00  0.00    -0.387 OA
ATOM     26  H   UNL     1      20.569  16.172  10.663  1.00  0.00     0.211 HD
ENDBRANCH  20  25
BRANCH  21  27
ATOM     27  C   UNL     1      23.605  17.090   8.014  1.00  0.00     0.191 C 
BRANCH  27  28
ATOM     28  O   UNL     1      24.003  17.978   7.005  1.00  0.00    -0.394 OA
ATOM     29  H   UNL     1      23.170  18.337   6.597  1.00  0.00     0.210 HD
ENDBRANCH  27  28
ENDBRANCH  21  27
BRANCH  22  30
ATOM     30  O   UNL     1      23.428  18.468  10.590  1.00  0.00    -0.387 OA
ATOM     31  H   UNL     1      24.216  18.252  10.027  1.00  0.00     0.211 HD
ENDBRANCH  22  30
ENDBRANCH   1  17
TORSDOF 10
ENDMDL
MODEL 2
REMARK VINA RESULT:    -5.479      2.450      4.000
REMARK INTER + INTRA:          -9.215
REMARK INTER:                  -8.424
REMARK INTRA:                  -0.792
REMARK UNBOUND:                -1.494
REMARK SMILES OC[C@@H]1O[C@@H](O[C@@H]2OC=C[C@@H]3[C@H](O)[C@@H]4O[C@]4(CO)[C@@H]23)[C@@H](O)[C@@H](O)[C@@H]1O
REMARK SMILES IDX 6 1 7 2 10 3 9 4 11 5 8 6 19 7 12 8 16 9 14 10 15 11 13 12
REMARK SMILES IDX 17 14 18 15 5 17 20 18 4 19 22 20 3 21 24 22 21 23 23 25
REMARK SMILES IDX 2 27 1 28 25 30
REMARK H PARENT 13 13 18 16 21 24 23 26 1 29 25 31
REMARK Flexibility Score: inf
ROOT
ATOM      1  O   UNL     1      20.337  15.995  10.019  1.00  0.00    -0.310 OA
ENDROOT
BRANCH   1   2
ATOM      2  C   UNL     1      18.967  16.341   9.949  1.00  0.00     0.315 C 
ATOM      3  C   UNL     1      16.571  15.976   8.327  1.00  0.00     0.018 C 
ATOM      4  C   UNL     1      17.029  14.967   9.080  1.00  0.00     0.186 C 
ATOM      5  C   UNL     1      17.208  17.314   8.518  1.00  0.00     0.059 C 
ATOM      6  O   UNL     1      18.167  15.135   9.903  1.00  0.00    -0.472 OA
ATOM      7  C   UNL     1      18.708  17.147   8.665  1.00  0.00     0.105 C 
ATOM      8  C   UNL     1      17.039  18.394   7.451  1.00  0.00     0.154 C 
ATOM      9  C   UNL     1      19.220  18.580   8.519  1.00  0.00     0.130 C 
ATOM     10  C   UNL     1      18.219  19.347   7.723  1.00  0.00     0.183 C 
ATOM     11  O   UNL     1      19.468  18.963   7.185  1.00  0.00    -0.360 OA
BRANCH   8  12
ATOM     12  O   UNL     1      17.051  17.891   6.136  1.00  0.00    -0.390 OA
ATOM     13  H   UNL     1      16.148  18.010   5.743  1.00  0.00     0.211 HD
ENDBRANCH   8  12
BRANCH   9  14
ATOM     14  C   UNL     1      19.987  19.362   9.591  1.00  0.00     0.195 C 
BRANCH  14  15
ATOM     15  O   UNL     1      19.125  19.746  10.623  1.00  0.00    -0.393 OA
ATOM     16  H   UNL     1      19.040  20.734  10.569  1.00  0.00     0.210 HD
ENDBRANCH  14  15
ENDBRANCH   9  14
ENDBRANCH   1   2
BRANCH   1  17
ATOM     17  C   UNL     1      20.781  15.869  11.367  1.00  0.00     0.286 C 
ATOM     18  C   UNL     1      21.484  14.507  11.591  1.00  0.00     0.202 C 
ATOM     19  O   UNL     1      21.638  16.949  11.708  1.00  0.00    -0.341 OA
ATOM     20  C   UNL     1      22.834  14.443  10.856  1.00  0.00     0.179 C 
ATOM     21  C   UNL     1      22.820  16.958  10.921  1.00  0.00     0.178 C 
ATOM     22  C   UNL     1      23.667  15.692  11.186  1.00  0.00     0.177 C 
BRANCH  18  23
ATOM     23  O   UNL     1      20.661  13.449  11.172  1.00  0.00    -0.385 OA
ATOM     24  H   UNL     1      21.243  12.807  10.688  1.00  0.00     0.211 HD
ENDBRANCH  18  23
BRANCH  20  25
ATOM     25  O   UNL     1      22.640  14.366   9.465  1.00  0.00    -0.387 OA
ATOM     26  H   UNL     1      21.668  14.476   9.300  1.00  0.00     0.211 HD
ENDBRANCH  20  25
BRANCH  21  27
ATOM     27  C   UNL     1      23.605  18.241  11.233  1.00  0.00     0.191 C 
BRANCH  27  28
ATOM     28  O   UNL     1      24.348  18.660  10.119  1.00  0.00    -0.394 OA
ATOM     29  H   UNL     1      25.045  19.281  10.459  1.00  0.00     0.210 HD
ENDBRANCH  27  28
ENDBRANCH  21  27
BRANCH  22  30
ATOM     30  O   UNL     1      24.070  15.661  12.533  1.00  0.00    -0.387 OA
ATOM     31  H   UNL     1      24.166  16.605  12.826  1.00  0.00     0.211 HD
ENDBRANCH  22  30
ENDBRANCH   1  17
TORSDOF 10
ENDMDL
MODEL 3
REMARK VINA RESULT:    -5.365      3.445      5.777
REMARK INTER + INTRA:          -9.055
REMARK INTER:                  -7.401
REMARK INTRA:                  -1.653
REMARK UNBOUND:                -1.494
REMARK SMILES OC[C@@H]1O[C@@H](O[C@@H]2OC=C[C@@H]3[C@H](O)[C@@H]4O[C@]4(CO)[C@@H]23)[C@@H](O)[C@@H](O)[C@@H]1O
REMARK SMILES IDX 6 1 7 2 10 3 9 4 11 5 8 6 19 7 12 8 16 9 14 10 15 11 13 12
REMARK SMILES IDX 17 14 18 15 5 17 20 18 4 19 22 20 3 21 24 22 21 23 23 25
REMARK SMILES IDX 2 27 1 28 25 30
REMARK H PARENT 13 13 18 16 21 24 23 26 1 29 25 31
REMARK Flexibility Score: inf
ROOT
ATOM      1  O   UNL     1      21.795  15.771   7.937  1.00  0.00    -0.310 OA
ENDROOT
BRANCH   1   2
ATOM      2  C   UNL     1      22.115  14.772   6.988  1.00  0.00     0.315 C 
ATOM      3  C   UNL     1      24.181  12.842   6.271  1.00  0.00     0.018 C 
ATOM      4  C   UNL     1      23.390  12.614   7.328  1.00  0.00     0.186 C 
ATOM      5  C   UNL     1      23.822  13.992   5.386  1.00  0.00     0.059 C 
ATOM      6  O   UNL     1      22.358  13.518   7.670  1.00  0.00    -0.472 OA
ATOM      7  C   UNL     1      23.395  15.173   6.236  1.00  0.00     0.105 C 
ATOM      8  C   UNL     1      24.862  14.560   4.422  1.00  0.00     0.154 C 
ATOM      9  C   UNL     1      23.388  16.323   5.228  1.00  0.00     0.130 C 
ATOM     10  C   UNL     1      24.333  15.977   4.128  1.00  0.00     0.183 C 
ATOM     11  O   UNL     1      24.634  16.968   5.091  1.00  0.00    -0.360 OA
BRANCH   8  12
ATOM     12  O   UNL     1      26.168  14.576   4.950  1.00  0.00    -0.390 OA
ATOM     13  H   UNL     1      26.343  15.474   5.332  1.00  0.00     0.211 HD
ENDBRANCH   8  12
BRANCH   9  14
ATOM     14  C   UNL     1      22.160  17.155   4.840  1.00  0.00     0.195 C 
BRANCH  14  15
ATOM     15  O   UNL     1      21.777  17.980   5.902  1.00  0.00    -0.393 OA
ATOM     16  H   UNL     1      22.402  18.751   5.903  1.00  0.00     0.210 HD
ENDBRANCH  14  15
ENDBRANCH   9  14
ENDBRANCH   1   2
BRANCH   1  17
ATOM     17  C   UNL     1      22.754  15.824   8.990  1.00  0.00     0.286 C 
ATOM     18  C   UNL     1      23.221  17.279   9.238  1.00  0.00     0.202 C 
ATOM     19  O   UNL     1      22.220  15.250  10.174  1.00  0.00    -0.341 OA
ATOM     20  C   UNL     1      22.099  18.134   9.853  1.00  0.00     0.179 C 
ATOM     21  C   UNL     1      21.094  15.971  10.652  1.00  0.00     0.178 C 
ATOM     22  C   UNL     1      21.495  17.406  11.064  1.00  0.00     0.177 C 
BRANCH  18  23
ATOM     23  O   UNL     1      23.670  17.867   8.044  1.00  0.00    -0.385 OA
ATOM     24  H   UNL     1      24.282  18.606   8.300  1.00  0.00     0.211 HD
ENDBRANCH  18  23
BRANCH  20  25
ATOM     25  O   UNL     1      21.089  18.384   8.906  1.00  0.00    -0.387 OA
ATOM     26  H   UNL     1      20.223  18.357   9.391  1.00  0.00     0.211 HD
ENDBRANCH  20  25
BRANCH  21  27
ATOM     27  C   UNL     1      20.479  15.195  11.827  1.00  0.00     0.191 C 
BRANCH  27  28
ATOM     28  O   UNL     1      21.475  14.578  12.598  1.00  0.00    -0.394 OA
ATOM     29  H   UNL     1      22.306  15.106  12.465  1.00  0.00     0.210 HD
ENDBRANCH  27  28
ENDBRANCH  21  27
BRANCH  22  30
ATOM     30  O   UNL     1      22.429  17.358  12.114  1.00  0.00    -0.387 OA
ATOM     31  H   UNL     1      22.085  17.952  12.831  1.00  0.00     0.211 HD
ENDBRANCH  22  30
ENDBRANCH   1  17
TORSDOF 10
ENDMDL
MODEL 4
REMARK VINA RESULT:    -5.327      4.095      6.913
REMARK INTER + INTRA:          -9.001
REMARK INTER:                  -7.699
REMARK INTRA:                  -1.302
REMARK UNBOUND:                -1.494
REMARK SMILES OC[C@@H]1O[C@@H](O[C@@H]2OC=C[C@@H]3[C@H](O)[C@@H]4O[C@]4(CO)[C@@H]23)[C@@H](O)[C@@H](O)[C@@H]1O
REMARK SMILES IDX 6 1 7 2 10 3 9 4 11 5 8 6 19 7 12 8 16 9 14 10 15 11 13 12
REMARK SMILES IDX 17 14 18 15 5 17 20 18 4 19 22 20 3 21 24 22 21 23 23 25
REMARK SMILES IDX 2 27 1 28 25 30
REMARK H PARENT 13 13 18 16 21 24 23 26 1 29 25 31
REMARK Flexibility Score: inf
ROOT
ATOM      1  O   UNL     1      23.029  15.241   9.788  1.00  0.00    -0.310 OA
ENDROOT
BRANCH   1   2
ATOM      2  C   UNL     1      22.789  13.852   9.668  1.00  0.00     0.315 C 
ATOM      3  C   UNL     1      20.678  11.907   9.149  1.00  0.00     0.018 C 
ATOM      4  C   UNL     1      21.164  12.650   8.147  1.00  0.00     0.186 C 
ATOM      5  C   UNL     1      21.395  11.976  10.459  1.00  0.00     0.059 C 
ATOM      6  O   UNL     1      22.214  13.572   8.369  1.00  0.00    -0.472 OA
ATOM      7  C   UNL     1      21.789  13.411  10.749  1.00  0.00     0.105 C 
ATOM      8  C   UNL     1      20.698  11.497  11.731  1.00  0.00     0.154 C 
ATOM      9  C   UNL     1      22.195  13.354  12.222  1.00  0.00     0.130 C 
ATOM     10  C   UNL     1      21.484  12.205  12.852  1.00  0.00     0.183 C 
ATOM     11  O   UNL     1      21.122  13.545  13.117  1.00  0.00    -0.360 OA
BRANCH   8  12
ATOM     12  O   UNL     1      19.324  11.802  11.767  1.00  0.00    -0.390 OA
ATOM     13  H   UNL     1      19.018  11.773  12.711  1.00  0.00     0.211 HD
ENDBRANCH   8  12
BRANCH   9  14
ATOM     14  C   UNL     1      23.588  13.682  12.771  1.00  0.00     0.195 C 
BRANCH  14  15
ATOM     15  O   UNL     1      23.849  15.050  12.649  1.00  0.00    -0.393 OA
ATOM     16  H   UNL     1      24.451  15.156  11.866  1.00  0.00     0.210 HD
ENDBRANCH  14  15
ENDBRANCH   9  14
ENDBRANCH   1   2
BRANCH   1  17
ATOM     17  C   UNL     1      21.892  16.008   9.401  1.00  0.00     0.286 C 
ATOM     18  C   UNL     1      21.667  17.192  10.373  1.00  0.00     0.202 C 
ATOM     19  O   UNL     1      22.036  16.464   8.064  1.00  0.00    -0.341 OA
ATOM     20  C   UNL     1      22.770  18.255  10.229  1.00  0.00     0.179 C 
ATOM     21  C   UNL     1      23.148  17.337   7.918  1.00  0.00     0.178 C 
ATOM     22  C   UNL     1      22.947  18.625   8.748  1.00  0.00     0.177 C 
BRANCH  18  23
ATOM     23  O   UNL     1      21.610  16.740  11.701  1.00  0.00    -0.385 OA
ATOM     24  H   UNL     1      20.665  16.489  11.879  1.00  0.00     0.211 HD
ENDBRANCH  18  23
BRANCH  20  25
ATOM     25  O   UNL     1      23.991  17.777  10.739  1.00  0.00    -0.387 OA
ATOM     26  H   UNL     1      24.555  17.530   9.961  1.00  0.00     0.211 HD
ENDBRANCH  20  25
BRANCH  21  27
ATOM     27  C   UNL     1      23.332  17.647   6.424  1.00  0.00     0.191 C 
BRANCH  27  28
ATOM     28  O   UNL     1      24.683  17.875   6.121  1.00  0.00    -0.394 OA
ATOM     29  H   UNL     1      24.704  18.316   5.231  1.00  0.00     0.210 HD
ENDBRANCH  27  28
ENDBRANCH  21  27
BRANCH  22  30
ATOM     30  O   UNL     1      21.815  19.320   8.285  1.00  0.00    -0.387 OA
ATOM     31  H   UNL     1      21.834  19.272   7.294  1.00  0.00     0.211 HD
ENDBRANCH  22  30
ENDBRANCH   1  17
TORSDOF 10
ENDMDL
MODEL 5
REMARK VINA RESULT:    -5.287      2.500      3.941
REMARK INTER + INTRA:          -8.944
REMARK INTER:                  -7.373
REMARK INTRA:                  -1.571
REMARK UNBOUND:                -1.494
REMARK SMILES OC[C@@H]1O[C@@H](O[C@@H]2OC=C[C@@H]3[C@H](O)[C@@H]4O[C@]4(CO)[C@@H]23)[C@@H](O)[C@@H](O)[C@@H]1O
REMARK SMILES IDX 6 1 7 2 10 3 9 4 11 5 8 6 19 7 12 8 16 9 14 10 15 11 13 12
REMARK SMILES IDX 17 14 18 15 5 17 20 18 4 19 22 20 3 21 24 22 21 23 23 25
REMARK SMILES IDX 2 27 1 28 25 30
REMARK H PARENT 13 13 18 16 21 24 23 26 1 29 25 31
REMARK Flexibility Score: inf
ROOT
ATOM      1  O   UNL     1      22.068  17.582   8.784  1.00  0.00    -0.310 OA
ENDROOT
BRANCH   1   2
ATOM      2  C   UNL     1      22.224  18.009   7.444  1.00  0.00     0.315 C 
ATOM      3  C   UNL     1      21.361  20.059   5.557  1.00  0.00     0.018 C 
ATOM      4  C   UNL     1      22.235  20.366   6.525  1.00  0.00     0.186 C 
ATOM      5  C   UNL     1      21.026  18.615   5.373  1.00  0.00     0.059 C 
ATOM      6  O   UNL     1      22.695  19.378   7.426  1.00  0.00    -0.472 OA
ATOM      7  C   UNL     1      20.864  17.953   6.728  1.00  0.00     0.105 C 
ATOM      8  C   UNL     1      19.773  18.220   4.594  1.00  0.00     0.154 C 
ATOM      9  C   UNL     1      20.217  16.615   6.371  1.00  0.00     0.130 C 
ATOM     10  C   UNL     1      19.494  16.784   5.078  1.00  0.00     0.183 C 
ATOM     11  O   UNL     1      18.809  16.661   6.308  1.00  0.00    -0.360 OA
BRANCH   8  12
ATOM     12  O   UNL     1      18.680  19.080   4.815  1.00  0.00    -0.390 OA
ATOM     13  H   UNL     1      18.982  20.016   4.685  1.00  0.00     0.211 HD
ENDBRANCH   8  12
BRANCH   9  14
ATOM     14  C   UNL     1      20.827  15.235   6.640  1.00  0.00     0.195 C 
BRANCH  14  15
ATOM     15  O   UNL     1      20.572  14.839   7.957  1.00  0.00    -0.393 OA
ATOM     16  H   UNL     1      21.183  15.367   8.535  1.00  0.00     0.210 HD
ENDBRANCH  14  15
ENDBRANCH   9  14
ENDBRANCH   1   2
BRANCH   1  17
ATOM     17  C   UNL     1      23.227  16.903   9.258  1.00  0.00     0.286 C 
ATOM     18  C   UNL     1      23.964  17.748  10.325  1.00  0.00     0.202 C 
ATOM     19  O   UNL     1      22.875  15.626   9.771  1.00  0.00    -0.341 OA
ATOM     20  C   UNL     1      23.153  17.840  11.629  1.00  0.00     0.179 C 
ATOM     21  C   UNL     1      22.010  15.724  10.893  1.00  0.00     0.178 C 
ATOM     22  C   UNL     1      22.715  16.434  12.070  1.00  0.00     0.177 C 
BRANCH  18  23
ATOM     23  O   UNL     1      24.233  19.037   9.838  1.00  0.00    -0.385 OA
ATOM     24  H   UNL     1      25.213  19.088   9.683  1.00  0.00     0.211 HD
ENDBRANCH  18  23
BRANCH  20  25
ATOM     25  O   UNL     1      22.015  18.649  11.452  1.00  0.00    -0.387 OA
ATOM     26  H   UNL     1      21.721  18.938  12.355  1.00  0.00     0.211 HD
ENDBRANCH  20  25
BRANCH  21  27
ATOM     27  C   UNL     1      21.546  14.311  11.278  1.00  0.00     0.191 C 
BRANCH  27  28
ATOM     28  O   UNL     1      21.324  14.213  12.659  1.00  0.00    -0.394 OA
ATOM     29  H   UNL     1      20.662  14.917  12.891  1.00  0.00     0.210 HD
ENDBRANCH  27  28
ENDBRANCH  21  27
BRANCH  22  30
ATOM     30  O   UNL     1      23.833  15.686  12.479  1.00  0.00    -0.387 OA
ATOM     31  H   UNL     1      24.361  16.267  13.087  1.00  0.00     0.211 HD
ENDBRANCH  22  30
ENDBRANCH   1  17
TORSDOF 10
ENDMDL
MODEL 6
REMARK VINA RESULT:    -5.277      4.153      6.834
REMARK INTER + INTRA:          -8.930
REMARK INTER:                  -7.437
REMARK INTRA:                  -1.493
REMARK UNBOUND:                -1.494
REMARK SMILES OC[C@@H]1O[C@@H](O[C@@H]2OC=C[C@@H]3[C@H](O)[C@@H]4O[C@]4(CO)[C@@H]23)[C@@H](O)[C@@H](O)[C@@H]1O
REMARK SMILES IDX 6 1 7 2 10 3 9 4 11 5 8 6 19 7 12 8 16 9 14 10 15 11 13 12
REMARK SMILES IDX 17 14 18 15 5 17 20 18 4 19 22 20 3 21 24 22 21 23 23 25
REMARK SMILES IDX 2 27 1 28 25 30
REMARK H PARENT 13 13 18 16 21 24 23 26 1 29 25 31
REMARK Flexibility Score: inf
ROOT
ATOM      1  O   UNL     1      22.230  14.629  11.330  1.00  0.00    -0.310 OA
ENDROOT
BRANCH   1   2
ATOM      2  C   UNL     1      23.187  15.578  10.898  1.00  0.00     0.315 C 
ATOM      3  C   UNL     1      23.676  18.447  10.710  1.00  0.00     0.018 C 
ATOM      4  C   UNL     1      23.746  17.833  11.899  1.00  0.00     0.186 C 
ATOM      5  C   UNL     1      23.546  17.579   9.501  1.00  0.00     0.059 C 
ATOM      6  O   UNL     1      23.550  16.436  12.006  1.00  0.00    -0.472 OA
ATOM      7  C   UNL     1      22.578  16.448   9.787  1.00  0.00     0.105 C 
ATOM      8  C   UNL     1      23.064  18.182   8.183  1.00  0.00     0.154 C 
ATOM      9  C   UNL     1      22.312  15.875   8.394  1.00  0.00     0.130 C 
ATOM     10  C   UNL     1      22.560  16.956   7.397  1.00  0.00     0.183 C 
ATOM     11  O   UNL     1      21.255  16.509   7.709  1.00  0.00    -0.360 OA
BRANCH   8  12
ATOM     12  O   UNL     1      22.065  19.161   8.346  1.00  0.00    -0.390 OA
ATOM     13  H   UNL     1      22.422  19.886   8.920  1.00  0.00     0.211 HD
ENDBRANCH   8  12
BRANCH   9  14
ATOM     14  C   UNL     1      22.634  14.445   7.947  1.00  0.00     0.195 C 
BRANCH  14  15
ATOM     15  O   UNL     1      21.503  13.632   8.068  1.00  0.00    -0.393 OA
ATOM     16  H   UNL     1      21.641  13.071   8.876  1.00  0.00     0.210 HD
ENDBRANCH  14  15
ENDBRANCH   9  14
ENDBRANCH   1   2
BRANCH   1  17
ATOM     17  C   UNL     1      22.790  13.323  11.429  1.00  0.00     0.286 C 
ATOM     18  C   UNL     1      22.952  12.903  12.910  1.00  0.00     0.202 C 
ATOM     19  O   UNL     1      21.992  12.389  10.717  1.00  0.00    -0.341 OA
ATOM     20  C   UNL     1      21.588  12.662  13.580  1.00  0.00     0.179 C 
ATOM     21  C   UNL     1      20.685  12.282  11.263  1.00  0.00     0.178 C 
ATOM     22  C   UNL     1      20.736  11.728  12.705  1.00  0.00     0.177 C 
BRANCH  18  23
ATOM     23  O   UNL     1      23.671  13.873  13.626  1.00  0.00    -0.385 OA
ATOM     24  H   UNL     1      23.121  14.113  14.418  1.00  0.00     0.211 HD
ENDBRANCH  18  23
BRANCH  20  25
ATOM     25  O   UNL     1      20.904  13.877  13.768  1.00  0.00    -0.387 OA
ATOM     26  H   UNL     1      19.994  13.760  13.391  1.00  0.00     0.211 HD
ENDBRANCH  20  25
BRANCH  21  27
ATOM     27  C   UNL     1      19.842  11.387  10.342  1.00  0.00     0.191 C 
BRANCH  27  28
ATOM     28  O   UNL     1      19.266  12.134   9.303  1.00  0.00    -0.394 OA
ATOM     29  H   UNL     1      18.307  11.878   9.266  1.00  0.00     0.210 HD
ENDBRANCH  27  28
ENDBRANCH  21  27
BRANCH  22  30
ATOM     30  O   UNL     1      21.287  10.435  12.702  1.00  0.00    -0.387 OA
ATOM     31  H   UNL     1      20.526   9.798  12.747  1.00  0.00     0.211 HD
ENDBRANCH  22  30
ENDBRANCH   1  17
TORSDOF 10
ENDMDL
MODEL 7
REMARK VINA RESULT:    -5.248      4.311      7.318
REMARK INTER + INTRA:          -8.889
REMARK INTER:                  -7.428
REMARK INTRA:                  -1.462
REMARK UNBOUND:                -1.494
REMARK SMILES OC[C@@H]1O[C@@H](O[C@@H]2OC=C[C@@H]3[C@H](O)[C@@H]4O[C@]4(CO)[C@@H]23)[C@@H](O)[C@@H](O)[C@@H]1O
REMARK SMILES IDX 6 1 7 2 10 3 9 4 11 5 8 6 19 7 12 8 16 9 14 10 15 11 13 12
REMARK SMILES IDX 17 14 18 15 5 17 20 18 4 19 22 20 3 21 24 22 21 23 23 25
REMARK SMILES IDX 2 27 1 28 25 30
REMARK H PARENT 13 13 18 16 21 24 23 26 1 29 25 31
REMARK Flexibility Score: inf
ROOT
ATOM      1  O   UNL     1      23.249  15.717   7.094  1.00  0.00    -0.310 OA
ENDROOT
BRANCH   1   2
ATOM      2  C   UNL     1      22.696  16.337   8.240  1.00  0.00     0.315 C 
ATOM      3  C   UNL     1      23.429  17.601  10.764  1.00  0.00     0.018 C 
ATOM      4  C   UNL     1      23.625  18.250   9.609  1.00  0.00     0.186 C 
ATOM      5  C   UNL     1      22.648  16.328  10.707  1.00  0.00     0.059 C 
ATOM      6  O   UNL     1      23.242  17.671   8.377  1.00  0.00    -0.472 OA
ATOM      7  C   UNL     1      23.070  15.526   9.491  1.00  0.00     0.105 C 
ATOM      8  C   UNL     1      22.720  15.341  11.870  1.00  0.00     0.154 C 
ATOM      9  C   UNL     1      22.443  14.158   9.759  1.00  0.00     0.130 C 
ATOM     10  C   UNL     1      22.271  14.012  11.233  1.00  0.00     0.183 C 
ATOM     11  O   UNL     1      23.260  13.296  10.520  1.00  0.00    -0.360 OA
BRANCH   8  12
ATOM     12  O   UNL     1      24.000  15.250  12.450  1.00  0.00    -0.390 OA
ATOM     13  H   UNL     1      23.912  15.375  13.431  1.00  0.00     0.211 HD
ENDBRANCH   8  12
BRANCH   9  14
ATOM     14  C   UNL     1      21.394  13.474   8.875  1.00  0.00     0.195 C 
BRANCH  14  15
ATOM     15  O   UNL     1      21.998  12.919   7.744  1.00  0.00    -0.393 OA
ATOM     16  H   UNL     1      22.649  12.244   8.072  1.00  0.00     0.210 HD
ENDBRANCH  14  15
ENDBRANCH   9  14
ENDBRANCH   1   2
BRANCH   1  17
ATOM     17  C   UNL     1      22.756  16.298   5.890  1.00  0.00     0.286 C 
ATOM     18  C   UNL     1      23.920  16.821   5.013  1.00  0.00     0.202 C 
ATOM     19  O   UNL     1      21.960  15.362   5.179  1.00  0.00    -0.341 OA
ATOM     20  C   UNL     1      24.751  15.663   4.433  1.00  0.00     0.179 C 
ATOM     21  C   UNL     1      22.713  14.228   4.771  1.00  0.00     0.178 C 
ATOM     22  C   UNL     1      23.819  14.634   3.772  1.00  0.00     0.177 C 
BRANCH  18  23
ATOM     23  O   UNL     1      24.750  17.681   5.750  1.00  0.00    -0.385 OA
ATOM     24  H   UNL     1      25.684  17.489   5.471  1.00  0.00     0.211 HD
ENDBRANCH  18  23
BRANCH  20  25
ATOM     25  O   UNL     1      25.500  15.032   5.443  1.00  0.00    -0.387 OA
ATOM     26  H   UNL     1      26.457  15.128   5.198  1.00  0.00     0.211 HD
ENDBRANCH  20  25
BRANCH  21  27
ATOM     27  C   UNL     1      21.750  13.196   4.163  1.00  0.00     0.191 C 
BRANCH  27  28
ATOM     28  O   UNL     1      20.718  12.881   5.059  1.00  0.00    -0.394 OA
ATOM     29  H   UNL     1      20.539  13.703   5.587  1.00  0.00     0.210 HD
ENDBRANCH  27  28
ENDBRANCH  21  27
BRANCH  22  30
ATOM     30  O   UNL     1      23.240  15.182   2.613  1.00  0.00    -0.387 OA
ATOM     31  H   UNL     1      23.055  16.137   2.810  1.00  0.00     0.211 HD
ENDBRANCH  22  30
ENDBRANCH   1  17
TORSDOF 10
ENDMDL
MODEL 8
REMARK VINA RESULT:    -5.188      2.217      3.100
REMARK INTER + INTRA:          -8.805
REMARK INTER:                  -7.485
REMARK INTRA:                  -1.320
REMARK UNBOUND:                -1.494
REMARK SMILES OC[C@@H]1O[C@@H](O[C@@H]2OC=C[C@@H]3[C@H](O)[C@@H]4O[C@]4(CO)[C@@H]23)[C@@H](O)[C@@H](O)[C@@H]1O
REMARK SMILES IDX 6 1 7 2 10 3 9 4 11 5 8 6 19 7 12 8 16 9 14 10 15 11 13 12
REMARK SMILES IDX 17 14 18 15 5 17 20 18 4 19 22 20 3 21 24 22 21 23 23 25
REMARK SMILES IDX 2 27 1 28 25 30
REMARK H PARENT 13 13 18 16 21 24 23 26 1 29 25 31
REMARK Flexibility Score: inf
ROOT
ATOM      1  O   UNL     1      19.233  17.867   8.535  1.00  0.00    -0.310 OA
ENDROOT
BRANCH   1   2
ATOM      2  C   UNL     1      18.112  18.164   7.724  1.00  0.00     0.315 C 
ATOM      3  C   UNL     1      15.437  19.324   7.814  1.00  0.00     0.018 C 
ATOM      4  C   UNL     1      16.514  20.118   7.886  1.00  0.00     0.186 C 
ATOM      5  C   UNL     1      15.672  17.886   7.484  1.00  0.00     0.059 C 
ATOM      6  O   UNL     1      17.819  19.580   7.806  1.00  0.00    -0.472 OA
ATOM      7  C   UNL     1      16.890  17.383   8.235  1.00  0.00     0.105 C 
ATOM      8  C   UNL     1      14.583  16.854   7.773  1.00  0.00     0.154 C 
ATOM      9  C   UNL     1      16.792  15.868   8.055  1.00  0.00     0.130 C 
ATOM     10  C   UNL     1      15.360  15.524   7.821  1.00  0.00     0.183 C 
ATOM     11  O   UNL     1      16.013  15.226   9.039  1.00  0.00    -0.360 OA
BRANCH   8  12
ATOM     12  O   UNL     1      13.875  17.103   8.964  1.00  0.00    -0.390 OA
ATOM     13  H   UNL     1      13.464  16.254   9.271  1.00  0.00     0.211 HD
ENDBRANCH   8  12
BRANCH   9  14
ATOM     14  C   UNL     1      17.832  14.990   7.350  1.00  0.00     0.195 C 
BRANCH  14  15
ATOM     15  O   UNL     1      18.979  14.866   8.140  1.00  0.00    -0.393 OA
ATOM     16  H   UNL     1      18.809  15.382   8.971  1.00  0.00     0.210 HD
ENDBRANCH  14  15
ENDBRANCH   9  14
ENDBRANCH   1   2
BRANCH   1  17
ATOM     17  C   UNL     1      20.214  18.898   8.476  1.00  0.00     0.286 C 
ATOM     18  C   UNL     1      20.605  19.370   9.897  1.00  0.00     0.202 C 
ATOM     19  O   UNL     1      21.353  18.454   7.753  1.00  0.00    -0.341 OA
ATOM     20  C   UNL     1      21.396  18.288  10.652  1.00  0.00     0.179 C 
ATOM     21  C   UNL     1      21.994  17.359   8.392  1.00  0.00     0.178 C 
ATOM     22  C   UNL     1      22.549  17.777   9.773  1.00  0.00     0.177 C 
BRANCH  18  23
ATOM     23  O   UNL     1      19.464  19.727  10.633  1.00  0.00    -0.385 OA
ATOM     24  H   UNL     1      18.699  19.722   9.999  1.00  0.00     0.211 HD
ENDBRANCH  18  23
BRANCH  20  25
ATOM     25  O   UNL     1      20.561  17.210  10.998  1.00  0.00    -0.387 OA
ATOM     26  H   UNL     1      20.670  16.519  10.294  1.00  0.00     0.211 HD
ENDBRANCH  20  25
BRANCH  21  27
ATOM     27  C   UNL     1      23.105  16.836   7.469  1.00  0.00     0.191 C 
BRANCH  27  28
ATOM     28  O   UNL     1      23.922  17.885   7.021  1.00  0.00    -0.394 OA
ATOM     29  H   UNL     1      24.405  18.229   7.817  1.00  0.00     0.210 HD
ENDBRANCH  27  28
ENDBRANCH  21  27
BRANCH  22  30
ATOM     30  O   UNL     1      23.518  18.784   9.614  1.00  0.00    -0.387 OA
ATOM     31  H   UNL     1      24.388  18.326   9.480  1.00  0.00     0.211 HD
ENDBRANCH  22  30
ENDBRANCH   1  17
TORSDOF 10
ENDMDL
MODEL 9
REMARK VINA RESULT:    -5.168      1.710      3.012
REMARK INTER + INTRA:          -8.776
REMARK INTER:                  -7.642
REMARK INTRA:                  -1.135
REMARK UNBOUND:                -1.494
REMARK SMILES OC[C@@H]1O[C@@H](O[C@@H]2OC=C[C@@H]3[C@H](O)[C@@H]4O[C@]4(CO)[C@@H]23)[C@@H](O)[C@@H](O)[C@@H]1O
REMARK SMILES IDX 6 1 7 2 10 3 9 4 11 5 8 6 19 7 12 8 16 9 14 10 15 11 13 12
REMARK SMILES IDX 17 14 18 15 5 17 20 18 4 19 22 20 3 21 24 22 21 23 23 25
REMARK SMILES IDX 2 27 1 28 25 30
REMARK H PARENT 13 13 18 16 21 24 23 26 1 29 25 31
REMARK Flexibility Score: inf
ROOT
ATOM      1  O   UNL     1      21.438  18.425   8.744  1.00  0.00    -0.310 OA
ENDROOT
BRANCH   1   2
ATOM      2  C   UNL     1      20.404  19.048   8.006  1.00  0.00     0.315 C 
ATOM      3  C   UNL     1      18.099  18.467   6.315  1.00  0.00     0.018 C 
ATOM      4  C   UNL     1      18.027  18.264   7.637  1.00  0.00     0.186 C 
ATOM      5  C   UNL     1      19.306  19.181   5.800  1.00  0.00     0.059 C 
ATOM      6  O   UNL     1      19.120  18.574   8.480  1.00  0.00    -0.472 OA
ATOM      7  C   UNL     1      20.542  18.677   6.520  1.00  0.00     0.105 C 
ATOM      8  C   UNL     1      19.659  19.100   4.316  1.00  0.00     0.154 C 
ATOM      9  C   UNL     1      21.679  19.243   5.670  1.00  0.00     0.130 C 
ATOM     10  C   UNL     1      21.158  19.459   4.289  1.00  0.00     0.183 C 
ATOM     11  O   UNL     1      22.056  18.411   4.595  1.00  0.00    -0.360 OA
BRANCH   8  12
ATOM     12  O   UNL     1      19.403  17.838   3.746  1.00  0.00    -0.390 OA
ATOM     13  H   UNL     1      18.839  17.964   2.939  1.00  0.00     0.211 HD
ENDBRANCH   8  12
BRANCH   9  14
ATOM     14  C   UNL     1      22.749  20.226   6.160  1.00  0.00     0.195 C 
BRANCH  14  15
ATOM     15  O   UNL     1      23.701  19.560   6.936  1.00  0.00    -0.393 OA
ATOM     16  H   UNL     1      24.385  19.209   6.308  1.00  0.00     0.210 HD
ENDBRANCH  14  15
ENDBRANCH   9  14
ENDBRANCH   1   2
BRANCH   1  17
ATOM     17  C   UNL     1      20.932  17.750   9.893  1.00  0.00     0.286 C 
ATOM     18  C   UNL     1      21.037  16.215   9.722  1.00  0.00     0.202 C 
ATOM     19  O   UNL     1      21.616  18.183  11.060  1.00  0.00    -0.341 OA
ATOM     20  C   UNL     1      22.501  15.744   9.755  1.00  0.00     0.179 C 
ATOM     21  C   UNL     1      22.999  17.864  11.013  1.00  0.00     0.178 C 
ATOM     22  C   UNL     1      23.210  16.333  10.985  1.00  0.00     0.177 C 
BRANCH  18  23
ATOM     23  O   UNL     1      20.431  15.806   8.523  1.00  0.00    -0.385 OA
ATOM     24  H   UNL     1      20.808  14.915   8.299  1.00  0.00     0.211 HD
ENDBRANCH  18  23
BRANCH  20  25
ATOM     25  O   UNL     1      23.180  16.144   8.590  1.00  0.00    -0.387 OA
ATOM     26  H   UNL     1      23.389  17.108   8.692  1.00  0.00     0.211 HD
ENDBRANCH  20  25
BRANCH  21  27
ATOM     27  C   UNL     1      23.691  18.510  12.224  1.00  0.00     0.191 C 
BRANCH  27  28
ATOM     28  O   UNL     1      22.798  19.321  12.939  1.00  0.00    -0.394 OA
ATOM     29  H   UNL     1      23.004  20.260  12.689  1.00  0.00     0.210 HD
ENDBRANCH  27  28
ENDBRANCH  21  27
BRANCH  22  30
ATOM     30  O   UNL     1      22.695  15.758  12.161  1.00  0.00    -0.387 OA
ATOM     31  H   UNL     1      21.759  16.075  12.249  1.00  0.00     0.211 HD
ENDBRANCH  22  30
ENDBRANCH   1  17
TORSDOF 10
ENDMDL
