MODEL 1
REMARK VINA RESULT:    -2.888      0.000      0.000
REMARK INTER + INTRA:          -3.155
REMARK INTER:                  -3.057
REMARK INTRA:                  -0.098
REMARK UNBOUND:                -0.098
REMARK SMILES C=C(C)[C@@H]1CC=C(C)C(=O)C1
REMARK SMILES IDX 8 1 7 2 6 3 5 4 4 5 11 6 9 7 10 8 2 9 1 10 3 11
REMARK H PARENT
REMARK Flexibility Score: inf
ROOT
ATOM      1  C   UNL     1     155.253 151.962 144.787  1.00  0.00     0.048 C 
ATOM      2  C   UNL     1     154.816 152.539 146.106  1.00  0.00    -0.012 C 
ATOM      3  C   UNL     1     155.105 151.892 147.247  1.00  0.00    -0.019 C 
ATOM      4  C   UNL     1     154.708 152.434 148.594  1.00  0.00     0.036 C 
ATOM      5  C   UNL     1     153.383 153.215 148.509  1.00  0.00     0.025 C 
ATOM      6  C   UNL     1     153.483 154.322 147.443  1.00  0.00     0.089 C 
ATOM      7  C   UNL     1     153.962 153.753 146.135  1.00  0.00     0.158 C 
ATOM      8  O   UNL     1     153.660 154.342 145.062  1.00  0.00    -0.295 OA
ENDROOT
BRANCH   5   9
ATOM      9  C   UNL     1     152.983 153.783 149.864  1.00  0.00    -0.077 C 
ATOM     10  C   UNL     1     152.290 154.931 149.934  1.00  0.00     0.008 C 
ATOM     11  C   UNL     1     153.350 153.085 151.150  1.00  0.00     0.039 C 
ENDBRANCH   5   9
TORSDOF 1
ENDMDL
MODEL 2
REMARK VINA RESULT:    -2.871     23.600     23.997
REMARK INTER + INTRA:          -3.137
REMARK INTER:                  -3.039
REMARK INTRA:                  -0.098
REMARK UNBOUND:                -0.098
REMARK SMILES C=C(C)[C@@H]1CC=C(C)C(=O)C1
REMARK SMILES IDX 8 1 7 2 6 3 5 4 4 5 11 6 9 7 10 8 2 9 1 10 3 11
REMARK H PARENT
REMARK Flexibility Score: inf
ROOT
ATOM      1  C   UNL     1     169.448 172.125 147.041  1.00  0.00     0.048 C 
ATOM      2  C   UNL     1     169.562 171.854 148.515  1.00  0.00    -0.012 C 
ATOM      3  C   UNL     1     170.772 171.817 149.097  1.00  0.00    -0.019 C 
ATOM      4  C   UNL     1     170.942 171.569 150.572  1.00  0.00     0.036 C 
ATOM      5  C   UNL     1     169.842 170.632 151.107  1.00  0.00     0.025 C 
ATOM      6  C   UNL     1     168.449 171.195 150.768  1.00  0.00     0.089 C 
ATOM      7  C   UNL     1     168.349 171.507 149.300  1.00  0.00     0.158 C 
ATOM      8  O   UNL     1     167.216 171.507 148.748  1.00  0.00    -0.295 OA
ENDROOT
BRANCH   5   9
ATOM      9  C   UNL     1     169.994 170.390 152.602  1.00  0.00    -0.077 C 
ATOM     10  C   UNL     1     168.907 170.206 153.369  1.00  0.00     0.008 C 
ATOM     11  C   UNL     1     171.352 170.353 153.259  1.00  0.00     0.039 C 
ENDBRANCH   5   9
TORSDOF 1
ENDMDL
MODEL 3
REMARK VINA RESULT:    -2.853      2.309      3.541
REMARK INTER + INTRA:          -3.117
REMARK INTER:                  -3.022
REMARK INTRA:                  -0.096
REMARK UNBOUND:                -0.098
REMARK SMILES C=C(C)[C@@H]1CC=C(C)C(=O)C1
REMARK SMILES IDX 8 1 7 2 6 3 5 4 4 5 11 6 9 7 10 8 2 9 1 10 3 11
REMARK H PARENT
REMARK Flexibility Score: inf
ROOT
ATOM      1  C   UNL     1     154.526 152.172 147.319  1.00  0.00     0.048 C 
ATOM      2  C   UNL     1     154.370 152.373 148.800  1.00  0.00    -0.012 C 
ATOM      3  C   UNL     1     153.145 152.362 149.352  1.00  0.00    -0.019 C 
ATOM      4  C   UNL     1     152.935 152.541 150.832  1.00  0.00     0.036 C 
ATOM      5  C   UNL     1     154.003 153.471 151.436  1.00  0.00     0.025 C 
ATOM      6  C   UNL     1     155.414 152.949 151.108  1.00  0.00     0.089 C 
ATOM      7  C   UNL     1     155.557 152.705 149.630  1.00  0.00     0.158 C 
ATOM      8  O   UNL     1     156.703 152.751 149.108  1.00  0.00    -0.295 OA
ENDROOT
BRANCH   5   9
ATOM      9  C   UNL     1     153.810 153.642 152.937  1.00  0.00    -0.077 C 
ATOM     10  C   UNL     1     152.573 153.688 153.456  1.00  0.00     0.008 C 
ATOM     11  C   UNL     1     154.987 153.767 153.872  1.00  0.00     0.039 C 
ENDBRANCH   5   9
TORSDOF 1
ENDMDL
MODEL 4
REMARK VINA RESULT:    -2.849      2.052      4.524
REMARK INTER + INTRA:          -3.114
REMARK INTER:                  -3.015
REMARK INTRA:                  -0.098
REMARK UNBOUND:                -0.098
REMARK SMILES C=C(C)[C@@H]1CC=C(C)C(=O)C1
REMARK SMILES IDX 8 1 7 2 6 3 5 4 4 5 11 6 9 7 10 8 2 9 1 10 3 11
REMARK H PARENT
REMARK Flexibility Score: inf
ROOT
ATOM      1  C   UNL     1     153.004 153.495 152.573  1.00  0.00     0.048 C 
ATOM      2  C   UNL     1     153.094 153.409 151.074  1.00  0.00    -0.012 C 
ATOM      3  C   UNL     1     153.263 152.215 150.482  1.00  0.00    -0.019 C 
ATOM      4  C   UNL     1     153.341 152.070 148.985  1.00  0.00     0.036 C 
ATOM      5  C   UNL     1     153.994 153.307 148.342  1.00  0.00     0.025 C 
ATOM      6  C   UNL     1     153.249 154.587 148.765  1.00  0.00     0.089 C 
ATOM      7  C   UNL     1     153.120 154.652 150.262  1.00  0.00     0.158 C 
ATOM      8  O   UNL     1     152.997 155.776 150.819  1.00  0.00    -0.295 OA
ENDROOT
BRANCH   5   9
ATOM      9  C   UNL     1     154.060 153.178 146.826  1.00  0.00    -0.077 C 
ATOM     10  C   UNL     1     153.781 154.236 146.047  1.00  0.00     0.008 C 
ATOM     11  C   UNL     1     154.433 151.875 146.163  1.00  0.00     0.039 C 
ENDBRANCH   5   9
TORSDOF 1
ENDMDL
MODEL 5
REMARK VINA RESULT:    -2.827      2.395      4.829
REMARK INTER + INTRA:          -3.090
REMARK INTER:                  -2.997
REMARK INTRA:                  -0.093
REMARK UNBOUND:                -0.098
REMARK SMILES C=C(C)[C@@H]1CC=C(C)C(=O)C1
REMARK SMILES IDX 8 1 7 2 6 3 5 4 4 5 11 6 9 7 10 8 2 9 1 10 3 11
REMARK H PARENT
REMARK Flexibility Score: inf
ROOT
ATOM      1  C   UNL     1     152.993 153.455 152.411  1.00  0.00     0.048 C 
ATOM      2  C   UNL     1     153.517 153.250 151.017  1.00  0.00    -0.012 C 
ATOM      3  C   UNL     1     153.034 152.251 150.260  1.00  0.00    -0.019 C 
ATOM      4  C   UNL     1     153.511 152.013 148.852  1.00  0.00     0.036 C 
ATOM      5  C   UNL     1     154.993 152.401 148.696  1.00  0.00     0.025 C 
ATOM      6  C   UNL     1     155.216 153.856 149.148  1.00  0.00     0.089 C 
ATOM      7  C   UNL     1     154.652 154.073 150.526  1.00  0.00     0.158 C 
ATOM      8  O   UNL     1     155.130 154.989 151.248  1.00  0.00    -0.295 OA
ENDROOT
BRANCH   5   9
ATOM      9  C   UNL     1     155.480 152.182 147.270  1.00  0.00    -0.077 C 
ATOM     10  C   UNL     1     156.790 152.258 146.986  1.00  0.00     0.008 C 
ATOM     11  C   UNL     1     154.517 151.880 146.148  1.00  0.00     0.039 C 
ENDBRANCH   5   9
TORSDOF 1
ENDMDL
MODEL 6
REMARK VINA RESULT:    -2.826     23.371     24.026
REMARK INTER + INTRA:          -3.090
REMARK INTER:                  -2.995
REMARK INTRA:                  -0.095
REMARK UNBOUND:                -0.098
REMARK SMILES C=C(C)[C@@H]1CC=C(C)C(=O)C1
REMARK SMILES IDX 8 1 7 2 6 3 5 4 4 5 11 6 9 7 10 8 2 9 1 10 3 11
REMARK H PARENT
REMARK Flexibility Score: inf
ROOT
ATOM      1  C   UNL     1     170.971 170.591 152.599  1.00  0.00     0.048 C 
ATOM      2  C   UNL     1     170.453 170.762 151.198  1.00  0.00    -0.012 C 
ATOM      3  C   UNL     1     171.008 171.680 150.388  1.00  0.00    -0.019 C 
ATOM      4  C   UNL     1     170.541 171.880 148.971  1.00  0.00     0.036 C 
ATOM      5  C   UNL     1     169.031 171.602 148.840  1.00  0.00     0.025 C 
ATOM      6  C   UNL     1     168.699 170.194 149.369  1.00  0.00     0.089 C 
ATOM      7  C   UNL     1     169.254 170.006 150.755  1.00  0.00     0.158 C 
ATOM      8  O   UNL     1     168.711 169.171 151.526  1.00  0.00    -0.295 OA
ENDROOT
BRANCH   5   9
ATOM      9  C   UNL     1     168.553 171.783 147.406  1.00  0.00    -0.077 C 
ATOM     10  C   UNL     1     167.252 171.638 147.106  1.00  0.00     0.008 C 
ATOM     11  C   UNL     1     169.514 172.125 146.293  1.00  0.00     0.039 C 
ENDBRANCH   5   9
TORSDOF 1
ENDMDL
MODEL 7
REMARK VINA RESULT:    -2.804      1.782      2.274
REMARK INTER + INTRA:          -3.066
REMARK INTER:                  -2.979
REMARK INTRA:                  -0.087
REMARK UNBOUND:                -0.098
REMARK SMILES C=C(C)[C@@H]1CC=C(C)C(=O)C1
REMARK SMILES IDX 8 1 7 2 6 3 5 4 4 5 11 6 9 7 10 8 2 9 1 10 3 11
REMARK H PARENT
REMARK Flexibility Score: inf
ROOT
ATOM      1  C   UNL     1     158.026 152.353 145.416  1.00  0.00     0.048 C 
ATOM      2  C   UNL     1     156.820 152.702 146.244  1.00  0.00    -0.012 C 
ATOM      3  C   UNL     1     156.981 153.203 147.480  1.00  0.00    -0.019 C 
ATOM      4  C   UNL     1     155.808 153.587 148.344  1.00  0.00     0.036 C 
ATOM      5  C   UNL     1     154.598 152.674 148.073  1.00  0.00     0.025 C 
ATOM      6  C   UNL     1     154.245 152.685 146.574  1.00  0.00     0.089 C 
ATOM      7  C   UNL     1     155.460 152.378 145.743  1.00  0.00     0.158 C 
ATOM      8  O   UNL     1     155.310 151.875 144.597  1.00  0.00    -0.295 OA
ENDROOT
BRANCH   5   9
ATOM      9  C   UNL     1     153.401 153.066 148.929  1.00  0.00    -0.077 C 
ATOM     10  C   UNL     1     153.019 152.285 149.952  1.00  0.00     0.008 C 
ATOM     11  C   UNL     1     152.618 154.326 148.655  1.00  0.00     0.039 C 
ENDBRANCH   5   9
TORSDOF 1
ENDMDL
MODEL 8
REMARK VINA RESULT:    -2.790     22.946     23.520
REMARK INTER + INTRA:          -3.052
REMARK INTER:                  -2.962
REMARK INTRA:                  -0.089
REMARK UNBOUND:                -0.098
REMARK SMILES C=C(C)[C@@H]1CC=C(C)C(=O)C1
REMARK SMILES IDX 8 1 7 2 6 3 5 4 4 5 11 6 9 7 10 8 2 9 1 10 3 11
REMARK H PARENT
REMARK Flexibility Score: inf
ROOT
ATOM      1  C   UNL     1     166.312 171.568 145.028  1.00  0.00     0.048 C 
ATOM      2  C   UNL     1     167.471 171.517 145.983  1.00  0.00    -0.012 C 
ATOM      3  C   UNL     1     168.686 171.150 145.542  1.00  0.00    -0.019 C 
ATOM      4  C   UNL     1     169.884 171.100 146.452  1.00  0.00     0.036 C 
ATOM      5  C   UNL     1     169.476 170.709 147.885  1.00  0.00     0.025 C 
ATOM      6  C   UNL     1     168.387 171.664 148.409  1.00  0.00     0.089 C 
ATOM      7  C   UNL     1     167.246 171.750 147.433  1.00  0.00     0.158 C 
ATOM      8  O   UNL     1     166.099 172.059 147.854  1.00  0.00    -0.295 OA
ENDROOT
BRANCH   5   9
ATOM      9  C   UNL     1     170.679 170.674 148.818  1.00  0.00    -0.077 C 
ATOM     10  C   UNL     1     171.500 169.612 148.818  1.00  0.00     0.008 C 
ATOM     11  C   UNL     1     170.979 171.815 149.759  1.00  0.00     0.039 C 
ENDBRANCH   5   9
TORSDOF 1
ENDMDL
MODEL 9
REMARK VINA RESULT:    -2.763     23.058     23.611
REMARK INTER + INTRA:          -3.023
REMARK INTER:                  -2.930
REMARK INTRA:                  -0.093
REMARK UNBOUND:                -0.098
REMARK SMILES C=C(C)[C@@H]1CC=C(C)C(=O)C1
REMARK SMILES IDX 8 1 7 2 6 3 5 4 4 5 11 6 9 7 10 8 2 9 1 10 3 11
REMARK H PARENT
REMARK Flexibility Score: inf
ROOT
ATOM      1  C   UNL     1     166.621 171.717 145.172  1.00  0.00     0.048 C 
ATOM      2  C   UNL     1     167.641 171.353 146.215  1.00  0.00    -0.012 C 
ATOM      3  C   UNL     1     167.450 171.718 147.493  1.00  0.00    -0.019 C 
ATOM      4  C   UNL     1     168.430 171.363 148.580  1.00  0.00     0.036 C 
ATOM      5  C   UNL     1     169.870 171.323 148.036  1.00  0.00     0.025 C 
ATOM      6  C   UNL     1     169.961 170.364 146.834  1.00  0.00     0.089 C 
ATOM      7  C   UNL     1     168.912 170.700 145.810  1.00  0.00     0.158 C 
ATOM      8  O   UNL     1     169.109 170.388 144.604  1.00  0.00    -0.295 OA
ENDROOT
BRANCH   5   9
ATOM      9  C   UNL     1     170.867 170.946 149.124  1.00  0.00    -0.077 C 
ATOM     10  C   UNL     1     170.980 171.704 150.226  1.00  0.00     0.008 C 
ATOM     11  C   UNL     1     171.746 169.726 148.997  1.00  0.00     0.039 C 
ENDBRANCH   5   9
TORSDOF 1
ENDMDL
