MODEL 1
REMARK VINA RESULT:    -5.830      0.000      0.000
REMARK INTER + INTRA:          -8.058
REMARK INTER:                  -7.364
REMARK INTRA:                  -0.694
REMARK UNBOUND:                -0.694
REMARK SMILES O=C(C=Cc1ccc(O)cc1)c1ccc(O)cc1O
REMARK SMILES IDX 4 1 3 2 5 3 6 4 7 5 8 6 11 7 10 8 9 9 2 11 1 12 12 13 18 14
REMARK SMILES IDX 13 15 17 16 14 17 15 18 19 19 16 21
REMARK H PARENT 9 10 19 20 16 22
REMARK Flexibility Score: inf
ROOT
ATOM      1  C   UNL     1      10.258  -3.699  19.520  1.00  0.00     0.012 C 
ATOM      2  C   UNL     1      10.774  -3.329  18.338  1.00  0.00     0.053 C 
ENDROOT
BRANCH   1   3
ATOM      3  C   UNL     1       9.262  -4.788  19.682  1.00  0.00    -0.025 A 
ATOM      4  C   UNL     1       7.903  -4.445  19.773  1.00  0.00     0.012 A 
ATOM      5  C   UNL     1       6.927  -5.436  19.918  1.00  0.00     0.047 A 
ATOM      6  C   UNL     1       7.294  -6.784  19.963  1.00  0.00     0.115 A 
ATOM      7  C   UNL     1       9.624  -6.150  19.713  1.00  0.00     0.012 A 
ATOM      8  C   UNL     1       8.645  -7.139  19.857  1.00  0.00     0.047 A 
BRANCH   6   9
ATOM      9  O   UNL     1       6.312  -7.761  20.109  1.00  0.00    -0.508 OA
ATOM     10  H   UNL     1       6.392  -8.492  20.805  1.00  0.00     0.293 HD
ENDBRANCH   6   9
ENDBRANCH   1   3
BRANCH   2  11
ATOM     11  C   UNL     1      11.764  -2.239  18.204  1.00  0.00     0.189 C 
ATOM     12  O   UNL     1      12.853  -2.492  17.623  1.00  0.00    -0.289 OA
BRANCH  11  13
ATOM     13  C   UNL     1      11.532  -0.869  18.716  1.00  0.00     0.064 A 
ATOM     14  C   UNL     1      12.526  -0.174  19.435  1.00  0.00     0.130 A 
ATOM     15  C   UNL     1      10.308  -0.235  18.445  1.00  0.00     0.020 A 
ATOM     16  C   UNL     1      12.268   1.123  19.907  1.00  0.00     0.093 A 
ATOM     17  C   UNL     1      10.062   1.057  18.914  1.00  0.00     0.047 A 
ATOM     18  C   UNL     1      11.040   1.738  19.649  1.00  0.00     0.119 A 
BRANCH  14  19
ATOM     19  O   UNL     1      13.772  -0.759  19.664  1.00  0.00    -0.507 OA
ATOM     20  H   UNL     1      14.316  -1.163  18.911  1.00  0.00     0.293 HD
ENDBRANCH  14  19
BRANCH  18  21
ATOM     21  O   UNL     1      10.802   3.026  20.125  1.00  0.00    -0.508 OA
ATOM     22  H   UNL     1       9.869   3.421  20.142  1.00  0.00     0.293 HD
ENDBRANCH  18  21
ENDBRANCH  11  13
ENDBRANCH   2  11
TORSDOF 6
ENDMDL
MODEL 2
REMARK VINA RESULT:    -5.615      2.041      6.993
REMARK INTER + INTRA:          -7.786
REMARK INTER:                  -7.118
REMARK INTRA:                  -0.668
REMARK UNBOUND:                -0.694
REMARK SMILES O=C(C=Cc1ccc(O)cc1)c1ccc(O)cc1O
REMARK SMILES IDX 4 1 3 2 5 3 6 4 7 5 8 6 11 7 10 8 9 9 2 11 1 12 12 13 18 14
REMARK SMILES IDX 13 15 17 16 14 17 15 18 19 19 16 21
REMARK H PARENT 9 10 19 20 16 22
REMARK Flexibility Score: inf
ROOT
ATOM      1  C   UNL     1       9.366  -0.475  18.226  1.00  0.00     0.012 C 
ATOM      2  C   UNL     1      10.106  -1.274  19.010  1.00  0.00     0.053 C 
ENDROOT
BRANCH   1   3
ATOM      3  C   UNL     1       8.822   0.835  18.661  1.00  0.00    -0.025 A 
ATOM      4  C   UNL     1       7.612   1.278  18.100  1.00  0.00     0.012 A 
ATOM      5  C   UNL     1       7.055   2.501  18.484  1.00  0.00     0.047 A 
ATOM      6  C   UNL     1       7.693   3.297  19.440  1.00  0.00     0.115 A 
ATOM      7  C   UNL     1       9.453   1.635  19.635  1.00  0.00     0.012 A 
ATOM      8  C   UNL     1       8.892   2.859  20.017  1.00  0.00     0.047 A 
BRANCH   6   9
ATOM      9  O   UNL     1       7.128   4.514  19.812  1.00  0.00    -0.508 OA
ATOM     10  H   UNL     1       7.695   5.342  19.945  1.00  0.00     0.293 HD
ENDBRANCH   6   9
ENDBRANCH   1   3
BRANCH   2  11
ATOM     11  C   UNL     1      10.635  -2.576  18.552  1.00  0.00     0.189 C 
ATOM     12  O   UNL     1      11.650  -2.577  17.806  1.00  0.00    -0.289 OA
BRANCH  11  13
ATOM     13  C   UNL     1      10.031  -3.873  18.935  1.00  0.00     0.064 A 
ATOM     14  C   UNL     1      10.761  -4.842  19.655  1.00  0.00     0.130 A 
ATOM     15  C   UNL     1       8.690  -4.127  18.607  1.00  0.00     0.020 A 
ATOM     16  C   UNL     1      10.156  -6.060  19.998  1.00  0.00     0.093 A 
ATOM     17  C   UNL     1       8.093  -5.341  18.957  1.00  0.00     0.047 A 
ATOM     18  C   UNL     1       8.826  -6.312  19.649  1.00  0.00     0.119 A 
BRANCH  14  19
ATOM     19  O   UNL     1      12.077  -4.588  20.046  1.00  0.00    -0.507 OA
ATOM     20  H   UNL     1      12.865  -5.000  19.561  1.00  0.00     0.293 HD
ENDBRANCH  14  19
BRANCH  18  21
ATOM     21  O   UNL     1       8.241  -7.528  19.999  1.00  0.00    -0.508 OA
ATOM     22  H   UNL     1       8.203  -8.304  19.349  1.00  0.00     0.293 HD
ENDBRANCH  18  21
ENDBRANCH  11  13
ENDBRANCH   2  11
TORSDOF 6
ENDMDL
MODEL 3
REMARK VINA RESULT:    -5.226      4.375      7.337
REMARK INTER + INTRA:          -7.295
REMARK INTER:                  -6.785
REMARK INTRA:                  -0.510
REMARK UNBOUND:                -0.694
REMARK SMILES O=C(C=Cc1ccc(O)cc1)c1ccc(O)cc1O
REMARK SMILES IDX 4 1 3 2 5 3 6 4 7 5 8 6 11 7 10 8 9 9 2 11 1 12 12 13 18 14
REMARK SMILES IDX 13 15 17 16 14 17 15 18 19 19 16 21
REMARK H PARENT 9 10 19 20 16 22
REMARK Flexibility Score: inf
ROOT
ATOM      1  C   UNL     1      15.448  -2.339  19.354  1.00  0.00     0.012 C 
ATOM      2  C   UNL     1      14.498  -3.286  19.313  1.00  0.00     0.053 C 
ENDROOT
BRANCH   1   3
ATOM      3  C   UNL     1      16.902  -2.622  19.261  1.00  0.00    -0.025 A 
ATOM      4  C   UNL     1      17.454  -3.584  20.125  1.00  0.00     0.012 A 
ATOM      5  C   UNL     1      18.816  -3.892  20.070  1.00  0.00     0.047 A 
ATOM      6  C   UNL     1      19.646  -3.251  19.146  1.00  0.00     0.115 A 
ATOM      7  C   UNL     1      17.742  -1.991  18.322  1.00  0.00     0.012 A 
ATOM      8  C   UNL     1      19.104  -2.302  18.270  1.00  0.00     0.047 A 
BRANCH   6   9
ATOM      9  O   UNL     1      21.002  -3.567  19.103  1.00  0.00    -0.508 OA
ATOM     10  H   UNL     1      21.416  -4.011  18.292  1.00  0.00     0.293 HD
ENDBRANCH   6   9
ENDBRANCH   1   3
BRANCH   2  11
ATOM     11  C   UNL     1      13.056  -2.977  19.408  1.00  0.00     0.189 C 
ATOM     12  O   UNL     1      12.273  -3.893  19.775  1.00  0.00    -0.289 OA
BRANCH  11  13
ATOM     13  C   UNL     1      12.494  -1.642  19.097  1.00  0.00     0.064 A 
ATOM     14  C   UNL     1      11.690  -1.428  17.959  1.00  0.00     0.130 A 
ATOM     15  C   UNL     1      12.735  -0.575  19.979  1.00  0.00     0.020 A 
ATOM     16  C   UNL     1      11.177  -0.148  17.696  1.00  0.00     0.093 A 
ATOM     17  C   UNL     1      12.216   0.694  19.713  1.00  0.00     0.047 A 
ATOM     18  C   UNL     1      11.440   0.911  18.568  1.00  0.00     0.119 A 
BRANCH  14  19
ATOM     19  O   UNL     1      11.386  -2.487  17.101  1.00  0.00    -0.507 OA
ATOM     20  H   UNL     1      10.531  -3.022  17.199  1.00  0.00     0.293 HD
ENDBRANCH  14  19
BRANCH  18  21
ATOM     21  O   UNL     1      10.921   2.175  18.291  1.00  0.00    -0.508 OA
ATOM     22  H   UNL     1      10.722   2.470  17.343  1.00  0.00     0.293 HD
ENDBRANCH  18  21
ENDBRANCH  11  13
ENDBRANCH   2  11
TORSDOF 6
ENDMDL
MODEL 4
REMARK VINA RESULT:    -5.016      3.463      4.928
REMARK INTER + INTRA:          -7.029
REMARK INTER:                  -6.568
REMARK INTRA:                  -0.461
REMARK UNBOUND:                -0.694
REMARK SMILES O=C(C=Cc1ccc(O)cc1)c1ccc(O)cc1O
REMARK SMILES IDX 4 1 3 2 5 3 6 4 7 5 8 6 11 7 10 8 9 9 2 11 1 12 12 13 18 14
REMARK SMILES IDX 13 15 17 16 14 17 15 18 19 19 16 21
REMARK H PARENT 9 10 19 20 16 22
REMARK Flexibility Score: inf
ROOT
ATOM      1  C   UNL     1      10.684  -2.063  18.004  1.00  0.00     0.012 C 
ATOM      2  C   UNL     1       9.677  -1.634  18.781  1.00  0.00     0.053 C 
ENDROOT
BRANCH   1   3
ATOM      3  C   UNL     1      11.774  -2.951  18.480  1.00  0.00    -0.025 A 
ATOM      4  C   UNL     1      11.468  -3.932  19.438  1.00  0.00     0.012 A 
ATOM      5  C   UNL     1      12.460  -4.798  19.912  1.00  0.00     0.047 A 
ATOM      6  C   UNL     1      13.767  -4.702  19.427  1.00  0.00     0.115 A 
ATOM      7  C   UNL     1      13.091  -2.870  17.986  1.00  0.00     0.012 A 
ATOM      8  C   UNL     1      14.079  -3.738  18.461  1.00  0.00     0.047 A 
BRANCH   6   9
ATOM      9  O   UNL     1      14.745  -5.570  19.908  1.00  0.00    -0.508 OA
ATOM     10  H   UNL     1      15.679  -5.246  20.125  1.00  0.00     0.293 HD
ENDBRANCH   6   9
ENDBRANCH   1   3
BRANCH   2  11
ATOM     11  C   UNL     1       8.603  -0.749  18.281  1.00  0.00     0.189 C 
ATOM     12  O   UNL     1       7.806  -1.207  17.420  1.00  0.00    -0.289 OA
BRANCH  11  13
ATOM     13  C   UNL     1       8.422   0.645  18.749  1.00  0.00     0.064 A 
ATOM     14  C   UNL     1       7.232   1.358  18.494  1.00  0.00     0.130 A 
ATOM     15  C   UNL     1       9.442   1.254  19.497  1.00  0.00     0.020 A 
ATOM     16  C   UNL     1       7.098   2.678  18.952  1.00  0.00     0.093 A 
ATOM     17  C   UNL     1       9.297   2.566  19.953  1.00  0.00     0.047 A 
ATOM     18  C   UNL     1       8.127   3.283  19.678  1.00  0.00     0.119 A 
BRANCH  14  19
ATOM     19  O   UNL     1       6.180   0.752  17.806  1.00  0.00    -0.507 OA
ATOM     20  H   UNL     1       5.294   1.223  17.667  1.00  0.00     0.293 HD
ENDBRANCH  14  19
BRANCH  18  21
ATOM     21  O   UNL     1       7.974   4.594  20.125  1.00  0.00    -0.508 OA
ATOM     22  H   UNL     1       8.638   5.318  19.877  1.00  0.00     0.293 HD
ENDBRANCH  18  21
ENDBRANCH  11  13
ENDBRANCH   2  11
TORSDOF 6
ENDMDL
MODEL 5
REMARK VINA RESULT:    -4.941      4.458      7.608
REMARK INTER + INTRA:          -6.934
REMARK INTER:                  -6.320
REMARK INTRA:                  -0.615
REMARK UNBOUND:                -0.694
REMARK SMILES O=C(C=Cc1ccc(O)cc1)c1ccc(O)cc1O
REMARK SMILES IDX 4 1 3 2 5 3 6 4 7 5 8 6 11 7 10 8 9 9 2 11 1 12 12 13 18 14
REMARK SMILES IDX 13 15 17 16 14 17 15 18 19 19 16 21
REMARK H PARENT 9 10 19 20 16 22
REMARK Flexibility Score: inf
ROOT
ATOM      1  C   UNL     1      15.649  -1.815  19.178  1.00  0.00     0.012 C 
ATOM      2  C   UNL     1      14.466  -2.364  19.496  1.00  0.00     0.053 C 
ENDROOT
BRANCH   1   3
ATOM      3  C   UNL     1      16.942  -2.541  19.247  1.00  0.00    -0.025 A 
ATOM      4  C   UNL     1      17.017  -3.702  20.035  1.00  0.00     0.012 A 
ATOM      5  C   UNL     1      18.211  -4.425  20.125  1.00  0.00     0.047 A 
ATOM      6  C   UNL     1      19.343  -4.004  19.422  1.00  0.00     0.115 A 
ATOM      7  C   UNL     1      18.083  -2.131  18.529  1.00  0.00     0.012 A 
ATOM      8  C   UNL     1      19.275  -2.857  18.621  1.00  0.00     0.047 A 
BRANCH   6   9
ATOM      9  O   UNL     1      20.526  -4.733  19.521  1.00  0.00    -0.508 OA
ATOM     10  H   UNL     1      20.961  -5.148  18.707  1.00  0.00     0.293 HD
ENDBRANCH   6   9
ENDBRANCH   1   3
BRANCH   2  11
ATOM     11  C   UNL     1      13.192  -1.618  19.419  1.00  0.00     0.189 C 
ATOM     12  O   UNL     1      13.217  -0.375  19.624  1.00  0.00    -0.289 OA
BRANCH  11  13
ATOM     13  C   UNL     1      11.896  -2.263  19.109  1.00  0.00     0.064 A 
ATOM     14  C   UNL     1      10.993  -1.695  18.186  1.00  0.00     0.130 A 
ATOM     15  C   UNL     1      11.577  -3.488  19.718  1.00  0.00     0.020 A 
ATOM     16  C   UNL     1       9.773  -2.335  17.919  1.00  0.00     0.093 A 
ATOM     17  C   UNL     1      10.363  -4.120  19.442  1.00  0.00     0.047 A 
ATOM     18  C   UNL     1       9.456  -3.543  18.546  1.00  0.00     0.119 A 
BRANCH  14  19
ATOM     19  O   UNL     1      11.315  -0.511  17.522  1.00  0.00    -0.507 OA
ATOM     20  H   UNL     1      12.267  -0.293  17.253  1.00  0.00     0.293 HD
ENDBRANCH  14  19
BRANCH  18  21
ATOM     21  O   UNL     1       8.240  -4.164  18.267  1.00  0.00    -0.508 OA
ATOM     22  H   UNL     1       7.485  -4.179  18.943  1.00  0.00     0.293 HD
ENDBRANCH  18  21
ENDBRANCH  11  13
ENDBRANCH   2  11
TORSDOF 6
ENDMDL
MODEL 6
REMARK VINA RESULT:    -4.787      2.781      6.711
REMARK INTER + INTRA:          -6.740
REMARK INTER:                  -6.386
REMARK INTRA:                  -0.354
REMARK UNBOUND:                -0.694
REMARK SMILES O=C(C=Cc1ccc(O)cc1)c1ccc(O)cc1O
REMARK SMILES IDX 4 1 3 2 5 3 6 4 7 5 8 6 11 7 10 8 9 9 2 11 1 12 12 13 18 14
REMARK SMILES IDX 13 15 17 16 14 17 15 18 19 19 16 21
REMARK H PARENT 9 10 19 20 16 22
REMARK Flexibility Score: inf
ROOT
ATOM      1  C   UNL     1       8.794  -0.610  18.269  1.00  0.00     0.012 C 
ATOM      2  C   UNL     1       8.894  -1.624  19.143  1.00  0.00     0.053 C 
ENDROOT
BRANCH   1   3
ATOM      3  C   UNL     1       8.372   0.763  18.642  1.00  0.00    -0.025 A 
ATOM      4  C   UNL     1       9.228   1.532  19.449  1.00  0.00     0.012 A 
ATOM      5  C   UNL     1       8.878   2.834  19.819  1.00  0.00     0.047 A 
ATOM      6  C   UNL     1       7.673   3.391  19.382  1.00  0.00     0.115 A 
ATOM      7  C   UNL     1       7.165   1.336  18.192  1.00  0.00     0.012 A 
ATOM      8  C   UNL     1       6.819   2.639  18.564  1.00  0.00     0.047 A 
BRANCH   6   9
ATOM      9  O   UNL     1       7.336   4.688  19.759  1.00  0.00    -0.508 OA
ATOM     10  H   UNL     1       7.976   5.268  20.289  1.00  0.00     0.293 HD
ENDBRANCH   6   9
ENDBRANCH   1   3
BRANCH   2  11
ATOM     11  C   UNL     1       9.317  -2.983  18.745  1.00  0.00     0.189 C 
ATOM     12  O   UNL     1       8.457  -3.749  18.233  1.00  0.00    -0.289 OA
BRANCH  11  13
ATOM     13  C   UNL     1      10.701  -3.481  18.915  1.00  0.00     0.064 A 
ATOM     14  C   UNL     1      11.755  -3.019  18.100  1.00  0.00     0.130 A 
ATOM     15  C   UNL     1      10.977  -4.403  19.938  1.00  0.00     0.020 A 
ATOM     16  C   UNL     1      13.054  -3.515  18.291  1.00  0.00     0.093 A 
ATOM     17  C   UNL     1      12.273  -4.888  20.124  1.00  0.00     0.047 A 
ATOM     18  C   UNL     1      13.314  -4.448  19.298  1.00  0.00     0.119 A 
BRANCH  14  19
ATOM     19  O   UNL     1      11.518  -2.056  17.118  1.00  0.00    -0.507 OA
ATOM     20  H   UNL     1      12.229  -1.797  16.444  1.00  0.00     0.293 HD
ENDBRANCH  14  19
BRANCH  18  21
ATOM     21  O   UNL     1      14.611  -4.929  19.472  1.00  0.00    -0.508 OA
ATOM     22  H   UNL     1      14.818  -5.920  19.432  1.00  0.00     0.293 HD
ENDBRANCH  18  21
ENDBRANCH  11  13
ENDBRANCH   2  11
TORSDOF 6
ENDMDL
MODEL 7
REMARK VINA RESULT:    -4.643      2.800      6.741
REMARK INTER + INTRA:          -6.558
REMARK INTER:                  -5.931
REMARK INTRA:                  -0.627
REMARK UNBOUND:                -0.694
REMARK SMILES O=C(C=Cc1ccc(O)cc1)c1ccc(O)cc1O
REMARK SMILES IDX 4 1 3 2 5 3 6 4 7 5 8 6 11 7 10 8 9 9 2 11 1 12 12 13 18 14
REMARK SMILES IDX 13 15 17 16 14 17 15 18 19 19 16 21
REMARK H PARENT 9 10 19 20 16 22
REMARK Flexibility Score: inf
ROOT
ATOM      1  C   UNL     1       9.045  -1.335  18.335  1.00  0.00     0.012 C 
ATOM      2  C   UNL     1       9.105  -2.248  19.317  1.00  0.00     0.053 C 
ENDROOT
BRANCH   1   3
ATOM      3  C   UNL     1       8.687   0.089  18.551  1.00  0.00    -0.025 A 
ATOM      4  C   UNL     1       7.332   0.456  18.486  1.00  0.00     0.012 A 
ATOM      5  C   UNL     1       6.944   1.784  18.691  1.00  0.00     0.047 A 
ATOM      6  C   UNL     1       7.902   2.761  18.974  1.00  0.00     0.115 A 
ATOM      7  C   UNL     1       9.646   1.077  18.851  1.00  0.00     0.012 A 
ATOM      8  C   UNL     1       9.253   2.404  19.057  1.00  0.00     0.047 A 
BRANCH   6   9
ATOM      9  O   UNL     1       7.501   4.080  19.175  1.00  0.00    -0.508 OA
ATOM     10  H   UNL     1       6.546   4.374  19.009  1.00  0.00     0.293 HD
ENDBRANCH   6   9
ENDBRANCH   1   3
BRANCH   2  11
ATOM     11  C   UNL     1       9.464  -3.661  19.074  1.00  0.00     0.189 C 
ATOM     12  O   UNL     1       8.582  -4.427  18.602  1.00  0.00    -0.289 OA
BRANCH  11  13
ATOM     13  C   UNL     1      10.810  -4.213  19.355  1.00  0.00     0.064 A 
ATOM     14  C   UNL     1      10.979  -5.515  19.869  1.00  0.00     0.130 A 
ATOM     15  C   UNL     1      11.943  -3.435  19.065  1.00  0.00     0.020 A 
ATOM     16  C   UNL     1      12.270  -6.002  20.125  1.00  0.00     0.093 A 
ATOM     17  C   UNL     1      13.224  -3.930  19.317  1.00  0.00     0.047 A 
ATOM     18  C   UNL     1      13.391  -5.213  19.852  1.00  0.00     0.119 A 
BRANCH  14  19
ATOM     19  O   UNL     1       9.871  -6.329  20.108  1.00  0.00    -0.507 OA
ATOM     20  H   UNL     1       9.576  -6.564  21.048  1.00  0.00     0.293 HD
ENDBRANCH  14  19
BRANCH  18  21
ATOM     21  O   UNL     1      14.665  -5.715  20.112  1.00  0.00    -0.508 OA
ATOM     22  H   UNL     1      15.268  -5.294  20.809  1.00  0.00     0.293 HD
ENDBRANCH  18  21
ENDBRANCH  11  13
ENDBRANCH   2  11
TORSDOF 6
ENDMDL
MODEL 8
REMARK VINA RESULT:    -4.577      2.458      7.158
REMARK INTER + INTRA:          -6.475
REMARK INTER:                  -6.580
REMARK INTRA:                   0.105
REMARK UNBOUND:                -0.694
REMARK SMILES O=C(C=Cc1ccc(O)cc1)c1ccc(O)cc1O
REMARK SMILES IDX 4 1 3 2 5 3 6 4 7 5 8 6 11 7 10 8 9 9 2 11 1 12 12 13 18 14
REMARK SMILES IDX 13 15 17 16 14 17 15 18 19 19 16 21
REMARK H PARENT 9 10 19 20 16 22
REMARK Flexibility Score: inf
ROOT
ATOM      1  C   UNL     1       9.562  -0.401  18.922  1.00  0.00     0.012 C 
ATOM      2  C   UNL     1       9.752  -1.363  19.838  1.00  0.00     0.053 C 
ENDROOT
BRANCH   1   3
ATOM      3  C   UNL     1       8.727   0.804  19.150  1.00  0.00    -0.025 A 
ATOM      4  C   UNL     1       7.437   0.841  18.593  1.00  0.00     0.012 A 
ATOM      5  C   UNL     1       6.610   1.951  18.788  1.00  0.00     0.047 A 
ATOM      6  C   UNL     1       7.054   3.036  19.550  1.00  0.00     0.115 A 
ATOM      7  C   UNL     1       9.163   1.895  19.929  1.00  0.00     0.012 A 
ATOM      8  C   UNL     1       8.331   3.003  20.122  1.00  0.00     0.047 A 
BRANCH   6   9
ATOM      9  O   UNL     1       6.219   4.136  19.735  1.00  0.00    -0.508 OA
ATOM     10  H   UNL     1       5.459   4.116  20.403  1.00  0.00     0.293 HD
ENDBRANCH   6   9
ENDBRANCH   1   3
BRANCH   2  11
ATOM     11  C   UNL     1      10.589  -2.555  19.584  1.00  0.00     0.189 C 
ATOM     12  O   UNL     1      11.809  -2.381  19.322  1.00  0.00    -0.289 OA
BRANCH  11  13
ATOM     13  C   UNL     1      10.061  -3.937  19.629  1.00  0.00     0.064 A 
ATOM     14  C   UNL     1       8.753  -4.240  19.197  1.00  0.00     0.130 A 
ATOM     15  C   UNL     1      10.895  -4.976  20.074  1.00  0.00     0.020 A 
ATOM     16  C   UNL     1       8.286  -5.562  19.257  1.00  0.00     0.093 A 
ATOM     17  C   UNL     1      10.424  -6.290  20.125  1.00  0.00     0.047 A 
ATOM     18  C   UNL     1       9.117  -6.585  19.721  1.00  0.00     0.119 A 
BRANCH  14  19
ATOM     19  O   UNL     1       7.926  -3.235  18.693  1.00  0.00    -0.507 OA
ATOM     20  H   UNL     1       7.015  -3.045  19.094  1.00  0.00     0.293 HD
ENDBRANCH  14  19
BRANCH  18  21
ATOM     21  O   UNL     1       8.637  -7.893  19.772  1.00  0.00    -0.508 OA
ATOM     22  H   UNL     1       8.557  -8.394  20.648  1.00  0.00     0.293 HD
ENDBRANCH  18  21
ENDBRANCH  11  13
ENDBRANCH   2  11
TORSDOF 6
ENDMDL
