MODEL 1
REMARK VINA RESULT:    -3.711      0.000      0.000
REMARK INTER + INTRA:          -5.554
REMARK INTER:                  -5.013
REMARK INTRA:                  -0.541
REMARK UNBOUND:                -0.541
REMARK SMILES [NH3+]CCCC[C@@H]([NH3+])C(=O)[O-]
REMARK SMILES IDX 4 1 3 2 2 3 1 4 5 8 6 9 7 10 8 14 9 15 10 16
REMARK H PARENT 1 5 1 6 1 7 7 11 7 12 7 13
REMARK Flexibility Score: inf
ROOT
ATOM      1  C   UNL     1      18.813  31.190  44.629  1.00  0.00     0.012 C 
ENDROOT
BRANCH   1   2
ATOM      2  C   UNL     1      17.373  31.444  44.160  1.00  0.00     0.061 C 
BRANCH   2   3
ATOM      3  C   UNL     1      17.310  32.020  42.736  1.00  0.00     0.258 C 
BRANCH   3   4
ATOM      4  N   UNL     1      17.022  30.990  41.735  1.00  0.00    -0.358 N 
ATOM      5  H   UNL     1      16.614  30.156  42.216  1.00  0.00     0.344 HD
ATOM      6  H   UNL     1      17.899  30.700  41.246  1.00  0.00     0.344 HD
ATOM      7  H   UNL     1      16.325  31.342  41.040  1.00  0.00     0.344 HD
ENDBRANCH   3   4
ENDBRANCH   2   3
ENDBRANCH   1   2
BRANCH   1   8
ATOM      8  C   UNL     1      19.189  29.708  44.469  1.00  0.00     0.072 C 
BRANCH   8   9
ATOM      9  C   UNL     1      20.531  29.522  43.729  1.00  0.00     0.227 C 
BRANCH   9  10
ATOM     10  N   UNL     1      20.877  28.098  43.646  1.00  0.00    -0.350 N 
ATOM     11  H   UNL     1      20.125  27.523  44.089  1.00  0.00     0.345 HD
ATOM     12  H   UNL     1      20.991  27.803  42.648  1.00  0.00     0.345 HD
ATOM     13  H   UNL     1      21.770  27.918  44.162  1.00  0.00     0.345 HD
ENDBRANCH   9  10
BRANCH   9  14
ATOM     14  C   UNL     1      20.474  30.118  42.346  1.00  0.00     0.099 C 
ATOM     15  O   UNL     1      19.729  29.608  41.468  1.00  0.00    -0.544 OA
ATOM     16  O   UNL     1      21.247  31.228  42.029  1.00  0.00    -0.544 OA
ENDBRANCH   9  14
ENDBRANCH   8   9
ENDBRANCH   1   8
TORSDOF 7
ENDMDL
MODEL 2
REMARK VINA RESULT:    -3.635      1.799      2.042
REMARK INTER + INTRA:          -5.450
REMARK INTER:                  -4.920
REMARK INTRA:                  -0.530
REMARK UNBOUND:                -0.541
REMARK SMILES [NH3+]CCCC[C@@H]([NH3+])C(=O)[O-]
REMARK SMILES IDX 4 1 3 2 2 3 1 4 5 8 6 9 7 10 8 14 9 15 10 16
REMARK H PARENT 1 5 1 6 1 7 7 11 7 12 7 13
REMARK Flexibility Score: inf
ROOT
ATOM      1  C   UNL     1      19.813  31.083  44.313  1.00  0.00     0.012 C 
ENDROOT
BRANCH   1   2
ATOM      2  C   UNL     1      18.578  31.988  44.429  1.00  0.00     0.061 C 
BRANCH   2   3
ATOM      3  C   UNL     1      17.335  31.228  44.921  1.00  0.00     0.258 C 
BRANCH   3   4
ATOM      4  N   UNL     1      17.105  29.995  44.164  1.00  0.00    -0.358 N 
ATOM      5  H   UNL     1      18.008  29.689  43.734  1.00  0.00     0.344 HD
ATOM      6  H   UNL     1      16.409  30.158  43.401  1.00  0.00     0.344 HD
ATOM      7  H   UNL     1      16.770  29.235  44.798  1.00  0.00     0.344 HD
ENDBRANCH   3   4
ENDBRANCH   2   3
ENDBRANCH   1   2
BRANCH   1   8
ATOM      8  C   UNL     1      20.470  31.224  42.929  1.00  0.00     0.072 C 
BRANCH   8   9
ATOM      9  C   UNL     1      20.426  29.908  42.124  1.00  0.00     0.227 C 
BRANCH   9  10
ATOM     10  N   UNL     1      20.223  28.765  43.023  1.00  0.00    -0.350 N 
ATOM     11  H   UNL     1      19.941  29.103  43.971  1.00  0.00     0.345 HD
ATOM     12  H   UNL     1      19.478  28.130  42.650  1.00  0.00     0.345 HD
ATOM     13  H   UNL     1      21.115  28.227  43.121  1.00  0.00     0.345 HD
ENDBRANCH   9  10
BRANCH   9  14
ATOM     14  C   UNL     1      19.336  29.944  41.084  1.00  0.00     0.099 C 
ATOM     15  O   UNL     1      18.162  30.260  41.410  1.00  0.00    -0.544 OA
ATOM     16  O   UNL     1      19.618  29.624  39.762  1.00  0.00    -0.544 OA
ENDBRANCH   9  14
ENDBRANCH   8   9
ENDBRANCH   1   8
TORSDOF 7
ENDMDL
MODEL 3
REMARK VINA RESULT:    -3.624      2.057      3.841
REMARK INTER + INTRA:          -5.435
REMARK INTER:                  -5.196
REMARK INTRA:                  -0.240
REMARK UNBOUND:                -0.541
REMARK SMILES [NH3+]CCCC[C@@H]([NH3+])C(=O)[O-]
REMARK SMILES IDX 4 1 3 2 2 3 1 4 5 8 6 9 7 10 8 14 9 15 10 16
REMARK H PARENT 1 5 1 6 1 7 7 11 7 12 7 13
REMARK Flexibility Score: inf
ROOT
ATOM      1  C   UNL     1      19.758  31.250  44.378  1.00  0.00     0.012 C 
ENDROOT
BRANCH   1   2
ATOM      2  C   UNL     1      19.598  29.724  44.429  1.00  0.00     0.061 C 
BRANCH   2   3
ATOM      3  C   UNL     1      20.494  29.003  43.408  1.00  0.00     0.258 C 
BRANCH   3   4
ATOM      4  N   UNL     1      21.214  27.875  44.003  1.00  0.00    -0.358 N 
ATOM      5  H   UNL     1      20.629  27.013  43.908  1.00  0.00     0.344 HD
ATOM      6  H   UNL     1      21.391  28.049  45.019  1.00  0.00     0.344 HD
ATOM      7  H   UNL     1      22.118  27.716  43.504  1.00  0.00     0.344 HD
ENDBRANCH   3   4
ENDBRANCH   2   3
ENDBRANCH   1   2
BRANCH   1   8
ATOM      8  C   UNL     1      18.419  31.932  44.050  1.00  0.00     0.072 C 
BRANCH   8   9
ATOM      9  C   UNL     1      18.389  32.501  42.615  1.00  0.00     0.227 C 
BRANCH   9  10
ATOM     10  N   UNL     1      19.752  32.620  42.083  1.00  0.00    -0.350 N 
ATOM     11  H   UNL     1      20.252  33.406  42.557  1.00  0.00     0.345 HD
ATOM     12  H   UNL     1      20.287  31.732  42.235  1.00  0.00     0.345 HD
ATOM     13  H   UNL     1      19.716  32.828  41.057  1.00  0.00     0.345 HD
ENDBRANCH   9  10
BRANCH   9  14
ATOM     14  C   UNL     1      17.556  31.635  41.706  1.00  0.00     0.099 C 
ATOM     15  O   UNL     1      17.226  32.052  40.564  1.00  0.00    -0.544 OA
ATOM     16  O   UNL     1      17.141  30.377  42.123  1.00  0.00    -0.544 OA
ENDBRANCH   9  14
ENDBRANCH   8   9
ENDBRANCH   1   8
TORSDOF 7
ENDMDL
MODEL 4
REMARK VINA RESULT:    -3.611      2.155      2.723
REMARK INTER + INTRA:          -5.418
REMARK INTER:                  -4.922
REMARK INTRA:                  -0.496
REMARK UNBOUND:                -0.541
REMARK SMILES [NH3+]CCCC[C@@H]([NH3+])C(=O)[O-]
REMARK SMILES IDX 4 1 3 2 2 3 1 4 5 8 6 9 7 10 8 14 9 15 10 16
REMARK H PARENT 1 5 1 6 1 7 7 11 7 12 7 13
REMARK Flexibility Score: inf
ROOT
ATOM      1  C   UNL     1      17.435  30.456  42.380  1.00  0.00     0.012 C 
ENDROOT
BRANCH   1   2
ATOM      2  C   UNL     1      17.239  31.649  43.327  1.00  0.00     0.061 C 
BRANCH   2   3
ATOM      3  C   UNL     1      17.758  31.366  44.747  1.00  0.00     0.258 C 
BRANCH   3   4
ATOM      4  N   UNL     1      19.180  31.687  44.890  1.00  0.00    -0.358 N 
ATOM      5  H   UNL     1      19.332  32.142  45.819  1.00  0.00     0.344 HD
ATOM      6  H   UNL     1      19.483  32.348  44.139  1.00  0.00     0.344 HD
ATOM      7  H   UNL     1      19.755  30.815  44.853  1.00  0.00     0.344 HD
ENDBRANCH   3   4
ENDBRANCH   2   3
ENDBRANCH   1   2
BRANCH   1   8
ATOM      8  C   UNL     1      18.268  30.859  41.153  1.00  0.00     0.072 C 
BRANCH   8   9
ATOM      9  C   UNL     1      19.581  30.053  41.046  1.00  0.00     0.227 C 
BRANCH   9  10
ATOM     10  N   UNL     1      20.220  30.284  39.746  1.00  0.00    -0.350 N 
ATOM     11  H   UNL     1      19.539  30.094  38.976  1.00  0.00     0.345 HD
ATOM     12  H   UNL     1      20.555  31.274  39.670  1.00  0.00     0.345 HD
ATOM     13  H   UNL     1      21.034  29.636  39.629  1.00  0.00     0.345 HD
ENDBRANCH   9  10
BRANCH   9  14
ATOM     14  C   UNL     1      20.531  30.416  42.158  1.00  0.00     0.099 C 
ATOM     15  O   UNL     1      20.896  29.542  42.988  1.00  0.00    -0.544 OA
ATOM     16  O   UNL     1      21.005  31.716  42.279  1.00  0.00    -0.544 OA
ENDBRANCH   9  14
ENDBRANCH   8   9
ENDBRANCH   1   8
TORSDOF 7
ENDMDL
MODEL 5
REMARK VINA RESULT:    -3.587      1.436      3.460
REMARK INTER + INTRA:          -5.386
REMARK INTER:                  -4.889
REMARK INTRA:                  -0.497
REMARK UNBOUND:                -0.541
REMARK SMILES [NH3+]CCCC[C@@H]([NH3+])C(=O)[O-]
REMARK SMILES IDX 4 1 3 2 2 3 1 4 5 8 6 9 7 10 8 14 9 15 10 16
REMARK H PARENT 1 5 1 6 1 7 7 11 7 12 7 13
REMARK Flexibility Score: inf
ROOT
ATOM      1  C   UNL     1      17.776  31.485  44.505  1.00  0.00     0.012 C 
ENDROOT
BRANCH   1   2
ATOM      2  C   UNL     1      18.591  30.204  44.733  1.00  0.00     0.061 C 
BRANCH   2   3
ATOM      3  C   UNL     1      20.089  30.399  44.440  1.00  0.00     0.258 C 
BRANCH   3   4
ATOM      4  N   UNL     1      20.679  29.232  43.781  1.00  0.00    -0.358 N 
ATOM      5  H   UNL     1      21.508  29.542  43.223  1.00  0.00     0.344 HD
ATOM      6  H   UNL     1      19.988  28.788  43.135  1.00  0.00     0.344 HD
ATOM      7  H   UNL     1      21.003  28.538  44.491  1.00  0.00     0.344 HD
ENDBRANCH   3   4
ENDBRANCH   2   3
ENDBRANCH   1   2
BRANCH   1   8
ATOM      8  C   UNL     1      18.049  32.070  43.110  1.00  0.00     0.072 C 
BRANCH   8   9
ATOM      9  C   UNL     1      17.453  31.198  41.984  1.00  0.00     0.227 C 
BRANCH   9  10
ATOM     10  N   UNL     1      16.386  31.924  41.285  1.00  0.00    -0.350 N 
ATOM     11  H   UNL     1      16.639  32.047  40.278  1.00  0.00     0.345 HD
ATOM     12  H   UNL     1      15.480  31.403  41.350  1.00  0.00     0.345 HD
ATOM     13  H   UNL     1      16.266  32.874  41.708  1.00  0.00     0.345 HD
ENDBRANCH   9  10
BRANCH   9  14
ATOM     14  C   UNL     1      18.517  30.779  41.003  1.00  0.00     0.099 C 
ATOM     15  O   UNL     1      19.116  29.682  41.152  1.00  0.00    -0.544 OA
ATOM     16  O   UNL     1      18.846  31.600  39.932  1.00  0.00    -0.544 OA
ENDBRANCH   9  14
ENDBRANCH   8   9
ENDBRANCH   1   8
TORSDOF 7
ENDMDL
MODEL 6
REMARK VINA RESULT:    -3.523      1.774      3.367
REMARK INTER + INTRA:          -5.299
REMARK INTER:                  -4.728
REMARK INTRA:                  -0.572
REMARK UNBOUND:                -0.541
REMARK SMILES [NH3+]CCCC[C@@H]([NH3+])C(=O)[O-]
REMARK SMILES IDX 4 1 3 2 2 3 1 4 5 8 6 9 7 10 8 14 9 15 10 16
REMARK H PARENT 1 5 1 6 1 7 7 11 7 12 7 13
REMARK Flexibility Score: inf
ROOT
ATOM      1  C   UNL     1      18.209  31.665  44.424  1.00  0.00     0.012 C 
ENDROOT
BRANCH   1   2
ATOM      2  C   UNL     1      18.634  30.233  44.783  1.00  0.00     0.061 C 
BRANCH   2   3
ATOM      3  C   UNL     1      20.061  29.906  44.310  1.00  0.00     0.258 C 
BRANCH   3   4
ATOM      4  N   UNL     1      20.071  28.929  43.219  1.00  0.00    -0.358 N 
ATOM      5  H   UNL     1      20.565  29.345  42.397  1.00  0.00     0.344 HD
ATOM      6  H   UNL     1      19.094  28.687  42.936  1.00  0.00     0.344 HD
ATOM      7  H   UNL     1      20.584  28.065  43.509  1.00  0.00     0.344 HD
ENDBRANCH   3   4
ENDBRANCH   2   3
ENDBRANCH   1   2
BRANCH   1   8
ATOM      8  C   UNL     1      17.332  31.677  43.161  1.00  0.00     0.072 C 
BRANCH   8   9
ATOM      9  C   UNL     1      18.019  32.393  41.979  1.00  0.00     0.227 C 
BRANCH   9  10
ATOM     10  N   UNL     1      19.213  33.111  42.439  1.00  0.00    -0.350 N 
ATOM     11  H   UNL     1      19.306  33.019  43.476  1.00  0.00     0.345 HD
ATOM     12  H   UNL     1      20.074  32.727  41.982  1.00  0.00     0.345 HD
ATOM     13  H   UNL     1      19.127  34.128  42.208  1.00  0.00     0.345 HD
ENDBRANCH   9  10
BRANCH   9  14
ATOM     14  C   UNL     1      18.393  31.413  40.896  1.00  0.00     0.099 C 
ATOM     15  O   UNL     1      18.457  30.182  41.153  1.00  0.00    -0.544 OA
ATOM     16  O   UNL     1      18.676  31.862  39.613  1.00  0.00    -0.544 OA
ENDBRANCH   9  14
ENDBRANCH   8   9
ENDBRANCH   1   8
TORSDOF 7
ENDMDL
MODEL 7
REMARK VINA RESULT:    -3.385     21.337     22.807
REMARK INTER + INTRA:          -5.113
REMARK INTER:                  -4.601
REMARK INTRA:                  -0.513
REMARK UNBOUND:                -0.541
REMARK SMILES [NH3+]CCCC[C@@H]([NH3+])C(=O)[O-]
REMARK SMILES IDX 4 1 3 2 2 3 1 4 5 8 6 9 7 10 8 14 9 15 10 16
REMARK H PARENT 1 5 1 6 1 7 7 11 7 12 7 13
REMARK Flexibility Score: inf
ROOT
ATOM      1  C   UNL     1      17.349  44.480  25.162  1.00  0.00     0.012 C 
ENDROOT
BRANCH   1   2
ATOM      2  C   UNL     1      15.936  43.977  25.490  1.00  0.00     0.061 C 
BRANCH   2   3
ATOM      3  C   UNL     1      15.781  43.576  26.967  1.00  0.00     0.258 C 
BRANCH   3   4
ATOM      4  N   UNL     1      15.200  44.651  27.774  1.00  0.00    -0.358 N 
ATOM      5  H   UNL     1      15.137  45.516  27.189  1.00  0.00     0.344 HD
ATOM      6  H   UNL     1      15.802  44.852  28.604  1.00  0.00     0.344 HD
ATOM      7  H   UNL     1      14.236  44.393  28.084  1.00  0.00     0.344 HD
ENDBRANCH   3   4
ENDBRANCH   2   3
ENDBRANCH   1   2
BRANCH   1   8
ATOM      8  C   UNL     1      17.366  46.011  25.016  1.00  0.00     0.072 C 
BRANCH   8   9
ATOM      9  C   UNL     1      18.509  46.662  25.824  1.00  0.00     0.227 C 
BRANCH   9  10
ATOM     10  N   UNL     1      18.398  48.125  25.780  1.00  0.00    -0.350 N 
ATOM     11  H   UNL     1      19.342  48.549  25.636  1.00  0.00     0.345 HD
ATOM     12  H   UNL     1      17.765  48.424  25.001  1.00  0.00     0.345 HD
ATOM     13  H   UNL     1      18.017  48.480  26.688  1.00  0.00     0.345 HD
ENDBRANCH   9  10
BRANCH   9  14
ATOM     14  C   UNL     1      18.499  46.189  27.254  1.00  0.00     0.099 C 
ATOM     15  O   UNL     1      19.453  45.497  27.698  1.00  0.00    -0.544 OA
ATOM     16  O   UNL     1      17.436  46.506  28.090  1.00  0.00    -0.544 OA
ENDBRANCH   9  14
ENDBRANCH   8   9
ENDBRANCH   1   8
TORSDOF 7
ENDMDL
MODEL 8
REMARK VINA RESULT:    -3.335      2.377      3.455
REMARK INTER + INTRA:          -5.046
REMARK INTER:                  -4.548
REMARK INTRA:                  -0.498
REMARK UNBOUND:                -0.541
REMARK SMILES [NH3+]CCCC[C@@H]([NH3+])C(=O)[O-]
REMARK SMILES IDX 4 1 3 2 2 3 1 4 5 8 6 9 7 10 8 14 9 15 10 16
REMARK H PARENT 1 5 1 6 1 7 7 11 7 12 7 13
REMARK Flexibility Score: inf
ROOT
ATOM      1  C   UNL     1      20.485  31.442  42.717  1.00  0.00     0.012 C 
ENDROOT
BRANCH   1   2
ATOM      2  C   UNL     1      21.199  30.692  41.584  1.00  0.00     0.061 C 
BRANCH   2   3
ATOM      3  C   UNL     1      20.343  30.594  40.310  1.00  0.00     0.258 C 
BRANCH   3   4
ATOM      4  N   UNL     1      19.423  29.455  40.349  1.00  0.00    -0.358 N 
ATOM      5  H   UNL     1      18.535  29.720  39.864  1.00  0.00     0.344 HD
ATOM      6  H   UNL     1      19.200  29.198  41.338  1.00  0.00     0.344 HD
ATOM      7  H   UNL     1      19.837  28.635  39.851  1.00  0.00     0.344 HD
ENDBRANCH   3   4
ENDBRANCH   2   3
ENDBRANCH   1   2
BRANCH   1   8
ATOM      8  C   UNL     1      20.133  30.489  43.871  1.00  0.00     0.072 C 
BRANCH   8   9
ATOM      9  C   UNL     1      18.698  30.710  44.395  1.00  0.00     0.227 C 
BRANCH   9  10
ATOM     10  N   UNL     1      18.610  31.980  45.125  1.00  0.00    -0.350 N 
ATOM     11  H   UNL     1      18.333  31.802  46.117  1.00  0.00     0.345 HD
ATOM     12  H   UNL     1      19.530  32.479  45.111  1.00  0.00     0.345 HD
ATOM     13  H   UNL     1      17.881  32.591  44.688  1.00  0.00     0.345 HD
ENDBRANCH   9  10
BRANCH   9  14
ATOM     14  C   UNL     1      17.701  30.695  43.266  1.00  0.00     0.099 C 
ATOM     15  O   UNL     1      17.499  29.637  42.614  1.00  0.00    -0.544 OA
ATOM     16  O   UNL     1      17.002  31.849  42.933  1.00  0.00    -0.544 OA
ENDBRANCH   9  14
ENDBRANCH   8   9
ENDBRANCH   1   8
TORSDOF 7
ENDMDL
MODEL 9
REMARK VINA RESULT:    -3.314     21.026     22.440
REMARK INTER + INTRA:          -5.017
REMARK INTER:                  -4.734
REMARK INTRA:                  -0.283
REMARK UNBOUND:                -0.541
REMARK SMILES [NH3+]CCCC[C@@H]([NH3+])C(=O)[O-]
REMARK SMILES IDX 4 1 3 2 2 3 1 4 5 8 6 9 7 10 8 14 9 15 10 16
REMARK H PARENT 1 5 1 6 1 7 7 11 7 12 7 13
REMARK Flexibility Score: inf
ROOT
ATOM      1  C   UNL     1      17.842  44.771  24.877  1.00  0.00     0.012 C 
ENDROOT
BRANCH   1   2
ATOM      2  C   UNL     1      17.621  46.274  25.104  1.00  0.00     0.061 C 
BRANCH   2   3
ATOM      3  C   UNL     1      18.617  46.870  26.113  1.00  0.00     0.258 C 
BRANCH   3   4
ATOM      4  N   UNL     1      19.202  48.125  25.636  1.00  0.00    -0.358 N 
ATOM      5  H   UNL     1      18.872  48.302  24.659  1.00  0.00     0.344 HD
ATOM      6  H   UNL     1      20.245  48.064  25.632  1.00  0.00     0.344 HD
ATOM      7  H   UNL     1      18.892  48.922  26.236  1.00  0.00     0.344 HD
ENDBRANCH   3   4
ENDBRANCH   2   3
ENDBRANCH   1   2
BRANCH   1   8
ATOM      8  C   UNL     1      16.618  43.960  25.335  1.00  0.00     0.072 C 
BRANCH   8   9
ATOM      9  C   UNL     1      16.806  43.367  26.748  1.00  0.00     0.227 C 
BRANCH   9  10
ATOM     10  N   UNL     1      18.230  43.314  27.096  1.00  0.00    -0.350 N 
ATOM     11  H   UNL     1      18.772  43.963  26.481  1.00  0.00     0.345 HD
ATOM     12  H   UNL     1      18.377  43.589  28.096  1.00  0.00     0.345 HD
ATOM     13  H   UNL     1      18.597  42.345  26.949  1.00  0.00     0.345 HD
ENDBRANCH   9  10
BRANCH   9  14
ATOM     14  C   UNL     1      16.055  44.172  27.777  1.00  0.00     0.099 C 
ATOM     15  O   UNL     1      14.819  43.992  27.941  1.00  0.00    -0.544 OA
ATOM     16  O   UNL     1      16.718  45.119  28.547  1.00  0.00    -0.544 OA
ENDBRANCH   9  14
ENDBRANCH   8   9
ENDBRANCH   1   8
TORSDOF 7
ENDMDL
