MODEL 1
REMARK VINA RESULT:    -4.286      0.000      0.000
REMARK INTER + INTRA:          -6.408
REMARK INTER:                  -6.541
REMARK INTRA:                   0.134
REMARK UNBOUND:                 0.134
REMARK SMILES CC1=CCC[C@@H](C)C(=O)C[C@H](C(C)C)C(=O)C1
REMARK SMILES IDX 8 1 9 2 6 3 7 4 5 5 4 6 3 7 2 8 1 9 10 11 11 12 15 13 16 14
REMARK SMILES IDX 17 15 12 17 13 18 14 19
REMARK H PARENT
REMARK Flexibility Score: 70.00
ROOT
ATOM      1  C   UNL     1      37.944   9.795  28.389  1.00  0.00     0.136 C 
ATOM      2  O   UNL     1      38.326  10.951  28.481  1.00  0.00    -0.299 OA
ENDROOT
BRANCH   1   3
ATOM      3  C   UNL     1      38.948   8.674  28.230  1.00  0.00     0.053 C 
ATOM      4  C   UNL     1      39.707   8.453  29.544  1.00  0.00     0.016 C 
BRANCH   3   5
ATOM      5  C   UNL     1      39.918   8.960  27.048  1.00  0.00     0.015 C 
BRANCH   5   6
ATOM      6  C   UNL     1      39.266   8.795  25.656  1.00  0.00     0.028 C 
BRANCH   6   7
ATOM      7  C   UNL     1      38.267   7.659  25.615  1.00  0.00    -0.028 C 
ATOM      8  C   UNL     1      36.939   7.759  25.358  1.00  0.00    -0.070 CG0
ATOM      9  C   UNL     1      36.118   6.496  25.385  1.00  0.00     0.039 C 
ATOM     10  G   UNL     1      36.229   9.063  25.056  1.00  0.00     0.000 G0
ENDBRANCH   6   7
ENDBRANCH   5   6
ENDBRANCH   3   5
ENDBRANCH   1   3
BRANCH   1  11
ATOM     11  C   UNL     1      36.467   9.504  28.349  1.00  0.00     0.087 C 
BRANCH  11  12
ATOM     12  C   UNL     1      35.750  10.402  27.298  1.00  0.00     0.066 C 
BRANCH  12  13
ATOM     13  C   UNL     1      35.275   9.525  26.148  1.00  0.00     0.140 C 
ATOM     14  O   UNL     1      34.140   9.068  26.177  1.00  0.00    -0.299 OA
BRANCH  13  15
ATOM     15  C   UNL     1      36.205   9.073  25.044  1.00  0.00     0.106 CG0
ATOM     16  G   UNL     1      36.924   7.779  25.368  1.00  0.00     0.000 G0
ENDBRANCH  13  15
ENDBRANCH  12  13
BRANCH  12  17
ATOM     17  C   UNL     1      34.588  11.240  27.926  1.00  0.00    -0.006 C 
ATOM     18  C   UNL     1      33.734  10.386  28.883  1.00  0.00     0.008 C 
ATOM     19  C   UNL     1      35.110  12.462  28.703  1.00  0.00     0.008 C 
ENDBRANCH  12  17
ENDBRANCH  11  12
ENDBRANCH   1  11
TORSDOF 1
ENDMDL
MODEL 2
REMARK VINA RESULT:    -4.282      2.073      4.918
REMARK INTER + INTRA:          -6.401
REMARK INTER:                  -6.234
REMARK INTRA:                  -0.167
REMARK UNBOUND:                 0.134
REMARK SMILES CC1=CCC[C@@H](C)C(=O)C[C@H](C(C)C)C(=O)C1
REMARK SMILES IDX 8 1 9 2 6 3 7 4 5 5 4 6 3 7 2 8 1 9 10 11 11 12 15 13 16 14
REMARK SMILES IDX 17 15 12 17 13 18 14 19
REMARK H PARENT
REMARK Flexibility Score: 70.00
ROOT
ATOM      1  C   UNL     1      35.215   9.042  27.265  1.00  0.00     0.136 C 
ATOM      2  O   UNL     1      34.594   8.912  26.221  1.00  0.00    -0.299 OA
ENDROOT
BRANCH   1   3
ATOM      3  C   UNL     1      34.866  10.162  28.220  1.00  0.00     0.053 C 
ATOM      4  C   UNL     1      33.365  10.470  28.150  1.00  0.00     0.016 C 
BRANCH   3   5
ATOM      5  C   UNL     1      35.726  11.427  27.933  1.00  0.00     0.015 C 
BRANCH   5   6
ATOM      6  C   UNL     1      37.024  11.498  28.769  1.00  0.00     0.028 C 
BRANCH   6   7
ATOM      7  C   UNL     1      38.247  11.762  27.917  1.00  0.00    -0.028 C 
ATOM      8  C   UNL     1      39.092  10.832  27.407  1.00  0.00    -0.070 CG0
ATOM      9  C   UNL     1      40.266  11.316  26.595  1.00  0.00     0.039 C 
ATOM     10  G   UNL     1      38.936   9.339  27.613  1.00  0.00     0.000 G0
ENDBRANCH   6   7
ENDBRANCH   5   6
ENDBRANCH   3   5
ENDBRANCH   1   3
BRANCH   1  11
ATOM     11  C   UNL     1      36.381   8.134  27.552  1.00  0.00     0.087 C 
BRANCH  11  12
ATOM     12  C   UNL     1      37.205   7.859  26.259  1.00  0.00     0.066 C 
BRANCH  12  13
ATOM     13  C   UNL     1      38.550   8.561  26.378  1.00  0.00     0.140 C 
ATOM     14  O   UNL     1      39.387   8.396  25.500  1.00  0.00    -0.299 OA
BRANCH  13  15
ATOM     15  C   UNL     1      38.948   9.335  27.615  1.00  0.00     0.106 CG0
ATOM     16  G   UNL     1      39.093  10.822  27.362  1.00  0.00     0.000 G0
ENDBRANCH  13  15
ENDBRANCH  12  13
BRANCH  12  17
ATOM     17  C   UNL     1      37.355   6.331  25.964  1.00  0.00    -0.006 C 
ATOM     18  C   UNL     1      37.675   5.540  27.247  1.00  0.00     0.008 C 
ATOM     19  C   UNL     1      36.084   5.735  25.333  1.00  0.00     0.008 C 
ENDBRANCH  12  17
ENDBRANCH  11  12
ENDBRANCH   1  11
TORSDOF 1
ENDMDL
MODEL 3
REMARK VINA RESULT:    -4.168      1.689      4.137
REMARK INTER + INTRA:          -6.227
REMARK INTER:                  -6.047
REMARK INTRA:                  -0.180
REMARK UNBOUND:                 0.134
REMARK SMILES CC1=CCC[C@@H](C)C(=O)C[C@H](C(C)C)C(=O)C1
REMARK SMILES IDX 8 1 9 2 6 3 7 4 5 5 4 6 3 7 2 8 1 9 10 11 11 12 15 13 16 14
REMARK SMILES IDX 17 15 12 17 13 18 14 19
REMARK H PARENT
REMARK Flexibility Score: 70.00
ROOT
ATOM      1  C   UNL     1      37.491  10.689  27.699  1.00  0.00     0.136 C 
ATOM      2  O   UNL     1      38.119  10.921  28.721  1.00  0.00    -0.299 OA
ENDROOT
BRANCH   1   3
ATOM      3  C   UNL     1      35.989  10.874  27.674  1.00  0.00     0.053 C 
ATOM      4  C   UNL     1      35.546  11.770  28.838  1.00  0.00     0.016 C 
BRANCH   3   5
ATOM      5  C   UNL     1      35.259   9.500  27.697  1.00  0.00     0.015 C 
BRANCH   5   6
ATOM      6  C   UNL     1      34.819   9.007  26.299  1.00  0.00     0.028 C 
BRANCH   6   7
ATOM      7  C   UNL     1      35.101   7.535  26.089  1.00  0.00    -0.028 C 
ATOM      8  C   UNL     1      36.234   6.994  25.578  1.00  0.00    -0.070 CG0
ATOM      9  C   UNL     1      36.299   5.496  25.437  1.00  0.00     0.039 C 
ATOM     10  G   UNL     1      37.433   7.804  25.127  1.00  0.00     0.000 G0
ENDBRANCH   6   7
ENDBRANCH   5   6
ENDBRANCH   3   5
ENDBRANCH   1   3
BRANCH   1  11
ATOM     11  C   UNL     1      38.209  10.140  26.496  1.00  0.00     0.087 C 
BRANCH  11  12
ATOM     12  C   UNL     1      39.075   8.903  26.880  1.00  0.00     0.066 C 
BRANCH  12  13
ATOM     13  C   UNL     1      38.610   7.707  26.062  1.00  0.00     0.140 C 
ATOM     14  O   UNL     1      39.274   6.679  26.081  1.00  0.00    -0.299 OA
BRANCH  13  15
ATOM     15  C   UNL     1      37.440   7.791  25.108  1.00  0.00     0.106 CG0
ATOM     16  G   UNL     1      36.241   6.985  25.568  1.00  0.00     0.000 G0
ENDBRANCH  13  15
ENDBRANCH  12  13
BRANCH  12  17
ATOM     17  C   UNL     1      40.606   9.176  26.717  1.00  0.00    -0.006 C 
ATOM     18  C   UNL     1      40.870  10.594  26.176  1.00  0.00     0.008 C 
ATOM     19  C   UNL     1      41.367   9.017  28.046  1.00  0.00     0.008 C 
ENDBRANCH  12  17
ENDBRANCH  11  12
ENDBRANCH   1  11
TORSDOF 1
ENDMDL
MODEL 4
REMARK VINA RESULT:    -4.113      1.951      3.663
REMARK INTER + INTRA:          -6.143
REMARK INTER:                  -6.542
REMARK INTRA:                   0.399
REMARK UNBOUND:                 0.134
REMARK SMILES CC1=CCC[C@@H](C)C(=O)C[C@H](C(C)C)C(=O)C1
REMARK SMILES IDX 8 1 9 2 6 3 7 4 5 5 4 6 3 7 2 8 1 9 10 11 11 12 15 13 16 14
REMARK SMILES IDX 17 15 12 17 13 18 14 19
REMARK H PARENT
REMARK Flexibility Score: 70.00
ROOT
ATOM      1  C   UNL     1      37.046   8.678  25.453  1.00  0.00     0.136 C 
ATOM      2  O   UNL     1      38.203   8.813  25.084  1.00  0.00    -0.299 OA
ENDROOT
BRANCH   1   3
ATOM      3  C   UNL     1      36.398   7.312  25.432  1.00  0.00     0.053 C 
ATOM      4  C   UNL     1      35.021   7.368  26.107  1.00  0.00     0.016 C 
BRANCH   3   5
ATOM      5  C   UNL     1      37.319   6.248  26.095  1.00  0.00     0.015 C 
BRANCH   5   6
ATOM      6  C   UNL     1      37.527   6.465  27.611  1.00  0.00     0.028 C 
BRANCH   6   7
ATOM      7  C   UNL     1      38.872   7.084  27.929  1.00  0.00    -0.028 C 
ATOM      8  C   UNL     1      39.090   8.267  28.554  1.00  0.00    -0.070 CG0
ATOM      9  C   UNL     1      40.517   8.706  28.755  1.00  0.00     0.039 C 
ATOM     10  G   UNL     1      37.987   9.180  29.051  1.00  0.00     0.000 G0
ENDBRANCH   6   7
ENDBRANCH   5   6
ENDBRANCH   3   5
ENDBRANCH   1   3
BRANCH   1  11
ATOM     11  C   UNL     1      36.248   9.892  25.848  1.00  0.00     0.087 C 
BRANCH  11  12
ATOM     12  C   UNL     1      36.089   9.976  27.395  1.00  0.00     0.066 C 
BRANCH  12  13
ATOM     13  C   UNL     1      37.467  10.142  28.020  1.00  0.00     0.140 C 
ATOM     14  O   UNL     1      38.223  10.996  27.576  1.00  0.00    -0.299 OA
BRANCH  13  15
ATOM     15  C   UNL     1      37.995   9.189  29.069  1.00  0.00     0.106 CG0
ATOM     16  G   UNL     1      39.096   8.286  28.550  1.00  0.00     0.000 G0
ENDBRANCH  13  15
ENDBRANCH  12  13
BRANCH  12  17
ATOM     17  C   UNL     1      35.099  11.104  27.831  1.00  0.00    -0.006 C 
ATOM     18  C   UNL     1      33.704  10.533  28.151  1.00  0.00     0.008 C 
ATOM     19  C   UNL     1      35.602  11.870  29.067  1.00  0.00     0.008 C 
ENDBRANCH  12  17
ENDBRANCH  11  12
ENDBRANCH   1  11
TORSDOF 1
ENDMDL
MODEL 5
REMARK VINA RESULT:    -4.008      2.292      5.177
REMARK INTER + INTRA:          -5.984
REMARK INTER:                  -5.732
REMARK INTRA:                  -0.252
REMARK UNBOUND:                 0.134
REMARK SMILES CC1=CCC[C@@H](C)C(=O)C[C@H](C(C)C)C(=O)C1
REMARK SMILES IDX 8 1 9 2 6 3 7 4 5 5 4 6 3 7 2 8 1 9 10 11 11 12 15 13 16 14
REMARK SMILES IDX 17 15 12 17 13 18 14 19
REMARK H PARENT
REMARK Flexibility Score: 70.00
ROOT
ATOM      1  C   UNL     1      35.968   7.567  26.686  1.00  0.00     0.136 C 
ATOM      2  O   UNL     1      34.963   7.158  26.124  1.00  0.00    -0.299 OA
ENDROOT
BRANCH   1   3
ATOM      3  C   UNL     1      36.207   9.055  26.823  1.00  0.00     0.053 C 
ATOM      4  C   UNL     1      35.105   9.692  27.679  1.00  0.00     0.016 C 
BRANCH   3   5
ATOM      5  C   UNL     1      36.314   9.732  25.426  1.00  0.00     0.015 C 
BRANCH   5   6
ATOM      6  C   UNL     1      37.758   9.802  24.878  1.00  0.00     0.028 C 
BRANCH   6   7
ATOM      7  C   UNL     1      38.755  10.239  25.929  1.00  0.00    -0.028 C 
ATOM      8  C   UNL     1      39.807   9.521  26.394  1.00  0.00    -0.070 CG0
ATOM      9  C   UNL     1      40.670  10.143  27.461  1.00  0.00     0.039 C 
ATOM     10  G   UNL     1      40.161   8.127  25.915  1.00  0.00     0.000 G0
ENDBRANCH   6   7
ENDBRANCH   5   6
ENDBRANCH   3   5
ENDBRANCH   1   3
BRANCH   1  11
ATOM     11  C   UNL     1      37.002   6.584  27.164  1.00  0.00     0.087 C 
BRANCH  11  12
ATOM     12  C   UNL     1      38.136   6.410  26.110  1.00  0.00     0.066 C 
BRANCH  12  13
ATOM     13  C   UNL     1      39.413   7.029  26.660  1.00  0.00     0.140 C 
ATOM     14  O   UNL     1      39.781   6.730  27.788  1.00  0.00    -0.299 OA
BRANCH  13  15
ATOM     15  C   UNL     1      40.164   8.115  25.922  1.00  0.00     0.106 CG0
ATOM     16  G   UNL     1      39.816   9.509  26.404  1.00  0.00     0.000 G0
ENDBRANCH  13  15
ENDBRANCH  12  13
BRANCH  12  17
ATOM     17  C   UNL     1      38.332   4.918  25.687  1.00  0.00    -0.006 C 
ATOM     18  C   UNL     1      38.101   3.963  26.875  1.00  0.00     0.008 C 
ATOM     19  C   UNL     1      37.381   4.509  24.548  1.00  0.00     0.008 C 
ENDBRANCH  12  17
ENDBRANCH  11  12
ENDBRANCH   1  11
TORSDOF 1
ENDMDL
MODEL 6
REMARK VINA RESULT:    -3.958      2.086      3.845
REMARK INTER + INTRA:          -5.907
REMARK INTER:                  -5.617
REMARK INTRA:                  -0.289
REMARK UNBOUND:                 0.134
REMARK SMILES CC1=CCC[C@@H](C)C(=O)C[C@H](C(C)C)C(=O)C1
REMARK SMILES IDX 8 1 9 2 6 3 7 4 5 5 4 6 3 7 2 8 1 9 10 11 11 12 15 13 16 14
REMARK SMILES IDX 17 15 12 17 13 18 14 19
REMARK H PARENT
REMARK Flexibility Score: 70.00
ROOT
ATOM      1  C   UNL     1      36.457   7.051  25.610  1.00  0.00     0.136 C 
ATOM      2  O   UNL     1      35.377   6.499  25.757  1.00  0.00    -0.299 OA
ENDROOT
BRANCH   1   3
ATOM      3  C   UNL     1      37.740   6.268  25.790  1.00  0.00     0.053 C 
ATOM      4  C   UNL     1      37.751   5.048  24.860  1.00  0.00     0.016 C 
BRANCH   3   5
ATOM      5  C   UNL     1      37.937   5.858  27.277  1.00  0.00     0.015 C 
BRANCH   5   6
ATOM      6  C   UNL     1      39.090   6.610  27.981  1.00  0.00     0.028 C 
BRANCH   6   7
ATOM      7  C   UNL     1      40.134   7.110  27.007  1.00  0.00    -0.028 C 
ATOM      8  C   UNL     1      40.345   8.398  26.638  1.00  0.00    -0.070 CG0
ATOM      9  C   UNL     1      41.434   8.675  25.635  1.00  0.00     0.039 C 
ATOM     10  G   UNL     1      39.545   9.573  27.163  1.00  0.00     0.000 G0
ENDBRANCH   6   7
ENDBRANCH   5   6
ENDBRANCH   3   5
ENDBRANCH   1   3
BRANCH   1  11
ATOM     11  C   UNL     1      36.502   8.530  25.332  1.00  0.00     0.087 C 
BRANCH  11  12
ATOM     12  C   UNL     1      36.967   9.319  26.591  1.00  0.00     0.066 C 
BRANCH  12  13
ATOM     13  C   UNL     1      38.340   9.916  26.315  1.00  0.00     0.140 C 
ATOM     14  O   UNL     1      38.506  10.584  25.303  1.00  0.00    -0.299 OA
BRANCH  13  15
ATOM     15  C   UNL     1      39.546   9.587  27.166  1.00  0.00     0.106 CG0
ATOM     16  G   UNL     1      40.335   8.403  26.644  1.00  0.00     0.000 G0
ENDBRANCH  13  15
ENDBRANCH  12  13
BRANCH  12  17
ATOM     17  C   UNL     1      35.927  10.400  27.033  1.00  0.00    -0.006 C 
ATOM     18  C   UNL     1      34.527   9.786  27.226  1.00  0.00     0.008 C 
ATOM     19  C   UNL     1      36.335  11.095  28.344  1.00  0.00     0.008 C 
ENDBRANCH  12  17
ENDBRANCH  11  12
ENDBRANCH   1  11
TORSDOF 1
ENDMDL
MODEL 7
REMARK VINA RESULT:    -3.908      2.061      2.967
REMARK INTER + INTRA:          -5.831
REMARK INTER:                  -5.923
REMARK INTRA:                   0.092
REMARK UNBOUND:                 0.134
REMARK SMILES CC1=CCC[C@@H](C)C(=O)C[C@H](C(C)C)C(=O)C1
REMARK SMILES IDX 8 1 9 2 6 3 7 4 5 5 4 6 3 7 2 8 1 9 10 11 11 12 15 13 16 14
REMARK SMILES IDX 17 15 12 17 13 18 14 19
REMARK H PARENT
REMARK Flexibility Score: 70.00
ROOT
ATOM      1  C   UNL     1      37.287   7.098  27.568  1.00  0.00     0.136 C 
ATOM      2  O   UNL     1      37.852   7.339  28.625  1.00  0.00    -0.299 OA
ENDROOT
BRANCH   1   3
ATOM      3  C   UNL     1      37.832   6.033  26.643  1.00  0.00     0.053 C 
ATOM      4  C   UNL     1      37.422   4.640  27.138  1.00  0.00     0.016 C 
BRANCH   3   5
ATOM      5  C   UNL     1      39.376   6.158  26.498  1.00  0.00     0.015 C 
BRANCH   5   6
ATOM      6  C   UNL     1      39.820   7.290  25.543  1.00  0.00     0.028 C 
BRANCH   6   7
ATOM      7  C   UNL     1      40.065   8.596  26.267  1.00  0.00    -0.028 C 
ATOM      8  C   UNL     1      39.444   9.779  26.035  1.00  0.00    -0.070 CG0
ATOM      9  C   UNL     1      39.854  10.967  26.865  1.00  0.00     0.039 C 
ATOM     10  G   UNL     1      38.372   9.981  24.983  1.00  0.00     0.000 G0
ENDBRANCH   6   7
ENDBRANCH   5   6
ENDBRANCH   3   5
ENDBRANCH   1   3
BRANCH   1  11
ATOM     11  C   UNL     1      36.098   7.926  27.159  1.00  0.00     0.087 C 
BRANCH  11  12
ATOM     12  C   UNL     1      36.529   9.377  26.794  1.00  0.00     0.066 C 
BRANCH  12  13
ATOM     13  C   UNL     1      37.021   9.394  25.354  1.00  0.00     0.140 C 
ATOM     14  O   UNL     1      36.371   8.811  24.496  1.00  0.00    -0.299 OA
BRANCH  13  15
ATOM     15  C   UNL     1      38.363   9.976  24.968  1.00  0.00     0.106 CG0
ATOM     16  G   UNL     1      39.424   9.775  26.032  1.00  0.00     0.000 G0
ENDBRANCH  13  15
ENDBRANCH  12  13
BRANCH  12  17
ATOM     17  C   UNL     1      35.388  10.417  27.044  1.00  0.00    -0.006 C 
ATOM     18  C   UNL     1      34.010   9.730  27.125  1.00  0.00     0.008 C 
ATOM     19  C   UNL     1      35.606  11.215  28.342  1.00  0.00     0.008 C 
ENDBRANCH  12  17
ENDBRANCH  11  12
ENDBRANCH   1  11
TORSDOF 1
ENDMDL
MODEL 8
REMARK VINA RESULT:    -3.789      1.897      2.551
REMARK INTER + INTRA:          -5.649
REMARK INTER:                  -5.452
REMARK INTRA:                  -0.196
REMARK UNBOUND:                 0.134
REMARK SMILES CC1=CCC[C@@H](C)C(=O)C[C@H](C(C)C)C(=O)C1
REMARK SMILES IDX 8 1 9 2 6 3 7 4 5 5 4 6 3 7 2 8 1 9 10 11 11 12 15 13 16 14
REMARK SMILES IDX 17 15 12 17 13 18 14 19
REMARK H PARENT
REMARK Flexibility Score: 70.00
ROOT
ATOM      1  C   UNL     1      39.828   9.529  28.027  1.00  0.00     0.136 C 
ATOM      2  O   UNL     1      39.904  10.656  27.560  1.00  0.00    -0.299 OA
ENDROOT
BRANCH   1   3
ATOM      3  C   UNL     1      41.033   8.615  28.002  1.00  0.00     0.053 C 
ATOM      4  C   UNL     1      42.004   8.987  29.129  1.00  0.00     0.016 C 
BRANCH   3   5
ATOM      5  C   UNL     1      41.728   8.648  26.610  1.00  0.00     0.015 C 
BRANCH   5   6
ATOM      6  C   UNL     1      40.923   7.941  25.496  1.00  0.00     0.028 C 
BRANCH   6   7
ATOM      7  C   UNL     1      40.414   6.581  25.924  1.00  0.00    -0.028 C 
ATOM      8  C   UNL     1      39.118   6.197  26.024  1.00  0.00    -0.070 CG0
ATOM      9  C   UNL     1      38.831   4.793  26.488  1.00  0.00     0.039 C 
ATOM     10  G   UNL     1      37.940   7.097  25.709  1.00  0.00     0.000 G0
ENDBRANCH   6   7
ENDBRANCH   5   6
ENDBRANCH   3   5
ENDBRANCH   1   3
BRANCH   1  11
ATOM     11  C   UNL     1      38.506   9.031  28.549  1.00  0.00     0.087 C 
BRANCH  11  12
ATOM     12  C   UNL     1      37.422   9.053  27.431  1.00  0.00     0.066 C 
BRANCH  12  13
ATOM     13  C   UNL     1      37.214   7.633  26.924  1.00  0.00     0.140 C 
ATOM     14  O   UNL     1      36.543   6.856  27.590  1.00  0.00    -0.299 OA
BRANCH  13  15
ATOM     15  C   UNL     1      37.931   7.100  25.703  1.00  0.00     0.106 CG0
ATOM     16  G   UNL     1      39.109   6.211  26.049  1.00  0.00     0.000 G0
ENDBRANCH  13  15
ENDBRANCH  12  13
BRANCH  12  17
ATOM     17  C   UNL     1      36.089   9.715  27.908  1.00  0.00    -0.006 C 
ATOM     18  C   UNL     1      36.344  11.096  28.542  1.00  0.00     0.008 C 
ATOM     19  C   UNL     1      35.085   9.892  26.754  1.00  0.00     0.008 C 
ENDBRANCH  12  17
ENDBRANCH  11  12
ENDBRANCH   1  11
TORSDOF 1
ENDMDL
MODEL 9
REMARK VINA RESULT:    -3.598      2.217      4.604
REMARK INTER + INTRA:          -5.358
REMARK INTER:                  -5.227
REMARK INTRA:                  -0.131
REMARK UNBOUND:                 0.134
REMARK SMILES CC1=CCC[C@@H](C)C(=O)C[C@H](C(C)C)C(=O)C1
REMARK SMILES IDX 8 1 9 2 6 3 7 4 5 5 4 6 3 7 2 8 1 9 10 11 11 12 15 13 16 14
REMARK SMILES IDX 17 15 12 17 13 18 14 19
REMARK H PARENT
REMARK Flexibility Score: 70.00
ROOT
ATOM      1  C   UNL     1      40.256   8.833  26.567  1.00  0.00     0.136 C 
ATOM      2  O   UNL     1      41.316   8.675  27.155  1.00  0.00    -0.299 OA
ENDROOT
BRANCH   1   3
ATOM      3  C   UNL     1      39.478  10.118  26.740  1.00  0.00     0.053 C 
ATOM      4  C   UNL     1      40.250  11.293  26.126  1.00  0.00     0.016 C 
BRANCH   3   5
ATOM      5  C   UNL     1      39.146  10.371  28.239  1.00  0.00     0.015 C 
BRANCH   5   6
ATOM      6  C   UNL     1      37.924   9.573  28.748  1.00  0.00     0.028 C 
BRANCH   6   7
ATOM      7  C   UNL     1      36.711   9.742  27.859  1.00  0.00    -0.028 C 
ATOM      8  C   UNL     1      36.035   8.757  27.217  1.00  0.00    -0.070 CG0
ATOM      9  C   UNL     1      34.859   9.149  26.362  1.00  0.00     0.039 C 
ATOM     10  G   UNL     1      36.398   7.288  27.298  1.00  0.00     0.000 G0
ENDBRANCH   6   7
ENDBRANCH   5   6
ENDBRANCH   3   5
ENDBRANCH   1   3
BRANCH   1  11
ATOM     11  C   UNL     1      39.694   7.708  25.740  1.00  0.00     0.087 C 
BRANCH  11  12
ATOM     12  C   UNL     1      38.889   6.713  26.626  1.00  0.00     0.066 C 
BRANCH  12  13
ATOM     13  C   UNL     1      37.410   6.842  26.288  1.00  0.00     0.140 C 
ATOM     14  O   UNL     1      37.052   6.707  25.126  1.00  0.00    -0.299 OA
BRANCH  13  15
ATOM     15  C   UNL     1      36.386   7.280  27.311  1.00  0.00     0.106 CG0
ATOM     16  G   UNL     1      36.043   8.753  27.213  1.00  0.00     0.000 G0
ENDBRANCH  13  15
ENDBRANCH  12  13
BRANCH  12  17
ATOM     17  C   UNL     1      39.404   5.243  26.488  1.00  0.00    -0.006 C 
ATOM     18  C   UNL     1      38.305   4.226  26.853  1.00  0.00     0.008 C 
ATOM     19  C   UNL     1      39.895   4.933  25.063  1.00  0.00     0.008 C 
ENDBRANCH  12  17
ENDBRANCH  11  12
ENDBRANCH   1  11
TORSDOF 1
ENDMDL
