MODEL 1
REMARK VINA RESULT:    -5.410      0.000      0.000
REMARK INTER + INTRA:          -8.947
REMARK INTER:                  -8.414
REMARK INTRA:                  -0.533
REMARK UNBOUND:                -0.533
REMARK SMILES COc1cc(CNC(=O)CCCCC=CC(C)C)ccc1O
REMARK SMILES IDX 11 1 12 2 13 3 14 4 15 5 16 6 17 7 18 8 10 9 8 10 9 11 7 12
REMARK SMILES IDX 6 14 5 15 4 16 19 17 3 18 20 19 21 20 2 21 1 22 22 23
REMARK H PARENT 7 13 22 24
REMARK Flexibility Score: inf
ROOT
ATOM      1  C   UNL     1     115.119 255.865 336.794  1.00  0.00     0.010 C 
ENDROOT
BRANCH   1   2
ATOM      2  C   UNL     1     114.342 257.164 336.493  1.00  0.00     0.005 C 
BRANCH   2   3
ATOM      3  C   UNL     1     113.010 256.948 335.753  1.00  0.00     0.027 C 
BRANCH   3   4
ATOM      4  C   UNL     1     113.080 257.353 334.306  1.00  0.00    -0.031 C 
ATOM      5  C   UNL     1     113.387 256.471 333.341  1.00  0.00    -0.028 C 
BRANCH   5   6
ATOM      6  C   UNL     1     113.442 256.846 331.877  1.00  0.00     0.005 C 
ATOM      7  C   UNL     1     112.111 256.554 331.174  1.00  0.00     0.012 C 
ATOM      8  C   UNL     1     114.610 256.152 331.168  1.00  0.00     0.012 C 
ENDBRANCH   5   6
ENDBRANCH   3   4
ENDBRANCH   2   3
ENDBRANCH   1   2
BRANCH   1   9
ATOM      9  C   UNL     1     116.523 256.089 337.376  1.00  0.00     0.100 C 
BRANCH   9  10
ATOM     10  C   UNL     1     116.854 255.085 338.442  1.00  0.00     0.220 C 
ATOM     11  O   UNL     1     117.957 254.477 338.398  1.00  0.00    -0.275 OA
ATOM     12  N   UNL     1     115.939 254.848 339.521  1.00  0.00    -0.352 N 
ATOM     13  H   UNL     1     115.043 255.384 339.558  1.00  0.00     0.163 HD
BRANCH  12  14
ATOM     14  C   UNL     1     116.216 253.887 340.586  1.00  0.00     0.151 C 
BRANCH  14  15
ATOM     15  C   UNL     1     115.062 253.828 341.549  1.00  0.00    -0.025 A 
ATOM     16  C   UNL     1     115.047 254.664 342.678  1.00  0.00     0.056 A 
ATOM     17  C   UNL     1     113.984 252.962 341.318  1.00  0.00     0.009 A 
ATOM     18  C   UNL     1     113.961 254.633 343.575  1.00  0.00     0.160 A 
ATOM     19  C   UNL     1     112.906 252.927 342.205  1.00  0.00     0.050 A 
ATOM     20  C   UNL     1     112.892 253.759 343.332  1.00  0.00     0.157 A 
BRANCH  18  21
ATOM     21  O   UNL     1     113.909 255.454 344.713  1.00  0.00    -0.493 OA
ATOM     22  C   UNL     1     115.001 256.228 345.200  1.00  0.00     0.278 C 
ENDBRANCH  18  21
BRANCH  20  23
ATOM     23  O   UNL     1     111.815 253.723 344.218  1.00  0.00    -0.504 OA
ATOM     24  H   UNL     1     111.206 254.523 344.344  1.00  0.00     0.293 HD
ENDBRANCH  20  23
ENDBRANCH  14  15
ENDBRANCH  12  14
ENDBRANCH   9  10
ENDBRANCH   1   9
TORSDOF 10
ENDMDL
MODEL 2
REMARK VINA RESULT:    -4.678      2.983      9.062
REMARK INTER + INTRA:          -7.809
REMARK INTER:                  -7.284
REMARK INTRA:                  -0.524
REMARK UNBOUND:                -0.533
REMARK SMILES COc1cc(CNC(=O)CCCCC=CC(C)C)ccc1O
REMARK SMILES IDX 11 1 12 2 13 3 14 4 15 5 16 6 17 7 18 8 10 9 8 10 9 11 7 12
REMARK SMILES IDX 6 14 5 15 4 16 19 17 3 18 20 19 21 20 2 21 1 22 22 23
REMARK H PARENT 7 13 22 24
REMARK Flexibility Score: inf
ROOT
ATOM      1  C   UNL     1     117.793 254.299 339.248  1.00  0.00     0.010 C 
ENDROOT
BRANCH   1   2
ATOM      2  C   UNL     1     117.075 253.944 340.566  1.00  0.00     0.005 C 
BRANCH   2   3
ATOM      3  C   UNL     1     115.543 253.858 340.450  1.00  0.00     0.027 C 
BRANCH   3   4
ATOM      4  C   UNL     1     114.847 254.157 341.750  1.00  0.00    -0.031 C 
ATOM      5  C   UNL     1     113.824 253.406 342.191  1.00  0.00    -0.028 C 
BRANCH   5   6
ATOM      6  C   UNL     1     113.122 253.672 343.504  1.00  0.00     0.005 C 
ATOM      7  C   UNL     1     111.636 253.983 343.290  1.00  0.00     0.012 C 
ATOM      8  C   UNL     1     113.816 254.790 344.291  1.00  0.00     0.012 C 
ENDBRANCH   5   6
ENDBRANCH   3   4
ENDBRANCH   2   3
ENDBRANCH   1   2
BRANCH   1   9
ATOM      9  C   UNL     1     116.896 254.234 338.002  1.00  0.00     0.100 C 
BRANCH   9  10
ATOM     10  C   UNL     1     116.381 255.589 337.611  1.00  0.00     0.220 C 
ATOM     11  O   UNL     1     117.089 256.607 337.837  1.00  0.00    -0.275 OA
ATOM     12  N   UNL     1     115.113 255.719 336.953  1.00  0.00    -0.352 N 
ATOM     13  H   UNL     1     114.554 254.861 336.746  1.00  0.00     0.163 HD
BRANCH  12  14
ATOM     14  C   UNL     1     114.571 257.013 336.547  1.00  0.00     0.151 C 
BRANCH  14  15
ATOM     15  C   UNL     1     113.797 256.875 335.265  1.00  0.00    -0.025 A 
ATOM     16  C   UNL     1     114.245 257.522 334.102  1.00  0.00     0.056 A 
ATOM     17  C   UNL     1     112.641 256.083 335.211  1.00  0.00     0.009 A 
ATOM     18  C   UNL     1     113.540 257.383 332.890  1.00  0.00     0.160 A 
ATOM     19  C   UNL     1     111.938 255.943 334.013  1.00  0.00     0.050 A 
ATOM     20  C   UNL     1     112.384 256.590 332.853  1.00  0.00     0.157 A 
BRANCH  18  21
ATOM     21  O   UNL     1     113.956 258.013 331.706  1.00  0.00    -0.493 OA
ATOM     22  C   UNL     1     115.247 257.862 331.123  1.00  0.00     0.278 C 
ENDBRANCH  18  21
BRANCH  20  23
ATOM     23  O   UNL     1     111.681 256.450 331.657  1.00  0.00    -0.504 OA
ATOM     24  H   UNL     1     111.956 256.948 330.819  1.00  0.00     0.293 HD
ENDBRANCH  20  23
ENDBRANCH  14  15
ENDBRANCH  12  14
ENDBRANCH   9  10
ENDBRANCH   1   9
TORSDOF 10
ENDMDL
MODEL 3
REMARK VINA RESULT:    -4.226      4.024      7.241
REMARK INTER + INTRA:          -7.107
REMARK INTER:                  -6.586
REMARK INTRA:                  -0.521
REMARK UNBOUND:                -0.533
REMARK SMILES COc1cc(CNC(=O)CCCCC=CC(C)C)ccc1O
REMARK SMILES IDX 11 1 12 2 13 3 14 4 15 5 16 6 17 7 18 8 10 9 8 10 9 11 7 12
REMARK SMILES IDX 6 14 5 15 4 16 19 17 3 18 20 19 21 20 2 21 1 22 22 23
REMARK H PARENT 7 13 22 24
REMARK Flexibility Score: inf
ROOT
ATOM      1  C   UNL     1     113.914 253.353 342.529  1.00  0.00     0.010 C 
ENDROOT
BRANCH   1   2
ATOM      2  C   UNL     1     114.693 254.329 341.624  1.00  0.00     0.005 C 
BRANCH   2   3
ATOM      3  C   UNL     1     115.948 253.722 340.971  1.00  0.00     0.027 C 
BRANCH   3   4
ATOM      4  C   UNL     1     116.488 254.574 339.854  1.00  0.00    -0.031 C 
ATOM      5  C   UNL     1     117.725 254.391 339.363  1.00  0.00    -0.028 C 
BRANCH   5   6
ATOM      6  C   UNL     1     118.284 255.217 338.227  1.00  0.00     0.005 C 
ATOM      7  C   UNL     1     119.200 256.333 338.744  1.00  0.00     0.012 C 
ATOM      8  C   UNL     1     117.163 255.782 337.346  1.00  0.00     0.012 C 
ENDBRANCH   5   6
ENDBRANCH   3   4
ENDBRANCH   2   3
ENDBRANCH   1   2
BRANCH   1   9
ATOM      9  C   UNL     1     114.026 253.658 344.031  1.00  0.00     0.100 C 
BRANCH   9  10
ATOM     10  C   UNL     1     113.999 255.134 344.306  1.00  0.00     0.220 C 
ATOM     11  O   UNL     1     112.964 255.796 344.024  1.00  0.00    -0.275 OA
ATOM     12  N   UNL     1     115.126 255.777 344.918  1.00  0.00    -0.352 N 
ATOM     13  H   UNL     1     115.964 255.206 345.173  1.00  0.00     0.163 HD
BRANCH  12  14
ATOM     14  C   UNL     1     115.147 257.208 345.212  1.00  0.00     0.151 C 
BRANCH  14  15
ATOM     15  C   UNL     1     115.893 257.466 346.492  1.00  0.00    -0.025 A 
ATOM     16  C   UNL     1     115.189 257.597 347.700  1.00  0.00     0.056 A 
ATOM     17  C   UNL     1     117.293 257.552 346.497  1.00  0.00     0.009 A 
ATOM     18  C   UNL     1     115.879 257.818 348.909  1.00  0.00     0.160 A 
ATOM     19  C   UNL     1     117.980 257.773 347.692  1.00  0.00     0.050 A 
ATOM     20  C   UNL     1     117.278 257.906 348.897  1.00  0.00     0.157 A 
BRANCH  18  21
ATOM     21  O   UNL     1     115.211 257.953 350.136  1.00  0.00    -0.493 OA
ATOM     22  C   UNL     1     114.718 256.864 350.910  1.00  0.00     0.278 C 
ENDBRANCH  18  21
BRANCH  20  23
ATOM     23  O   UNL     1     117.966 258.125 350.090  1.00  0.00    -0.504 OA
ATOM     24  H   UNL     1     117.998 259.040 350.523  1.00  0.00     0.293 HD
ENDBRANCH  20  23
ENDBRANCH  14  15
ENDBRANCH  12  14
ENDBRANCH   9  10
ENDBRANCH   1   9
TORSDOF 10
ENDMDL
MODEL 4
REMARK VINA RESULT:    -3.524      1.275      2.221
REMARK INTER + INTRA:          -6.014
REMARK INTER:                  -5.323
REMARK INTRA:                  -0.691
REMARK UNBOUND:                -0.533
REMARK SMILES COc1cc(CNC(=O)CCCCC=CC(C)C)ccc1O
REMARK SMILES IDX 11 1 12 2 13 3 14 4 15 5 16 6 17 7 18 8 10 9 8 10 9 11 7 12
REMARK SMILES IDX 6 14 5 15 4 16 19 17 3 18 20 19 21 20 2 21 1 22 22 23
REMARK H PARENT 7 13 22 24
REMARK Flexibility Score: inf
ROOT
ATOM      1  C   UNL     1     117.970 255.465 337.897  1.00  0.00     0.010 C 
ENDROOT
BRANCH   1   2
ATOM      2  C   UNL     1     116.788 256.329 337.411  1.00  0.00     0.005 C 
BRANCH   2   3
ATOM      3  C   UNL     1     115.545 255.523 336.994  1.00  0.00     0.027 C 
BRANCH   3   4
ATOM      4  C   UNL     1     114.498 256.377 336.331  1.00  0.00    -0.031 C 
ATOM      5  C   UNL     1     113.660 255.876 335.408  1.00  0.00    -0.028 C 
BRANCH   5   6
ATOM      6  C   UNL     1     112.586 256.707 334.744  1.00  0.00     0.005 C 
ATOM      7  C   UNL     1     113.070 257.283 333.408  1.00  0.00     0.012 C 
ATOM      8  C   UNL     1     112.080 257.814 335.676  1.00  0.00     0.012 C 
ENDBRANCH   5   6
ENDBRANCH   3   4
ENDBRANCH   2   3
ENDBRANCH   1   2
BRANCH   1   9
ATOM      9  C   UNL     1     118.101 255.375 339.425  1.00  0.00     0.100 C 
BRANCH   9  10
ATOM     10  C   UNL     1     117.421 254.153 339.974  1.00  0.00     0.220 C 
ATOM     11  O   UNL     1     118.082 253.089 340.112  1.00  0.00    -0.275 OA
ATOM     12  N   UNL     1     116.044 254.209 340.371  1.00  0.00    -0.352 N 
ATOM     13  H   UNL     1     115.521 255.109 340.279  1.00  0.00     0.163 HD
BRANCH  12  14
ATOM     14  C   UNL     1     115.339 253.051 340.917  1.00  0.00     0.151 C 
BRANCH  14  15
ATOM     15  C   UNL     1     114.320 253.491 341.931  1.00  0.00    -0.025 A 
ATOM     16  C   UNL     1     114.663 254.446 342.901  1.00  0.00     0.056 A 
ATOM     17  C   UNL     1     113.016 252.974 341.903  1.00  0.00     0.009 A 
ATOM     18  C   UNL     1     113.710 254.883 343.843  1.00  0.00     0.160 A 
ATOM     19  C   UNL     1     112.069 253.402 342.835  1.00  0.00     0.050 A 
ATOM     20  C   UNL     1     112.412 254.354 343.805  1.00  0.00     0.157 A 
BRANCH  18  21
ATOM     21  O   UNL     1     114.015 255.836 344.828  1.00  0.00    -0.493 OA
ATOM     22  C   UNL     1     115.333 256.148 345.268  1.00  0.00     0.278 C 
ENDBRANCH  18  21
BRANCH  20  23
ATOM     23  O   UNL     1     111.465 254.781 344.735  1.00  0.00    -0.504 OA
ATOM     24  H   UNL     1     110.643 254.228 344.947  1.00  0.00     0.293 HD
ENDBRANCH  20  23
ENDBRANCH  14  15
ENDBRANCH  12  14
ENDBRANCH   9  10
ENDBRANCH   1   9
TORSDOF 10
ENDMDL
MODEL 5
REMARK VINA RESULT:    -3.254      3.121      8.030
REMARK INTER + INTRA:          -5.594
REMARK INTER:                  -4.967
REMARK INTRA:                  -0.627
REMARK UNBOUND:                -0.533
REMARK SMILES COc1cc(CNC(=O)CCCCC=CC(C)C)ccc1O
REMARK SMILES IDX 11 1 12 2 13 3 14 4 15 5 16 6 17 7 18 8 10 9 8 10 9 11 7 12
REMARK SMILES IDX 6 14 5 15 4 16 19 17 3 18 20 19 21 20 2 21 1 22 22 23
REMARK H PARENT 7 13 22 24
REMARK Flexibility Score: inf
ROOT
ATOM      1  C   UNL     1     117.603 253.405 339.541  1.00  0.00     0.010 C 
ENDROOT
BRANCH   1   2
ATOM      2  C   UNL     1     116.706 254.216 340.499  1.00  0.00     0.005 C 
BRANCH   2   3
ATOM      3  C   UNL     1     115.253 253.714 340.583  1.00  0.00     0.027 C 
BRANCH   3   4
ATOM      4  C   UNL     1     114.560 254.158 341.843  1.00  0.00    -0.031 C 
ATOM      5  C   UNL     1     113.497 253.498 342.332  1.00  0.00    -0.028 C 
BRANCH   5   6
ATOM      6  C   UNL     1     112.797 253.909 343.607  1.00  0.00     0.005 C 
ATOM      7  C   UNL     1     111.387 254.443 343.324  1.00  0.00     0.012 C 
ATOM      8  C   UNL     1     113.628 254.927 344.396  1.00  0.00     0.012 C 
ENDBRANCH   5   6
ENDBRANCH   3   4
ENDBRANCH   2   3
ENDBRANCH   1   2
BRANCH   1   9
ATOM      9  C   UNL     1     118.452 254.264 338.591  1.00  0.00     0.100 C 
BRANCH   9  10
ATOM     10  C   UNL     1     117.832 255.609 338.348  1.00  0.00     0.220 C 
ATOM     11  O   UNL     1     118.402 256.642 338.791  1.00  0.00    -0.275 OA
ATOM     12  N   UNL     1     116.621 255.720 337.586  1.00  0.00    -0.352 N 
ATOM     13  H   UNL     1     116.179 254.856 337.200  1.00  0.00     0.163 HD
BRANCH  12  14
ATOM     14  C   UNL     1     115.981 257.006 337.316  1.00  0.00     0.151 C 
BRANCH  14  15
ATOM     15  C   UNL     1     114.725 256.805 336.514  1.00  0.00    -0.025 A 
ATOM     16  C   UNL     1     114.368 255.517 336.081  1.00  0.00     0.056 A 
ATOM     17  C   UNL     1     113.889 257.890 336.214  1.00  0.00     0.009 A 
ATOM     18  C   UNL     1     113.182 255.313 335.347  1.00  0.00     0.160 A 
ATOM     19  C   UNL     1     112.714 257.693 335.486  1.00  0.00     0.050 A 
ATOM     20  C   UNL     1     112.359 256.409 335.052  1.00  0.00     0.157 A 
BRANCH  18  21
ATOM     21  O   UNL     1     112.791 254.042 334.897  1.00  0.00    -0.493 OA
ATOM     22  C   UNL     1     113.065 252.825 335.584  1.00  0.00     0.278 C 
ENDBRANCH  18  21
BRANCH  20  23
ATOM     23  O   UNL     1     111.185 256.213 334.325  1.00  0.00    -0.504 OA
ATOM     24  H   UNL     1     110.469 256.929 334.271  1.00  0.00     0.293 HD
ENDBRANCH  20  23
ENDBRANCH  14  15
ENDBRANCH  12  14
ENDBRANCH   9  10
ENDBRANCH   1   9
TORSDOF 10
ENDMDL
MODEL 6
REMARK VINA RESULT:    -3.084      0.874      1.976
REMARK INTER + INTRA:          -5.330
REMARK INTER:                  -5.272
REMARK INTRA:                  -0.059
REMARK UNBOUND:                -0.533
REMARK SMILES COc1cc(CNC(=O)CCCCC=CC(C)C)ccc1O
REMARK SMILES IDX 11 1 12 2 13 3 14 4 15 5 16 6 17 7 18 8 10 9 8 10 9 11 7 12
REMARK SMILES IDX 6 14 5 15 4 16 19 17 3 18 20 19 21 20 2 21 1 22 22 23
REMARK H PARENT 7 13 22 24
REMARK Flexibility Score: inf
ROOT
ATOM      1  C   UNL     1     115.126 255.870 336.620  1.00  0.00     0.010 C 
ENDROOT
BRANCH   1   2
ATOM      2  C   UNL     1     114.273 257.112 336.289  1.00  0.00     0.005 C 
BRANCH   2   3
ATOM      3  C   UNL     1     112.947 256.797 335.574  1.00  0.00     0.027 C 
BRANCH   3   4
ATOM      4  C   UNL     1     113.022 257.025 334.089  1.00  0.00    -0.031 C 
ATOM      5  C   UNL     1     113.610 256.139 333.269  1.00  0.00    -0.028 C 
BRANCH   5   6
ATOM      6  C   UNL     1     113.680 256.333 331.771  1.00  0.00     0.005 C 
ATOM      7  C   UNL     1     114.695 257.418 331.394  1.00  0.00     0.012 C 
ATOM      8  C   UNL     1     112.296 256.638 331.184  1.00  0.00     0.012 C 
ENDBRANCH   5   6
ENDBRANCH   3   4
ENDBRANCH   2   3
ENDBRANCH   1   2
BRANCH   1   9
ATOM      9  C   UNL     1     116.305 256.146 337.566  1.00  0.00     0.100 C 
BRANCH   9  10
ATOM     10  C   UNL     1     116.526 255.016 338.529  1.00  0.00     0.220 C 
ATOM     11  O   UNL     1     117.516 254.253 338.369  1.00  0.00    -0.275 OA
ATOM     12  N   UNL     1     115.640 254.830 339.642  1.00  0.00    -0.352 N 
ATOM     13  H   UNL     1     114.842 255.492 339.776  1.00  0.00     0.163 HD
BRANCH  12  14
ATOM     14  C   UNL     1     115.816 253.751 340.611  1.00  0.00     0.151 C 
BRANCH  14  15
ATOM     15  C   UNL     1     114.922 253.967 341.801  1.00  0.00    -0.025 A 
ATOM     16  C   UNL     1     113.582 253.548 341.756  1.00  0.00     0.056 A 
ATOM     17  C   UNL     1     115.420 254.561 342.969  1.00  0.00     0.009 A 
ATOM     18  C   UNL     1     112.740 253.726 342.873  1.00  0.00     0.160 A 
ATOM     19  C   UNL     1     114.589 254.741 344.077  1.00  0.00     0.050 A 
ATOM     20  C   UNL     1     113.252 254.326 344.032  1.00  0.00     0.157 A 
BRANCH  18  21
ATOM     21  O   UNL     1     111.396 253.320 342.867  1.00  0.00    -0.493 OA
ATOM     22  C   UNL     1     110.304 254.141 343.273  1.00  0.00     0.278 C 
ENDBRANCH  18  21
BRANCH  20  23
ATOM     23  O   UNL     1     112.424 254.505 345.139  1.00  0.00    -0.504 OA
ATOM     24  H   UNL     1     112.187 255.430 345.480  1.00  0.00     0.293 HD
ENDBRANCH  20  23
ENDBRANCH  14  15
ENDBRANCH  12  14
ENDBRANCH   9  10
ENDBRANCH   1   9
TORSDOF 10
ENDMDL
