MODEL 1
REMARK VINA RESULT:    -8.422      0.000      0.000
REMARK INTER + INTRA:         -10.343
REMARK INTER:                  -9.653
REMARK INTRA:                  -0.690
REMARK UNBOUND:                -0.690
REMARK SMILES C=C(C)[C@H]1CC[C@@]2(C(=O)[O-])CC[C@]3(C)[C@H](CC[C@H]4[C@@]5(C)CC[C@@H](O)C(C)(C)[C@@H]5CC[C@]43C)[C@@H]12
REMARK SMILES IDX 7 1 6 2 33 3 11 4 5 5 15 6 4 7 12 8 16 9 13 10 17 11 31 12
REMARK SMILES IDX 14 13 18 14 30 15 32 16 19 17 29 18 21 19 20 20 28 21 22 22
REMARK SMILES IDX 25 23 23 24 26 25 27 26 8 27 9 28 10 29 2 30 3 31 1 32 24 33
REMARK H PARENT 24 34
REMARK Flexibility Score: inf
ROOT
ATOM      1  C   UNL     1     -12.811  10.866  -9.211  1.00  0.00     0.014 C 
ATOM      2  C   UNL     1     -13.468   9.868  -8.245  1.00  0.00     0.014 C 
ATOM      3  C   UNL     1     -12.851  10.139 -10.616  1.00  0.00     0.012 C 
ATOM      4  C   UNL     1     -11.397  11.281  -8.698  1.00  0.00     0.014 C 
ATOM      5  C   UNL     1     -14.523   9.150  -9.067  1.00  0.00     0.009 C 
ATOM      6  C   UNL     1     -11.495   9.685 -11.294  1.00  0.00     0.000 C 
ATOM      7  C   UNL     1     -13.944   9.022 -10.486  1.00  0.00     0.018 C 
ATOM      8  C   UNL     1     -10.242  10.486  -9.298  1.00  0.00     0.008 C 
ATOM      9  C   UNL     1     -11.646   9.701 -12.839  1.00  0.00     0.005 C 
ATOM     10  C   UNL     1     -10.233  10.472 -10.859  1.00  0.00    -0.024 C 
ATOM     11  C   UNL     1     -10.324   9.609 -13.628  1.00  0.00     0.005 C 
ATOM     12  C   UNL     1      -8.895   9.723 -11.444  1.00  0.00    -0.024 C 
ATOM     13  C   UNL     1     -10.365  11.956 -11.349  1.00  0.00     0.012 C 
ATOM     14  C   UNL     1      -9.156   8.969 -12.839  1.00  0.00     0.002 C 
ATOM     15  C   UNL     1      -7.735  10.761 -11.574  1.00  0.00     0.008 C 
ATOM     16  C   UNL     1      -8.414   8.629 -10.429  1.00  0.00     0.012 C 
ATOM     17  C   UNL     1      -7.838   8.602 -13.724  1.00  0.00    -0.026 C 
ATOM     18  C   UNL     1      -6.471  10.216 -12.223  1.00  0.00     0.005 C 
ATOM     19  C   UNL     1      -8.194   8.442 -15.249  1.00  0.00     0.010 C 
ATOM     20  C   UNL     1      -7.259   7.231 -13.223  1.00  0.00     0.012 C 
ATOM     21  C   UNL     1      -6.762   9.750 -13.664  1.00  0.00     0.003 C 
ATOM     22  C   UNL     1      -7.012   8.448 -16.257  1.00  0.00     0.033 C 
ATOM     23  C   UNL     1      -5.435   9.538 -14.530  1.00  0.00    -0.006 C 
ATOM     24  C   UNL     1      -5.616   8.433 -15.625  1.00  0.00     0.120 C 
ATOM     25  C   UNL     1      -5.088  10.902 -15.209  1.00  0.00     0.014 C 
ATOM     26  C   UNL     1      -4.191   9.140 -13.682  1.00  0.00     0.014 C 
ENDROOT
BRANCH   1  27
ATOM     27  C   UNL     1     -13.698  12.128  -9.199  1.00  0.00     0.048 C 
ATOM     28  O   UNL     1     -14.001  12.713  -8.123  1.00  0.00    -0.550 OA
ATOM     29  O   UNL     1     -14.099  12.716 -10.402  1.00  0.00    -0.550 OA
ENDBRANCH   1  27
BRANCH   7  30
ATOM     30  C   UNL     1     -13.525   7.570 -10.786  1.00  0.00    -0.077 C 
ATOM     31  C   UNL     1     -12.490   6.878  -9.919  1.00  0.00     0.039 C 
ATOM     32  C   UNL     1     -14.007   6.896 -11.853  1.00  0.00     0.008 C 
ENDBRANCH   7  30
BRANCH  24  33
ATOM     33  O   UNL     1      -4.643   8.572 -16.638  1.00  0.00    -0.393 OA
ATOM     34  H   UNL     1      -3.887   7.966 -16.397  1.00  0.00     0.210 HD
ENDBRANCH  24  33
TORSDOF 3
ENDMDL
MODEL 2
REMARK VINA RESULT:    -8.260      1.488      8.313
REMARK INTER + INTRA:         -10.157
REMARK INTER:                  -9.976
REMARK INTRA:                  -0.182
REMARK UNBOUND:                -0.690
REMARK SMILES C=C(C)[C@H]1CC[C@@]2(C(=O)[O-])CC[C@]3(C)[C@H](CC[C@H]4[C@@]5(C)CC[C@@H](O)C(C)(C)[C@@H]5CC[C@]43C)[C@@H]12
REMARK SMILES IDX 7 1 6 2 33 3 11 4 5 5 15 6 4 7 12 8 16 9 13 10 17 11 31 12
REMARK SMILES IDX 14 13 18 14 30 15 32 16 19 17 29 18 21 19 20 20 28 21 22 22
REMARK SMILES IDX 25 23 23 24 26 25 27 26 8 27 9 28 10 29 2 30 3 31 1 32 24 33
REMARK H PARENT 24 34
REMARK Flexibility Score: inf
ROOT
ATOM      1  C   UNL     1      -6.227   8.762 -15.685  1.00  0.00     0.014 C 
ATOM      2  C   UNL     1      -4.714   8.685 -15.424  1.00  0.00     0.014 C 
ATOM      3  C   UNL     1      -6.692  10.069 -14.923  1.00  0.00     0.012 C 
ATOM      4  C   UNL     1      -6.929   7.436 -15.257  1.00  0.00     0.014 C 
ATOM      5  C   UNL     1      -4.245  10.128 -15.354  1.00  0.00     0.009 C 
ATOM      6  C   UNL     1      -7.639   9.937 -13.662  1.00  0.00     0.000 C 
ATOM      7  C   UNL     1      -5.392  10.917 -14.701  1.00  0.00     0.018 C 
ATOM      8  C   UNL     1      -7.531   7.457 -13.856  1.00  0.00     0.008 C 
ATOM      9  C   UNL     1      -8.530  11.202 -13.535  1.00  0.00     0.005 C 
ATOM     10  C   UNL     1      -8.504   8.651 -13.607  1.00  0.00    -0.024 C 
ATOM     11  C   UNL     1      -9.722  11.071 -12.566  1.00  0.00     0.005 C 
ATOM     12  C   UNL     1      -9.225   8.542 -12.137  1.00  0.00    -0.024 C 
ATOM     13  C   UNL     1      -9.534   8.680 -14.791  1.00  0.00     0.012 C 
ATOM     14  C   UNL     1      -9.545   9.975 -11.485  1.00  0.00     0.002 C 
ATOM     15  C   UNL     1     -10.521   7.678 -12.258  1.00  0.00     0.008 C 
ATOM     16  C   UNL     1      -8.275   7.799 -11.136  1.00  0.00     0.012 C 
ATOM     17  C   UNL     1     -10.647   9.998 -10.286  1.00  0.00    -0.026 C 
ATOM     18  C   UNL     1     -11.349   7.601 -10.983  1.00  0.00     0.005 C 
ATOM     19  C   UNL     1     -11.313  11.418 -10.143  1.00  0.00     0.010 C 
ATOM     20  C   UNL     1      -9.924   9.672  -8.930  1.00  0.00     0.012 C 
ATOM     21  C   UNL     1     -11.835   9.006 -10.571  1.00  0.00     0.003 C 
ATOM     22  C   UNL     1     -12.616  11.507  -9.300  1.00  0.00     0.033 C 
ATOM     23  C   UNL     1     -13.014   8.964  -9.492  1.00  0.00    -0.006 C 
ATOM     24  C   UNL     1     -13.002  10.222  -8.559  1.00  0.00     0.120 C 
ATOM     25  C   UNL     1     -14.368   8.896 -10.270  1.00  0.00     0.014 C 
ATOM     26  C   UNL     1     -12.973   7.711  -8.568  1.00  0.00     0.014 C 
ENDROOT
BRANCH   1  27
ATOM     27  C   UNL     1      -6.395   8.905 -17.212  1.00  0.00     0.048 C 
ATOM     28  O   UNL     1      -5.429   8.723 -18.004  1.00  0.00    -0.550 OA
ATOM     29  O   UNL     1      -7.660   9.134 -17.761  1.00  0.00    -0.550 OA
ENDBRANCH   1  27
BRANCH   7  30
ATOM     30  C   UNL     1      -5.037  11.319 -13.256  1.00  0.00    -0.077 C 
ATOM     31  C   UNL     1      -4.476  12.698 -12.962  1.00  0.00     0.039 C 
ATOM     32  C   UNL     1      -5.151  10.452 -12.227  1.00  0.00     0.008 C 
ENDBRANCH   7  30
BRANCH  24  33
ATOM     33  O   UNL     1     -14.261  10.398  -7.945  1.00  0.00    -0.393 OA
ATOM     34  H   UNL     1     -14.533  11.344  -8.112  1.00  0.00     0.210 HD
ENDBRANCH  24  33
TORSDOF 3
ENDMDL
MODEL 3
REMARK VINA RESULT:    -7.499      1.268      1.494
REMARK INTER + INTRA:          -9.286
REMARK INTER:                  -9.200
REMARK INTRA:                  -0.086
REMARK UNBOUND:                -0.690
REMARK SMILES C=C(C)[C@H]1CC[C@@]2(C(=O)[O-])CC[C@]3(C)[C@H](CC[C@H]4[C@@]5(C)CC[C@@H](O)C(C)(C)[C@@H]5CC[C@]43C)[C@@H]12
REMARK SMILES IDX 7 1 6 2 33 3 11 4 5 5 15 6 4 7 12 8 16 9 13 10 17 11 31 12
REMARK SMILES IDX 14 13 18 14 30 15 32 16 19 17 29 18 21 19 20 20 28 21 22 22
REMARK SMILES IDX 25 23 23 24 26 25 27 26 8 27 9 28 10 29 2 30 3 31 1 32 24 33
REMARK H PARENT 24 34
REMARK Flexibility Score: inf
ROOT
ATOM      1  C   UNL     1     -13.107  11.446 -10.179  1.00  0.00     0.014 C 
ATOM      2  C   UNL     1     -13.352  11.086  -8.705  1.00  0.00     0.014 C 
ATOM      3  C   UNL     1     -12.792  10.060 -10.875  1.00  0.00     0.012 C 
ATOM      4  C   UNL     1     -12.002  12.540 -10.305  1.00  0.00     0.014 C 
ATOM      5  C   UNL     1     -13.994   9.711  -8.729  1.00  0.00     0.009 C 
ATOM      6  C   UNL     1     -11.339   9.790 -11.442  1.00  0.00     0.000 C 
ATOM      7  C   UNL     1     -13.351   8.961  -9.907  1.00  0.00     0.018 C 
ATOM      8  C   UNL     1     -10.601  12.003 -10.573  1.00  0.00     0.008 C 
ATOM      9  C   UNL     1     -11.416   8.816 -12.649  1.00  0.00     0.005 C 
ATOM     10  C   UNL     1     -10.518  11.053 -11.809  1.00  0.00    -0.024 C 
ATOM     11  C   UNL     1     -10.135   8.728 -13.503  1.00  0.00     0.005 C 
ATOM     12  C   UNL     1      -8.968  10.620 -12.130  1.00  0.00    -0.024 C 
ATOM     13  C   UNL     1     -11.212  11.778 -13.014  1.00  0.00     0.012 C 
ATOM     14  C   UNL     1      -8.844   9.146 -12.757  1.00  0.00     0.002 C 
ATOM     15  C   UNL     1      -8.317  11.686 -13.068  1.00  0.00     0.008 C 
ATOM     16  C   UNL     1      -8.134  10.612 -10.803  1.00  0.00     0.012 C 
ATOM     17  C   UNL     1      -7.452   8.800 -13.530  1.00  0.00    -0.026 C 
ATOM     18  C   UNL     1      -6.913  11.336 -13.540  1.00  0.00     0.005 C 
ATOM     19  C   UNL     1      -7.647   7.641 -14.578  1.00  0.00     0.010 C 
ATOM     20  C   UNL     1      -6.395   8.315 -12.474  1.00  0.00     0.012 C 
ATOM     21  C   UNL     1      -6.929  10.031 -14.361  1.00  0.00     0.003 C 
ATOM     22  C   UNL     1      -6.523   7.442 -15.632  1.00  0.00     0.033 C 
ATOM     23  C   UNL     1      -5.592   9.811 -15.209  1.00  0.00    -0.006 C 
ATOM     24  C   UNL     1      -5.267   8.293 -15.414  1.00  0.00     0.120 C 
ATOM     25  C   UNL     1      -5.791  10.501 -16.597  1.00  0.00     0.014 C 
ATOM     26  C   UNL     1      -4.331  10.464 -14.570  1.00  0.00     0.014 C 
ENDROOT
BRANCH   1  27
ATOM     27  C   UNL     1     -14.426  12.056 -10.700  1.00  0.00     0.048 C 
ATOM     28  O   UNL     1     -14.738  13.256 -10.465  1.00  0.00    -0.550 OA
ATOM     29  O   UNL     1     -15.258  11.313 -11.542  1.00  0.00    -0.550 OA
ENDBRANCH   1  27
BRANCH   7  30
ATOM     30  C   UNL     1     -12.372   7.880  -9.410  1.00  0.00    -0.077 C 
ATOM     31  C   UNL     1     -11.791   7.959  -8.010  1.00  0.00     0.039 C 
ATOM     32  C   UNL     1     -11.954   6.875 -10.210  1.00  0.00     0.008 C 
ENDBRANCH   7  30
BRANCH  24  33
ATOM     33  O   UNL     1      -4.388   8.114 -16.503  1.00  0.00    -0.393 OA
ATOM     34  H   UNL     1      -3.618   8.732 -16.357  1.00  0.00     0.210 HD
ENDBRANCH  24  33
TORSDOF 3
ENDMDL
MODEL 4
REMARK VINA RESULT:    -7.376      1.924      3.734
REMARK INTER + INTRA:          -9.144
REMARK INTER:                  -8.857
REMARK INTRA:                  -0.288
REMARK UNBOUND:                -0.690
REMARK SMILES C=C(C)[C@H]1CC[C@@]2(C(=O)[O-])CC[C@]3(C)[C@H](CC[C@H]4[C@@]5(C)CC[C@@H](O)C(C)(C)[C@@H]5CC[C@]43C)[C@@H]12
REMARK SMILES IDX 7 1 6 2 33 3 11 4 5 5 15 6 4 7 12 8 16 9 13 10 17 11 31 12
REMARK SMILES IDX 14 13 18 14 30 15 32 16 19 17 29 18 21 19 20 20 28 21 22 22
REMARK SMILES IDX 25 23 23 24 26 25 27 26 8 27 9 28 10 29 2 30 3 31 1 32 24 33
REMARK H PARENT 24 34
REMARK Flexibility Score: inf
ROOT
ATOM      1  C   UNL     1     -13.735   8.641  -9.813  1.00  0.00     0.014 C 
ATOM      2  C   UNL     1     -14.595   9.836  -9.372  1.00  0.00     0.014 C 
ATOM      3  C   UNL     1     -12.279   8.994  -9.305  1.00  0.00     0.012 C 
ATOM      4  C   UNL     1     -13.881   8.392 -11.347  1.00  0.00     0.014 C 
ATOM      5  C   UNL     1     -13.985  10.308  -8.064  1.00  0.00     0.009 C 
ATOM      6  C   UNL     1     -11.138   9.290 -10.361  1.00  0.00     0.000 C 
ATOM      7  C   UNL     1     -12.469  10.088  -8.197  1.00  0.00     0.018 C 
ATOM      8  C   UNL     1     -12.793   9.033 -12.203  1.00  0.00     0.008 C 
ATOM      9  C   UNL     1      -9.758   8.885  -9.775  1.00  0.00     0.005 C 
ATOM     10  C   UNL     1     -11.344   8.659 -11.762  1.00  0.00    -0.024 C 
ATOM     11  C   UNL     1      -8.609   8.802 -10.800  1.00  0.00     0.005 C 
ATOM     12  C   UNL     1     -10.226   9.262 -12.800  1.00  0.00    -0.024 C 
ATOM     13  C   UNL     1     -11.275   7.097 -11.631  1.00  0.00     0.012 C 
ATOM     14  C   UNL     1      -8.839   9.640 -12.082  1.00  0.00     0.002 C 
ATOM     15  C   UNL     1      -9.998   8.245 -13.964  1.00  0.00     0.008 C 
ATOM     16  C   UNL     1     -10.765  10.582 -13.450  1.00  0.00     0.012 C 
ATOM     17  C   UNL     1      -7.539   9.798 -13.051  1.00  0.00    -0.026 C 
ATOM     18  C   UNL     1      -8.890   8.634 -14.933  1.00  0.00     0.005 C 
ATOM     19  C   UNL     1      -6.198   9.566 -12.258  1.00  0.00     0.010 C 
ATOM     20  C   UNL     1      -7.509  11.261 -13.621  1.00  0.00     0.012 C 
ATOM     21  C   UNL     1      -7.537   8.721 -14.199  1.00  0.00     0.003 C 
ATOM     22  C   UNL     1      -4.911   9.331 -13.097  1.00  0.00     0.033 C 
ATOM     23  C   UNL     1      -6.288   8.734 -15.197  1.00  0.00    -0.006 C 
ATOM     24  C   UNL     1      -5.072   9.528 -14.608  1.00  0.00     0.120 C 
ATOM     25  C   UNL     1      -5.872   7.250 -15.457  1.00  0.00     0.014 C 
ATOM     26  C   UNL     1      -6.605   9.354 -16.590  1.00  0.00     0.014 C 
ENDROOT
BRANCH   1  27
ATOM     27  C   UNL     1     -14.307   7.406  -9.086  1.00  0.00     0.048 C 
ATOM     28  O   UNL     1     -13.706   6.875  -8.111  1.00  0.00    -0.550 OA
ATOM     29  O   UNL     1     -15.569   6.912  -9.427  1.00  0.00    -0.550 OA
ENDBRANCH   1  27
BRANCH   7  30
ATOM     30  C   UNL     1     -11.727  11.427  -8.378  1.00  0.00    -0.077 C 
ATOM     31  C   UNL     1     -11.636  12.072  -9.748  1.00  0.00     0.039 C 
ATOM     32  C   UNL     1     -11.088  12.031  -7.353  1.00  0.00     0.008 C 
ENDBRANCH   7  30
BRANCH  24  33
ATOM     33  O   UNL     1      -3.875   9.159 -15.257  1.00  0.00    -0.393 OA
ATOM     34  H   UNL     1      -3.187   9.037 -14.545  1.00  0.00     0.210 HD
ENDBRANCH  24  33
TORSDOF 3
ENDMDL
MODEL 5
REMARK VINA RESULT:    -7.268      1.787      3.078
REMARK INTER + INTRA:          -9.020
REMARK INTER:                  -8.400
REMARK INTRA:                  -0.620
REMARK UNBOUND:                -0.690
REMARK SMILES C=C(C)[C@H]1CC[C@@]2(C(=O)[O-])CC[C@]3(C)[C@H](CC[C@H]4[C@@]5(C)CC[C@@H](O)C(C)(C)[C@@H]5CC[C@]43C)[C@@H]12
REMARK SMILES IDX 7 1 6 2 33 3 11 4 5 5 15 6 4 7 12 8 16 9 13 10 17 11 31 12
REMARK SMILES IDX 14 13 18 14 30 15 32 16 19 17 29 18 21 19 20 20 28 21 22 22
REMARK SMILES IDX 25 23 23 24 26 25 27 26 8 27 9 28 10 29 2 30 3 31 1 32 24 33
REMARK H PARENT 24 34
REMARK Flexibility Score: inf
ROOT
ATOM      1  C   UNL     1     -12.788   9.086  -8.489  1.00  0.00     0.014 C 
ATOM      2  C   UNL     1     -14.289   9.080  -8.819  1.00  0.00     0.014 C 
ATOM      3  C   UNL     1     -12.226  10.365  -9.232  1.00  0.00     0.012 C 
ATOM      4  C   UNL     1     -12.132   7.726  -8.880  1.00  0.00     0.014 C 
ATOM      5  C   UNL     1     -14.684  10.543  -8.915  1.00  0.00     0.009 C 
ATOM      6  C   UNL     1     -11.229  10.181 -10.447  1.00  0.00     0.000 C 
ATOM      7  C   UNL     1     -13.472  11.273  -9.516  1.00  0.00     0.018 C 
ATOM      8  C   UNL     1     -11.466   7.710 -10.251  1.00  0.00     0.008 C 
ATOM      9  C   UNL     1     -10.274  11.402 -10.536  1.00  0.00     0.005 C 
ATOM     10  C   UNL     1     -10.425   8.855 -10.458  1.00  0.00    -0.024 C 
ATOM     11  C   UNL     1      -9.046  11.209 -11.449  1.00  0.00     0.005 C 
ATOM     12  C   UNL     1      -9.644   8.704 -11.893  1.00  0.00    -0.024 C 
ATOM     13  C   UNL     1      -9.452   8.841  -9.228  1.00  0.00     0.012 C 
ATOM     14  C   UNL     1      -9.226  10.117 -12.533  1.00  0.00     0.002 C 
ATOM     15  C   UNL     1      -8.398   7.780 -11.709  1.00  0.00     0.008 C 
ATOM     16  C   UNL     1     -10.581   8.003 -12.935  1.00  0.00     0.012 C 
ATOM     17  C   UNL     1      -8.069  10.081 -13.681  1.00  0.00    -0.026 C 
ATOM     18  C   UNL     1      -7.517   7.657 -12.945  1.00  0.00     0.005 C 
ATOM     19  C   UNL     1      -7.330  11.467 -13.797  1.00  0.00     0.010 C 
ATOM     20  C   UNL     1      -8.744   9.783 -15.067  1.00  0.00     0.012 C 
ATOM     21  C   UNL     1      -6.945   9.035 -13.337  1.00  0.00     0.003 C 
ATOM     22  C   UNL     1      -5.987  11.489 -14.578  1.00  0.00     0.033 C 
ATOM     23  C   UNL     1      -5.721   8.931 -14.361  1.00  0.00    -0.006 C 
ATOM     24  C   UNL     1      -5.629  10.184 -15.297  1.00  0.00     0.120 C 
ATOM     25  C   UNL     1      -4.410   8.802 -13.521  1.00  0.00     0.014 C 
ATOM     26  C   UNL     1      -5.779   7.677 -15.283  1.00  0.00     0.014 C 
ENDROOT
BRANCH   1  27
ATOM     27  C   UNL     1     -12.684   9.228  -6.955  1.00  0.00     0.048 C 
ATOM     28  O   UNL     1     -13.411   8.550  -6.177  1.00  0.00    -0.550 OA
ATOM     29  O   UNL     1     -11.697  10.041  -6.391  1.00  0.00    -0.550 OA
ENDBRANCH   1  27
BRANCH   7  30
ATOM     30  C   UNL     1     -13.740  11.685 -10.977  1.00  0.00    -0.077 C 
ATOM     31  C   UNL     1     -14.469  10.741 -11.916  1.00  0.00     0.039 C 
ATOM     32  C   UNL     1     -13.287  12.852 -11.482  1.00  0.00     0.008 C 
ENDBRANCH   7  30
BRANCH  24  33
ATOM     33  O   UNL     1      -4.337  10.296 -15.852  1.00  0.00    -0.393 OA
ATOM     34  H   UNL     1      -3.867  11.017 -15.347  1.00  0.00     0.210 HD
ENDBRANCH  24  33
TORSDOF 3
ENDMDL
MODEL 6
REMARK VINA RESULT:    -5.491      1.816      7.865
REMARK INTER + INTRA:          -6.984
REMARK INTER:                  -7.432
REMARK INTRA:                   0.448
REMARK UNBOUND:                -0.690
REMARK SMILES C=C(C)[C@H]1CC[C@@]2(C(=O)[O-])CC[C@]3(C)[C@H](CC[C@H]4[C@@]5(C)CC[C@@H](O)C(C)(C)[C@@H]5CC[C@]43C)[C@@H]12
REMARK SMILES IDX 7 1 6 2 33 3 11 4 5 5 15 6 4 7 12 8 16 9 13 10 17 11 31 12
REMARK SMILES IDX 14 13 18 14 30 15 32 16 19 17 29 18 21 19 20 20 28 21 22 22
REMARK SMILES IDX 25 23 23 24 26 25 27 26 8 27 9 28 10 29 2 30 3 31 1 32 24 33
REMARK H PARENT 24 34
REMARK Flexibility Score: inf
ROOT
ATOM      1  C   UNL     1      -6.140   9.880 -14.449  1.00  0.00     0.014 C 
ATOM      2  C   UNL     1      -6.390  10.123 -15.946  1.00  0.00     0.014 C 
ATOM      3  C   UNL     1      -7.141   8.716 -14.066  1.00  0.00     0.012 C 
ATOM      4  C   UNL     1      -6.294  11.206 -13.641  1.00  0.00     0.014 C 
ATOM      5  C   UNL     1      -6.745   8.762 -16.519  1.00  0.00     0.009 C 
ATOM      6  C   UNL     1      -8.345   9.019 -13.085  1.00  0.00     0.000 C 
ATOM      7  C   UNL     1      -7.534   8.030 -15.420  1.00  0.00     0.018 C 
ATOM      8  C   UNL     1      -7.669  11.414 -13.013  1.00  0.00     0.008 C 
ATOM      9  C   UNL     1      -8.713   7.738 -12.289  1.00  0.00     0.005 C 
ATOM     10  C   UNL     1      -8.141  10.220 -12.126  1.00  0.00    -0.024 C 
ATOM     11  C   UNL     1      -9.630   7.964 -11.070  1.00  0.00     0.005 C 
ATOM     12  C   UNL     1      -9.556  10.559 -11.369  1.00  0.00    -0.024 C 
ATOM     13  C   UNL     1      -6.980   9.881 -11.127  1.00  0.00     0.012 C 
ATOM     14  C   UNL     1     -10.475   9.260 -11.142  1.00  0.00     0.002 C 
ATOM     15  C   UNL     1      -9.260  11.280 -10.015  1.00  0.00     0.008 C 
ATOM     16  C   UNL     1     -10.398  11.554 -12.239  1.00  0.00     0.012 C 
ATOM     17  C   UNL     1     -11.649   9.388 -10.019  1.00  0.00    -0.026 C 
ATOM     18  C   UNL     1     -10.490  11.541  -9.157  1.00  0.00     0.005 C 
ATOM     19  C   UNL     1     -12.064   7.976  -9.457  1.00  0.00     0.010 C 
ATOM     20  C   UNL     1     -12.919  10.027 -10.687  1.00  0.00     0.012 C 
ATOM     21  C   UNL     1     -11.167  10.210  -8.767  1.00  0.00     0.003 C 
ATOM     22  C   UNL     1     -12.900   7.954  -8.148  1.00  0.00     0.033 C 
ATOM     23  C   UNL     1     -12.209  10.371  -7.566  1.00  0.00    -0.006 C 
ATOM     24  C   UNL     1     -13.372   9.325  -7.651  1.00  0.00     0.120 C 
ATOM     25  C   UNL     1     -11.425  10.182  -6.228  1.00  0.00     0.014 C 
ATOM     26  C   UNL     1     -12.870  11.780  -7.494  1.00  0.00     0.014 C 
ENDROOT
BRANCH   1  27
ATOM     27  C   UNL     1      -4.669   9.429 -14.324  1.00  0.00     0.048 C 
ATOM     28  O   UNL     1      -3.876   9.483 -15.304  1.00  0.00    -0.550 OA
ATOM     29  O   UNL     1      -4.154   9.050 -13.081  1.00  0.00    -0.550 OA
ENDBRANCH   1  27
BRANCH   7  30
ATOM     30  C   UNL     1      -9.031   7.947 -15.773  1.00  0.00    -0.077 C 
ATOM     31  C   UNL     1      -9.988   7.186 -14.874  1.00  0.00     0.039 C 
ATOM     32  C   UNL     1      -9.526   8.484 -16.909  1.00  0.00     0.008 C 
ENDBRANCH   7  30
BRANCH  24  33
ATOM     33  O   UNL     1     -14.000   9.176  -6.397  1.00  0.00    -0.393 OA
ATOM     34  H   UNL     1     -14.801   9.772  -6.402  1.00  0.00     0.210 HD
ENDBRANCH  24  33
TORSDOF 3
ENDMDL
