MODEL 1
REMARK VINA RESULT:    -3.587      0.000      0.000
REMARK INTER + INTRA:          -6.629
REMARK INTER:                  -5.475
REMARK INTRA:                  -1.154
REMARK UNBOUND:                -1.154
REMARK SMILES OC[C@@H]1O[C@](CO)(O[C@H]2O[C@H](CO)[C@@H](O)[C@@H](O)[C@H]2O)[C@H](O)[C@H]1O
REMARK SMILES IDX 8 1 9 2 11 3 14 4 10 5 16 6 18 7 12 8 13 9 15 11 17 13 19 15
REMARK SMILES IDX 5 17 20 18 4 19 22 20 3 21 6 22 7 23 21 25 23 27 2 29 1 30
REMARK H PARENT 13 10 15 12 17 14 19 16 7 24 21 26 23 28 1 31
REMARK Flexibility Score: inf
ROOT
ATOM      1  O   UNL     1       6.532  -4.308  -1.541  1.00  0.00    -0.313 OA
ENDROOT
BRANCH   1   2
ATOM      2  C   UNL     1       7.630  -4.997  -2.140  1.00  0.00     0.285 C 
ATOM      3  C   UNL     1       9.529  -6.203  -1.291  1.00  0.00     0.178 C 
ATOM      4  C   UNL     1       8.848  -7.606  -1.347  1.00  0.00     0.177 C 
ATOM      5  O   UNL     1       8.598  -5.146  -1.108  1.00  0.00    -0.341 OA
ATOM      6  C   UNL     1       7.354  -7.510  -1.767  1.00  0.00     0.179 C 
ATOM      7  C   UNL     1       7.137  -6.343  -2.747  1.00  0.00     0.202 C 
BRANCH   3   8
ATOM      8  C   UNL     1      10.488  -5.933  -2.473  1.00  0.00     0.191 C 
BRANCH   8   9
ATOM      9  O   UNL     1      11.471  -4.993  -2.116  1.00  0.00    -0.394 OA
ATOM     10  H   UNL     1      11.282  -4.171  -2.639  1.00  0.00     0.210 HD
ENDBRANCH   8   9
ENDBRANCH   3   8
BRANCH   4  11
ATOM     11  O   UNL     1       8.950  -8.256  -0.098  1.00  0.00    -0.387 OA
ATOM     12  H   UNL     1       9.381  -7.626   0.540  1.00  0.00     0.211 HD
ENDBRANCH   4  11
BRANCH   6  13
ATOM     13  O   UNL     1       6.491  -7.410  -0.661  1.00  0.00    -0.387 OA
ATOM     14  H   UNL     1       7.026  -7.599   0.164  1.00  0.00     0.211 HD
ENDBRANCH   6  13
BRANCH   7  15
ATOM     15  O   UNL     1       5.779  -6.266  -3.125  1.00  0.00    -0.385 OA
ATOM     16  H   UNL     1       5.733  -6.309  -4.116  1.00  0.00     0.211 HD
ENDBRANCH   7  15
ENDBRANCH   1   2
BRANCH   1  17
ATOM     17  C   UNL     1       6.176  -3.022  -2.061  1.00  0.00     0.224 C 
ATOM     18  C   UNL     1       5.460  -2.243  -0.938  1.00  0.00     0.208 C 
ATOM     19  O   UNL     1       5.255  -3.193  -3.124  1.00  0.00    -0.337 OA
ATOM     20  C   UNL     1       4.367  -1.502  -1.661  1.00  0.00     0.180 C 
ATOM     21  C   UNL     1       4.114  -2.386  -2.883  1.00  0.00     0.179 C 
BRANCH  17  22
ATOM     22  C   UNL     1       7.376  -2.157  -2.560  1.00  0.00     0.225 C 
BRANCH  22  23
ATOM     23  O   UNL     1       8.284  -1.908  -1.514  1.00  0.00    -0.391 OA
ATOM     24  H   UNL     1       9.136  -2.361  -1.751  1.00  0.00     0.210 HD
ENDBRANCH  22  23
ENDBRANCH  17  22
BRANCH  18  25
ATOM     25  O   UNL     1       4.888  -3.132  -0.005  1.00  0.00    -0.385 OA
ATOM     26  H   UNL     1       5.318  -4.014  -0.134  1.00  0.00     0.211 HD
ENDBRANCH  18  25
BRANCH  20  27
ATOM     27  O   UNL     1       4.829  -0.230  -2.046  1.00  0.00    -0.387 OA
ATOM     28  H   UNL     1       4.152   0.147  -2.665  1.00  0.00     0.211 HD
ENDBRANCH  20  27
BRANCH  21  29
ATOM     29  C   UNL     1       2.875  -3.271  -2.668  1.00  0.00     0.191 C 
BRANCH  29  30
ATOM     30  O   UNL     1       3.153  -4.589  -3.061  1.00  0.00    -0.394 OA
ATOM     31  H   UNL     1       3.810  -4.939  -2.406  1.00  0.00     0.210 HD
ENDBRANCH  29  30
ENDBRANCH  21  29
ENDBRANCH   1  17
TORSDOF 13
ENDMDL
MODEL 2
REMARK VINA RESULT:    -1.984      1.523      5.876
REMARK INTER + INTRA:          -4.182
REMARK INTER:                  -5.287
REMARK INTRA:                   1.105
REMARK UNBOUND:                -1.154
REMARK SMILES OC[C@@H]1O[C@](CO)(O[C@H]2O[C@H](CO)[C@@H](O)[C@@H](O)[C@H]2O)[C@H](O)[C@H]1O
REMARK SMILES IDX 8 1 9 2 11 3 14 4 10 5 16 6 18 7 12 8 13 9 15 11 17 13 19 15
REMARK SMILES IDX 5 17 20 18 4 19 22 20 3 21 6 22 7 23 21 25 23 27 2 29 1 30
REMARK H PARENT 13 10 15 12 17 14 19 16 7 24 21 26 23 28 1 31
REMARK Flexibility Score: inf
ROOT
ATOM      1  O   UNL     1       7.001  -5.051  -1.858  1.00  0.00    -0.313 OA
ENDROOT
BRANCH   1   2
ATOM      2  C   UNL     1       7.071  -3.628  -1.759  1.00  0.00     0.285 C 
ATOM      3  C   UNL     1       6.238  -1.802  -3.084  1.00  0.00     0.178 C 
ATOM      4  C   UNL     1       4.921  -1.617  -2.267  1.00  0.00     0.177 C 
ATOM      5  O   UNL     1       6.726  -3.136  -3.048  1.00  0.00    -0.341 OA
ATOM      6  C   UNL     1       4.760  -2.709  -1.171  1.00  0.00     0.179 C 
ATOM      7  C   UNL     1       6.131  -3.135  -0.619  1.00  0.00     0.202 C 
BRANCH   3   8
ATOM      8  C   UNL     1       7.336  -0.774  -2.728  1.00  0.00     0.191 C 
BRANCH   8   9
ATOM      9  O   UNL     1       6.769   0.422  -2.255  1.00  0.00    -0.394 OA
ATOM     10  H   UNL     1       6.106   0.168  -1.561  1.00  0.00     0.210 HD
ENDBRANCH   8   9
ENDBRANCH   3   8
BRANCH   4  11
ATOM     11  O   UNL     1       3.800  -1.635  -3.124  1.00  0.00    -0.387 OA
ATOM     12  H   UNL     1       3.011  -1.927  -2.591  1.00  0.00     0.211 HD
ENDBRANCH   4  11
BRANCH   6  13
ATOM     13  O   UNL     1       4.030  -3.821  -1.626  1.00  0.00    -0.387 OA
ATOM     14  H   UNL     1       4.573  -4.642  -1.443  1.00  0.00     0.211 HD
ENDBRANCH   6  13
BRANCH   7  15
ATOM     15  O   UNL     1       5.975  -4.122   0.377  1.00  0.00    -0.385 OA
ATOM     16  H   UNL     1       6.213  -5.001  -0.021  1.00  0.00     0.211 HD
ENDBRANCH   7  15
ENDBRANCH   1   2
BRANCH   1  17
ATOM     17  C   UNL     1       8.228  -5.790  -1.850  1.00  0.00     0.224 C 
ATOM     18  C   UNL     1       9.074  -5.282  -0.665  1.00  0.00     0.208 C 
ATOM     19  O   UNL     1       8.942  -5.510  -3.042  1.00  0.00    -0.337 OA
ATOM     20  C   UNL     1      10.479  -5.280  -1.206  1.00  0.00     0.180 C 
ATOM     21  C   UNL     1      10.258  -5.103  -2.709  1.00  0.00     0.179 C 
BRANCH  17  22
ATOM     22  C   UNL     1       8.068  -7.336  -1.704  1.00  0.00     0.225 C 
BRANCH  22  23
ATOM     23  O   UNL     1       8.621  -7.784  -0.490  1.00  0.00    -0.391 OA
ATOM     24  H   UNL     1       7.866  -7.944   0.136  1.00  0.00     0.210 HD
ENDBRANCH  22  23
ENDBRANCH  17  22
BRANCH  18  25
ATOM     25  O   UNL     1       8.702  -3.968  -0.316  1.00  0.00    -0.385 OA
ATOM     26  H   UNL     1       7.777  -3.827  -0.638  1.00  0.00     0.211 HD
ENDBRANCH  18  25
BRANCH  20  27
ATOM     27  O   UNL     1      11.098  -6.513  -0.929  1.00  0.00    -0.387 OA
ATOM     28  H   UNL     1      11.471  -6.846  -1.785  1.00  0.00     0.211 HD
ENDBRANCH  20  27
BRANCH  21  29
ATOM     29  C   UNL     1      10.482  -3.640  -3.124  1.00  0.00     0.191 C 
BRANCH  29  30
ATOM     30  O   UNL     1      11.779  -3.234  -2.770  1.00  0.00    -0.394 OA
ATOM     31  H   UNL     1      11.805  -3.233  -1.779  1.00  0.00     0.210 HD
ENDBRANCH  29  30
ENDBRANCH  21  29
ENDBRANCH   1  17
TORSDOF 13
ENDMDL
