MODEL 1
REMARK VINA RESULT:    -2.480      0.000      0.000
REMARK INTER + INTRA:          -3.472
REMARK INTER:                  -3.784
REMARK INTRA:                   0.312
REMARK UNBOUND:                 0.312
REMARK SMILES CC1=CCC[C@H](C)C(=O)C[C@@H](C(C)C)C(=O)C1
REMARK SMILES IDX 8 1 9 2 6 3 7 4 5 5 4 6 3 7 2 8 1 9 10 11 11 12 15 13 16 14
REMARK SMILES IDX 17 15 12 17 13 18 14 19
REMARK H PARENT
REMARK Flexibility Score: 70.00
ROOT
ATOM      1  C   UNL     1      27.017  24.687  28.628  1.00  0.00     0.136 C 
ATOM      2  O   UNL     1      27.988  24.166  29.154  1.00  0.00    -0.299 OA
ENDROOT
BRANCH   1   3
ATOM      3  C   UNL     1      26.336  23.968  27.477  1.00  0.00     0.053 C 
ATOM      4  C   UNL     1      24.811  24.094  27.601  1.00  0.00     0.016 C 
BRANCH   3   5
ATOM      5  C   UNL     1      26.825  24.480  26.105  1.00  0.00     0.015 C 
BRANCH   5   6
ATOM      6  C   UNL     1      28.329  24.812  26.107  1.00  0.00     0.028 C 
BRANCH   6   7
ATOM      7  C   UNL     1      28.595  26.147  25.460  1.00  0.00    -0.028 C 
ATOM      8  C   UNL     1      28.864  27.290  26.129  1.00  0.00    -0.070 CG0
ATOM      9  C   UNL     1      29.106  28.540  25.321  1.00  0.00     0.039 C 
ATOM     10  G   UNL     1      28.980  27.370  27.644  1.00  0.00     0.000 G0
ENDBRANCH   6   7
ENDBRANCH   5   6
ENDBRANCH   3   5
ENDBRANCH   1   3
BRANCH   1  11
ATOM     11  C   UNL     1      26.419  25.932  29.245  1.00  0.00     0.087 C 
BRANCH  11  12
ATOM     12  C   UNL     1      26.381  27.217  28.375  1.00  0.00     0.066 C 
BRANCH  12  13
ATOM     13  C   UNL     1      27.711  27.964  28.270  1.00  0.00     0.140 C 
ATOM     14  O   UNL     1      27.787  29.074  28.777  1.00  0.00    -0.299 OA
BRANCH  13  15
ATOM     15  C   UNL     1      28.958  27.374  27.648  1.00  0.00     0.106 CG0
ATOM     16  G   UNL     1      28.875  27.289  26.131  1.00  0.00     0.000 G0
ENDBRANCH  13  15
ENDBRANCH  12  13
BRANCH  12  17
ATOM     17  C   UNL     1      25.099  28.106  28.567  1.00  0.00    -0.006 C 
ATOM     18  C   UNL     1      25.107  28.787  29.948  1.00  0.00     0.008 C 
ATOM     19  C   UNL     1      23.750  27.391  28.382  1.00  0.00     0.008 C 
ENDBRANCH  12  17
ENDBRANCH  11  12
ENDBRANCH   1  11
TORSDOF 1
ENDMDL
MODEL 2
REMARK VINA RESULT:    -2.074      1.945      4.498
REMARK INTER + INTRA:          -2.853
REMARK INTER:                  -2.891
REMARK INTRA:                   0.037
REMARK UNBOUND:                 0.312
REMARK SMILES CC1=CCC[C@H](C)C(=O)C[C@@H](C(C)C)C(=O)C1
REMARK SMILES IDX 8 1 9 2 6 3 7 4 5 5 4 6 3 7 2 8 1 9 10 11 11 12 15 13 16 14
REMARK SMILES IDX 17 15 12 17 13 18 14 19
REMARK H PARENT
REMARK Flexibility Score: 70.00
ROOT
ATOM      1  C   UNL     1      28.841  26.287  26.450  1.00  0.00     0.136 C 
ATOM      2  O   UNL     1      29.111  25.716  25.405  1.00  0.00    -0.299 OA
ENDROOT
BRANCH   1   3
ATOM      3  C   UNL     1      29.033  27.792  26.530  1.00  0.00     0.053 C 
ATOM      4  C   UNL     1      28.134  28.496  25.505  1.00  0.00     0.016 C 
BRANCH   3   5
ATOM      5  C   UNL     1      28.777  28.332  27.955  1.00  0.00     0.015 C 
BRANCH   5   6
ATOM      6  C   UNL     1      27.709  29.442  27.975  1.00  0.00     0.028 C 
BRANCH   6   7
ATOM      7  C   UNL     1      26.993  29.486  29.300  1.00  0.00    -0.028 C 
ATOM      8  C   UNL     1      25.936  28.711  29.634  1.00  0.00    -0.070 CG0
ATOM      9  C   UNL     1      25.338  28.888  31.007  1.00  0.00     0.039 C 
ATOM     10  G   UNL     1      25.354  27.644  28.718  1.00  0.00     0.000 G0
ENDBRANCH   6   7
ENDBRANCH   5   6
ENDBRANCH   3   5
ENDBRANCH   1   3
BRANCH   1  11
ATOM     11  C   UNL     1      28.165  25.517  27.563  1.00  0.00     0.087 C 
BRANCH  11  12
ATOM     12  C   UNL     1      26.614  25.554  27.620  1.00  0.00     0.066 C 
BRANCH  12  13
ATOM     13  C   UNL     1      26.032  26.284  28.831  1.00  0.00     0.140 C 
ATOM     14  O   UNL     1      26.211  25.794  29.938  1.00  0.00    -0.299 OA
BRANCH  13  15
ATOM     15  C   UNL     1      25.321  27.617  28.747  1.00  0.00     0.106 CG0
ATOM     16  G   UNL     1      25.960  28.682  29.625  1.00  0.00     0.000 G0
ENDBRANCH  13  15
ENDBRANCH  12  13
BRANCH  12  17
ATOM     17  C   UNL     1      25.906  24.211  27.214  1.00  0.00    -0.006 C 
ATOM     18  C   UNL     1      25.944  24.012  25.688  1.00  0.00     0.008 C 
ATOM     19  C   UNL     1      24.454  24.044  27.694  1.00  0.00     0.008 C 
ENDBRANCH  12  17
ENDBRANCH  11  12
ENDBRANCH   1  11
TORSDOF 1
ENDMDL
MODEL 3
REMARK VINA RESULT:    -1.681      1.845      3.757
REMARK INTER + INTRA:          -2.253
REMARK INTER:                  -2.906
REMARK INTRA:                   0.652
REMARK UNBOUND:                 0.312
REMARK SMILES CC1=CCC[C@H](C)C(=O)C[C@@H](C(C)C)C(=O)C1
REMARK SMILES IDX 8 1 9 2 6 3 7 4 5 5 4 6 3 7 2 8 1 9 10 11 11 12 15 13 16 14
REMARK SMILES IDX 17 15 12 17 13 18 14 19
REMARK H PARENT
REMARK Flexibility Score: 70.00
ROOT
ATOM      1  C   UNL     1      27.945  28.512  27.746  1.00  0.00     0.136 C 
ATOM      2  O   UNL     1      28.936  28.377  28.446  1.00  0.00    -0.299 OA
ENDROOT
BRANCH   1   3
ATOM      3  C   UNL     1      27.999  28.038  26.304  1.00  0.00     0.053 C 
ATOM      4  C   UNL     1      28.317  29.214  25.371  1.00  0.00     0.016 C 
BRANCH   3   5
ATOM      5  C   UNL     1      29.012  26.888  26.112  1.00  0.00     0.015 C 
BRANCH   5   6
ATOM      6  C   UNL     1      28.818  25.760  27.142  1.00  0.00     0.028 C 
BRANCH   6   7
ATOM      7  C   UNL     1      27.614  24.917  26.810  1.00  0.00    -0.028 C 
ATOM      8  C   UNL     1      26.537  24.758  27.612  1.00  0.00    -0.070 CG0
ATOM      9  C   UNL     1      25.417  23.875  27.121  1.00  0.00     0.039 C 
ATOM     10  G   UNL     1      26.378  25.457  28.954  1.00  0.00     0.000 G0
ENDBRANCH   6   7
ENDBRANCH   5   6
ENDBRANCH   3   5
ENDBRANCH   1   3
BRANCH   1  11
ATOM     11  C   UNL     1      26.650  28.978  28.376  1.00  0.00     0.087 C 
BRANCH  11  12
ATOM     12  C   UNL     1      25.991  28.049  29.430  1.00  0.00     0.066 C 
BRANCH  12  13
ATOM     13  C   UNL     1      25.534  26.691  28.897  1.00  0.00     0.140 C 
ATOM     14  O   UNL     1      24.456  26.634  28.321  1.00  0.00    -0.299 OA
BRANCH  13  15
ATOM     15  C   UNL     1      26.374  25.434  28.969  1.00  0.00     0.106 CG0
ATOM     16  G   UNL     1      26.539  24.759  27.615  1.00  0.00     0.000 G0
ENDBRANCH  13  15
ENDBRANCH  12  13
BRANCH  12  17
ATOM     17  C   UNL     1      25.009  28.771  30.424  1.00  0.00    -0.006 C 
ATOM     18  C   UNL     1      23.979  29.619  29.655  1.00  0.00     0.008 C 
ATOM     19  C   UNL     1      25.667  29.654  31.497  1.00  0.00     0.008 C 
ENDBRANCH  12  17
ENDBRANCH  11  12
ENDBRANCH   1  11
TORSDOF 1
ENDMDL
MODEL 4
REMARK VINA RESULT:    -1.592      1.897      5.134
REMARK INTER + INTRA:          -2.118
REMARK INTER:                  -2.449
REMARK INTRA:                   0.331
REMARK UNBOUND:                 0.312
REMARK SMILES CC1=CCC[C@H](C)C(=O)C[C@@H](C(C)C)C(=O)C1
REMARK SMILES IDX 8 1 9 2 6 3 7 4 5 5 4 6 3 7 2 8 1 9 10 11 11 12 15 13 16 14
REMARK SMILES IDX 17 15 12 17 13 18 14 19
REMARK H PARENT
REMARK Flexibility Score: 70.00
ROOT
ATOM      1  C   UNL     1      28.651  27.747  25.667  1.00  0.00     0.136 C 
ATOM      2  O   UNL     1      27.870  28.008  24.765  1.00  0.00    -0.299 OA
ENDROOT
BRANCH   1   3
ATOM      3  C   UNL     1      29.091  28.864  26.598  1.00  0.00     0.053 C 
ATOM      4  C   UNL     1      28.751  30.230  25.985  1.00  0.00     0.016 C 
BRANCH   3   5
ATOM      5  C   UNL     1      28.473  28.719  28.006  1.00  0.00     0.015 C 
BRANCH   5   6
ATOM      6  C   UNL     1      26.935  28.641  27.964  1.00  0.00     0.028 C 
BRANCH   6   7
ATOM      7  C   UNL     1      26.397  27.831  29.115  1.00  0.00    -0.028 C 
ATOM      8  C   UNL     1      26.838  26.603  29.468  1.00  0.00    -0.070 CG0
ATOM      9  C   UNL     1      26.184  25.932  30.650  1.00  0.00     0.039 C 
ATOM     10  G   UNL     1      27.983  25.887  28.767  1.00  0.00     0.000 G0
ENDBRANCH   6   7
ENDBRANCH   5   6
ENDBRANCH   3   5
ENDBRANCH   1   3
BRANCH   1  11
ATOM     11  C   UNL     1      29.015  26.304  25.938  1.00  0.00     0.087 C 
BRANCH  11  12
ATOM     12  C   UNL     1      27.852  25.300  26.158  1.00  0.00     0.066 C 
BRANCH  12  13
ATOM     13  C   UNL     1      27.534  24.993  27.622  1.00  0.00     0.140 C 
ATOM     14  O   UNL     1      26.936  23.956  27.874  1.00  0.00    -0.299 OA
BRANCH  13  15
ATOM     15  C   UNL     1      27.987  25.857  28.779  1.00  0.00     0.106 CG0
ATOM     16  G   UNL     1      26.836  26.587  29.455  1.00  0.00     0.000 G0
ENDBRANCH  13  15
ENDBRANCH  12  13
BRANCH  12  17
ATOM     17  C   UNL     1      27.844  24.074  25.174  1.00  0.00    -0.006 C 
ATOM     18  C   UNL     1      29.124  24.049  24.320  1.00  0.00     0.008 C 
ATOM     19  C   UNL     1      26.628  23.971  24.237  1.00  0.00     0.008 C 
ENDBRANCH  12  17
ENDBRANCH  11  12
ENDBRANCH   1  11
TORSDOF 1
ENDMDL
MODEL 5
REMARK VINA RESULT:    -0.172      1.867      4.165
REMARK INTER + INTRA:           0.050
REMARK INTER:                  -0.536
REMARK INTRA:                   0.586
REMARK UNBOUND:                 0.312
REMARK SMILES CC1=CCC[C@H](C)C(=O)C[C@@H](C(C)C)C(=O)C1
REMARK SMILES IDX 8 1 9 2 6 3 7 4 5 5 4 6 3 7 2 8 1 9 10 11 11 12 15 13 16 14
REMARK SMILES IDX 17 15 12 17 13 18 14 19
REMARK H PARENT
REMARK Flexibility Score: 70.00
ROOT
ATOM      1  C   UNL     1      25.143  26.358  28.472  1.00  0.00     0.136 C 
ATOM      2  O   UNL     1      25.397  25.911  29.579  1.00  0.00    -0.299 OA
ENDROOT
BRANCH   1   3
ATOM      3  C   UNL     1      24.309  27.625  28.370  1.00  0.00     0.053 C 
ATOM      4  C   UNL     1      22.831  27.271  28.160  1.00  0.00     0.016 C 
BRANCH   3   5
ATOM      5  C   UNL     1      24.491  28.536  29.604  1.00  0.00     0.015 C 
BRANCH   5   6
ATOM      6  C   UNL     1      25.590  29.595  29.391  1.00  0.00     0.028 C 
BRANCH   6   7
ATOM      7  C   UNL     1      26.964  28.997  29.554  1.00  0.00    -0.028 C 
ATOM      8  C   UNL     1      27.777  28.640  28.535  1.00  0.00    -0.070 CG0
ATOM      9  C   UNL     1      29.123  28.054  28.879  1.00  0.00     0.039 C 
ATOM     10  G   UNL     1      27.425  28.841  27.068  1.00  0.00     0.000 G0
ENDBRANCH   6   7
ENDBRANCH   5   6
ENDBRANCH   3   5
ENDBRANCH   1   3
BRANCH   1  11
ATOM     11  C   UNL     1      25.804  25.749  27.255  1.00  0.00     0.087 C 
BRANCH  11  12
ATOM     12  C   UNL     1      27.281  26.134  26.974  1.00  0.00     0.066 C 
BRANCH  12  13
ATOM     13  C   UNL     1      27.477  27.497  26.310  1.00  0.00     0.140 C 
ATOM     14  O   UNL     1      27.580  27.532  25.092  1.00  0.00    -0.299 OA
BRANCH  13  15
ATOM     15  C   UNL     1      27.469  28.808  27.066  1.00  0.00     0.106 CG0
ATOM     16  G   UNL     1      27.786  28.637  28.544  1.00  0.00     0.000 G0
ENDBRANCH  13  15
ENDBRANCH  12  13
BRANCH  12  17
ATOM     17  C   UNL     1      28.176  24.961  26.429  1.00  0.00    -0.006 C 
ATOM     18  C   UNL     1      27.341  23.983  25.584  1.00  0.00     0.008 C 
ATOM     19  C   UNL     1      28.949  24.157  27.488  1.00  0.00     0.008 C 
ENDBRANCH  12  17
ENDBRANCH  11  12
ENDBRANCH   1  11
TORSDOF 1
ENDMDL
MODEL 6
REMARK VINA RESULT:    -0.038     13.861     15.965
REMARK INTER + INTRA:           0.254
REMARK INTER:                  -0.225
REMARK INTRA:                   0.479
REMARK UNBOUND:                 0.312
REMARK SMILES CC1=CCC[C@H](C)C(=O)C[C@@H](C(C)C)C(=O)C1
REMARK SMILES IDX 8 1 9 2 6 3 7 4 5 5 4 6 3 7 2 8 1 9 10 11 11 12 15 13 16 14
REMARK SMILES IDX 17 15 12 17 13 18 14 19
REMARK H PARENT
REMARK Flexibility Score: 70.00
ROOT
ATOM      1  C   UNL     1      28.033  40.348  18.604  1.00  0.00     0.136 C 
ATOM      2  O   UNL     1      27.248  41.042  17.978  1.00  0.00    -0.299 OA
ENDROOT
BRANCH   1   3
ATOM      3  C   UNL     1      28.269  38.919  18.148  1.00  0.00     0.053 C 
ATOM      4  C   UNL     1      28.911  38.906  16.754  1.00  0.00     0.016 C 
BRANCH   3   5
ATOM      5  C   UNL     1      29.125  38.123  19.158  1.00  0.00     0.015 C 
BRANCH   5   6
ATOM      6  C   UNL     1      28.264  37.271  20.110  1.00  0.00     0.028 C 
BRANCH   6   7
ATOM      7  C   UNL     1      26.796  37.560  19.925  1.00  0.00    -0.028 C 
ATOM      8  C   UNL     1      26.093  38.476  20.628  1.00  0.00    -0.070 CG0
ATOM      9  C   UNL     1      24.627  38.635  20.313  1.00  0.00     0.039 C 
ATOM     10  G   UNL     1      26.713  39.381  21.683  1.00  0.00     0.000 G0
ENDBRANCH   6   7
ENDBRANCH   5   6
ENDBRANCH   3   5
ENDBRANCH   1   3
BRANCH   1  11
ATOM     11  C   UNL     1      28.873  40.978  19.694  1.00  0.00     0.087 C 
BRANCH  11  12
ATOM     12  C   UNL     1      28.131  41.540  20.936  1.00  0.00     0.066 C 
BRANCH  12  13
ATOM     13  C   UNL     1      26.816  40.838  21.274  1.00  0.00     0.140 C 
ATOM     14  O   UNL     1      25.777  41.468  21.137  1.00  0.00    -0.299 OA
BRANCH  13  15
ATOM     15  C   UNL     1      26.722  39.385  21.688  1.00  0.00     0.106 CG0
ATOM     16  G   UNL     1      26.120  38.502  20.604  1.00  0.00     0.000 G0
ENDBRANCH  13  15
ENDBRANCH  12  13
BRANCH  12  17
ATOM     17  C   UNL     1      28.129  43.109  21.049  1.00  0.00    -0.006 C 
ATOM     18  C   UNL     1      28.712  43.750  19.777  1.00  0.00     0.008 C 
ATOM     19  C   UNL     1      28.857  43.696  22.271  1.00  0.00     0.008 C 
ENDBRANCH  12  17
ENDBRANCH  11  12
ENDBRANCH   1  11
TORSDOF 1
ENDMDL
MODEL 7
REMARK VINA RESULT:     0.485      2.093      4.476
REMARK INTER + INTRA:           1.053
REMARK INTER:                   0.509
REMARK INTRA:                   0.544
REMARK UNBOUND:                 0.312
REMARK SMILES CC1=CCC[C@H](C)C(=O)C[C@@H](C(C)C)C(=O)C1
REMARK SMILES IDX 8 1 9 2 6 3 7 4 5 5 4 6 3 7 2 8 1 9 10 11 11 12 15 13 16 14
REMARK SMILES IDX 17 15 12 17 13 18 14 19
REMARK H PARENT
REMARK Flexibility Score: 70.00
ROOT
ATOM      1  C   UNL     1      25.107  26.287  27.973  1.00  0.00     0.136 C 
ATOM      2  O   UNL     1      24.656  25.461  28.749  1.00  0.00    -0.299 OA
ENDROOT
BRANCH   1   3
ATOM      3  C   UNL     1      25.108  27.750  28.383  1.00  0.00     0.053 C 
ATOM      4  C   UNL     1      23.679  28.307  28.362  1.00  0.00     0.016 C 
BRANCH   3   5
ATOM      5  C   UNL     1      25.765  27.962  29.765  1.00  0.00     0.015 C 
BRANCH   5   6
ATOM      6  C   UNL     1      27.248  27.546  29.776  1.00  0.00     0.028 C 
BRANCH   6   7
ATOM      7  C   UNL     1      27.424  26.165  30.355  1.00  0.00    -0.028 C 
ATOM      8  C   UNL     1      28.220  25.205  29.834  1.00  0.00    -0.070 CG0
ATOM      9  C   UNL     1      28.278  23.875  30.543  1.00  0.00     0.039 C 
ATOM     10  G   UNL     1      29.091  25.411  28.604  1.00  0.00     0.000 G0
ENDBRANCH   6   7
ENDBRANCH   5   6
ENDBRANCH   3   5
ENDBRANCH   1   3
BRANCH   1  11
ATOM     11  C   UNL     1      25.807  25.820  26.716  1.00  0.00     0.087 C 
BRANCH  11  12
ATOM     12  C   UNL     1      27.084  24.953  26.886  1.00  0.00     0.066 C 
BRANCH  12  13
ATOM     13  C   UNL     1      28.327  25.720  27.338  1.00  0.00     0.140 C 
ATOM     14  O   UNL     1      28.667  26.697  26.686  1.00  0.00    -0.299 OA
BRANCH  13  15
ATOM     15  C   UNL     1      29.109  25.388  28.590  1.00  0.00     0.106 CG0
ATOM     16  G   UNL     1      28.218  25.203  29.809  1.00  0.00     0.000 G0
ENDBRANCH  13  15
ENDBRANCH  12  13
BRANCH  12  17
ATOM     17  C   UNL     1      27.304  23.875  25.763  1.00  0.00    -0.006 C 
ATOM     18  C   UNL     1      28.750  23.919  25.237  1.00  0.00     0.008 C 
ATOM     19  C   UNL     1      26.344  23.948  24.562  1.00  0.00     0.008 C 
ENDBRANCH  12  17
ENDBRANCH  11  12
ENDBRANCH   1  11
TORSDOF 1
ENDMDL
