MODEL 1
REMARK VINA RESULT:    -3.478      0.000      0.000
REMARK INTER + INTRA:          -4.401
REMARK INTER:                  -4.291
REMARK INTRA:                  -0.110
REMARK UNBOUND:                -0.110
REMARK SMILES CCCCCC(=O)[O-]
REMARK SMILES IDX 4 1 5 2 6 3 7 4 8 5 3 6 2 7 1 8
REMARK H PARENT
REMARK Flexibility Score: inf
ROOT
ATOM      1  C   UNL     1     -29.586  14.245  14.555  1.00  0.00     0.006 C 
ENDROOT
BRANCH   1   2
ATOM      2  C   UNL     1     -31.016  14.805  14.512  1.00  0.00     0.053 C 
BRANCH   2   3
ATOM      3  C   UNL     1     -31.722  14.444  13.242  1.00  0.00     0.041 C 
ATOM      4  O   UNL     1     -31.064  14.222  12.192  1.00  0.00    -0.550 OA
ATOM      5  O   UNL     1     -33.105  14.321  13.226  1.00  0.00    -0.550 OA
ENDBRANCH   2   3
ENDBRANCH   1   2
BRANCH   1   6
ATOM      6  C   UNL     1     -28.585  15.106  15.350  1.00  0.00     0.000 C 
BRANCH   6   7
ATOM      7  C   UNL     1     -28.638  14.918  16.877  1.00  0.00    -0.003 C 
ATOM      8  C   UNL     1     -29.151  16.154  17.615  1.00  0.00     0.004 C 
ENDBRANCH   6   7
ENDBRANCH   1   6
TORSDOF 4
ENDMDL
MODEL 2
REMARK VINA RESULT:    -3.421      2.797      4.683
REMARK INTER + INTRA:          -4.331
REMARK INTER:                  -4.079
REMARK INTRA:                  -0.252
REMARK UNBOUND:                -0.110
REMARK SMILES CCCCCC(=O)[O-]
REMARK SMILES IDX 4 1 5 2 6 3 7 4 8 5 3 6 2 7 1 8
REMARK H PARENT
REMARK Flexibility Score: inf
ROOT
ATOM      1  C   UNL     1     -33.272  14.102  13.389  1.00  0.00     0.006 C 
ENDROOT
BRANCH   1   2
ATOM      2  C   UNL     1     -31.978  14.502  14.113  1.00  0.00     0.053 C 
BRANCH   2   3
ATOM      3  C   UNL     1     -30.759  14.163  13.311  1.00  0.00     0.041 C 
ATOM      4  O   UNL     1     -29.613  14.280  13.818  1.00  0.00    -0.550 OA
ATOM      5  O   UNL     1     -30.892  13.685  12.013  1.00  0.00    -0.550 OA
ENDBRANCH   2   3
ENDBRANCH   1   2
BRANCH   1   6
ATOM      6  C   UNL     1     -33.931  12.813  13.920  1.00  0.00     0.000 C 
BRANCH   6   7
ATOM      7  C   UNL     1     -33.764  11.580  13.013  1.00  0.00    -0.003 C 
ATOM      8  C   UNL     1     -32.497  10.782  13.315  1.00  0.00     0.004 C 
ENDBRANCH   6   7
ENDBRANCH   1   6
TORSDOF 4
ENDMDL
MODEL 3
REMARK VINA RESULT:    -3.418      2.599      4.477
REMARK INTER + INTRA:          -4.327
REMARK INTER:                  -4.208
REMARK INTRA:                  -0.119
REMARK UNBOUND:                -0.110
REMARK SMILES CCCCCC(=O)[O-]
REMARK SMILES IDX 4 1 5 2 6 3 7 4 8 5 3 6 2 7 1 8
REMARK H PARENT
REMARK Flexibility Score: inf
ROOT
ATOM      1  C   UNL     1     -31.047  14.931  13.771  1.00  0.00     0.006 C 
ENDROOT
BRANCH   1   2
ATOM      2  C   UNL     1     -30.779  14.731  15.271  1.00  0.00     0.053 C 
BRANCH   2   3
ATOM      3  C   UNL     1     -29.380  15.112  15.646  1.00  0.00     0.041 C 
ATOM      4  O   UNL     1     -28.437  14.950  14.828  1.00  0.00    -0.550 OA
ATOM      5  O   UNL     1     -29.124  15.679  16.888  1.00  0.00    -0.550 OA
ENDBRANCH   2   3
ENDBRANCH   1   2
BRANCH   1   6
ATOM      6  C   UNL     1     -31.583  13.681  13.044  1.00  0.00     0.000 C 
BRANCH   6   7
ATOM      7  C   UNL     1     -32.952  13.182  13.541  1.00  0.00    -0.003 C 
ATOM      8  C   UNL     1     -34.118  14.026  13.029  1.00  0.00     0.004 C 
ENDBRANCH   6   7
ENDBRANCH   1   6
TORSDOF 4
ENDMDL
MODEL 4
REMARK VINA RESULT:    -3.394      2.937      4.283
REMARK INTER + INTRA:          -4.297
REMARK INTER:                  -4.129
REMARK INTRA:                  -0.168
REMARK UNBOUND:                -0.110
REMARK SMILES CCCCCC(=O)[O-]
REMARK SMILES IDX 4 1 5 2 6 3 7 4 8 5 3 6 2 7 1 8
REMARK H PARENT
REMARK Flexibility Score: inf
ROOT
ATOM      1  C   UNL     1     -30.761  12.812  12.358  1.00  0.00     0.006 C 
ENDROOT
BRANCH   1   2
ATOM      2  C   UNL     1     -30.324  11.382  12.710  1.00  0.00     0.053 C 
BRANCH   2   3
ATOM      3  C   UNL     1     -28.881  11.318  13.106  1.00  0.00     0.041 C 
ATOM      4  O   UNL     1     -28.252  10.230  13.039  1.00  0.00    -0.550 OA
ATOM      5  O   UNL     1     -28.222  12.470  13.517  1.00  0.00    -0.550 OA
ENDBRANCH   2   3
ENDBRANCH   1   2
BRANCH   1   6
ATOM      6  C   UNL     1     -32.016  13.301  13.108  1.00  0.00     0.000 C 
BRANCH   6   7
ATOM      7  C   UNL     1     -31.885  14.695  13.748  1.00  0.00    -0.003 C 
ATOM      8  C   UNL     1     -30.652  14.829  14.642  1.00  0.00     0.004 C 
ENDBRANCH   6   7
ENDBRANCH   1   6
TORSDOF 4
ENDMDL
MODEL 5
REMARK VINA RESULT:    -3.388      3.637      4.608
REMARK INTER + INTRA:          -4.291
REMARK INTER:                  -4.171
REMARK INTRA:                  -0.119
REMARK UNBOUND:                -0.110
REMARK SMILES CCCCCC(=O)[O-]
REMARK SMILES IDX 4 1 5 2 6 3 7 4 8 5 3 6 2 7 1 8
REMARK H PARENT
REMARK Flexibility Score: inf
ROOT
ATOM      1  C   UNL     1     -30.811  13.443  12.657  1.00  0.00     0.006 C 
ENDROOT
BRANCH   1   2
ATOM      2  C   UNL     1     -30.912  11.928  12.890  1.00  0.00     0.053 C 
BRANCH   2   3
ATOM      3  C   UNL     1     -29.596  11.241  12.695  1.00  0.00     0.041 C 
ATOM      4  O   UNL     1     -28.528  11.801  13.056  1.00  0.00    -0.550 OA
ATOM      5  O   UNL     1     -29.552   9.967  12.143  1.00  0.00    -0.550 OA
ENDBRANCH   2   3
ENDBRANCH   1   2
BRANCH   1   6
ATOM      6  C   UNL     1     -31.652  14.298  13.626  1.00  0.00     0.000 C 
BRANCH   6   7
ATOM      7  C   UNL     1     -33.019  13.696  14.000  1.00  0.00    -0.003 C 
ATOM      8  C   UNL     1     -34.124  14.057  13.009  1.00  0.00     0.004 C 
ENDBRANCH   6   7
ENDBRANCH   1   6
TORSDOF 4
ENDMDL
MODEL 6
REMARK VINA RESULT:    -3.375      2.491      3.962
REMARK INTER + INTRA:          -4.275
REMARK INTER:                  -4.042
REMARK INTRA:                  -0.233
REMARK UNBOUND:                -0.110
REMARK SMILES CCCCCC(=O)[O-]
REMARK SMILES IDX 4 1 5 2 6 3 7 4 8 5 3 6 2 7 1 8
REMARK H PARENT
REMARK Flexibility Score: inf
ROOT
ATOM      1  C   UNL     1     -30.938  14.849  14.485  1.00  0.00     0.006 C 
ENDROOT
BRANCH   1   2
ATOM      2  C   UNL     1     -29.472  14.398  14.557  1.00  0.00     0.053 C 
BRANCH   2   3
ATOM      3  C   UNL     1     -29.322  12.933  14.285  1.00  0.00     0.041 C 
ATOM      4  O   UNL     1     -28.522  12.530  13.400  1.00  0.00    -0.550 OA
ATOM      5  O   UNL     1     -30.041  12.010  15.034  1.00  0.00    -0.550 OA
ENDBRANCH   2   3
ENDBRANCH   1   2
BRANCH   1   6
ATOM      6  C   UNL     1     -31.644  14.522  13.153  1.00  0.00     0.000 C 
BRANCH   6   7
ATOM      7  C   UNL     1     -33.114  14.087  13.289  1.00  0.00    -0.003 C 
ATOM      8  C   UNL     1     -33.412  13.390  14.616  1.00  0.00     0.004 C 
ENDBRANCH   6   7
ENDBRANCH   1   6
TORSDOF 4
ENDMDL
MODEL 7
REMARK VINA RESULT:    -3.278     11.324     12.723
REMARK INTER + INTRA:          -4.154
REMARK INTER:                  -3.963
REMARK INTRA:                  -0.192
REMARK UNBOUND:                -0.110
REMARK SMILES CCCCCC(=O)[O-]
REMARK SMILES IDX 4 1 5 2 6 3 7 4 8 5 3 6 2 7 1 8
REMARK H PARENT
REMARK Flexibility Score: inf
ROOT
ATOM      1  C   UNL     1     -32.470  14.101  26.627  1.00  0.00     0.006 C 
ENDROOT
BRANCH   1   2
ATOM      2  C   UNL     1     -31.403  14.117  27.733  1.00  0.00     0.053 C 
BRANCH   2   3
ATOM      3  C   UNL     1     -30.153  14.817  27.296  1.00  0.00     0.041 C 
ATOM      4  O   UNL     1     -30.186  16.034  26.978  1.00  0.00    -0.550 OA
ATOM      5  O   UNL     1     -28.945  14.132  27.274  1.00  0.00    -0.550 OA
ENDBRANCH   2   3
ENDBRANCH   1   2
BRANCH   1   6
ATOM      6  C   UNL     1     -33.644  15.073  26.857  1.00  0.00     0.000 C 
BRANCH   6   7
ATOM      7  C   UNL     1     -34.103  15.841  25.604  1.00  0.00    -0.003 C 
ATOM      8  C   UNL     1     -32.987  16.033  24.577  1.00  0.00     0.004 C 
ENDBRANCH   6   7
ENDBRANCH   1   6
TORSDOF 4
ENDMDL
MODEL 8
REMARK VINA RESULT:    -3.089      2.355      4.431
REMARK INTER + INTRA:          -3.922
REMARK INTER:                  -3.714
REMARK INTRA:                  -0.208
REMARK UNBOUND:                -0.110
REMARK SMILES CCCCCC(=O)[O-]
REMARK SMILES IDX 4 1 5 2 6 3 7 4 8 5 3 6 2 7 1 8
REMARK H PARENT
REMARK Flexibility Score: inf
ROOT
ATOM      1  C   UNL     1     -31.060  12.668  12.826  1.00  0.00     0.006 C 
ENDROOT
BRANCH   1   2
ATOM      2  C   UNL     1     -30.107  12.890  14.011  1.00  0.00     0.053 C 
BRANCH   2   3
ATOM      3  C   UNL     1     -29.855  14.344  14.263  1.00  0.00     0.041 C 
ATOM      4  O   UNL     1     -30.790  15.180  14.148  1.00  0.00    -0.550 OA
ATOM      5  O   UNL     1     -28.594  14.772  14.659  1.00  0.00    -0.550 OA
ENDBRANCH   2   3
ENDBRANCH   1   2
BRANCH   1   6
ATOM      6  C   UNL     1     -32.394  11.990  13.195  1.00  0.00     0.000 C 
BRANCH   6   7
ATOM      7  C   UNL     1     -33.390  12.889  13.950  1.00  0.00    -0.003 C 
ATOM      8  C   UNL     1     -33.980  13.994  13.075  1.00  0.00     0.004 C 
ENDBRANCH   6   7
ENDBRANCH   1   6
TORSDOF 4
ENDMDL
MODEL 9
REMARK VINA RESULT:    -3.089      1.763      2.739
REMARK INTER + INTRA:          -3.922
REMARK INTER:                  -3.683
REMARK INTRA:                  -0.239
REMARK UNBOUND:                -0.110
REMARK SMILES CCCCCC(=O)[O-]
REMARK SMILES IDX 4 1 5 2 6 3 7 4 8 5 3 6 2 7 1 8
REMARK H PARENT
REMARK Flexibility Score: inf
ROOT
ATOM      1  C   UNL     1     -32.723  13.650  14.600  1.00  0.00     0.006 C 
ENDROOT
BRANCH   1   2
ATOM      2  C   UNL     1     -32.405  12.824  13.345  1.00  0.00     0.053 C 
BRANCH   2   3
ATOM      3  C   UNL     1     -31.105  13.229  12.721  1.00  0.00     0.041 C 
ATOM      4  O   UNL     1     -30.961  14.389  12.252  1.00  0.00    -0.550 OA
ATOM      5  O   UNL     1     -30.041  12.337  12.689  1.00  0.00    -0.550 OA
ENDBRANCH   2   3
ENDBRANCH   1   2
BRANCH   1   6
ATOM      6  C   UNL     1     -31.886  13.279  15.841  1.00  0.00     0.000 C 
BRANCH   6   7
ATOM      7  C   UNL     1     -31.200  14.468  16.538  1.00  0.00    -0.003 C 
ATOM      8  C   UNL     1     -29.990  14.996  15.767  1.00  0.00     0.004 C 
ENDBRANCH   6   7
ENDBRANCH   1   6
TORSDOF 4
ENDMDL
