MODEL 1
REMARK VINA RESULT:    -5.198      0.000      0.000
REMARK INTER + INTRA:          -5.198
REMARK INTER:                  -5.198
REMARK INTRA:                   0.000
REMARK UNBOUND:                 0.000
REMARK SMILES C[C@@H]1C(=O)CC[C@H]2[C@]3(C)CC[C@]4(C)[C@@H]5CC(C)(C)CC[C@@]5(C)CC[C@]4(C)[C@H]3CC[C@]21C
REMARK SMILES IDX 1 1 2 2 3 3 4 4 5 5 6 6 7 7 30 8 29 9 28 10 27 11 8 12 10 13
REMARK SMILES IDX 11 14 12 15 25 16 24 17 23 18 21 19 14 20 15 21 16 22 19 23
REMARK SMILES IDX 20 24 17 25 18 26 22 27 26 28 13 29 9 30 31 31
REMARK H PARENT
REMARK Flexibility Score: inf
ROOT
ATOM      1  C   UNL     1       7.282  10.891  -1.389  1.00  0.00     0.016 C 
ATOM      2  C   UNL     1       6.814  11.174  -2.833  1.00  0.00     0.059 C 
ATOM      3  C   UNL     1       5.322  11.388  -2.834  1.00  0.00     0.136 C 
ATOM      4  O   UNL     1       4.872  12.520  -2.735  1.00  0.00    -0.299 OA
ATOM      5  C   UNL     1       4.377  10.226  -2.844  1.00  0.00     0.076 C 
ATOM      6  C   UNL     1       5.099   8.876  -2.948  1.00  0.00     0.012 C 
ATOM      7  C   UNL     1       6.300   8.829  -3.952  1.00  0.00     0.002 C 
ATOM      8  C   UNL     1       7.257  10.116  -3.920  1.00  0.00    -0.020 C 
ATOM      9  C   UNL     1       7.274  10.842  -5.301  1.00  0.00     0.008 C 
ATOM     10  C   UNL     1       7.491   9.939  -6.536  1.00  0.00     0.005 C 
ATOM     11  C   UNL     1       7.122   8.442  -6.340  1.00  0.00     0.002 C 
ATOM     12  C   UNL     1       5.881   8.273  -5.393  1.00  0.00    -0.026 C 
ATOM     13  C   UNL     1       5.491   6.744  -5.249  1.00  0.00     0.008 C 
ATOM     14  C   UNL     1       6.378   5.759  -6.039  1.00  0.00     0.008 C 
ATOM     15  C   UNL     1       6.493   6.129  -7.544  1.00  0.00    -0.024 C 
ATOM     16  C   UNL     1       7.275   7.539  -7.670  1.00  0.00    -0.024 C 
ATOM     17  C   UNL     1       8.833   7.341  -7.858  1.00  0.00     0.008 C 
ATOM     18  C   UNL     1       9.276   6.247  -8.827  1.00  0.00     0.007 C 
ATOM     19  C   UNL     1       8.737   4.862  -8.426  1.00  0.00    -0.029 C 
ATOM     20  C   UNL     1       7.173   4.972  -8.411  1.00  0.00     0.002 C 
ATOM     21  C   UNL     1       6.543   3.556  -8.284  1.00  0.00     0.011 C 
ATOM     22  C   UNL     1       6.961   2.580  -9.448  1.00  0.00    -0.035 C 
ATOM     23  C   UNL     1       8.089   3.181 -10.339  1.00  0.00     0.007 C 
ATOM     24  C   UNL     1       9.215   3.813  -9.506  1.00  0.00     0.007 C 
ATOM     25  C   UNL     1       5.740   2.299 -10.348  1.00  0.00     0.011 C 
ATOM     26  C   UNL     1       7.437   1.236  -8.850  1.00  0.00     0.011 C 
ATOM     27  C   UNL     1       9.357   4.410  -7.069  1.00  0.00     0.011 C 
ATOM     28  C   UNL     1       6.802   8.302  -8.948  1.00  0.00     0.012 C 
ATOM     29  C   UNL     1       5.017   6.226  -8.095  1.00  0.00     0.012 C 
ATOM     30  C   UNL     1       4.656   9.076  -5.933  1.00  0.00     0.012 C 
ATOM     31  C   UNL     1       8.735   9.710  -3.619  1.00  0.00     0.012 C 
ENDROOT
TORSDOF 0
ENDMDL
MODEL 2
REMARK VINA RESULT:    -4.725      2.714      8.106
REMARK INTER + INTRA:          -4.725
REMARK INTER:                  -4.725
REMARK INTRA:                   0.000
REMARK UNBOUND:                 0.000
REMARK SMILES C[C@@H]1C(=O)CC[C@H]2[C@]3(C)CC[C@]4(C)[C@@H]5CC(C)(C)CC[C@@]5(C)CC[C@]4(C)[C@H]3CC[C@]21C
REMARK SMILES IDX 1 1 2 2 3 3 4 4 5 5 6 6 7 7 30 8 29 9 28 10 27 11 8 12 10 13
REMARK SMILES IDX 11 14 12 15 25 16 24 17 23 18 21 19 14 20 15 21 16 22 19 23
REMARK SMILES IDX 20 24 17 25 18 26 22 27 26 28 13 29 9 30 31 31
REMARK H PARENT
REMARK Flexibility Score: inf
ROOT
ATOM      1  C   UNL     1       9.125   2.450  -8.128  1.00  0.00     0.016 C 
ATOM      2  C   UNL     1       8.125   3.418  -8.796  1.00  0.00     0.059 C 
ATOM      3  C   UNL     1       8.752   3.991 -10.041  1.00  0.00     0.136 C 
ATOM      4  O   UNL     1       8.562   3.449 -11.120  1.00  0.00    -0.299 OA
ATOM      5  C   UNL     1       9.696   5.151  -9.964  1.00  0.00     0.076 C 
ATOM      6  C   UNL     1       9.844   5.701  -8.539  1.00  0.00     0.012 C 
ATOM      7  C   UNL     1       8.517   5.803  -7.714  1.00  0.00     0.002 C 
ATOM      8  C   UNL     1       7.531   4.547  -7.863  1.00  0.00    -0.020 C 
ATOM      9  C   UNL     1       6.156   4.975  -8.464  1.00  0.00     0.008 C 
ATOM     10  C   UNL     1       5.491   6.210  -7.815  1.00  0.00     0.005 C 
ATOM     11  C   UNL     1       6.458   7.173  -7.070  1.00  0.00     0.002 C 
ATOM     12  C   UNL     1       7.853   7.258  -7.786  1.00  0.00    -0.026 C 
ATOM     13  C   UNL     1       8.803   8.283  -7.040  1.00  0.00     0.008 C 
ATOM     14  C   UNL     1       8.192   8.969  -5.801  1.00  0.00     0.008 C 
ATOM     15  C   UNL     1       6.828   9.647  -6.103  1.00  0.00    -0.024 C 
ATOM     16  C   UNL     1       5.752   8.499  -6.478  1.00  0.00    -0.024 C 
ATOM     17  C   UNL     1       4.942   8.005  -5.212  1.00  0.00     0.008 C 
ATOM     18  C   UNL     1       4.454   9.081  -4.245  1.00  0.00     0.007 C 
ATOM     19  C   UNL     1       5.611   9.925  -3.681  1.00  0.00    -0.029 C 
ATOM     20  C   UNL     1       6.329  10.585  -4.908  1.00  0.00     0.002 C 
ATOM     21  C   UNL     1       7.334  11.665  -4.417  1.00  0.00     0.011 C 
ATOM     22  C   UNL     1       6.659  12.804  -3.564  1.00  0.00    -0.035 C 
ATOM     23  C   UNL     1       5.176  12.474  -3.215  1.00  0.00     0.007 C 
ATOM     24  C   UNL     1       5.002  11.027  -2.728  1.00  0.00     0.007 C 
ATOM     25  C   UNL     1       6.678  14.125  -4.362  1.00  0.00     0.011 C 
ATOM     26  C   UNL     1       7.460  13.020  -2.260  1.00  0.00     0.011 C 
ATOM     27  C   UNL     1       6.544   9.044  -2.796  1.00  0.00     0.011 C 
ATOM     28  C   UNL     1       4.676   9.071  -7.456  1.00  0.00     0.012 C 
ATOM     29  C   UNL     1       7.075  10.634  -7.309  1.00  0.00     0.012 C 
ATOM     30  C   UNL     1       7.688   7.689  -9.277  1.00  0.00     0.012 C 
ATOM     31  C   UNL     1       7.223   3.907  -6.473  1.00  0.00     0.012 C 
ENDROOT
TORSDOF 0
ENDMDL
MODEL 3
REMARK VINA RESULT:    -4.577      2.727      5.008
REMARK INTER + INTRA:          -4.577
REMARK INTER:                  -4.577
REMARK INTRA:                   0.000
REMARK UNBOUND:                 0.000
REMARK SMILES C[C@@H]1C(=O)CC[C@H]2[C@]3(C)CC[C@]4(C)[C@@H]5CC(C)(C)CC[C@@]5(C)CC[C@]4(C)[C@H]3CC[C@]21C
REMARK SMILES IDX 1 1 2 2 3 3 4 4 5 5 6 6 7 7 30 8 29 9 28 10 27 11 8 12 10 13
REMARK SMILES IDX 11 14 12 15 25 16 24 17 23 18 21 19 14 20 15 21 16 22 19 23
REMARK SMILES IDX 20 24 17 25 18 26 22 27 26 28 13 29 9 30 31 31
REMARK H PARENT
REMARK Flexibility Score: inf
ROOT
ATOM      1  C   UNL     1       7.670  13.666   1.484  1.00  0.00     0.016 C 
ATOM      2  C   UNL     1       6.557  13.604   0.415  1.00  0.00     0.059 C 
ATOM      3  C   UNL     1       5.461  12.689   0.899  1.00  0.00     0.136 C 
ATOM      4  O   UNL     1       4.506  13.156   1.504  1.00  0.00    -0.299 OA
ATOM      5  C   UNL     1       5.575  11.204   0.749  1.00  0.00     0.076 C 
ATOM      6  C   UNL     1       6.839  10.780  -0.010  1.00  0.00     0.012 C 
ATOM      7  C   UNL     1       7.202  11.654  -1.258  1.00  0.00     0.002 C 
ATOM      8  C   UNL     1       7.028  13.235  -1.048  1.00  0.00    -0.020 C 
ATOM      9  C   UNL     1       5.978  13.825  -2.040  1.00  0.00     0.008 C 
ATOM     10  C   UNL     1       6.141  13.411  -3.520  1.00  0.00     0.005 C 
ATOM     11  C   UNL     1       6.926  12.090  -3.761  1.00  0.00     0.002 C 
ATOM     12  C   UNL     1       6.647  11.039  -2.627  1.00  0.00    -0.026 C 
ATOM     13  C   UNL     1       7.415   9.685  -2.919  1.00  0.00     0.008 C 
ATOM     14  C   UNL     1       8.256   9.668  -4.213  1.00  0.00     0.008 C 
ATOM     15  C   UNL     1       7.438  10.084  -5.466  1.00  0.00    -0.024 C 
ATOM     16  C   UNL     1       7.005  11.634  -5.308  1.00  0.00    -0.024 C 
ATOM     17  C   UNL     1       8.051  12.617  -5.973  1.00  0.00     0.008 C 
ATOM     18  C   UNL     1       8.595  12.216  -7.343  1.00  0.00     0.007 C 
ATOM     19  C   UNL     1       9.290  10.843  -7.314  1.00  0.00    -0.029 C 
ATOM     20  C   UNL     1       8.220   9.805  -6.831  1.00  0.00     0.002 C 
ATOM     21  C   UNL     1       8.755   8.359  -7.033  1.00  0.00     0.011 C 
ATOM     22  C   UNL     1       9.124   8.033  -8.530  1.00  0.00    -0.035 C 
ATOM     23  C   UNL     1       9.084   9.302  -9.432  1.00  0.00     0.007 C 
ATOM     24  C   UNL     1       9.780  10.505  -8.776  1.00  0.00     0.007 C 
ATOM     25  C   UNL     1       8.117   7.011  -9.098  1.00  0.00     0.011 C 
ATOM     26  C   UNL     1      10.534   7.402  -8.590  1.00  0.00     0.011 C 
ATOM     27  C   UNL     1      10.568  10.900  -6.424  1.00  0.00     0.011 C 
ATOM     28  C   UNL     1       5.661  11.895  -6.060  1.00  0.00     0.012 C 
ATOM     29  C   UNL     1       6.183   9.128  -5.520  1.00  0.00     0.012 C 
ATOM     30  C   UNL     1       5.118  10.754  -2.496  1.00  0.00     0.012 C 
ATOM     31  C   UNL     1       8.367  13.989  -1.325  1.00  0.00     0.012 C 
ENDROOT
TORSDOF 0
ENDMDL
MODEL 4
REMARK VINA RESULT:    -4.575      2.939      8.096
REMARK INTER + INTRA:          -4.575
REMARK INTER:                  -4.575
REMARK INTRA:                   0.000
REMARK UNBOUND:                 0.000
REMARK SMILES C[C@@H]1C(=O)CC[C@H]2[C@]3(C)CC[C@]4(C)[C@@H]5CC(C)(C)CC[C@@]5(C)CC[C@]4(C)[C@H]3CC[C@]21C
REMARK SMILES IDX 1 1 2 2 3 3 4 4 5 5 6 6 7 7 30 8 29 9 28 10 27 11 8 12 10 13
REMARK SMILES IDX 11 14 12 15 25 16 24 17 23 18 21 19 14 20 15 21 16 22 19 23
REMARK SMILES IDX 20 24 17 25 18 26 22 27 26 28 13 29 9 30 31 31
REMARK H PARENT
REMARK Flexibility Score: inf
ROOT
ATOM      1  C   UNL     1       8.028   1.860  -8.129  1.00  0.00     0.016 C 
ATOM      2  C   UNL     1       7.210   2.985  -8.799  1.00  0.00     0.059 C 
ATOM      3  C   UNL     1       7.689   3.164 -10.217  1.00  0.00     0.136 C 
ATOM      4  O   UNL     1       7.132   2.564 -11.125  1.00  0.00    -0.299 OA
ATOM      5  C   UNL     1       8.907   3.980 -10.522  1.00  0.00     0.076 C 
ATOM      6  C   UNL     1       9.500   4.648  -9.274  1.00  0.00     0.012 C 
ATOM      7  C   UNL     1       8.459   5.262  -8.278  1.00  0.00     0.002 C 
ATOM      8  C   UNL     1       7.159   4.359  -8.018  1.00  0.00    -0.020 C 
ATOM      9  C   UNL     1       5.858   5.099  -8.456  1.00  0.00     0.008 C 
ATOM     10  C   UNL     1       5.709   6.554  -7.959  1.00  0.00     0.005 C 
ATOM     11  C   UNL     1       7.038   7.269  -7.583  1.00  0.00     0.002 C 
ATOM     12  C   UNL     1       8.217   6.825  -8.521  1.00  0.00    -0.026 C 
ATOM     13  C   UNL     1       9.547   7.604  -8.153  1.00  0.00     0.008 C 
ATOM     14  C   UNL     1       9.424   8.607  -6.987  1.00  0.00     0.008 C 
ATOM     15  C   UNL     1       8.265   9.621  -7.187  1.00  0.00    -0.024 C 
ATOM     16  C   UNL     1       6.863   8.816  -7.151  1.00  0.00    -0.024 C 
ATOM     17  C   UNL     1       6.238   8.770  -5.698  1.00  0.00     0.008 C 
ATOM     18  C   UNL     1       6.280  10.065  -4.891  1.00  0.00     0.007 C 
ATOM     19  C   UNL     1       7.716  10.585  -4.699  1.00  0.00    -0.029 C 
ATOM     20  C   UNL     1       8.308  10.820  -6.131  1.00  0.00     0.002 C 
ATOM     21  C   UNL     1       9.650  11.599  -6.029  1.00  0.00     0.011 C 
ATOM     22  C   UNL     1       9.508  12.995  -5.314  1.00  0.00    -0.035 C 
ATOM     23  C   UNL     1       8.102  13.184  -4.670  1.00  0.00     0.007 C 
ATOM     24  C   UNL     1       7.648  11.940  -3.890  1.00  0.00     0.007 C 
ATOM     25  C   UNL     1       9.716  14.125  -6.345  1.00  0.00     0.011 C 
ATOM     26  C   UNL     1      10.597  13.133  -4.225  1.00  0.00     0.011 C 
ATOM     27  C   UNL     1       8.540   9.592  -3.824  1.00  0.00     0.011 C 
ATOM     28  C   UNL     1       5.801   9.548  -8.031  1.00  0.00     0.012 C 
ATOM     29  C   UNL     1       8.509  10.311  -8.585  1.00  0.00     0.012 C 
ATOM     30  C   UNL     1       7.861   7.078 -10.019  1.00  0.00     0.012 C 
ATOM     31  C   UNL     1       6.992   4.039  -6.498  1.00  0.00     0.012 C 
ENDROOT
TORSDOF 0
ENDMDL
MODEL 5
REMARK VINA RESULT:    -4.493      3.325      8.209
REMARK INTER + INTRA:          -4.493
REMARK INTER:                  -4.493
REMARK INTRA:                   0.000
REMARK UNBOUND:                 0.000
REMARK SMILES C[C@@H]1C(=O)CC[C@H]2[C@]3(C)CC[C@]4(C)[C@@H]5CC(C)(C)CC[C@@]5(C)CC[C@]4(C)[C@H]3CC[C@]21C
REMARK SMILES IDX 1 1 2 2 3 3 4 4 5 5 6 6 7 7 30 8 29 9 28 10 27 11 8 12 10 13
REMARK SMILES IDX 11 14 12 15 25 16 24 17 23 18 21 19 14 20 15 21 16 22 19 23
REMARK SMILES IDX 20 24 17 25 18 26 22 27 26 28 13 29 9 30 31 31
REMARK H PARENT
REMARK Flexibility Score: inf
ROOT
ATOM      1  C   UNL     1       6.955   2.705  -7.827  1.00  0.00     0.016 C 
ATOM      2  C   UNL     1       6.761   3.855  -8.839  1.00  0.00     0.059 C 
ATOM      3  C   UNL     1       7.639   3.607 -10.040  1.00  0.00     0.136 C 
ATOM      4  O   UNL     1       7.186   3.015 -11.009  1.00  0.00    -0.299 OA
ATOM      5  C   UNL     1       9.089   3.977 -10.022  1.00  0.00     0.076 C 
ATOM      6  C   UNL     1       9.504   4.691  -8.729  1.00  0.00     0.012 C 
ATOM      7  C   UNL     1       8.489   5.755  -8.190  1.00  0.00     0.002 C 
ATOM      8  C   UNL     1       6.948   5.316  -8.265  1.00  0.00    -0.020 C 
ATOM      9  C   UNL     1       6.128   6.284  -9.174  1.00  0.00     0.008 C 
ATOM     10  C   UNL     1       6.329   7.793  -8.908  1.00  0.00     0.005 C 
ATOM     11  C   UNL     1       7.663   8.173  -8.204  1.00  0.00     0.002 C 
ATOM     12  C   UNL     1       8.842   7.242  -8.662  1.00  0.00    -0.026 C 
ATOM     13  C   UNL     1      10.199   7.680  -7.972  1.00  0.00     0.008 C 
ATOM     14  C   UNL     1      10.096   8.890  -7.020  1.00  0.00     0.008 C 
ATOM     15  C   UNL     1       9.429  10.124  -7.687  1.00  0.00    -0.024 C 
ATOM     16  C   UNL     1       7.888   9.761  -8.017  1.00  0.00    -0.024 C 
ATOM     17  C   UNL     1       6.912  10.181  -6.845  1.00  0.00     0.008 C 
ATOM     18  C   UNL     1       7.150  11.549  -6.209  1.00  0.00     0.007 C 
ATOM     19  C   UNL     1       8.567  11.679  -5.622  1.00  0.00    -0.029 C 
ATOM     20  C   UNL     1       9.569  11.450  -6.806  1.00  0.00     0.002 C 
ATOM     21  C   UNL     1      11.010  11.832  -6.363  1.00  0.00     0.011 C 
ATOM     22  C   UNL     1      11.140  13.326  -5.883  1.00  0.00    -0.035 C 
ATOM     23  C   UNL     1       9.752  14.021  -5.747  1.00  0.00     0.007 C 
ATOM     24  C   UNL     1       8.725  13.133  -5.027  1.00  0.00     0.007 C 
ATOM     25  C   UNL     1      11.975  14.125  -6.907  1.00  0.00     0.011 C 
ATOM     26  C   UNL     1      11.875  13.372  -4.524  1.00  0.00     0.011 C 
ATOM     27  C   UNL     1       8.754  10.692  -4.430  1.00  0.00     0.011 C 
ATOM     28  C   UNL     1       7.402  10.567  -9.264  1.00  0.00     0.012 C 
ATOM     29  C   UNL     1      10.254  10.425  -8.998  1.00  0.00     0.012 C 
ATOM     30  C   UNL     1       9.010   7.279 -10.213  1.00  0.00     0.012 C 
ATOM     31  C   UNL     1       6.280   5.366  -6.855  1.00  0.00     0.012 C 
ENDROOT
TORSDOF 0
ENDMDL
MODEL 6
REMARK VINA RESULT:    -4.193      1.650      2.351
REMARK INTER + INTRA:          -4.193
REMARK INTER:                  -4.193
REMARK INTRA:                   0.000
REMARK UNBOUND:                 0.000
REMARK SMILES C[C@@H]1C(=O)CC[C@H]2[C@]3(C)CC[C@]4(C)[C@@H]5CC(C)(C)CC[C@@]5(C)CC[C@]4(C)[C@H]3CC[C@]21C
REMARK SMILES IDX 1 1 2 2 3 3 4 4 5 5 6 6 7 7 30 8 29 9 28 10 27 11 8 12 10 13
REMARK SMILES IDX 11 14 12 15 25 16 24 17 23 18 21 19 14 20 15 21 16 22 19 23
REMARK SMILES IDX 20 24 17 25 18 26 22 27 26 28 13 29 9 30 31 31
REMARK H PARENT
REMARK Flexibility Score: inf
ROOT
ATOM      1  C   UNL     1       7.923  12.147  -0.572  1.00  0.00     0.016 C 
ATOM      2  C   UNL     1       7.084  12.510  -1.816  1.00  0.00     0.059 C 
ATOM      3  C   UNL     1       5.622  12.328  -1.495  1.00  0.00     0.136 C 
ATOM      4  O   UNL     1       4.968  13.278  -1.088  1.00  0.00    -0.299 OA
ATOM      5  C   UNL     1       4.982  10.976  -1.559  1.00  0.00     0.076 C 
ATOM      6  C   UNL     1       5.941   9.890  -2.065  1.00  0.00     0.012 C 
ATOM      7  C   UNL     1       6.857  10.305  -3.265  1.00  0.00     0.002 C 
ATOM      8  C   UNL     1       7.487  11.776  -3.157  1.00  0.00    -0.020 C 
ATOM      9  C   UNL     1       7.023  12.678  -4.342  1.00  0.00     0.008 C 
ATOM     10  C   UNL     1       7.143  12.056  -5.752  1.00  0.00     0.005 C 
ATOM     11  C   UNL     1       7.170  10.502  -5.794  1.00  0.00     0.002 C 
ATOM     12  C   UNL     1       6.250   9.879  -4.683  1.00  0.00    -0.026 C 
ATOM     13  C   UNL     1       6.252   8.298  -4.778  1.00  0.00     0.008 C 
ATOM     14  C   UNL     1       7.128   7.705  -5.902  1.00  0.00     0.008 C 
ATOM     15  C   UNL     1       6.807   8.310  -7.296  1.00  0.00    -0.024 C 
ATOM     16  C   UNL     1       7.207   9.877  -7.282  1.00  0.00    -0.024 C 
ATOM     17  C   UNL     1       8.685  10.119  -7.794  1.00  0.00     0.008 C 
ATOM     18  C   UNL     1       9.122   9.333  -9.028  1.00  0.00     0.007 C 
ATOM     19  C   UNL     1       9.010   7.812  -8.819  1.00  0.00    -0.029 C 
ATOM     20  C   UNL     1       7.508   7.510  -8.489  1.00  0.00     0.002 C 
ATOM     21  C   UNL     1       7.253   5.977  -8.532  1.00  0.00     0.011 C 
ATOM     22  C   UNL     1       7.597   5.326  -9.925  1.00  0.00    -0.035 C 
ATOM     23  C   UNL     1       8.327   6.324 -10.874  1.00  0.00     0.007 C 
ATOM     24  C   UNL     1       9.446   7.095 -10.157  1.00  0.00     0.007 C 
ATOM     25  C   UNL     1       6.293   4.875 -10.618  1.00  0.00     0.011 C 
ATOM     26  C   UNL     1       8.483   4.078  -9.710  1.00  0.00     0.011 C 
ATOM     27  C   UNL     1      10.011   7.341  -7.721  1.00  0.00     0.011 C 
ATOM     28  C   UNL     1       6.295  10.672  -8.270  1.00  0.00     0.012 C 
ATOM     29  C   UNL     1       5.260   8.102  -7.529  1.00  0.00     0.012 C 
ATOM     30  C   UNL     1       4.787  10.408  -4.812  1.00  0.00     0.012 C 
ATOM     31  C   UNL     1       9.046  11.726  -3.226  1.00  0.00     0.012 C 
ENDROOT
TORSDOF 0
ENDMDL
MODEL 7
REMARK VINA RESULT:    -4.070      3.596      8.079
REMARK INTER + INTRA:          -4.070
REMARK INTER:                  -4.070
REMARK INTRA:                   0.000
REMARK UNBOUND:                 0.000
REMARK SMILES C[C@@H]1C(=O)CC[C@H]2[C@]3(C)CC[C@]4(C)[C@@H]5CC(C)(C)CC[C@@]5(C)CC[C@]4(C)[C@H]3CC[C@]21C
REMARK SMILES IDX 1 1 2 2 3 3 4 4 5 5 6 6 7 7 30 8 29 9 28 10 27 11 8 12 10 13
REMARK SMILES IDX 11 14 12 15 25 16 24 17 23 18 21 19 14 20 15 21 16 22 19 23
REMARK SMILES IDX 20 24 17 25 18 26 22 27 26 28 13 29 9 30 31 31
REMARK H PARENT
REMARK Flexibility Score: inf
ROOT
ATOM      1  C   UNL     1       4.807   2.179  -8.652  1.00  0.00     0.016 C 
ATOM      2  C   UNL     1       5.788   2.799  -9.671  1.00  0.00     0.059 C 
ATOM      3  C   UNL     1       7.033   1.953  -9.733  1.00  0.00     0.136 C 
ATOM      4  O   UNL     1       7.121   1.065 -10.570  1.00  0.00    -0.299 OA
ATOM      5  C   UNL     1       8.122   2.107  -8.717  1.00  0.00     0.076 C 
ATOM      6  C   UNL     1       7.850   3.247  -7.726  1.00  0.00     0.012 C 
ATOM      7  C   UNL     1       7.264   4.558  -8.350  1.00  0.00     0.002 C 
ATOM      8  C   UNL     1       6.126   4.329  -9.457  1.00  0.00    -0.020 C 
ATOM      9  C   UNL     1       6.557   4.910 -10.840  1.00  0.00     0.008 C 
ATOM     10  C   UNL     1       7.121   6.348 -10.821  1.00  0.00     0.005 C 
ATOM     11  C   UNL     1       7.696   6.821  -9.456  1.00  0.00     0.002 C 
ATOM     12  C   UNL     1       8.392   5.643  -8.684  1.00  0.00    -0.026 C 
ATOM     13  C   UNL     1       9.015   6.158  -7.322  1.00  0.00     0.008 C 
ATOM     14  C   UNL     1       8.820   7.661  -7.033  1.00  0.00     0.008 C 
ATOM     15  C   UNL     1       9.303   8.564  -8.201  1.00  0.00    -0.024 C 
ATOM     16  C   UNL     1       8.359   8.293  -9.486  1.00  0.00    -0.024 C 
ATOM     17  C   UNL     1       7.135   9.294  -9.548  1.00  0.00     0.008 C 
ATOM     18  C   UNL     1       7.430  10.760  -9.238  1.00  0.00     0.007 C 
ATOM     19  C   UNL     1       8.036  10.948  -7.836  1.00  0.00    -0.029 C 
ATOM     20  C   UNL     1       9.360  10.110  -7.799  1.00  0.00     0.002 C 
ATOM     21  C   UNL     1      10.174  10.458  -6.521  1.00  0.00     0.011 C 
ATOM     22  C   UNL     1      10.548  11.985  -6.417  1.00  0.00    -0.035 C 
ATOM     23  C   UNL     1       9.828  12.841  -7.501  1.00  0.00     0.007 C 
ATOM     24  C   UNL     1       8.339  12.484  -7.629  1.00  0.00     0.007 C 
ATOM     25  C   UNL     1      12.071  12.155  -6.607  1.00  0.00     0.011 C 
ATOM     26  C   UNL     1      10.178  12.515  -5.012  1.00  0.00     0.011 C 
ATOM     27  C   UNL     1       7.001  10.552  -6.740  1.00  0.00     0.011 C 
ATOM     28  C   UNL     1       9.160   8.543 -10.803  1.00  0.00     0.012 C 
ATOM     29  C   UNL     1      10.804   8.168  -8.483  1.00  0.00     0.012 C 
ATOM     30  C   UNL     1       9.510   4.990  -9.556  1.00  0.00     0.012 C 
ATOM     31  C   UNL     1       4.804   5.061  -9.065  1.00  0.00     0.012 C 
ENDROOT
TORSDOF 0
ENDMDL
MODEL 8
REMARK VINA RESULT:    -4.049      3.565      7.791
REMARK INTER + INTRA:          -4.049
REMARK INTER:                  -4.049
REMARK INTRA:                   0.000
REMARK UNBOUND:                 0.000
REMARK SMILES C[C@@H]1C(=O)CC[C@H]2[C@]3(C)CC[C@]4(C)[C@@H]5CC(C)(C)CC[C@@]5(C)CC[C@]4(C)[C@H]3CC[C@]21C
REMARK SMILES IDX 1 1 2 2 3 3 4 4 5 5 6 6 7 7 30 8 29 9 28 10 27 11 8 12 10 13
REMARK SMILES IDX 11 14 12 15 25 16 24 17 23 18 21 19 14 20 15 21 16 22 19 23
REMARK SMILES IDX 20 24 17 25 18 26 22 27 26 28 13 29 9 30 31 31
REMARK H PARENT
REMARK Flexibility Score: inf
ROOT
ATOM      1  C   UNL     1       8.378   1.672  -8.484  1.00  0.00     0.016 C 
ATOM      2  C   UNL     1       7.309   2.714  -8.086  1.00  0.00     0.059 C 
ATOM      3  C   UNL     1       6.178   2.663  -9.081  1.00  0.00     0.136 C 
ATOM      4  O   UNL     1       5.207   1.954  -8.858  1.00  0.00    -0.299 OA
ATOM      5  C   UNL     1       6.272   3.380 -10.392  1.00  0.00     0.076 C 
ATOM      6  C   UNL     1       7.559   4.205 -10.525  1.00  0.00     0.012 C 
ATOM      7  C   UNL     1       7.988   4.997  -9.244  1.00  0.00     0.002 C 
ATOM      8  C   UNL     1       7.834   4.189  -7.867  1.00  0.00    -0.020 C 
ATOM      9  C   UNL     1       6.836   4.902  -6.902  1.00  0.00     0.008 C 
ATOM     10  C   UNL     1       7.053   6.419  -6.708  1.00  0.00     0.005 C 
ATOM     11  C   UNL     1       7.824   7.135  -7.853  1.00  0.00     0.002 C 
ATOM     12  C   UNL     1       7.480   6.514  -9.255  1.00  0.00    -0.026 C 
ATOM     13  C   UNL     1       8.235   7.291 -10.410  1.00  0.00     0.008 C 
ATOM     14  C   UNL     1       9.129   8.460  -9.946  1.00  0.00     0.008 C 
ATOM     15  C   UNL     1       8.371   9.474  -9.046  1.00  0.00    -0.024 C 
ATOM     16  C   UNL     1       7.959   8.733  -7.669  1.00  0.00    -0.024 C 
ATOM     17  C   UNL     1       9.049   8.926  -6.538  1.00  0.00     0.008 C 
ATOM     18  C   UNL     1       9.642  10.325  -6.388  1.00  0.00     0.007 C 
ATOM     19  C   UNL     1      10.312  10.816  -7.684  1.00  0.00    -0.029 C 
ATOM     20  C   UNL     1       9.204  10.814  -8.793  1.00  0.00     0.002 C 
ATOM     21  C   UNL     1       9.721  11.551 -10.061  1.00  0.00     0.011 C 
ATOM     22  C   UNL     1      10.147  13.043  -9.786  1.00  0.00    -0.035 C 
ATOM     23  C   UNL     1      10.167  13.375  -8.263  1.00  0.00     0.007 C 
ATOM     24  C   UNL     1      10.856  12.278  -7.438  1.00  0.00     0.007 C 
ATOM     25  C   UNL     1       9.146  13.998 -10.470  1.00  0.00     0.011 C 
ATOM     26  C   UNL     1      11.547  13.302 -10.388  1.00  0.00     0.011 C 
ATOM     27  C   UNL     1      11.552   9.935  -8.021  1.00  0.00     0.011 C 
ATOM     28  C   UNL     1       6.652   9.364  -7.090  1.00  0.00     0.012 C 
ATOM     29  C   UNL     1       7.103   9.939  -9.863  1.00  0.00     0.012 C 
ATOM     30  C   UNL     1       5.942   6.554  -9.519  1.00  0.00     0.012 C 
ATOM     31  C   UNL     1       9.196   4.105  -7.109  1.00  0.00     0.012 C 
ENDROOT
TORSDOF 0
ENDMDL
MODEL 9
REMARK VINA RESULT:    -3.997      3.296      7.702
REMARK INTER + INTRA:          -3.997
REMARK INTER:                  -3.997
REMARK INTRA:                   0.000
REMARK UNBOUND:                 0.000
REMARK SMILES C[C@@H]1C(=O)CC[C@H]2[C@]3(C)CC[C@]4(C)[C@@H]5CC(C)(C)CC[C@@]5(C)CC[C@]4(C)[C@H]3CC[C@]21C
REMARK SMILES IDX 1 1 2 2 3 3 4 4 5 5 6 6 7 7 30 8 29 9 28 10 27 11 8 12 10 13
REMARK SMILES IDX 11 14 12 15 25 16 24 17 23 18 21 19 14 20 15 21 16 22 19 23
REMARK SMILES IDX 20 24 17 25 18 26 22 27 26 28 13 29 9 30 31 31
REMARK H PARENT
REMARK Flexibility Score: inf
ROOT
ATOM      1  C   UNL     1       5.363   3.242  -6.241  1.00  0.00     0.016 C 
ATOM      2  C   UNL     1       5.249   4.239  -7.415  1.00  0.00     0.059 C 
ATOM      3  C   UNL     1       5.899   3.639  -8.635  1.00  0.00     0.136 C 
ATOM      4  O   UNL     1       5.222   3.009  -9.435  1.00  0.00    -0.299 OA
ATOM      5  C   UNL     1       7.382   3.706  -8.830  1.00  0.00     0.076 C 
ATOM      6  C   UNL     1       8.089   4.510  -7.730  1.00  0.00     0.012 C 
ATOM      7  C   UNL     1       7.365   5.826  -7.287  1.00  0.00     0.002 C 
ATOM      8  C   UNL     1       5.774   5.702  -7.128  1.00  0.00    -0.020 C 
ATOM      9  C   UNL     1       5.031   6.666  -8.105  1.00  0.00     0.008 C 
ATOM     10  C   UNL     1       5.539   8.125  -8.130  1.00  0.00     0.005 C 
ATOM     11  C   UNL     1       7.000   8.331  -7.641  1.00  0.00     0.002 C 
ATOM     12  C   UNL     1       7.919   7.122  -8.046  1.00  0.00    -0.026 C 
ATOM     13  C   UNL     1       9.413   7.377  -7.584  1.00  0.00     0.008 C 
ATOM     14  C   UNL     1       9.660   8.713  -6.854  1.00  0.00     0.008 C 
ATOM     15  C   UNL     1       9.146   9.940  -7.656  1.00  0.00    -0.024 C 
ATOM     16  C   UNL     1       7.535   9.850  -7.761  1.00  0.00    -0.024 C 
ATOM     17  C   UNL     1       6.816  10.632  -6.588  1.00  0.00     0.008 C 
ATOM     18  C   UNL     1       7.383  12.004  -6.229  1.00  0.00     0.007 C 
ATOM     19  C   UNL     1       8.865  11.934  -5.821  1.00  0.00    -0.029 C 
ATOM     20  C   UNL     1       9.642  11.329  -7.041  1.00  0.00     0.002 C 
ATOM     21  C   UNL     1      11.174  11.475  -6.819  1.00  0.00     0.011 C 
ATOM     22  C   UNL     1      11.637  12.968  -6.625  1.00  0.00    -0.035 C 
ATOM     23  C   UNL     1      10.430  13.941  -6.474  1.00  0.00     0.007 C 
ATOM     24  C   UNL     1       9.364  13.399  -5.509  1.00  0.00     0.007 C 
ATOM     25  C   UNL     1      12.460  13.415  -7.852  1.00  0.00     0.011 C 
ATOM     26  C   UNL     1      12.543  13.071  -5.376  1.00  0.00     0.011 C 
ATOM     27  C   UNL     1       9.026  11.123  -4.499  1.00  0.00     0.011 C 
ATOM     28  C   UNL     1       7.043  10.538  -9.074  1.00  0.00     0.012 C 
ATOM     29  C   UNL     1       9.830   9.865  -9.076  1.00  0.00     0.012 C 
ATOM     30  C   UNL     1       7.882   6.887  -9.588  1.00  0.00     0.012 C 
ATOM     31  C   UNL     1       5.320   6.100  -5.688  1.00  0.00     0.012 C 
ENDROOT
TORSDOF 0
ENDMDL
