MODEL 1
REMARK VINA RESULT:    -0.934      0.000      0.000
REMARK INTER + INTRA:          -1.222
REMARK INTER:                  -1.070
REMARK INTRA:                  -0.152
REMARK UNBOUND:                -0.152
REMARK SMILES O=C([O-])C=Cc1ccc(O)cc1
REMARK SMILES IDX 6 1 7 2 12 3 8 4 11 5 9 6 5 7 4 8 2 9 1 10 3 11 10 12
REMARK H PARENT 10 13
REMARK Flexibility Score: inf
ROOT
ATOM      1  C   UNL     1       7.831   5.069  18.168  1.00  0.00    -0.025 A 
ATOM      2  C   UNL     1       6.568   5.666  18.021  1.00  0.00     0.012 A 
ATOM      3  C   UNL     1       8.971   5.896  18.239  1.00  0.00     0.012 A 
ATOM      4  C   UNL     1       6.445   7.056  17.919  1.00  0.00     0.047 A 
ATOM      5  C   UNL     1       8.843   7.286  18.137  1.00  0.00     0.047 A 
ATOM      6  C   UNL     1       7.583   7.869  17.975  1.00  0.00     0.115 A 
ENDROOT
BRANCH   1   7
ATOM      7  C   UNL     1       7.909   3.591  18.281  1.00  0.00     0.010 C 
ATOM      8  C   UNL     1       6.860   2.775  18.110  1.00  0.00     0.025 C 
BRANCH   8   9
ATOM      9  C   UNL     1       6.983   1.314  18.243  1.00  0.00     0.064 C 
ATOM     10  O   UNL     1       5.948   0.617  18.403  1.00  0.00    -0.545 OA
ATOM     11  O   UNL     1       8.224   0.690  18.193  1.00  0.00    -0.545 OA
ENDBRANCH   8   9
ENDBRANCH   1   7
BRANCH   6  12
ATOM     12  O   UNL     1       7.473   9.254  17.875  1.00  0.00    -0.508 OA
ATOM     13  H   UNL     1       7.563   9.729  16.985  1.00  0.00     0.293 HD
ENDBRANCH   6  12
TORSDOF 3
ENDMDL
MODEL 2
REMARK VINA RESULT:    -0.829      1.381      1.612
REMARK INTER + INTRA:          -1.102
REMARK INTER:                  -0.954
REMARK INTRA:                  -0.149
REMARK UNBOUND:                -0.152
REMARK SMILES O=C([O-])C=Cc1ccc(O)cc1
REMARK SMILES IDX 6 1 7 2 12 3 8 4 11 5 9 6 5 7 4 8 2 9 1 10 3 11 10 12
REMARK H PARENT 10 13
REMARK Flexibility Score: inf
ROOT
ATOM      1  C   UNL     1       7.701   4.320  18.176  1.00  0.00    -0.025 A 
ATOM      2  C   UNL     1       6.817   5.410  18.235  1.00  0.00     0.012 A 
ATOM      3  C   UNL     1       9.082   4.571  18.036  1.00  0.00     0.012 A 
ATOM      4  C   UNL     1       7.294   6.721  18.132  1.00  0.00     0.047 A 
ATOM      5  C   UNL     1       9.555   5.883  17.934  1.00  0.00     0.047 A 
ATOM      6  C   UNL     1       8.665   6.960  17.979  1.00  0.00     0.115 A 
ENDROOT
BRANCH   1   7
ATOM      7  C   UNL     1       7.147   2.948  18.300  1.00  0.00     0.010 C 
ATOM      8  C   UNL     1       5.991   2.665  18.914  1.00  0.00     0.025 C 
BRANCH   8   9
ATOM      9  C   UNL     1       5.486   1.287  19.022  1.00  0.00     0.064 C 
ATOM     10  O   UNL     1       5.582   0.675  20.118  1.00  0.00    -0.545 OA
ATOM     11  O   UNL     1       4.903   0.648  17.934  1.00  0.00    -0.545 OA
ENDBRANCH   8   9
ENDBRANCH   1   7
BRANCH   6  12
ATOM     12  O   UNL     1       9.153   8.261  17.875  1.00  0.00    -0.508 OA
ATOM     13  H   UNL     1       9.664   8.570  17.057  1.00  0.00     0.293 HD
ENDBRANCH   6  12
TORSDOF 3
ENDMDL
MODEL 3
REMARK VINA RESULT:     0.168      1.219      5.678
REMARK INTER + INTRA:           0.041
REMARK INTER:                   0.192
REMARK INTRA:                  -0.151
REMARK UNBOUND:                -0.152
REMARK SMILES O=C([O-])C=Cc1ccc(O)cc1
REMARK SMILES IDX 6 1 7 2 12 3 8 4 11 5 9 6 5 7 4 8 2 9 1 10 3 11 10 12
REMARK H PARENT 10 13
REMARK Flexibility Score: inf
ROOT
ATOM      1  C   UNL     1       8.401   3.996  18.158  1.00  0.00    -0.025 A 
ATOM      2  C   UNL     1       7.121   3.427  18.257  1.00  0.00     0.012 A 
ATOM      3  C   UNL     1       9.517   3.142  18.028  1.00  0.00     0.012 A 
ATOM      4  C   UNL     1       6.956   2.038  18.253  1.00  0.00     0.047 A 
ATOM      5  C   UNL     1       9.348   1.754  18.025  1.00  0.00     0.047 A 
ATOM      6  C   UNL     1       8.070   1.198  18.139  1.00  0.00     0.115 A 
ENDROOT
BRANCH   1   7
ATOM      7  C   UNL     1       8.524   5.475  18.156  1.00  0.00     0.010 C 
ATOM      8  C   UNL     1       7.510   6.306  17.876  1.00  0.00     0.025 C 
BRANCH   8   9
ATOM      9  C   UNL     1       7.681   7.767  17.875  1.00  0.00     0.064 C 
ATOM     10  O   UNL     1       6.666   8.511  17.876  1.00  0.00    -0.545 OA
ATOM     11  O   UNL     1       8.947   8.343  17.877  1.00  0.00    -0.545 OA
ENDBRANCH   8   9
ENDBRANCH   1   7
BRANCH   6  12
ATOM     12  O   UNL     1       7.919  -0.187  18.135  1.00  0.00    -0.508 OA
ATOM     13  H   UNL     1       7.575  -0.679  17.319  1.00  0.00     0.293 HD
ENDBRANCH   6  12
TORSDOF 3
ENDMDL
