MODEL 1
REMARK VINA RESULT:    -4.947      0.000      0.000
REMARK INTER + INTRA:          -5.577
REMARK INTER:                  -5.525
REMARK INTRA:                  -0.053
REMARK UNBOUND:                -0.053
REMARK SMILES O=C([O-])c1ccccc1C(=O)[O-]
REMARK SMILES IDX 4 1 9 2 5 3 8 4 6 5 7 6 2 7 1 8 3 9 10 10 11 11 12 12
REMARK H PARENT
REMARK Flexibility Score: inf
ROOT
ATOM      1  C   UNL     1       5.292 -37.903  22.859  1.00  0.00     0.006 A 
ATOM      2  C   UNL     1       5.331 -36.599  22.287  1.00  0.00     0.006 A 
ATOM      3  C   UNL     1       5.603 -38.061  24.222  1.00  0.00     0.010 A 
ATOM      4  C   UNL     1       5.614 -35.498  23.115  1.00  0.00     0.010 A 
ATOM      5  C   UNL     1       5.904 -36.957  25.019  1.00  0.00     0.001 A 
ATOM      6  C   UNL     1       5.897 -35.676  24.469  1.00  0.00     0.001 A 
ENDROOT
BRANCH   1   7
ATOM      7  C   UNL     1       4.872 -39.105  22.102  1.00  0.00     0.072 C 
ATOM      8  O   UNL     1       3.868 -39.775  22.461  1.00  0.00    -0.545 OA
ATOM      9  O   UNL     1       5.627 -39.547  21.020  1.00  0.00    -0.545 OA
ENDBRANCH   1   7
BRANCH   2  10
ATOM     10  C   UNL     1       5.153 -36.348  20.839  1.00  0.00     0.072 C 
ATOM     11  O   UNL     1       6.125 -35.990  20.121  1.00  0.00    -0.545 OA
ATOM     12  O   UNL     1       3.890 -36.439  20.266  1.00  0.00    -0.545 OA
ENDBRANCH   2  10
TORSDOF 2
ENDMDL
MODEL 2
REMARK VINA RESULT:    -4.944      0.021      3.141
REMARK INTER + INTRA:          -5.575
REMARK INTER:                  -5.518
REMARK INTRA:                  -0.057
REMARK UNBOUND:                -0.053
REMARK SMILES O=C([O-])c1ccccc1C(=O)[O-]
REMARK SMILES IDX 4 1 9 2 5 3 8 4 6 5 7 6 2 7 1 8 3 9 10 10 11 11 12 12
REMARK H PARENT
REMARK Flexibility Score: inf
ROOT
ATOM      1  C   UNL     1       5.321 -36.602  22.276  1.00  0.00     0.006 A 
ATOM      2  C   UNL     1       5.277 -37.907  22.844  1.00  0.00     0.006 A 
ATOM      3  C   UNL     1       5.606 -35.504  23.108  1.00  0.00     0.010 A 
ATOM      4  C   UNL     1       5.585 -38.070  24.207  1.00  0.00     0.010 A 
ATOM      5  C   UNL     1       5.886 -35.686  24.462  1.00  0.00     0.001 A 
ATOM      6  C   UNL     1       5.887 -36.968  25.008  1.00  0.00     0.001 A 
ENDROOT
BRANCH   1   7
ATOM      7  C   UNL     1       5.146 -36.346  20.828  1.00  0.00     0.072 C 
ATOM      8  O   UNL     1       6.122 -35.996  20.112  1.00  0.00    -0.545 OA
ATOM      9  O   UNL     1       3.882 -36.423  20.253  1.00  0.00    -0.545 OA
ENDBRANCH   1   7
BRANCH   2  10
ATOM     10  C   UNL     1       4.854 -39.105  22.083  1.00  0.00     0.072 C 
ATOM     11  O   UNL     1       3.845 -39.771  22.435  1.00  0.00    -0.545 OA
ATOM     12  O   UNL     1       5.611 -39.548  21.005  1.00  0.00    -0.545 OA
ENDBRANCH   2  10
TORSDOF 2
ENDMDL
MODEL 3
REMARK VINA RESULT:    -4.842      1.864      3.449
REMARK INTER + INTRA:          -5.461
REMARK INTER:                  -5.667
REMARK INTRA:                   0.206
REMARK UNBOUND:                -0.053
REMARK SMILES O=C([O-])c1ccccc1C(=O)[O-]
REMARK SMILES IDX 4 1 9 2 5 3 8 4 6 5 7 6 2 7 1 8 3 9 10 10 11 11 12 12
REMARK H PARENT
REMARK Flexibility Score: inf
ROOT
ATOM      1  C   UNL     1       5.079 -37.685  21.944  1.00  0.00     0.006 A 
ATOM      2  C   UNL     1       5.123 -37.354  23.329  1.00  0.00     0.006 A 
ATOM      3  C   UNL     1       4.974 -39.036  21.567  1.00  0.00     0.010 A 
ATOM      4  C   UNL     1       4.994 -38.382  24.281  1.00  0.00     0.010 A 
ATOM      5  C   UNL     1       4.870 -40.041  22.529  1.00  0.00     0.001 A 
ATOM      6  C   UNL     1       4.868 -39.713  23.883  1.00  0.00     0.001 A 
ENDROOT
BRANCH   1   7
ATOM      7  C   UNL     1       5.070 -36.665  20.870  1.00  0.00     0.072 C 
ATOM      8  O   UNL     1       6.125 -36.053  20.553  1.00  0.00    -0.545 OA
ATOM      9  O   UNL     1       3.877 -36.321  20.244  1.00  0.00    -0.545 OA
ENDBRANCH   1   7
BRANCH   2  10
ATOM     10  C   UNL     1       5.368 -35.980  23.823  1.00  0.00     0.072 C 
ATOM     11  O   UNL     1       6.125 -35.774  24.808  1.00  0.00    -0.545 OA
ATOM     12  O   UNL     1       4.707 -34.904  23.243  1.00  0.00    -0.545 OA
ENDBRANCH   2  10
TORSDOF 2
ENDMDL
MODEL 4
REMARK VINA RESULT:    -4.184      1.598      2.828
REMARK INTER + INTRA:          -4.726
REMARK INTER:                  -4.963
REMARK INTRA:                   0.237
REMARK UNBOUND:                -0.053
REMARK SMILES O=C([O-])c1ccccc1C(=O)[O-]
REMARK SMILES IDX 4 1 9 2 5 3 8 4 6 5 7 6 2 7 1 8 3 9 10 10 11 11 12 12
REMARK H PARENT
REMARK Flexibility Score: inf
ROOT
ATOM      1  C   UNL     1       5.343 -37.542  23.878  1.00  0.00     0.006 A 
ATOM      2  C   UNL     1       5.222 -37.655  22.463  1.00  0.00     0.006 A 
ATOM      3  C   UNL     1       5.817 -36.337  24.429  1.00  0.00     0.010 A 
ATOM      4  C   UNL     1       5.517 -36.538  21.660  1.00  0.00     0.010 A 
ATOM      5  C   UNL     1       6.125 -35.249  23.611  1.00  0.00     0.001 A 
ATOM      6  C   UNL     1       5.963 -35.346  22.230  1.00  0.00     0.001 A 
ENDROOT
BRANCH   1   7
ATOM      7  C   UNL     1       4.929 -38.613  24.811  1.00  0.00     0.072 C 
ATOM      8  O   UNL     1       4.390 -38.334  25.915  1.00  0.00    -0.545 OA
ATOM      9  O   UNL     1       5.194 -39.944  24.508  1.00  0.00    -0.545 OA
ENDBRANCH   1   7
BRANCH   2  10
ATOM     10  C   UNL     1       4.864 -38.920  21.782  1.00  0.00     0.072 C 
ATOM     11  O   UNL     1       3.664 -39.292  21.700  1.00  0.00    -0.545 OA
ATOM     12  O   UNL     1       5.863 -39.749  21.284  1.00  0.00    -0.545 OA
ENDBRANCH   2  10
TORSDOF 2
ENDMDL
MODEL 5
REMARK VINA RESULT:    -3.958      1.914      3.442
REMARK INTER + INTRA:          -4.473
REMARK INTER:                  -4.780
REMARK INTRA:                   0.306
REMARK UNBOUND:                -0.053
REMARK SMILES O=C([O-])c1ccccc1C(=O)[O-]
REMARK SMILES IDX 4 1 9 2 5 3 8 4 6 5 7 6 2 7 1 8 3 9 10 10 11 11 12 12
REMARK H PARENT
REMARK Flexibility Score: inf
ROOT
ATOM      1  C   UNL     1       4.686 -38.379  21.352  1.00  0.00     0.006 A 
ATOM      2  C   UNL     1       5.102 -37.070  21.729  1.00  0.00     0.006 A 
ATOM      3  C   UNL     1       4.190 -38.590  20.052  1.00  0.00     0.010 A 
ATOM      4  C   UNL     1       5.068 -36.040  20.773  1.00  0.00     0.010 A 
ATOM      5  C   UNL     1       4.145 -37.548  19.126  1.00  0.00     0.001 A 
ATOM      6  C   UNL     1       4.594 -36.278  19.482  1.00  0.00     0.001 A 
ENDROOT
BRANCH   1   7
ATOM      7  C   UNL     1       4.811 -39.554  22.244  1.00  0.00     0.072 C 
ATOM      8  O   UNL     1       5.716 -40.411  22.058  1.00  0.00    -0.545 OA
ATOM      9  O   UNL     1       3.884 -39.762  23.259  1.00  0.00    -0.545 OA
ENDBRANCH   1   7
BRANCH   2  10
ATOM     10  C   UNL     1       5.508 -36.719  23.109  1.00  0.00     0.072 C 
ATOM     11  O   UNL     1       6.125 -37.547  23.832  1.00  0.00    -0.545 OA
ATOM     12  O   UNL     1       5.152 -35.489  23.649  1.00  0.00    -0.545 OA
ENDBRANCH   2  10
TORSDOF 2
ENDMDL
MODEL 6
REMARK VINA RESULT:    -3.952      2.267      3.341
REMARK INTER + INTRA:          -4.467
REMARK INTER:                  -4.828
REMARK INTRA:                   0.362
REMARK UNBOUND:                -0.053
REMARK SMILES O=C([O-])c1ccccc1C(=O)[O-]
REMARK SMILES IDX 4 1 9 2 5 3 8 4 6 5 7 6 2 7 1 8 3 9 10 10 11 11 12 12
REMARK H PARENT
REMARK Flexibility Score: inf
ROOT
ATOM      1  C   UNL     1       4.959 -38.417  22.257  1.00  0.00     0.006 A 
ATOM      2  C   UNL     1       5.376 -37.327  23.074  1.00  0.00     0.006 A 
ATOM      3  C   UNL     1       4.885 -38.236  20.863  1.00  0.00     0.010 A 
ATOM      4  C   UNL     1       5.766 -36.123  22.460  1.00  0.00     0.010 A 
ATOM      5  C   UNL     1       5.256 -37.025  20.278  1.00  0.00     0.001 A 
ATOM      6  C   UNL     1       5.707 -35.974  21.074  1.00  0.00     0.001 A 
ENDROOT
BRANCH   1   7
ATOM      7  C   UNL     1       4.660 -39.762  22.797  1.00  0.00     0.072 C 
ATOM      8  O   UNL     1       3.472 -40.117  23.022  1.00  0.00    -0.545 OA
ATOM      9  O   UNL     1       5.697 -40.628  23.128  1.00  0.00    -0.545 OA
ENDBRANCH   1   7
BRANCH   2  10
ATOM     10  C   UNL     1       5.356 -37.374  24.553  1.00  0.00     0.072 C 
ATOM     11  O   UNL     1       4.602 -38.178  25.164  1.00  0.00    -0.545 OA
ATOM     12  O   UNL     1       6.123 -36.479  25.290  1.00  0.00    -0.545 OA
ENDBRANCH   2  10
TORSDOF 2
ENDMDL
MODEL 7
REMARK VINA RESULT:    -3.939      1.916      4.148
REMARK INTER + INTRA:          -4.452
REMARK INTER:                  -4.803
REMARK INTRA:                   0.351
REMARK UNBOUND:                -0.053
REMARK SMILES O=C([O-])c1ccccc1C(=O)[O-]
REMARK SMILES IDX 4 1 9 2 5 3 8 4 6 5 7 6 2 7 1 8 3 9 10 10 11 11 12 12
REMARK H PARENT
REMARK Flexibility Score: inf
ROOT
ATOM      1  C   UNL     1       5.175 -37.027  21.760  1.00  0.00     0.006 A 
ATOM      2  C   UNL     1       4.729 -38.318  21.354  1.00  0.00     0.006 A 
ATOM      3  C   UNL     1       5.158 -35.974  20.828  1.00  0.00     0.010 A 
ATOM      4  C   UNL     1       4.222 -38.488  20.054  1.00  0.00     0.010 A 
ATOM      5  C   UNL     1       4.671 -36.171  19.535  1.00  0.00     0.001 A 
ATOM      6  C   UNL     1       4.193 -37.423  19.153  1.00  0.00     0.001 A 
ENDROOT
BRANCH   1   7
ATOM      7  C   UNL     1       5.598 -36.717  23.145  1.00  0.00     0.072 C 
ATOM      8  O   UNL     1       6.125 -37.602  23.872  1.00  0.00    -0.545 OA
ATOM      9  O   UNL     1       5.354 -35.459  23.684  1.00  0.00    -0.545 OA
ENDBRANCH   1   7
BRANCH   2  10
ATOM     10  C   UNL     1       4.836 -39.516  22.217  1.00  0.00     0.072 C 
ATOM     11  O   UNL     1       5.749 -40.365  22.035  1.00  0.00    -0.545 OA
ATOM     12  O   UNL     1       3.883 -39.753  23.201  1.00  0.00    -0.545 OA
ENDBRANCH   2  10
TORSDOF 2
ENDMDL
MODEL 8
REMARK VINA RESULT:    -3.642      2.494      4.204
REMARK INTER + INTRA:          -4.121
REMARK INTER:                  -4.667
REMARK INTRA:                   0.547
REMARK UNBOUND:                -0.053
REMARK SMILES O=C([O-])c1ccccc1C(=O)[O-]
REMARK SMILES IDX 4 1 9 2 5 3 8 4 6 5 7 6 2 7 1 8 3 9 10 10 11 11 12 12
REMARK H PARENT
REMARK Flexibility Score: inf
ROOT
ATOM      1  C   UNL     1       4.868 -36.541  19.930  1.00  0.00     0.006 A 
ATOM      2  C   UNL     1       4.024 -37.688  19.890  1.00  0.00     0.006 A 
ATOM      3  C   UNL     1       5.632 -36.295  21.086  1.00  0.00     0.010 A 
ATOM      4  C   UNL     1       4.028 -38.578  20.979  1.00  0.00     0.010 A 
ATOM      5  C   UNL     1       5.603 -37.180  22.164  1.00  0.00     0.001 A 
ATOM      6  C   UNL     1       4.812 -38.326  22.106  1.00  0.00     0.001 A 
ENDROOT
BRANCH   1   7
ATOM      7  C   UNL     1       5.035 -35.621  18.782  1.00  0.00     0.072 C 
ATOM      8  O   UNL     1       6.107 -34.980  18.620  1.00  0.00    -0.545 OA
ATOM      9  O   UNL     1       3.979 -35.403  17.904  1.00  0.00    -0.545 OA
ENDBRANCH   1   7
BRANCH   2  10
ATOM     10  C   UNL     1       3.083 -37.959  18.780  1.00  0.00     0.072 C 
ATOM     11  O   UNL     1       1.838 -37.937  18.968  1.00  0.00    -0.545 OA
ATOM     12  O   UNL     1       3.568 -38.309  17.525  1.00  0.00    -0.545 OA
ENDBRANCH   2  10
TORSDOF 2
ENDMDL
MODEL 9
REMARK VINA RESULT:    -3.376      1.847      3.145
REMARK INTER + INTRA:          -3.823
REMARK INTER:                  -4.027
REMARK INTRA:                   0.203
REMARK UNBOUND:                -0.053
REMARK SMILES O=C([O-])c1ccccc1C(=O)[O-]
REMARK SMILES IDX 4 1 9 2 5 3 8 4 6 5 7 6 2 7 1 8 3 9 10 10 11 11 12 12
REMARK H PARENT
REMARK Flexibility Score: inf
ROOT
ATOM      1  C   UNL     1       5.120 -37.311  23.332  1.00  0.00     0.006 A 
ATOM      2  C   UNL     1       5.087 -37.671  21.954  1.00  0.00     0.006 A 
ATOM      3  C   UNL     1       4.989 -38.319  24.304  1.00  0.00     0.010 A 
ATOM      4  C   UNL     1       4.991 -39.030  21.605  1.00  0.00     0.010 A 
ATOM      5  C   UNL     1       4.873 -39.659  23.935  1.00  0.00     0.001 A 
ATOM      6  C   UNL     1       4.885 -40.015  22.588  1.00  0.00     0.001 A 
ENDROOT
BRANCH   1   7
ATOM      7  C   UNL     1       5.354 -35.925  23.798  1.00  0.00     0.072 C 
ATOM      8  O   UNL     1       6.125 -35.692  24.767  1.00  0.00    -0.545 OA
ATOM      9  O   UNL     1       4.668 -34.867  23.213  1.00  0.00    -0.545 OA
ENDBRANCH   1   7
BRANCH   2  10
ATOM     10  C   UNL     1       5.080 -36.674  20.859  1.00  0.00     0.072 C 
ATOM     11  O   UNL     1       6.122 -36.032  20.563  1.00  0.00    -0.545 OA
ATOM     12  O   UNL     1       3.897 -36.386  20.187  1.00  0.00    -0.545 OA
ENDBRANCH   2  10
TORSDOF 2
ENDMDL
