MODEL 1
REMARK VINA RESULT:    -3.330      0.000      0.000
REMARK INTER + INTRA:          -6.284
REMARK INTER:                  -5.082
REMARK INTRA:                  -1.201
REMARK UNBOUND:                -1.201
REMARK SMILES CCCCCCCCCCC(=O)[O-]
REMARK SMILES IDX 7 1 8 2 9 3 10 4 11 5 12 6 13 7 6 8 5 9 4 10 3 11 2 12 1 13
REMARK H PARENT
REMARK Flexibility Score: inf
ROOT
ATOM      1  C   UNL     1      57.411  28.936  51.482  1.00  0.00     0.000 C 
ENDROOT
BRANCH   1   2
ATOM      2  C   UNL     1      56.357  28.600  50.415  1.00  0.00     0.000 C 
BRANCH   2   3
ATOM      3  C   UNL     1      55.410  27.468  50.853  1.00  0.00     0.006 C 
BRANCH   3   4
ATOM      4  C   UNL     1      55.325  26.349  49.808  1.00  0.00     0.053 C 
BRANCH   4   5
ATOM      5  C   UNL     1      53.908  26.071  49.408  1.00  0.00     0.041 C 
ATOM      6  O   UNL     1      53.115  27.023  49.179  1.00  0.00    -0.550 OA
ATOM      7  O   UNL     1      53.453  24.761  49.324  1.00  0.00    -0.550 OA
ENDBRANCH   4   5
ENDBRANCH   3   4
ENDBRANCH   2   3
ENDBRANCH   1   2
BRANCH   1   8
ATOM      8  C   UNL     1      58.799  29.201  50.879  1.00  0.00     0.000 C 
BRANCH   8   9
ATOM      9  C   UNL     1      58.821  28.864  49.383  1.00  0.00    -0.000 C 
BRANCH   9  10
ATOM     10  C   UNL     1      59.898  27.814  49.072  1.00  0.00    -0.000 C 
BRANCH  10  11
ATOM     11  C   UNL     1      59.985  26.718  50.145  1.00  0.00    -0.000 C 
BRANCH  11  12
ATOM     12  C   UNL     1      58.899  25.643  49.981  1.00  0.00    -0.003 C 
ATOM     13  C   UNL     1      58.477  25.078  51.334  1.00  0.00     0.004 C 
ENDBRANCH  11  12
ENDBRANCH  10  11
ENDBRANCH   9  10
ENDBRANCH   8   9
ENDBRANCH   1   8
TORSDOF 9
ENDMDL
MODEL 2
REMARK VINA RESULT:    -3.207      0.837      2.803
REMARK INTER + INTRA:          -6.096
REMARK INTER:                  -4.720
REMARK INTRA:                  -1.376
REMARK UNBOUND:                -1.201
REMARK SMILES CCCCCCCCCCC(=O)[O-]
REMARK SMILES IDX 7 1 8 2 9 3 10 4 11 5 12 6 13 7 6 8 5 9 4 10 3 11 2 12 1 13
REMARK H PARENT
REMARK Flexibility Score: inf
ROOT
ATOM      1  C   UNL     1      58.880  25.596  51.335  1.00  0.00     0.000 C 
ENDROOT
BRANCH   1   2
ATOM      2  C   UNL     1      57.358  25.770  51.464  1.00  0.00     0.000 C 
BRANCH   2   3
ATOM      3  C   UNL     1      56.669  25.982  50.104  1.00  0.00     0.006 C 
BRANCH   3   4
ATOM      4  C   UNL     1      55.587  27.068  50.166  1.00  0.00     0.053 C 
BRANCH   4   5
ATOM      5  C   UNL     1      54.315  26.620  49.514  1.00  0.00     0.041 C 
ATOM      6  O   UNL     1      54.218  25.454  49.046  1.00  0.00    -0.550 OA
ATOM      7  O   UNL     1      53.249  27.501  49.392  1.00  0.00    -0.550 OA
ENDBRANCH   4   5
ENDBRANCH   3   4
ENDBRANCH   2   3
ENDBRANCH   1   2
BRANCH   1   8
ATOM      8  C   UNL     1      59.391  25.894  49.917  1.00  0.00     0.000 C 
BRANCH   8   9
ATOM      9  C   UNL     1      60.110  27.247  49.867  1.00  0.00    -0.000 C 
BRANCH   9  10
ATOM     10  C   UNL     1      59.387  28.219  48.922  1.00  0.00    -0.000 C 
BRANCH  10  11
ATOM     11  C   UNL     1      58.528  29.247  49.674  1.00  0.00    -0.000 C 
BRANCH  11  12
ATOM     12  C   UNL     1      58.959  29.420  51.140  1.00  0.00    -0.003 C 
ATOM     13  C   UNL     1      57.748  29.473  52.065  1.00  0.00     0.004 C 
ENDBRANCH  11  12
ENDBRANCH  10  11
ENDBRANCH   9  10
ENDBRANCH   8   9
ENDBRANCH   1   8
TORSDOF 9
ENDMDL
MODEL 3
REMARK VINA RESULT:    -3.200     12.787     14.370
REMARK INTER + INTRA:          -6.085
REMARK INTER:                  -5.324
REMARK INTRA:                  -0.761
REMARK UNBOUND:                -1.201
REMARK SMILES CCCCCCCCCCC(=O)[O-]
REMARK SMILES IDX 7 1 8 2 9 3 10 4 11 5 12 6 13 7 6 8 5 9 4 10 3 11 2 12 1 13
REMARK H PARENT
REMARK Flexibility Score: inf
ROOT
ATOM      1  C   UNL     1      61.157  32.100  61.134  1.00  0.00     0.000 C 
ENDROOT
BRANCH   1   2
ATOM      2  C   UNL     1      61.492  30.734  61.753  1.00  0.00     0.000 C 
BRANCH   2   3
ATOM      3  C   UNL     1      62.307  29.837  60.803  1.00  0.00     0.006 C 
BRANCH   3   4
ATOM      4  C   UNL     1      63.452  29.118  61.527  1.00  0.00     0.053 C 
BRANCH   4   5
ATOM      5  C   UNL     1      64.781  29.734  61.211  1.00  0.00     0.041 C 
ATOM      6  O   UNL     1      65.830  29.037  61.255  1.00  0.00    -0.550 OA
ATOM      7  O   UNL     1      64.865  31.085  60.901  1.00  0.00    -0.550 OA
ENDBRANCH   4   5
ENDBRANCH   3   4
ENDBRANCH   2   3
ENDBRANCH   1   2
BRANCH   1   8
ATOM      8  C   UNL     1      61.815  32.305  59.761  1.00  0.00     0.000 C 
BRANCH   8   9
ATOM      9  C   UNL     1      62.620  33.609  59.728  1.00  0.00    -0.000 C 
BRANCH   9  10
ATOM     10  C   UNL     1      61.887  34.727  60.486  1.00  0.00    -0.000 C 
BRANCH  10  11
ATOM     11  C   UNL     1      62.847  35.653  61.249  1.00  0.00    -0.000 C 
BRANCH  11  12
ATOM     12  C   UNL     1      64.183  34.972  61.586  1.00  0.00    -0.003 C 
ATOM     13  C   UNL     1      65.307  35.997  61.705  1.00  0.00     0.004 C 
ENDBRANCH  11  12
ENDBRANCH  10  11
ENDBRANCH   9  10
ENDBRANCH   8   9
ENDBRANCH   1   8
TORSDOF 9
ENDMDL
MODEL 4
REMARK VINA RESULT:    -3.180      3.082      5.118
REMARK INTER + INTRA:          -6.054
REMARK INTER:                  -5.250
REMARK INTRA:                  -0.804
REMARK UNBOUND:                -1.201
REMARK SMILES CCCCCCCCCCC(=O)[O-]
REMARK SMILES IDX 7 1 8 2 9 3 10 4 11 5 12 6 13 7 6 8 5 9 4 10 3 11 2 12 1 13
REMARK H PARENT
REMARK Flexibility Score: inf
ROOT
ATOM      1  C   UNL     1      59.308  28.457  49.254  1.00  0.00     0.000 C 
ENDROOT
BRANCH   1   2
ATOM      2  C   UNL     1      59.311  26.921  49.302  1.00  0.00     0.000 C 
BRANCH   2   3
ATOM      3  C   UNL     1      60.636  26.347  49.833  1.00  0.00     0.006 C 
BRANCH   3   4
ATOM      4  C   UNL     1      61.013  26.932  51.200  1.00  0.00     0.053 C 
BRANCH   4   5
ATOM      5  C   UNL     1      60.103  26.439  52.284  1.00  0.00     0.041 C 
ATOM      6  O   UNL     1      59.533  27.258  53.053  1.00  0.00    -0.550 OA
ATOM      7  O   UNL     1      59.913  25.076  52.465  1.00  0.00    -0.550 OA
ENDBRANCH   4   5
ENDBRANCH   3   4
ENDBRANCH   2   3
ENDBRANCH   1   2
BRANCH   1   8
ATOM      8  C   UNL     1      58.080  29.068  49.945  1.00  0.00     0.000 C 
BRANCH   8   9
ATOM      9  C   UNL     1      57.099  27.976  50.386  1.00  0.00    -0.000 C 
BRANCH   9  10
ATOM     10  C   UNL     1      55.710  28.567  50.672  1.00  0.00    -0.000 C 
BRANCH  10  11
ATOM     11  C   UNL     1      54.577  27.760  50.020  1.00  0.00    -0.000 C 
BRANCH  11  12
ATOM     12  C   UNL     1      54.968  26.297  49.757  1.00  0.00    -0.003 C 
ATOM     13  C   UNL     1      53.838  25.543  49.062  1.00  0.00     0.004 C 
ENDBRANCH  11  12
ENDBRANCH  10  11
ENDBRANCH   9  10
ENDBRANCH   8   9
ENDBRANCH   1   8
TORSDOF 9
ENDMDL
MODEL 5
REMARK VINA RESULT:    -3.172     12.957     14.462
REMARK INTER + INTRA:          -6.042
REMARK INTER:                  -4.822
REMARK INTRA:                  -1.220
REMARK UNBOUND:                -1.201
REMARK SMILES CCCCCCCCCCC(=O)[O-]
REMARK SMILES IDX 7 1 8 2 9 3 10 4 11 5 12 6 13 7 6 8 5 9 4 10 3 11 2 12 1 13
REMARK H PARENT
REMARK Flexibility Score: inf
ROOT
ATOM      1  C   UNL     1      61.542  31.739  59.763  1.00  0.00     0.000 C 
ENDROOT
BRANCH   1   2
ATOM      2  C   UNL     1      62.393  32.991  59.494  1.00  0.00     0.000 C 
BRANCH   2   3
ATOM      3  C   UNL     1      62.509  33.905  60.727  1.00  0.00     0.006 C 
BRANCH   3   4
ATOM      4  C   UNL     1      63.965  34.102  61.166  1.00  0.00     0.053 C 
BRANCH   4   5
ATOM      5  C   UNL     1      64.230  35.516  61.586  1.00  0.00     0.041 C 
ATOM      6  O   UNL     1      63.274  36.322  61.738  1.00  0.00    -0.550 OA
ATOM      7  O   UNL     1      65.535  35.951  61.776  1.00  0.00    -0.550 OA
ENDBRANCH   4   5
ENDBRANCH   3   4
ENDBRANCH   2   3
ENDBRANCH   1   2
BRANCH   1   8
ATOM      8  C   UNL     1      61.033  31.671  61.211  1.00  0.00     0.000 C 
BRANCH   8   9
ATOM      9  C   UNL     1      61.725  30.541  61.982  1.00  0.00    -0.000 C 
BRANCH   9  10
ATOM     10  C   UNL     1      62.299  29.490  61.021  1.00  0.00    -0.000 C 
BRANCH  10  11
ATOM     11  C   UNL     1      63.766  29.146  61.326  1.00  0.00    -0.000 C 
BRANCH  11  12
ATOM     12  C   UNL     1      64.685  30.377  61.276  1.00  0.00    -0.003 C 
ATOM     13  C   UNL     1      65.206  30.615  59.862  1.00  0.00     0.004 C 
ENDBRANCH  11  12
ENDBRANCH  10  11
ENDBRANCH   9  10
ENDBRANCH   8   9
ENDBRANCH   1   8
TORSDOF 9
ENDMDL
MODEL 6
REMARK VINA RESULT:    -3.136     12.765     14.399
REMARK INTER + INTRA:          -5.988
REMARK INTER:                  -4.796
REMARK INTRA:                  -1.192
REMARK UNBOUND:                -1.201
REMARK SMILES CCCCCCCCCCC(=O)[O-]
REMARK SMILES IDX 7 1 8 2 9 3 10 4 11 5 12 6 13 7 6 8 5 9 4 10 3 11 2 12 1 13
REMARK H PARENT
REMARK Flexibility Score: inf
ROOT
ATOM      1  C   UNL     1      62.455  32.975  59.413  1.00  0.00     0.000 C 
ENDROOT
BRANCH   1   2
ATOM      2  C   UNL     1      63.908  32.556  59.692  1.00  0.00     0.000 C 
BRANCH   2   3
ATOM      3  C   UNL     1      64.103  32.012  61.119  1.00  0.00     0.006 C 
BRANCH   3   4
ATOM      4  C   UNL     1      64.352  30.499  61.132  1.00  0.00     0.053 C 
BRANCH   4   5
ATOM      5  C   UNL     1      63.151  29.744  61.617  1.00  0.00     0.041 C 
ATOM      6  O   UNL     1      62.154  30.365  62.072  1.00  0.00    -0.550 OA
ATOM      7  O   UNL     1      63.148  28.356  61.597  1.00  0.00    -0.550 OA
ENDBRANCH   4   5
ENDBRANCH   3   4
ENDBRANCH   2   3
ENDBRANCH   1   2
BRANCH   1   8
ATOM      8  C   UNL     1      61.781  33.619  60.634  1.00  0.00     0.000 C 
BRANCH   8   9
ATOM      9  C   UNL     1      61.384  35.070  60.339  1.00  0.00    -0.000 C 
BRANCH   9  10
ATOM     10  C   UNL     1      62.276  36.052  61.115  1.00  0.00    -0.000 C 
BRANCH  10  11
ATOM     11  C   UNL     1      63.376  36.671  60.240  1.00  0.00    -0.000 C 
BRANCH  11  12
ATOM     12  C   UNL     1      64.773  36.118  60.566  1.00  0.00    -0.003 C 
ATOM     13  C   UNL     1      64.816  35.533  61.974  1.00  0.00     0.004 C 
ENDBRANCH  11  12
ENDBRANCH  10  11
ENDBRANCH   9  10
ENDBRANCH   8   9
ENDBRANCH   1   8
TORSDOF 9
ENDMDL
MODEL 7
REMARK VINA RESULT:    -3.114      4.438      6.320
REMARK INTER + INTRA:          -5.954
REMARK INTER:                  -5.442
REMARK INTRA:                  -0.512
REMARK UNBOUND:                -1.201
REMARK SMILES CCCCCCCCCCC(=O)[O-]
REMARK SMILES IDX 7 1 8 2 9 3 10 4 11 5 12 6 13 7 6 8 5 9 4 10 3 11 2 12 1 13
REMARK H PARENT
REMARK Flexibility Score: inf
ROOT
ATOM      1  C   UNL     1      59.743  28.622  49.677  1.00  0.00     0.000 C 
ENDROOT
BRANCH   1   2
ATOM      2  C   UNL     1      59.761  27.143  49.260  1.00  0.00     0.000 C 
BRANCH   2   3
ATOM      3  C   UNL     1      61.047  26.420  49.698  1.00  0.00     0.006 C 
BRANCH   3   4
ATOM      4  C   UNL     1      62.132  27.400  50.162  1.00  0.00     0.053 C 
BRANCH   4   5
ATOM      5  C   UNL     1      63.358  27.315  49.304  1.00  0.00     0.041 C 
ATOM      6  O   UNL     1      63.345  27.777  48.132  1.00  0.00    -0.550 OA
ATOM      7  O   UNL     1      64.503  26.696  49.788  1.00  0.00    -0.550 OA
ENDBRANCH   4   5
ENDBRANCH   3   4
ENDBRANCH   2   3
ENDBRANCH   1   2
BRANCH   1   8
ATOM      8  C   UNL     1      58.318  29.167  49.862  1.00  0.00     0.000 C 
BRANCH   8   9
ATOM      9  C   UNL     1      57.319  28.026  50.084  1.00  0.00    -0.000 C 
BRANCH   9  10
ATOM     10  C   UNL     1      55.996  28.557  50.655  1.00  0.00    -0.000 C 
BRANCH  10  11
ATOM     11  C   UNL     1      54.784  27.718  50.221  1.00  0.00    -0.000 C 
BRANCH  11  12
ATOM     12  C   UNL     1      55.164  26.274  49.857  1.00  0.00    -0.003 C 
ATOM     13  C   UNL     1      54.039  25.587  49.089  1.00  0.00     0.004 C 
ENDBRANCH  11  12
ENDBRANCH  10  11
ENDBRANCH   9  10
ENDBRANCH   8   9
ENDBRANCH   1   8
TORSDOF 9
ENDMDL
MODEL 8
REMARK VINA RESULT:    -3.072      3.619      5.684
REMARK INTER + INTRA:          -5.890
REMARK INTER:                  -5.028
REMARK INTRA:                  -0.863
REMARK UNBOUND:                -1.201
REMARK SMILES CCCCCCCCCCC(=O)[O-]
REMARK SMILES IDX 7 1 8 2 9 3 10 4 11 5 12 6 13 7 6 8 5 9 4 10 3 11 2 12 1 13
REMARK H PARENT
REMARK Flexibility Score: inf
ROOT
ATOM      1  C   UNL     1      57.756  27.090  51.225  1.00  0.00     0.000 C 
ENDROOT
BRANCH   1   2
ATOM      2  C   UNL     1      57.542  28.367  50.396  1.00  0.00     0.000 C 
BRANCH   2   3
ATOM      3  C   UNL     1      58.738  28.686  49.481  1.00  0.00     0.006 C 
BRANCH   3   4
ATOM      4  C   UNL     1      59.573  27.440  49.165  1.00  0.00     0.053 C 
BRANCH   4   5
ATOM      5  C   UNL     1      61.007  27.617  49.562  1.00  0.00     0.041 C 
ATOM      6  O   UNL     1      61.453  28.765  49.832  1.00  0.00    -0.550 OA
ATOM      7  O   UNL     1      61.859  26.521  49.600  1.00  0.00    -0.550 OA
ENDBRANCH   4   5
ENDBRANCH   3   4
ENDBRANCH   2   3
ENDBRANCH   1   2
BRANCH   1   8
ATOM      8  C   UNL     1      56.664  26.037  50.981  1.00  0.00     0.000 C 
BRANCH   8   9
ATOM      9  C   UNL     1      55.970  26.269  49.633  1.00  0.00    -0.000 C 
BRANCH   9  10
ATOM     10  C   UNL     1      54.458  26.025  49.745  1.00  0.00    -0.000 C 
BRANCH  10  11
ATOM     11  C   UNL     1      53.638  27.318  49.608  1.00  0.00    -0.000 C 
BRANCH  11  12
ATOM     12  C   UNL     1      53.825  28.266  50.803  1.00  0.00    -0.003 C 
ATOM     13  C   UNL     1      53.822  29.724  50.352  1.00  0.00     0.004 C 
ENDBRANCH  11  12
ENDBRANCH  10  11
ENDBRANCH   9  10
ENDBRANCH   8   9
ENDBRANCH   1   8
TORSDOF 9
ENDMDL
MODEL 9
REMARK VINA RESULT:    -3.026     12.568     14.119
REMARK INTER + INTRA:          -5.820
REMARK INTER:                  -4.915
REMARK INTRA:                  -0.906
REMARK UNBOUND:                -1.201
REMARK SMILES CCCCCCCCCCC(=O)[O-]
REMARK SMILES IDX 7 1 8 2 9 3 10 4 11 5 12 6 13 7 6 8 5 9 4 10 3 11 2 12 1 13
REMARK H PARENT
REMARK Flexibility Score: inf
ROOT
ATOM      1  C   UNL     1      62.625  32.877  59.878  1.00  0.00     0.000 C 
ENDROOT
BRANCH   1   2
ATOM      2  C   UNL     1      61.199  32.392  60.186  1.00  0.00     0.000 C 
BRANCH   2   3
ATOM      3  C   UNL     1      61.114  31.598  61.501  1.00  0.00     0.006 C 
BRANCH   3   4
ATOM      4  C   UNL     1      60.997  30.088  61.259  1.00  0.00     0.053 C 
BRANCH   4   5
ATOM      5  C   UNL     1      62.233  29.360  61.692  1.00  0.00     0.041 C 
ATOM      6  O   UNL     1      63.297  29.996  61.917  1.00  0.00    -0.550 OA
ATOM      7  O   UNL     1      62.219  27.977  61.814  1.00  0.00    -0.550 OA
ENDBRANCH   4   5
ENDBRANCH   3   4
ENDBRANCH   2   3
ENDBRANCH   1   2
BRANCH   1   8
ATOM      8  C   UNL     1      63.377  33.337  61.137  1.00  0.00     0.000 C 
BRANCH   8   9
ATOM      9  C   UNL     1      64.321  34.502  60.816  1.00  0.00    -0.000 C 
BRANCH   9  10
ATOM     10  C   UNL     1      63.870  35.787  61.528  1.00  0.00    -0.000 C 
BRANCH  10  11
ATOM     11  C   UNL     1      63.017  36.695  60.627  1.00  0.00    -0.000 C 
BRANCH  11  12
ATOM     12  C   UNL     1      61.596  36.904  61.173  1.00  0.00    -0.003 C 
ATOM     13  C   UNL     1      60.582  36.068  60.399  1.00  0.00     0.004 C 
ENDBRANCH  11  12
ENDBRANCH  10  11
ENDBRANCH   9  10
ENDBRANCH   8   9
ENDBRANCH   1   8
TORSDOF 9
ENDMDL
