MODEL 1
REMARK VINA RESULT:    -4.161      0.000      0.000
REMARK INTER + INTRA:         -16.074
REMARK INTER:                 -10.851
REMARK INTRA:                  -5.223
REMARK UNBOUND:                -5.223
REMARK SMILES CCCCCCCCCCCCCCCCCCCCCCCCCCCCCO
REMARK SMILES IDX 16 1 15 2 14 3 13 4 12 5 11 6 10 7 9 8 8 9 7 10 6 11 5 12
REMARK SMILES IDX 4 13 3 14 2 15 1 16 17 17 18 18 19 19 20 20 21 21 22 22
REMARK SMILES IDX 23 23 24 24 25 25 26 26 27 27 28 28 29 29 30 30
REMARK H PARENT 30 31
REMARK Flexibility Score: inf
ROOT
ATOM      1  C   UNL     1       8.031 -26.022  53.396  1.00  0.00     0.000 C 
ENDROOT
BRANCH   1   2
ATOM      2  C   UNL     1       9.379 -25.665  54.054  1.00  0.00     0.000 C 
BRANCH   2   3
ATOM      3  C   UNL     1       9.366 -24.435  54.985  1.00  0.00     0.000 C 
BRANCH   3   4
ATOM      4  C   UNL     1       7.959 -23.978  55.421  1.00  0.00     0.000 C 
BRANCH   4   5
ATOM      5  C   UNL     1       7.953 -22.573  56.049  1.00  0.00     0.000 C 
BRANCH   5   6
ATOM      6  C   UNL     1       9.297 -21.866  55.814  1.00  0.00     0.000 C 
BRANCH   6   7
ATOM      7  C   UNL     1       9.155 -20.562  55.010  1.00  0.00     0.000 C 
BRANCH   7   8
ATOM      8  C   UNL     1      10.171 -20.383  53.865  1.00  0.00    -0.000 C 
BRANCH   8   9
ATOM      9  C   UNL     1       9.567 -20.171  52.465  1.00  0.00    -0.000 C 
BRANCH   9  10
ATOM     10  C   UNL     1       8.309 -21.020  52.217  1.00  0.00    -0.000 C 
BRANCH  10  11
ATOM     11  C   UNL     1       8.616 -22.524  52.121  1.00  0.00    -0.000 C 
BRANCH  11  12
ATOM     12  C   UNL     1       9.537 -22.880  50.940  1.00  0.00    -0.000 C 
BRANCH  12  13
ATOM     13  C   UNL     1      10.949 -23.296  51.416  1.00  0.00    -0.000 C 
BRANCH  13  14
ATOM     14  C   UNL     1      11.909 -23.637  50.265  1.00  0.00    -0.000 C 
BRANCH  14  15
ATOM     15  C   UNL     1      13.135 -22.718  50.219  1.00  0.00    -0.003 C 
ATOM     16  C   UNL     1      12.737 -21.262  50.453  1.00  0.00     0.004 C 
ENDBRANCH  14  15
ENDBRANCH  13  14
ENDBRANCH  12  13
ENDBRANCH  11  12
ENDBRANCH  10  11
ENDBRANCH   9  10
ENDBRANCH   8   9
ENDBRANCH   7   8
ENDBRANCH   6   7
ENDBRANCH   5   6
ENDBRANCH   4   5
ENDBRANCH   3   4
ENDBRANCH   2   3
ENDBRANCH   1   2
BRANCH   1  17
ATOM     17  C   UNL     1       8.104 -26.307  51.877  1.00  0.00     0.000 C 
BRANCH  17  18
ATOM     18  C   UNL     1       9.505 -26.714  51.379  1.00  0.00     0.000 C 
BRANCH  18  19
ATOM     19  C   UNL     1       9.758 -26.498  49.877  1.00  0.00     0.000 C 
BRANCH  19  20
ATOM     20  C   UNL     1      10.961 -27.260  49.287  1.00  0.00     0.000 C 
BRANCH  20  21
ATOM     21  C   UNL     1      11.903 -27.889  50.334  1.00  0.00     0.000 C 
BRANCH  21  22
ATOM     22  C   UNL     1      13.262 -27.169  50.431  1.00  0.00     0.000 C 
BRANCH  22  23
ATOM     23  C   UNL     1      13.820 -27.148  51.864  1.00  0.00     0.000 C 
BRANCH  23  24
ATOM     24  C   UNL     1      12.726 -26.982  52.930  1.00  0.00     0.000 C 
BRANCH  24  25
ATOM     25  C   UNL     1      12.740 -28.159  53.918  1.00  0.00     0.000 C 
BRANCH  25  26
ATOM     26  C   UNL     1      11.576 -28.089  54.927  1.00  0.00     0.000 C 
BRANCH  26  27
ATOM     27  C   UNL     1      10.431 -29.060  54.604  1.00  0.00     0.002 C 
BRANCH  27  28
ATOM     28  C   UNL     1      10.661 -29.837  53.297  1.00  0.00     0.028 C 
BRANCH  28  29
ATOM     29  C   UNL     1      10.133 -31.271  53.391  1.00  0.00     0.156 C 
BRANCH  29  30
ATOM     30  O   UNL     1       8.838 -31.342  52.860  1.00  0.00    -0.396 OA
ATOM     31  H   UNL     1       8.939 -31.280  51.876  1.00  0.00     0.210 HD
ENDBRANCH  29  30
ENDBRANCH  28  29
ENDBRANCH  27  28
ENDBRANCH  26  27
ENDBRANCH  25  26
ENDBRANCH  24  25
ENDBRANCH  23  24
ENDBRANCH  22  23
ENDBRANCH  21  22
ENDBRANCH  20  21
ENDBRANCH  19  20
ENDBRANCH  18  19
ENDBRANCH  17  18
ENDBRANCH   1  17
TORSDOF 28
ENDMDL
MODEL 2
REMARK VINA RESULT:    -4.153      1.507      2.791
REMARK INTER + INTRA:         -16.053
REMARK INTER:                 -10.624
REMARK INTRA:                  -5.429
REMARK UNBOUND:                -5.223
REMARK SMILES CCCCCCCCCCCCCCCCCCCCCCCCCCCCCO
REMARK SMILES IDX 16 1 15 2 14 3 13 4 12 5 11 6 10 7 9 8 8 9 7 10 6 11 5 12
REMARK SMILES IDX 4 13 3 14 2 15 1 16 17 17 18 18 19 19 20 20 21 21 22 22
REMARK SMILES IDX 23 23 24 24 25 25 26 26 27 27 28 28 29 29 30 30
REMARK H PARENT 30 31
REMARK Flexibility Score: inf
ROOT
ATOM      1  C   UNL     1       8.246 -25.965  53.253  1.00  0.00     0.000 C 
ENDROOT
BRANCH   1   2
ATOM      2  C   UNL     1       9.320 -25.234  54.083  1.00  0.00     0.000 C 
BRANCH   2   3
ATOM      3  C   UNL     1       8.797 -24.408  55.277  1.00  0.00     0.000 C 
BRANCH   3   4
ATOM      4  C   UNL     1       9.338 -22.965  55.342  1.00  0.00     0.000 C 
BRANCH   4   5
ATOM      5  C   UNL     1       8.320 -21.920  54.850  1.00  0.00     0.000 C 
BRANCH   5   6
ATOM      6  C   UNL     1       8.763 -21.322  53.506  1.00  0.00     0.000 C 
BRANCH   6   7
ATOM      7  C   UNL     1       8.244 -22.119  52.296  1.00  0.00     0.000 C 
BRANCH   7   8
ATOM      8  C   UNL     1       9.327 -22.577  51.299  1.00  0.00    -0.000 C 
BRANCH   8   9
ATOM      9  C   UNL     1      10.774 -22.542  51.825  1.00  0.00    -0.000 C 
BRANCH   9  10
ATOM     10  C   UNL     1      11.671 -23.620  51.194  1.00  0.00    -0.000 C 
BRANCH  10  11
ATOM     11  C   UNL     1      11.061 -24.229  49.921  1.00  0.00    -0.000 C 
BRANCH  11  12
ATOM     12  C   UNL     1      11.936 -24.025  48.671  1.00  0.00    -0.000 C 
BRANCH  12  13
ATOM     13  C   UNL     1      13.216 -24.891  48.716  1.00  0.00    -0.000 C 
BRANCH  13  14
ATOM     14  C   UNL     1      14.504 -24.099  48.438  1.00  0.00    -0.000 C 
BRANCH  14  15
ATOM     15  C   UNL     1      15.497 -24.146  49.605  1.00  0.00    -0.003 C 
ATOM     16  C   UNL     1      15.379 -25.461  50.373  1.00  0.00     0.004 C 
ENDBRANCH  14  15
ENDBRANCH  13  14
ENDBRANCH  12  13
ENDBRANCH  11  12
ENDBRANCH  10  11
ENDBRANCH   9  10
ENDBRANCH   8   9
ENDBRANCH   7   8
ENDBRANCH   6   7
ENDBRANCH   5   6
ENDBRANCH   4   5
ENDBRANCH   3   4
ENDBRANCH   2   3
ENDBRANCH   1   2
BRANCH   1  17
ATOM     17  C   UNL     1       8.611 -26.183  51.766  1.00  0.00     0.000 C 
BRANCH  17  18
ATOM     18  C   UNL     1       9.020 -27.629  51.422  1.00  0.00     0.000 C 
BRANCH  18  19
ATOM     19  C   UNL     1      10.180 -27.765  50.422  1.00  0.00     0.000 C 
BRANCH  19  20
ATOM     20  C   UNL     1      11.515 -28.262  51.011  1.00  0.00     0.000 C 
BRANCH  20  21
ATOM     21  C   UNL     1      12.421 -27.152  51.582  1.00  0.00     0.000 C 
BRANCH  21  22
ATOM     22  C   UNL     1      12.411 -27.099  53.123  1.00  0.00     0.000 C 
BRANCH  22  23
ATOM     23  C   UNL     1      12.337 -28.496  53.763  1.00  0.00     0.000 C 
BRANCH  23  24
ATOM     24  C   UNL     1      11.123 -28.666  54.689  1.00  0.00     0.000 C 
BRANCH  24  25
ATOM     25  C   UNL     1      10.145 -29.708  54.124  1.00  0.00     0.000 C 
BRANCH  25  26
ATOM     26  C   UNL     1      10.874 -30.922  53.512  1.00  0.00     0.000 C 
BRANCH  26  27
ATOM     27  C   UNL     1      10.207 -31.451  52.234  1.00  0.00     0.002 C 
BRANCH  27  28
ATOM     28  C   UNL     1       8.764 -31.926  52.468  1.00  0.00     0.028 C 
BRANCH  28  29
ATOM     29  C   UNL     1       7.811 -31.391  51.397  1.00  0.00     0.156 C 
BRANCH  29  30
ATOM     30  O   UNL     1       6.660 -30.864  51.997  1.00  0.00    -0.396 OA
ATOM     31  H   UNL     1       5.964 -31.565  51.924  1.00  0.00     0.210 HD
ENDBRANCH  29  30
ENDBRANCH  28  29
ENDBRANCH  27  28
ENDBRANCH  26  27
ENDBRANCH  25  26
ENDBRANCH  24  25
ENDBRANCH  23  24
ENDBRANCH  22  23
ENDBRANCH  21  22
ENDBRANCH  20  21
ENDBRANCH  19  20
ENDBRANCH  18  19
ENDBRANCH  17  18
ENDBRANCH   1  17
TORSDOF 28
ENDMDL
MODEL 3
REMARK VINA RESULT:    -4.047      2.048      3.230
REMARK INTER + INTRA:         -15.776
REMARK INTER:                 -11.438
REMARK INTRA:                  -4.338
REMARK UNBOUND:                -5.223
REMARK SMILES CCCCCCCCCCCCCCCCCCCCCCCCCCCCCO
REMARK SMILES IDX 16 1 15 2 14 3 13 4 12 5 11 6 10 7 9 8 8 9 7 10 6 11 5 12
REMARK SMILES IDX 4 13 3 14 2 15 1 16 17 17 18 18 19 19 20 20 21 21 22 22
REMARK SMILES IDX 23 23 24 24 25 25 26 26 27 27 28 28 29 29 30 30
REMARK H PARENT 30 31
REMARK Flexibility Score: inf
ROOT
ATOM      1  C   UNL     1       9.328 -26.390  53.876  1.00  0.00     0.000 C 
ENDROOT
BRANCH   1   2
ATOM      2  C   UNL     1       9.360 -25.052  54.641  1.00  0.00     0.000 C 
BRANCH   2   3
ATOM      3  C   UNL     1       8.027 -24.277  54.691  1.00  0.00     0.000 C 
BRANCH   3   4
ATOM      4  C   UNL     1       7.806 -23.468  55.985  1.00  0.00     0.000 C 
BRANCH   4   5
ATOM      5  C   UNL     1       8.933 -22.457  56.261  1.00  0.00     0.000 C 
BRANCH   5   6
ATOM      6  C   UNL     1       8.719 -21.170  55.449  1.00  0.00     0.000 C 
BRANCH   6   7
ATOM      7  C   UNL     1       9.976 -20.734  54.675  1.00  0.00     0.000 C 
BRANCH   7   8
ATOM      8  C   UNL     1      10.010 -21.152  53.192  1.00  0.00    -0.000 C 
BRANCH   8   9
ATOM      9  C   UNL     1       8.638 -21.398  52.538  1.00  0.00    -0.000 C 
BRANCH   9  10
ATOM     10  C   UNL     1       8.678 -22.481  51.446  1.00  0.00    -0.000 C 
BRANCH  10  11
ATOM     11  C   UNL     1      10.013 -23.241  51.410  1.00  0.00    -0.000 C 
BRANCH  11  12
ATOM     12  C   UNL     1      10.382 -23.753  50.006  1.00  0.00    -0.000 C 
BRANCH  12  13
ATOM     13  C   UNL     1      11.668 -24.611  50.025  1.00  0.00    -0.000 C 
BRANCH  13  14
ATOM     14  C   UNL     1      12.372 -24.634  51.392  1.00  0.00    -0.000 C 
BRANCH  14  15
ATOM     15  C   UNL     1      13.311 -25.834  51.560  1.00  0.00    -0.003 C 
ATOM     16  C   UNL     1      14.588 -25.650  50.741  1.00  0.00     0.004 C 
ENDBRANCH  14  15
ENDBRANCH  13  14
ENDBRANCH  12  13
ENDBRANCH  11  12
ENDBRANCH  10  11
ENDBRANCH   9  10
ENDBRANCH   8   9
ENDBRANCH   7   8
ENDBRANCH   6   7
ENDBRANCH   5   6
ENDBRANCH   4   5
ENDBRANCH   3   4
ENDBRANCH   2   3
ENDBRANCH   1   2
BRANCH   1  17
ATOM     17  C   UNL     1       8.384 -26.417  52.651  1.00  0.00     0.000 C 
BRANCH  17  18
ATOM     18  C   UNL     1       8.585 -27.635  51.727  1.00  0.00     0.000 C 
BRANCH  18  19
ATOM     19  C   UNL     1       9.725 -27.504  50.703  1.00  0.00     0.000 C 
BRANCH  19  20
ATOM     20  C   UNL     1      10.850 -28.550  50.820  1.00  0.00     0.000 C 
BRANCH  20  21
ATOM     21  C   UNL     1      11.374 -28.776  52.253  1.00  0.00     0.000 C 
BRANCH  21  22
ATOM     22  C   UNL     1      12.198 -30.071  52.395  1.00  0.00     0.000 C 
BRANCH  22  23
ATOM     23  C   UNL     1      11.326 -31.337  52.351  1.00  0.00     0.000 C 
BRANCH  23  24
ATOM     24  C   UNL     1      10.074 -31.232  53.237  1.00  0.00     0.000 C 
BRANCH  24  25
ATOM     25  C   UNL     1       8.936 -32.102  52.684  1.00  0.00     0.000 C 
BRANCH  25  26
ATOM     26  C   UNL     1       8.050 -31.337  51.680  1.00  0.00     0.000 C 
BRANCH  26  27
ATOM     27  C   UNL     1       6.959 -32.210  51.042  1.00  0.00     0.002 C 
BRANCH  27  28
ATOM     28  C   UNL     1       7.533 -33.381  50.229  1.00  0.00     0.028 C 
BRANCH  28  29
ATOM     29  C   UNL     1       7.179 -34.732  50.855  1.00  0.00     0.156 C 
BRANCH  29  30
ATOM     30  O   UNL     1       6.231 -34.558  51.872  1.00  0.00    -0.396 OA
ATOM     31  H   UNL     1       6.475 -35.195  52.591  1.00  0.00     0.210 HD
ENDBRANCH  29  30
ENDBRANCH  28  29
ENDBRANCH  27  28
ENDBRANCH  26  27
ENDBRANCH  25  26
ENDBRANCH  24  25
ENDBRANCH  23  24
ENDBRANCH  22  23
ENDBRANCH  21  22
ENDBRANCH  20  21
ENDBRANCH  19  20
ENDBRANCH  18  19
ENDBRANCH  17  18
ENDBRANCH   1  17
TORSDOF 28
ENDMDL
MODEL 4
REMARK VINA RESULT:    -4.034      2.045      7.139
REMARK INTER + INTRA:         -15.741
REMARK INTER:                 -10.582
REMARK INTRA:                  -5.160
REMARK UNBOUND:                -5.223
REMARK SMILES CCCCCCCCCCCCCCCCCCCCCCCCCCCCCO
REMARK SMILES IDX 16 1 15 2 14 3 13 4 12 5 11 6 10 7 9 8 8 9 7 10 6 11 5 12
REMARK SMILES IDX 4 13 3 14 2 15 1 16 17 17 18 18 19 19 20 20 21 21 22 22
REMARK SMILES IDX 23 23 24 24 25 25 26 26 27 27 28 28 29 29 30 30
REMARK H PARENT 30 31
REMARK Flexibility Score: inf
ROOT
ATOM      1  C   UNL     1       9.163 -25.314  54.063  1.00  0.00     0.000 C 
ENDROOT
BRANCH   1   2
ATOM      2  C   UNL     1       8.220 -24.945  52.900  1.00  0.00     0.000 C 
BRANCH   2   3
ATOM      3  C   UNL     1       8.151 -25.964  51.744  1.00  0.00     0.000 C 
BRANCH   3   4
ATOM      4  C   UNL     1       8.841 -27.312  52.038  1.00  0.00     0.000 C 
BRANCH   4   5
ATOM      5  C   UNL     1       9.523 -27.920  50.798  1.00  0.00     0.000 C 
BRANCH   5   6
ATOM      6  C   UNL     1      10.730 -28.777  51.208  1.00  0.00     0.000 C 
BRANCH   6   7
ATOM      7  C   UNL     1      10.331 -30.031  52.006  1.00  0.00     0.000 C 
BRANCH   7   8
ATOM      8  C   UNL     1      10.974 -30.153  53.401  1.00  0.00    -0.000 C 
BRANCH   8   9
ATOM      9  C   UNL     1      10.367 -29.256  54.495  1.00  0.00    -0.000 C 
BRANCH   9  10
ATOM     10  C   UNL     1      11.320 -28.141  54.957  1.00  0.00    -0.000 C 
BRANCH  10  11
ATOM     11  C   UNL     1      12.673 -28.175  54.229  1.00  0.00    -0.000 C 
BRANCH  11  12
ATOM     12  C   UNL     1      12.867 -27.000  53.254  1.00  0.00    -0.000 C 
BRANCH  12  13
ATOM     13  C   UNL     1      14.144 -27.166  52.398  1.00  0.00    -0.000 C 
BRANCH  13  14
ATOM     14  C   UNL     1      14.368 -28.604  51.901  1.00  0.00    -0.000 C 
BRANCH  14  15
ATOM     15  C   UNL     1      14.838 -28.665  50.444  1.00  0.00    -0.003 C 
ATOM     16  C   UNL     1      13.858 -27.945  49.520  1.00  0.00     0.004 C 
ENDBRANCH  14  15
ENDBRANCH  13  14
ENDBRANCH  12  13
ENDBRANCH  11  12
ENDBRANCH  10  11
ENDBRANCH   9  10
ENDBRANCH   8   9
ENDBRANCH   7   8
ENDBRANCH   6   7
ENDBRANCH   5   6
ENDBRANCH   4   5
ENDBRANCH   3   4
ENDBRANCH   2   3
ENDBRANCH   1   2
BRANCH   1  17
ATOM     17  C   UNL     1       9.004 -24.442  55.331  1.00  0.00     0.000 C 
BRANCH  17  18
ATOM     18  C   UNL     1       7.668 -23.676  55.406  1.00  0.00     0.000 C 
BRANCH  18  19
ATOM     19  C   UNL     1       7.743 -22.283  56.053  1.00  0.00     0.000 C 
BRANCH  19  20
ATOM     20  C   UNL     1       9.163 -21.720  56.262  1.00  0.00     0.000 C 
BRANCH  20  21
ATOM     21  C   UNL     1       9.643 -20.756  55.159  1.00  0.00     0.000 C 
BRANCH  21  22
ATOM     22  C   UNL     1       8.574 -20.497  54.078  1.00  0.00     0.000 C 
BRANCH  22  23
ATOM     23  C   UNL     1       8.898 -21.193  52.745  1.00  0.00     0.000 C 
BRANCH  23  24
ATOM     24  C   UNL     1      10.205 -22.000  52.794  1.00  0.00     0.000 C 
BRANCH  24  25
ATOM     25  C   UNL     1      10.852 -22.079  51.404  1.00  0.00     0.000 C 
BRANCH  25  26
ATOM     26  C   UNL     1      10.029 -22.940  50.423  1.00  0.00     0.000 C 
BRANCH  26  27
ATOM     27  C   UNL     1      10.774 -24.194  49.941  1.00  0.00     0.002 C 
BRANCH  27  28
ATOM     28  C   UNL     1      12.008 -24.519  50.799  1.00  0.00     0.028 C 
BRANCH  28  29
ATOM     29  C   UNL     1      13.308 -24.335  50.012  1.00  0.00     0.156 C 
BRANCH  29  30
ATOM     30  O   UNL     1      13.022 -24.023  48.676  1.00  0.00    -0.396 OA
ATOM     31  H   UNL     1      13.746 -24.429  48.136  1.00  0.00     0.210 HD
ENDBRANCH  29  30
ENDBRANCH  28  29
ENDBRANCH  27  28
ENDBRANCH  26  27
ENDBRANCH  25  26
ENDBRANCH  24  25
ENDBRANCH  23  24
ENDBRANCH  22  23
ENDBRANCH  21  22
ENDBRANCH  20  21
ENDBRANCH  19  20
ENDBRANCH  18  19
ENDBRANCH  17  18
ENDBRANCH   1  17
TORSDOF 28
ENDMDL
MODEL 5
REMARK VINA RESULT:    -4.009      3.113      9.165
REMARK INTER + INTRA:         -15.677
REMARK INTER:                 -10.628
REMARK INTRA:                  -5.049
REMARK UNBOUND:                -5.223
REMARK SMILES CCCCCCCCCCCCCCCCCCCCCCCCCCCCCO
REMARK SMILES IDX 16 1 15 2 14 3 13 4 12 5 11 6 10 7 9 8 8 9 7 10 6 11 5 12
REMARK SMILES IDX 4 13 3 14 2 15 1 16 17 17 18 18 19 19 20 20 21 21 22 22
REMARK SMILES IDX 23 23 24 24 25 25 26 26 27 27 28 28 29 29 30 30
REMARK H PARENT 30 31
REMARK Flexibility Score: inf
ROOT
ATOM      1  C   UNL     1      11.621 -28.037  54.879  1.00  0.00     0.000 C 
ENDROOT
BRANCH   1   2
ATOM      2  C   UNL     1      10.350 -28.898  54.734  1.00  0.00     0.000 C 
BRANCH   2   3
ATOM      3  C   UNL     1      10.577 -30.357  54.285  1.00  0.00     0.000 C 
BRANCH   3   4
ATOM      4  C   UNL     1       9.711 -30.800  53.088  1.00  0.00     0.000 C 
BRANCH   4   5
ATOM      5  C   UNL     1      10.545 -31.345  51.914  1.00  0.00     0.000 C 
BRANCH   5   6
ATOM      6  C   UNL     1      12.034 -31.400  52.286  1.00  0.00     0.000 C 
BRANCH   6   7
ATOM      7  C   UNL     1      12.609 -32.828  52.248  1.00  0.00     0.000 C 
BRANCH   7   8
ATOM      8  C   UNL     1      11.594 -33.950  52.545  1.00  0.00    -0.000 C 
BRANCH   8   9
ATOM      9  C   UNL     1      11.320 -34.222  54.035  1.00  0.00    -0.000 C 
BRANCH   9  10
ATOM     10  C   UNL     1       9.853 -34.586  54.321  1.00  0.00    -0.000 C 
BRANCH  10  11
ATOM     11  C   UNL     1       9.090 -35.015  53.057  1.00  0.00    -0.000 C 
BRANCH  11  12
ATOM     12  C   UNL     1       7.876 -34.121  52.750  1.00  0.00    -0.000 C 
BRANCH  12  13
ATOM     13  C   UNL     1       7.449 -34.218  51.267  1.00  0.00    -0.000 C 
BRANCH  13  14
ATOM     14  C   UNL     1       8.544 -33.777  50.282  1.00  0.00    -0.000 C 
BRANCH  14  15
ATOM     15  C   UNL     1       8.756 -34.776  49.139  1.00  0.00    -0.003 C 
ATOM     16  C   UNL     1      10.236 -35.120  48.977  1.00  0.00     0.004 C 
ENDBRANCH  14  15
ENDBRANCH  13  14
ENDBRANCH  12  13
ENDBRANCH  11  12
ENDBRANCH  10  11
ENDBRANCH   9  10
ENDBRANCH   8   9
ENDBRANCH   7   8
ENDBRANCH   6   7
ENDBRANCH   5   6
ENDBRANCH   4   5
ENDBRANCH   3   4
ENDBRANCH   2   3
ENDBRANCH   1   2
BRANCH   1  17
ATOM     17  C   UNL     1      12.518 -27.985  53.620  1.00  0.00     0.000 C 
BRANCH  17  18
ATOM     18  C   UNL     1      11.964 -27.098  52.487  1.00  0.00     0.000 C 
BRANCH  18  19
ATOM     19  C   UNL     1      11.561 -27.846  51.205  1.00  0.00     0.000 C 
BRANCH  19  20
ATOM     20  C   UNL     1      10.204 -27.441  50.595  1.00  0.00     0.000 C 
BRANCH  20  21
ATOM     21  C   UNL     1       8.984 -27.711  51.500  1.00  0.00     0.000 C 
BRANCH  21  22
ATOM     22  C   UNL     1       8.219 -26.427  51.878  1.00  0.00     0.000 C 
BRANCH  22  23
ATOM     23  C   UNL     1       8.216 -26.164  53.394  1.00  0.00     0.000 C 
BRANCH  23  24
ATOM     24  C   UNL     1       9.269 -25.131  53.824  1.00  0.00     0.000 C 
BRANCH  24  25
ATOM     25  C   UNL     1       9.388 -24.005  52.787  1.00  0.00     0.000 C 
BRANCH  25  26
ATOM     26  C   UNL     1       8.761 -22.685  53.282  1.00  0.00     0.000 C 
BRANCH  26  27
ATOM     27  C   UNL     1       9.799 -21.667  53.778  1.00  0.00     0.002 C 
BRANCH  27  28
ATOM     28  C   UNL     1       9.326 -20.893  55.019  1.00  0.00     0.028 C 
BRANCH  28  29
ATOM     29  C   UNL     1       8.782 -21.831  56.098  1.00  0.00     0.156 C 
BRANCH  29  30
ATOM     30  O   UNL     1       9.833 -22.544  56.690  1.00  0.00    -0.396 OA
ATOM     31  H   UNL     1       9.873 -23.417  56.223  1.00  0.00     0.210 HD
ENDBRANCH  29  30
ENDBRANCH  28  29
ENDBRANCH  27  28
ENDBRANCH  26  27
ENDBRANCH  25  26
ENDBRANCH  24  25
ENDBRANCH  23  24
ENDBRANCH  22  23
ENDBRANCH  21  22
ENDBRANCH  20  21
ENDBRANCH  19  20
ENDBRANCH  18  19
ENDBRANCH  17  18
ENDBRANCH   1  17
TORSDOF 28
ENDMDL
MODEL 6
REMARK VINA RESULT:    -4.008      1.275      3.085
REMARK INTER + INTRA:         -15.674
REMARK INTER:                 -10.784
REMARK INTRA:                  -4.890
REMARK UNBOUND:                -5.223
REMARK SMILES CCCCCCCCCCCCCCCCCCCCCCCCCCCCCO
REMARK SMILES IDX 16 1 15 2 14 3 13 4 12 5 11 6 10 7 9 8 8 9 7 10 6 11 5 12
REMARK SMILES IDX 4 13 3 14 2 15 1 16 17 17 18 18 19 19 20 20 21 21 22 22
REMARK SMILES IDX 23 23 24 24 25 25 26 26 27 27 28 28 29 29 30 30
REMARK H PARENT 30 31
REMARK Flexibility Score: inf
ROOT
ATOM      1  C   UNL     1       9.898 -27.850  50.748  1.00  0.00     0.000 C 
ENDROOT
BRANCH   1   2
ATOM      2  C   UNL     1       8.596 -27.540  51.512  1.00  0.00     0.000 C 
BRANCH   2   3
ATOM      3  C   UNL     1       8.615 -26.264  52.379  1.00  0.00     0.000 C 
BRANCH   3   4
ATOM      4  C   UNL     1       9.925 -26.043  53.164  1.00  0.00     0.000 C 
BRANCH   4   5
ATOM      5  C   UNL     1       9.687 -25.531  54.596  1.00  0.00     0.000 C 
BRANCH   5   6
ATOM      6  C   UNL     1       8.461 -24.606  54.645  1.00  0.00     0.000 C 
BRANCH   6   7
ATOM      7  C   UNL     1       8.218 -24.008  56.042  1.00  0.00     0.000 C 
BRANCH   7   8
ATOM      8  C   UNL     1       7.690 -22.560  56.053  1.00  0.00    -0.000 C 
BRANCH   8   9
ATOM      9  C   UNL     1       8.764 -21.459  56.129  1.00  0.00    -0.000 C 
BRANCH   9  10
ATOM     10  C   UNL     1       8.839 -20.601  54.855  1.00  0.00    -0.000 C 
BRANCH  10  11
ATOM     11  C   UNL     1       9.825 -21.163  53.818  1.00  0.00    -0.000 C 
BRANCH  11  12
ATOM     12  C   UNL     1       9.233 -21.239  52.399  1.00  0.00    -0.000 C 
BRANCH  12  13
ATOM     13  C   UNL     1       9.590 -22.570  51.696  1.00  0.00    -0.000 C 
BRANCH  13  14
ATOM     14  C   UNL     1      11.076 -22.944  51.808  1.00  0.00    -0.000 C 
BRANCH  14  15
ATOM     15  C   UNL     1      11.712 -23.274  50.452  1.00  0.00    -0.003 C 
ATOM     16  C   UNL     1      10.743 -22.984  49.308  1.00  0.00     0.004 C 
ENDBRANCH  14  15
ENDBRANCH  13  14
ENDBRANCH  12  13
ENDBRANCH  11  12
ENDBRANCH  10  11
ENDBRANCH   9  10
ENDBRANCH   8   9
ENDBRANCH   7   8
ENDBRANCH   6   7
ENDBRANCH   5   6
ENDBRANCH   4   5
ENDBRANCH   3   4
ENDBRANCH   2   3
ENDBRANCH   1   2
BRANCH   1  17
ATOM     17  C   UNL     1      10.159 -26.952  49.516  1.00  0.00     0.000 C 
BRANCH  17  18
ATOM     18  C   UNL     1      11.648 -26.641  49.266  1.00  0.00     0.000 C 
BRANCH  18  19
ATOM     19  C   UNL     1      12.639 -27.406  50.160  1.00  0.00     0.000 C 
BRANCH  19  20
ATOM     20  C   UNL     1      13.728 -26.549  50.834  1.00  0.00     0.000 C 
BRANCH  20  21
ATOM     21  C   UNL     1      13.607 -26.442  52.367  1.00  0.00     0.000 C 
BRANCH  21  22
ATOM     22  C   UNL     1      13.866 -27.781  53.087  1.00  0.00     0.000 C 
BRANCH  22  23
ATOM     23  C   UNL     1      12.645 -28.271  53.884  1.00  0.00     0.000 C 
BRANCH  23  24
ATOM     24  C   UNL     1      12.041 -29.565  53.318  1.00  0.00     0.000 C 
BRANCH  24  25
ATOM     25  C   UNL     1      10.599 -29.759  53.811  1.00  0.00     0.000 C 
BRANCH  25  26
ATOM     26  C   UNL     1      10.074 -31.183  53.536  1.00  0.00     0.000 C 
BRANCH  26  27
ATOM     27  C   UNL     1       9.699 -31.419  52.065  1.00  0.00     0.002 C 
BRANCH  27  28
ATOM     28  C   UNL     1       8.197 -31.235  51.797  1.00  0.00     0.028 C 
BRANCH  28  29
ATOM     29  C   UNL     1       7.551 -32.526  51.288  1.00  0.00     0.156 C 
BRANCH  29  30
ATOM     30  O   UNL     1       7.196 -33.345  52.368  1.00  0.00    -0.396 OA
ATOM     31  H   UNL     1       6.447 -32.888  52.827  1.00  0.00     0.210 HD
ENDBRANCH  29  30
ENDBRANCH  28  29
ENDBRANCH  27  28
ENDBRANCH  26  27
ENDBRANCH  25  26
ENDBRANCH  24  25
ENDBRANCH  23  24
ENDBRANCH  22  23
ENDBRANCH  21  22
ENDBRANCH  20  21
ENDBRANCH  19  20
ENDBRANCH  18  19
ENDBRANCH  17  18
ENDBRANCH   1  17
TORSDOF 28
ENDMDL
MODEL 7
REMARK VINA RESULT:    -4.001      2.094      3.907
REMARK INTER + INTRA:         -15.657
REMARK INTER:                 -10.176
REMARK INTRA:                  -5.481
REMARK UNBOUND:                -5.223
REMARK SMILES CCCCCCCCCCCCCCCCCCCCCCCCCCCCCO
REMARK SMILES IDX 16 1 15 2 14 3 13 4 12 5 11 6 10 7 9 8 8 9 7 10 6 11 5 12
REMARK SMILES IDX 4 13 3 14 2 15 1 16 17 17 18 18 19 19 20 20 21 21 22 22
REMARK SMILES IDX 23 23 24 24 25 25 26 26 27 27 28 28 29 29 30 30
REMARK H PARENT 30 31
REMARK Flexibility Score: inf
ROOT
ATOM      1  C   UNL     1       9.368 -25.193  53.750  1.00  0.00     0.000 C 
ENDROOT
BRANCH   1   2
ATOM      2  C   UNL     1       9.351 -24.521  55.138  1.00  0.00     0.000 C 
BRANCH   2   3
ATOM      3  C   UNL     1       8.013 -23.876  55.554  1.00  0.00     0.000 C 
BRANCH   3   4
ATOM      4  C   UNL     1       8.156 -22.541  56.314  1.00  0.00     0.000 C 
BRANCH   4   5
ATOM      5  C   UNL     1       8.935 -21.478  55.518  1.00  0.00     0.000 C 
BRANCH   5   6
ATOM      6  C   UNL     1       8.217 -21.153  54.199  1.00  0.00     0.000 C 
BRANCH   6   7
ATOM      7  C   UNL     1       9.141 -21.256  52.972  1.00  0.00     0.000 C 
BRANCH   7   8
ATOM      8  C   UNL     1       8.613 -22.140  51.825  1.00  0.00    -0.000 C 
BRANCH   8   9
ATOM      9  C   UNL     1       9.683 -22.713  50.878  1.00  0.00    -0.000 C 
BRANCH   9  10
ATOM     10  C   UNL     1      11.081 -22.773  51.516  1.00  0.00    -0.000 C 
BRANCH  10  11
ATOM     11  C   UNL     1      12.048 -23.686  50.744  1.00  0.00    -0.000 C 
BRANCH  11  12
ATOM     12  C   UNL     1      11.515 -24.101  49.361  1.00  0.00    -0.000 C 
BRANCH  12  13
ATOM     13  C   UNL     1      12.034 -25.495  48.938  1.00  0.00    -0.000 C 
BRANCH  13  14
ATOM     14  C   UNL     1      11.311 -26.073  47.710  1.00  0.00    -0.000 C 
BRANCH  14  15
ATOM     15  C   UNL     1      11.893 -27.417  47.254  1.00  0.00    -0.003 C 
ATOM     16  C   UNL     1      13.074 -27.829  48.130  1.00  0.00     0.004 C 
ENDBRANCH  14  15
ENDBRANCH  13  14
ENDBRANCH  12  13
ENDBRANCH  11  12
ENDBRANCH  10  11
ENDBRANCH   9  10
ENDBRANCH   8   9
ENDBRANCH   7   8
ENDBRANCH   6   7
ENDBRANCH   5   6
ENDBRANCH   4   5
ENDBRANCH   3   4
ENDBRANCH   2   3
ENDBRANCH   1   2
BRANCH   1  17
ATOM     17  C   UNL     1       7.986 -25.666  53.240  1.00  0.00     0.000 C 
BRANCH  17  18
ATOM     18  C   UNL     1       8.026 -26.359  51.864  1.00  0.00     0.000 C 
BRANCH  18  19
ATOM     19  C   UNL     1       9.422 -26.484  51.230  1.00  0.00     0.000 C 
BRANCH  19  20
ATOM     20  C   UNL     1       9.880 -27.919  50.903  1.00  0.00     0.000 C 
BRANCH  20  21
ATOM     21  C   UNL     1       9.383 -28.995  51.889  1.00  0.00     0.000 C 
BRANCH  21  22
ATOM     22  C   UNL     1      10.488 -29.498  52.840  1.00  0.00     0.000 C 
BRANCH  22  23
ATOM     23  C   UNL     1      10.484 -28.766  54.193  1.00  0.00     0.000 C 
BRANCH  23  24
ATOM     24  C   UNL     1      11.749 -27.923  54.421  1.00  0.00     0.000 C 
BRANCH  24  25
ATOM     25  C   UNL     1      12.774 -28.158  53.302  1.00  0.00     0.000 C 
BRANCH  25  26
ATOM     26  C   UNL     1      12.875 -26.956  52.340  1.00  0.00     0.000 C 
BRANCH  26  27
ATOM     27  C   UNL     1      14.255 -26.280  52.354  1.00  0.00     0.002 C 
BRANCH  27  28
ATOM     28  C   UNL     1      14.952 -26.324  50.985  1.00  0.00     0.028 C 
BRANCH  28  29
ATOM     29  C   UNL     1      15.729 -27.627  50.787  1.00  0.00     0.156 C 
BRANCH  29  30
ATOM     30  O   UNL     1      17.008 -27.354  50.283  1.00  0.00    -0.396 OA
ATOM     31  H   UNL     1      16.890 -27.168  49.316  1.00  0.00     0.210 HD
ENDBRANCH  29  30
ENDBRANCH  28  29
ENDBRANCH  27  28
ENDBRANCH  26  27
ENDBRANCH  25  26
ENDBRANCH  24  25
ENDBRANCH  23  24
ENDBRANCH  22  23
ENDBRANCH  21  22
ENDBRANCH  20  21
ENDBRANCH  19  20
ENDBRANCH  18  19
ENDBRANCH  17  18
ENDBRANCH   1  17
TORSDOF 28
ENDMDL
MODEL 8
REMARK VINA RESULT:    -3.977      2.156      7.677
REMARK INTER + INTRA:         -15.593
REMARK INTER:                 -10.348
REMARK INTRA:                  -5.245
REMARK UNBOUND:                -5.223
REMARK SMILES CCCCCCCCCCCCCCCCCCCCCCCCCCCCCO
REMARK SMILES IDX 16 1 15 2 14 3 13 4 12 5 11 6 10 7 9 8 8 9 7 10 6 11 5 12
REMARK SMILES IDX 4 13 3 14 2 15 1 16 17 17 18 18 19 19 20 20 21 21 22 22
REMARK SMILES IDX 23 23 24 24 25 25 26 26 27 27 28 28 29 29 30 30
REMARK H PARENT 30 31
REMARK Flexibility Score: inf
ROOT
ATOM      1  C   UNL     1       9.193 -25.531  54.305  1.00  0.00     0.000 C 
ENDROOT
BRANCH   1   2
ATOM      2  C   UNL     1       8.174 -26.209  53.367  1.00  0.00     0.000 C 
BRANCH   2   3
ATOM      3  C   UNL     1       8.455 -26.067  51.857  1.00  0.00     0.000 C 
BRANCH   3   4
ATOM      4  C   UNL     1       9.951 -26.091  51.480  1.00  0.00     0.000 C 
BRANCH   4   5
ATOM      5  C   UNL     1      10.187 -26.352  49.981  1.00  0.00     0.000 C 
BRANCH   5   6
ATOM      6  C   UNL     1      10.948 -27.671  49.773  1.00  0.00     0.000 C 
BRANCH   6   7
ATOM      7  C   UNL     1      12.381 -27.461  49.252  1.00  0.00     0.000 C 
BRANCH   7   8
ATOM      8  C   UNL     1      13.489 -27.582  50.317  1.00  0.00    -0.000 C 
BRANCH   8   9
ATOM      9  C   UNL     1      13.671 -26.356  51.231  1.00  0.00    -0.000 C 
BRANCH   9  10
ATOM     10  C   UNL     1      13.639 -26.711  52.727  1.00  0.00    -0.000 C 
BRANCH  10  11
ATOM     11  C   UNL     1      12.879 -28.016  53.012  1.00  0.00    -0.000 C 
BRANCH  11  12
ATOM     12  C   UNL     1      11.952 -27.923  54.238  1.00  0.00    -0.000 C 
BRANCH  12  13
ATOM     13  C   UNL     1      10.738 -28.872  54.117  1.00  0.00    -0.000 C 
BRANCH  13  14
ATOM     14  C   UNL     1      10.802 -29.798  52.891  1.00  0.00    -0.000 C 
BRANCH  14  15
ATOM     15  C   UNL     1       9.466 -29.894  52.146  1.00  0.00    -0.003 C 
ATOM     16  C   UNL     1       8.993 -31.344  52.052  1.00  0.00     0.004 C 
ENDBRANCH  14  15
ENDBRANCH  13  14
ENDBRANCH  12  13
ENDBRANCH  11  12
ENDBRANCH  10  11
ENDBRANCH   9  10
ENDBRANCH   8   9
ENDBRANCH   7   8
ENDBRANCH   6   7
ENDBRANCH   5   6
ENDBRANCH   4   5
ENDBRANCH   3   4
ENDBRANCH   2   3
ENDBRANCH   1   2
BRANCH   1  17
ATOM     17  C   UNL     1       8.994 -24.008  54.488  1.00  0.00     0.000 C 
BRANCH  17  18
ATOM     18  C   UNL     1       7.743 -23.629  55.305  1.00  0.00     0.000 C 
BRANCH  18  19
ATOM     19  C   UNL     1       7.931 -22.469  56.296  1.00  0.00     0.000 C 
BRANCH  19  20
ATOM     20  C   UNL     1       9.263 -21.701  56.181  1.00  0.00     0.000 C 
BRANCH  20  21
ATOM     21  C   UNL     1       9.182 -20.389  55.374  1.00  0.00     0.000 C 
BRANCH  21  22
ATOM     22  C   UNL     1       7.736 -19.986  55.022  1.00  0.00     0.000 C 
BRANCH  22  23
ATOM     23  C   UNL     1       7.426 -20.141  53.523  1.00  0.00     0.000 C 
BRANCH  23  24
ATOM     24  C   UNL     1       8.665 -20.506  52.690  1.00  0.00     0.000 C 
BRANCH  24  25
ATOM     25  C   UNL     1       8.420 -21.783  51.874  1.00  0.00     0.000 C 
BRANCH  25  26
ATOM     26  C   UNL     1       9.618 -22.137  50.968  1.00  0.00     0.000 C 
BRANCH  26  27
ATOM     27  C   UNL     1      10.857 -22.599  51.750  1.00  0.00     0.002 C 
BRANCH  27  28
ATOM     28  C   UNL     1      12.026 -22.995  50.833  1.00  0.00     0.028 C 
BRANCH  28  29
ATOM     29  C   UNL     1      11.596 -23.062  49.366  1.00  0.00     0.156 C 
BRANCH  29  30
ATOM     30  O   UNL     1      12.332 -22.142  48.607  1.00  0.00    -0.396 OA
ATOM     31  H   UNL     1      12.491 -22.572  47.728  1.00  0.00     0.210 HD
ENDBRANCH  29  30
ENDBRANCH  28  29
ENDBRANCH  27  28
ENDBRANCH  26  27
ENDBRANCH  25  26
ENDBRANCH  24  25
ENDBRANCH  23  24
ENDBRANCH  22  23
ENDBRANCH  21  22
ENDBRANCH  20  21
ENDBRANCH  19  20
ENDBRANCH  18  19
ENDBRANCH  17  18
ENDBRANCH   1  17
TORSDOF 28
ENDMDL
MODEL 9
REMARK VINA RESULT:    -3.940      1.463      4.079
REMARK INTER + INTRA:         -15.498
REMARK INTER:                  -9.930
REMARK INTRA:                  -5.568
REMARK UNBOUND:                -5.223
REMARK SMILES CCCCCCCCCCCCCCCCCCCCCCCCCCCCCO
REMARK SMILES IDX 16 1 15 2 14 3 13 4 12 5 11 6 10 7 9 8 8 9 7 10 6 11 5 12
REMARK SMILES IDX 4 13 3 14 2 15 1 16 17 17 18 18 19 19 20 20 21 21 22 22
REMARK SMILES IDX 23 23 24 24 25 25 26 26 27 27 28 28 29 29 30 30
REMARK H PARENT 30 31
REMARK Flexibility Score: inf
ROOT
ATOM      1  C   UNL     1      11.829 -25.708  47.700  1.00  0.00     0.000 C 
ENDROOT
BRANCH   1   2
ATOM      2  C   UNL     1      11.759 -27.126  48.301  1.00  0.00     0.000 C 
BRANCH   2   3
ATOM      3  C   UNL     1      11.140 -27.226  49.711  1.00  0.00     0.000 C 
BRANCH   3   4
ATOM      4  C   UNL     1      10.433 -25.942  50.192  1.00  0.00     0.000 C 
BRANCH   4   5
ATOM      5  C   UNL     1      10.084 -25.975  51.691  1.00  0.00     0.000 C 
BRANCH   5   6
ATOM      6  C   UNL     1       8.566 -26.096  51.892  1.00  0.00     0.000 C 
BRANCH   6   7
ATOM      7  C   UNL     1       8.155 -26.081  53.376  1.00  0.00     0.000 C 
BRANCH   7   8
ATOM      8  C   UNL     1       9.201 -25.484  54.339  1.00  0.00    -0.000 C 
BRANCH   8   9
ATOM      9  C   UNL     1       9.020 -23.993  54.677  1.00  0.00    -0.000 C 
BRANCH   9  10
ATOM     10  C   UNL     1       7.664 -23.431  54.217  1.00  0.00    -0.000 C 
BRANCH  10  11
ATOM     11  C   UNL     1       7.808 -22.220  53.282  1.00  0.00    -0.000 C 
BRANCH  11  12
ATOM     12  C   UNL     1       8.646 -22.520  52.026  1.00  0.00    -0.000 C 
BRANCH  12  13
ATOM     13  C   UNL     1       9.964 -21.711  52.006  1.00  0.00    -0.000 C 
BRANCH  13  14
ATOM     14  C   UNL     1      11.176 -22.523  51.519  1.00  0.00    -0.000 C 
BRANCH  14  15
ATOM     15  C   UNL     1      11.685 -22.069  50.146  1.00  0.00    -0.003 C 
ATOM     16  C   UNL     1      10.587 -22.179  49.090  1.00  0.00     0.004 C 
ENDBRANCH  14  15
ENDBRANCH  13  14
ENDBRANCH  12  13
ENDBRANCH  11  12
ENDBRANCH  10  11
ENDBRANCH   9  10
ENDBRANCH   8   9
ENDBRANCH   7   8
ENDBRANCH   6   7
ENDBRANCH   5   6
ENDBRANCH   4   5
ENDBRANCH   3   4
ENDBRANCH   2   3
ENDBRANCH   1   2
BRANCH   1  17
ATOM     17  C   UNL     1      13.249 -25.241  47.302  1.00  0.00     0.000 C 
BRANCH  17  18
ATOM     18  C   UNL     1      14.315 -25.462  48.393  1.00  0.00     0.000 C 
BRANCH  18  19
ATOM     19  C   UNL     1      14.123 -24.637  49.677  1.00  0.00     0.000 C 
BRANCH  19  20
ATOM     20  C   UNL     1      14.210 -25.428  50.997  1.00  0.00     0.000 C 
BRANCH  20  21
ATOM     21  C   UNL     1      14.975 -26.764  50.900  1.00  0.00     0.000 C 
BRANCH  21  22
ATOM     22  C   UNL     1      14.298 -27.903  51.688  1.00  0.00     0.000 C 
BRANCH  22  23
ATOM     23  C   UNL     1      13.385 -27.386  52.812  1.00  0.00     0.000 C 
BRANCH  23  24
ATOM     24  C   UNL     1      12.990 -28.482  53.814  1.00  0.00     0.000 C 
BRANCH  24  25
ATOM     25  C   UNL     1      11.610 -28.196  54.425  1.00  0.00     0.000 C 
BRANCH  25  26
ATOM     26  C   UNL     1      10.594 -29.316  54.121  1.00  0.00     0.000 C 
BRANCH  26  27
ATOM     27  C   UNL     1      10.177 -29.376  52.644  1.00  0.00     0.002 C 
BRANCH  27  28
ATOM     28  C   UNL     1      10.261 -30.795  52.059  1.00  0.00     0.028 C 
BRANCH  28  29
ATOM     29  C   UNL     1       9.266 -31.744  52.732  1.00  0.00     0.156 C 
BRANCH  29  30
ATOM     30  O   UNL     1       7.955 -31.387  52.390  1.00  0.00    -0.396 OA
ATOM     31  H   UNL     1       7.862 -31.572  51.421  1.00  0.00     0.210 HD
ENDBRANCH  29  30
ENDBRANCH  28  29
ENDBRANCH  27  28
ENDBRANCH  26  27
ENDBRANCH  25  26
ENDBRANCH  24  25
ENDBRANCH  23  24
ENDBRANCH  22  23
ENDBRANCH  21  22
ENDBRANCH  20  21
ENDBRANCH  19  20
ENDBRANCH  18  19
ENDBRANCH  17  18
ENDBRANCH   1  17
TORSDOF 28
ENDMDL
