MODEL 1
REMARK VINA RESULT:    -5.507      0.000      0.000
REMARK INTER + INTRA:         -15.658
REMARK INTER:                 -12.590
REMARK INTRA:                  -3.067
REMARK UNBOUND:                -3.067
REMARK SMILES CCCCCCCCCCCCCCCCCCCCCCCC(=O)[O-]
REMARK SMILES IDX 13 1 14 2 15 3 16 4 17 5 18 6 19 7 20 8 21 9 22 10 23 11
REMARK SMILES IDX 24 12 25 13 26 14 12 15 11 16 10 17 9 18 8 19 7 20 6 21 5 22
REMARK SMILES IDX 4 23 3 24 2 25 1 26
REMARK H PARENT
REMARK Flexibility Score: inf
ROOT
ATOM      1  C   UNL     1      21.173   0.746  62.351  1.00  0.00     0.000 C 
ENDROOT
BRANCH   1   2
ATOM      2  C   UNL     1      21.638  -0.713  62.153  1.00  0.00     0.000 C 
BRANCH   2   3
ATOM      3  C   UNL     1      21.592  -1.143  60.676  1.00  0.00     0.000 C 
BRANCH   3   4
ATOM      4  C   UNL     1      21.337  -2.658  60.516  1.00  0.00     0.000 C 
BRANCH   4   5
ATOM      5  C   UNL     1      22.445  -3.389  59.740  1.00  0.00     0.000 C 
BRANCH   5   6
ATOM      6  C   UNL     1      22.844  -2.665  58.444  1.00  0.00     0.000 C 
BRANCH   6   7
ATOM      7  C   UNL     1      24.256  -3.043  57.970  1.00  0.00     0.000 C 
BRANCH   7   8
ATOM      8  C   UNL     1      25.233  -3.253  59.139  1.00  0.00     0.000 C 
BRANCH   8   9
ATOM      9  C   UNL     1      26.119  -2.022  59.405  1.00  0.00     0.000 C 
BRANCH   9  10
ATOM     10  C   UNL     1      26.315  -1.670  60.894  1.00  0.00     0.006 C 
BRANCH  10  11
ATOM     11  C   UNL     1      25.034  -1.732  61.739  1.00  0.00     0.053 C 
BRANCH  11  12
ATOM     12  C   UNL     1      24.893  -3.042  62.450  1.00  0.00     0.041 C 
ATOM     13  O   UNL     1      25.834  -3.878  62.427  1.00  0.00    -0.550 OA
ATOM     14  O   UNL     1      23.710  -3.355  63.107  1.00  0.00    -0.550 OA
ENDBRANCH  11  12
ENDBRANCH  10  11
ENDBRANCH   9  10
ENDBRANCH   8   9
ENDBRANCH   7   8
ENDBRANCH   6   7
ENDBRANCH   5   6
ENDBRANCH   4   5
ENDBRANCH   3   4
ENDBRANCH   2   3
ENDBRANCH   1   2
BRANCH   1  15
ATOM     15  C   UNL     1      21.332   1.253  63.794  1.00  0.00     0.000 C 
BRANCH  15  16
ATOM     16  C   UNL     1      21.137   2.769  63.920  1.00  0.00     0.000 C 
BRANCH  16  17
ATOM     17  C   UNL     1      22.348   3.426  64.599  1.00  0.00     0.000 C 
BRANCH  17  18
ATOM     18  C   UNL     1      22.877   2.614  65.795  1.00  0.00    -0.000 C 
BRANCH  18  19
ATOM     19  C   UNL     1      24.303   2.976  66.252  1.00  0.00    -0.000 C 
BRANCH  19  20
ATOM     20  C   UNL     1      25.289   3.311  65.117  1.00  0.00    -0.000 C 
BRANCH  20  21
ATOM     21  C   UNL     1      26.271   2.168  64.784  1.00  0.00    -0.000 C 
BRANCH  21  22
ATOM     22  C   UNL     1      26.026   1.562  63.389  1.00  0.00    -0.000 C 
BRANCH  22  23
ATOM     23  C   UNL     1      25.710   2.642  62.333  1.00  0.00    -0.000 C 
BRANCH  23  24
ATOM     24  C   UNL     1      24.275   2.561  61.782  1.00  0.00    -0.000 C 
BRANCH  24  25
ATOM     25  C   UNL     1      23.640   3.941  61.567  1.00  0.00    -0.003 C 
ATOM     26  C   UNL     1      23.226   4.136  60.111  1.00  0.00     0.004 C 
ENDBRANCH  24  25
ENDBRANCH  23  24
ENDBRANCH  22  23
ENDBRANCH  21  22
ENDBRANCH  20  21
ENDBRANCH  19  20
ENDBRANCH  18  19
ENDBRANCH  17  18
ENDBRANCH  16  17
ENDBRANCH  15  16
ENDBRANCH   1  15
TORSDOF 22
ENDMDL
MODEL 2
REMARK VINA RESULT:    -5.506      2.361      6.972
REMARK INTER + INTRA:         -15.654
REMARK INTER:                 -12.489
REMARK INTRA:                  -3.165
REMARK UNBOUND:                -3.067
REMARK SMILES CCCCCCCCCCCCCCCCCCCCCCCC(=O)[O-]
REMARK SMILES IDX 13 1 14 2 15 3 16 4 17 5 18 6 19 7 20 8 21 9 22 10 23 11
REMARK SMILES IDX 24 12 25 13 26 14 12 15 11 16 10 17 9 18 8 19 7 20 6 21 5 22
REMARK SMILES IDX 4 23 3 24 2 25 1 26
REMARK H PARENT
REMARK Flexibility Score: inf
ROOT
ATOM      1  C   UNL     1      21.053  -0.042  61.763  1.00  0.00     0.000 C 
ENDROOT
BRANCH   1   2
ATOM      2  C   UNL     1      21.937   0.797  62.711  1.00  0.00     0.000 C 
BRANCH   2   3
ATOM      3  C   UNL     1      21.202   2.039  63.246  1.00  0.00     0.000 C 
BRANCH   3   4
ATOM      4  C   UNL     1      21.557   2.339  64.719  1.00  0.00     0.000 C 
BRANCH   4   5
ATOM      5  C   UNL     1      22.689   3.368  64.881  1.00  0.00     0.000 C 
BRANCH   5   6
ATOM      6  C   UNL     1      23.835   2.859  65.771  1.00  0.00     0.000 C 
BRANCH   6   7
ATOM      7  C   UNL     1      25.203   3.411  65.341  1.00  0.00     0.000 C 
BRANCH   7   8
ATOM      8  C   UNL     1      26.219   2.297  65.039  1.00  0.00     0.000 C 
BRANCH   8   9
ATOM      9  C   UNL     1      26.030   1.680  63.641  1.00  0.00     0.000 C 
BRANCH   9  10
ATOM     10  C   UNL     1      25.822   2.699  62.502  1.00  0.00     0.006 C 
BRANCH  10  11
ATOM     11  C   UNL     1      24.531   2.498  61.694  1.00  0.00     0.053 C 
BRANCH  11  12
ATOM     12  C   UNL     1      23.849   3.797  61.395  1.00  0.00     0.041 C 
ATOM     13  O   UNL     1      23.254   3.960  60.297  1.00  0.00    -0.550 OA
ATOM     14  O   UNL     1      23.900   4.840  62.311  1.00  0.00    -0.550 OA
ENDBRANCH  11  12
ENDBRANCH  10  11
ENDBRANCH   9  10
ENDBRANCH   8   9
ENDBRANCH   7   8
ENDBRANCH   6   7
ENDBRANCH   5   6
ENDBRANCH   4   5
ENDBRANCH   3   4
ENDBRANCH   2   3
ENDBRANCH   1   2
BRANCH   1  15
ATOM     15  C   UNL     1      21.508  -1.505  61.632  1.00  0.00     0.000 C 
BRANCH  15  16
ATOM     16  C   UNL     1      21.219  -2.098  60.247  1.00  0.00     0.000 C 
BRANCH  16  17
ATOM     17  C   UNL     1      22.435  -2.870  59.714  1.00  0.00     0.000 C 
BRANCH  17  18
ATOM     18  C   UNL     1      22.705  -2.608  58.221  1.00  0.00    -0.000 C 
BRANCH  18  19
ATOM     19  C   UNL     1      24.123  -2.969  57.741  1.00  0.00    -0.000 C 
BRANCH  19  20
ATOM     20  C   UNL     1      25.133  -3.285  58.859  1.00  0.00    -0.000 C 
BRANCH  20  21
ATOM     21  C   UNL     1      26.187  -2.180  59.081  1.00  0.00    -0.000 C 
BRANCH  21  22
ATOM     22  C   UNL     1      26.624  -2.062  60.553  1.00  0.00    -0.000 C 
BRANCH  22  23
ATOM     23  C   UNL     1      25.784  -1.024  61.328  1.00  0.00    -0.000 C 
BRANCH  23  24
ATOM     24  C   UNL     1      24.855  -1.650  62.383  1.00  0.00    -0.000 C 
BRANCH  24  25
ATOM     25  C   UNL     1      25.003  -3.175  62.478  1.00  0.00    -0.003 C 
ATOM     26  C   UNL     1      23.682  -3.832  62.871  1.00  0.00     0.004 C 
ENDBRANCH  24  25
ENDBRANCH  23  24
ENDBRANCH  22  23
ENDBRANCH  21  22
ENDBRANCH  20  21
ENDBRANCH  19  20
ENDBRANCH  18  19
ENDBRANCH  17  18
ENDBRANCH  16  17
ENDBRANCH  15  16
ENDBRANCH   1  15
TORSDOF 22
ENDMDL
MODEL 3
REMARK VINA RESULT:    -5.344      1.770      2.625
REMARK INTER + INTRA:         -15.284
REMARK INTER:                 -12.610
REMARK INTRA:                  -2.674
REMARK UNBOUND:                -3.067
REMARK SMILES CCCCCCCCCCCCCCCCCCCCCCCC(=O)[O-]
REMARK SMILES IDX 13 1 14 2 15 3 16 4 17 5 18 6 19 7 20 8 21 9 22 10 23 11
REMARK SMILES IDX 24 12 25 13 26 14 12 15 11 16 10 17 9 18 8 19 7 20 6 21 5 22
REMARK SMILES IDX 4 23 3 24 2 25 1 26
REMARK H PARENT
REMARK Flexibility Score: inf
ROOT
ATOM      1  C   UNL     1      21.401   0.935  62.614  1.00  0.00     0.000 C 
ENDROOT
BRANCH   1   2
ATOM      2  C   UNL     1      20.638  -0.391  62.402  1.00  0.00     0.000 C 
BRANCH   2   3
ATOM      3  C   UNL     1      21.462  -1.415  61.601  1.00  0.00     0.000 C 
BRANCH   3   4
ATOM      4  C   UNL     1      22.953  -1.410  62.005  1.00  0.00     0.000 C 
BRANCH   4   5
ATOM      5  C   UNL     1      23.453  -2.768  62.525  1.00  0.00     0.000 C 
BRANCH   5   6
ATOM      6  C   UNL     1      24.971  -2.949  62.359  1.00  0.00     0.000 C 
BRANCH   6   7
ATOM      7  C   UNL     1      25.674  -1.653  61.932  1.00  0.00     0.000 C 
BRANCH   7   8
ATOM      8  C   UNL     1      26.332  -1.768  60.546  1.00  0.00     0.000 C 
BRANCH   8   9
ATOM      9  C   UNL     1      26.198  -3.176  59.937  1.00  0.00     0.000 C 
BRANCH   9  10
ATOM     10  C   UNL     1      25.278  -3.267  58.702  1.00  0.00     0.006 C 
BRANCH  10  11
ATOM     11  C   UNL     1      23.779  -3.352  59.027  1.00  0.00     0.053 C 
BRANCH  11  12
ATOM     12  C   UNL     1      22.939  -2.682  57.984  1.00  0.00     0.041 C 
ATOM     13  O   UNL     1      23.291  -2.712  56.775  1.00  0.00    -0.550 OA
ATOM     14  O   UNL     1      21.789  -1.995  58.350  1.00  0.00    -0.550 OA
ENDBRANCH  11  12
ENDBRANCH  10  11
ENDBRANCH   9  10
ENDBRANCH   8   9
ENDBRANCH   7   8
ENDBRANCH   6   7
ENDBRANCH   5   6
ENDBRANCH   4   5
ENDBRANCH   3   4
ENDBRANCH   2   3
ENDBRANCH   1   2
BRANCH   1  15
ATOM     15  C   UNL     1      21.237   1.520  64.026  1.00  0.00     0.000 C 
BRANCH  15  16
ATOM     16  C   UNL     1      21.221   3.055  64.038  1.00  0.00     0.000 C 
BRANCH  16  17
ATOM     17  C   UNL     1      22.532   3.613  64.611  1.00  0.00     0.000 C 
BRANCH  17  18
ATOM     18  C   UNL     1      23.017   2.847  65.855  1.00  0.00    -0.000 C 
BRANCH  18  19
ATOM     19  C   UNL     1      24.523   2.971  66.153  1.00  0.00    -0.000 C 
BRANCH  19  20
ATOM     20  C   UNL     1      25.408   3.291  64.933  1.00  0.00    -0.000 C 
BRANCH  20  21
ATOM     21  C   UNL     1      26.472   2.213  64.632  1.00  0.00    -0.000 C 
BRANCH  21  22
ATOM     22  C   UNL     1      26.216   1.481  63.302  1.00  0.00    -0.000 C 
BRANCH  22  23
ATOM     23  C   UNL     1      24.893   1.922  62.640  1.00  0.00    -0.000 C 
BRANCH  23  24
ATOM     24  C   UNL     1      25.031   3.186  61.773  1.00  0.00    -0.000 C 
BRANCH  24  25
ATOM     25  C   UNL     1      23.719   3.973  61.653  1.00  0.00    -0.003 C 
ATOM     26  C   UNL     1      23.222   3.996  60.209  1.00  0.00     0.004 C 
ENDBRANCH  24  25
ENDBRANCH  23  24
ENDBRANCH  22  23
ENDBRANCH  21  22
ENDBRANCH  20  21
ENDBRANCH  19  20
ENDBRANCH  18  19
ENDBRANCH  17  18
ENDBRANCH  16  17
ENDBRANCH  15  16
ENDBRANCH   1  15
TORSDOF 22
ENDMDL
MODEL 4
REMARK VINA RESULT:    -5.306      2.200      6.801
REMARK INTER + INTRA:         -15.197
REMARK INTER:                 -12.453
REMARK INTRA:                  -2.744
REMARK UNBOUND:                -3.067
REMARK SMILES CCCCCCCCCCCCCCCCCCCCCCCC(=O)[O-]
REMARK SMILES IDX 13 1 14 2 15 3 16 4 17 5 18 6 19 7 20 8 21 9 22 10 23 11
REMARK SMILES IDX 24 12 25 13 26 14 12 15 11 16 10 17 9 18 8 19 7 20 6 21 5 22
REMARK SMILES IDX 4 23 3 24 2 25 1 26
REMARK H PARENT
REMARK Flexibility Score: inf
ROOT
ATOM      1  C   UNL     1      21.247  -0.621  61.787  1.00  0.00     0.000 C 
ENDROOT
BRANCH   1   2
ATOM      2  C   UNL     1      22.226   0.540  62.065  1.00  0.00     0.000 C 
BRANCH   2   3
ATOM      3  C   UNL     1      21.549   1.706  62.808  1.00  0.00     0.000 C 
BRANCH   3   4
ATOM      4  C   UNL     1      22.429   2.976  62.826  1.00  0.00     0.000 C 
BRANCH   4   5
ATOM      5  C   UNL     1      23.332   3.115  61.590  1.00  0.00     0.000 C 
BRANCH   5   6
ATOM      6  C   UNL     1      24.828   3.156  61.945  1.00  0.00     0.000 C 
BRANCH   6   7
ATOM      7  C   UNL     1      25.440   1.754  62.078  1.00  0.00     0.000 C 
BRANCH   7   8
ATOM      8  C   UNL     1      25.818   1.412  63.529  1.00  0.00     0.000 C 
BRANCH   8   9
ATOM      9  C   UNL     1      26.306   2.637  64.323  1.00  0.00     0.000 C 
BRANCH   9  10
ATOM     10  C   UNL     1      25.530   2.920  65.626  1.00  0.00     0.006 C 
BRANCH  10  11
ATOM     11  C   UNL     1      24.067   3.341  65.419  1.00  0.00     0.053 C 
BRANCH  11  12
ATOM     12  C   UNL     1      23.167   2.780  66.476  1.00  0.00     0.041 C 
ATOM     13  O   UNL     1      22.118   2.164  66.150  1.00  0.00    -0.550 OA
ATOM     14  O   UNL     1      23.466   2.970  67.819  1.00  0.00    -0.550 OA
ENDBRANCH  11  12
ENDBRANCH  10  11
ENDBRANCH   9  10
ENDBRANCH   8   9
ENDBRANCH   7   8
ENDBRANCH   6   7
ENDBRANCH   5   6
ENDBRANCH   4   5
ENDBRANCH   3   4
ENDBRANCH   2   3
ENDBRANCH   1   2
BRANCH   1  15
ATOM     15  C   UNL     1      21.384  -1.217  60.376  1.00  0.00     0.000 C 
BRANCH  15  16
ATOM     16  C   UNL     1      21.123  -2.728  60.339  1.00  0.00     0.000 C 
BRANCH  16  17
ATOM     17  C   UNL     1      22.248  -3.463  59.595  1.00  0.00     0.000 C 
BRANCH  17  18
ATOM     18  C   UNL     1      22.868  -2.622  58.464  1.00  0.00    -0.000 C 
BRANCH  18  19
ATOM     19  C   UNL     1      24.303  -3.015  58.067  1.00  0.00    -0.000 C 
BRANCH  19  20
ATOM     20  C   UNL     1      25.246  -3.326  59.245  1.00  0.00    -0.000 C 
BRANCH  20  21
ATOM     21  C   UNL     1      26.309  -2.237  59.499  1.00  0.00    -0.000 C 
BRANCH  21  22
ATOM     22  C   UNL     1      26.168  -1.580  60.884  1.00  0.00    -0.000 C 
BRANCH  22  23
ATOM     23  C   UNL     1      25.764  -2.598  61.972  1.00  0.00    -0.000 C 
BRANCH  23  24
ATOM     24  C   UNL     1      24.289  -2.489  62.398  1.00  0.00    -0.000 C 
BRANCH  24  25
ATOM     25  C   UNL     1      23.619  -3.858  62.577  1.00  0.00    -0.003 C 
ATOM     26  C   UNL     1      23.322  -4.137  64.049  1.00  0.00     0.004 C 
ENDBRANCH  24  25
ENDBRANCH  23  24
ENDBRANCH  22  23
ENDBRANCH  21  22
ENDBRANCH  20  21
ENDBRANCH  19  20
ENDBRANCH  18  19
ENDBRANCH  17  18
ENDBRANCH  16  17
ENDBRANCH  15  16
ENDBRANCH   1  15
TORSDOF 22
ENDMDL
MODEL 5
REMARK VINA RESULT:    -5.145      2.004      7.490
REMARK INTER + INTRA:         -14.830
REMARK INTER:                 -11.745
REMARK INTRA:                  -3.085
REMARK UNBOUND:                -3.067
REMARK SMILES CCCCCCCCCCCCCCCCCCCCCCCC(=O)[O-]
REMARK SMILES IDX 13 1 14 2 15 3 16 4 17 5 18 6 19 7 20 8 21 9 22 10 23 11
REMARK SMILES IDX 24 12 25 13 26 14 12 15 11 16 10 17 9 18 8 19 7 20 6 21 5 22
REMARK SMILES IDX 4 23 3 24 2 25 1 26
REMARK H PARENT
REMARK Flexibility Score: inf
ROOT
ATOM      1  C   UNL     1      26.233  -1.179  61.306  1.00  0.00     0.000 C 
ENDROOT
BRANCH   1   2
ATOM      2  C   UNL     1      25.013  -0.302  61.661  1.00  0.00     0.000 C 
BRANCH   2   3
ATOM      3  C   UNL     1      25.350   0.760  62.723  1.00  0.00     0.000 C 
BRANCH   3   4
ATOM      4  C   UNL     1      25.490   2.172  62.112  1.00  0.00     0.000 C 
BRANCH   4   5
ATOM      5  C   UNL     1      25.849   3.255  63.144  1.00  0.00     0.000 C 
BRANCH   5   6
ATOM      6  C   UNL     1      25.955   2.704  64.576  1.00  0.00     0.000 C 
BRANCH   6   7
ATOM      7  C   UNL     1      24.981   3.393  65.544  1.00  0.00     0.000 C 
BRANCH   7   8
ATOM      8  C   UNL     1      23.572   3.549  64.950  1.00  0.00     0.000 C 
BRANCH   8   9
ATOM      9  C   UNL     1      22.556   2.564  65.556  1.00  0.00     0.000 C 
BRANCH   9  10
ATOM     10  C   UNL     1      21.409   2.147  64.612  1.00  0.00     0.006 C 
BRANCH  10  11
ATOM     11  C   UNL     1      21.830   1.940  63.149  1.00  0.00     0.053 C 
BRANCH  11  12
ATOM     12  C   UNL     1      21.204   0.719  62.551  1.00  0.00     0.041 C 
ATOM     13  O   UNL     1      20.705  -0.164  63.297  1.00  0.00    -0.550 OA
ATOM     14  O   UNL     1      21.203   0.538  61.174  1.00  0.00    -0.550 OA
ENDBRANCH  11  12
ENDBRANCH  10  11
ENDBRANCH   9  10
ENDBRANCH   8   9
ENDBRANCH   7   8
ENDBRANCH   6   7
ENDBRANCH   5   6
ENDBRANCH   4   5
ENDBRANCH   3   4
ENDBRANCH   2   3
ENDBRANCH   1   2
BRANCH   1  15
ATOM     15  C   UNL     1      26.113  -1.877  59.941  1.00  0.00     0.000 C 
BRANCH  15  16
ATOM     16  C   UNL     1      25.903  -3.392  60.062  1.00  0.00     0.000 C 
BRANCH  16  17
ATOM     17  C   UNL     1      25.662  -3.799  61.523  1.00  0.00     0.000 C 
BRANCH  17  18
ATOM     18  C   UNL     1      24.275  -4.428  61.750  1.00  0.00    -0.000 C 
BRANCH  18  19
ATOM     19  C   UNL     1      23.263  -3.532  62.487  1.00  0.00    -0.000 C 
BRANCH  19  20
ATOM     20  C   UNL     1      22.391  -2.645  61.579  1.00  0.00    -0.000 C 
BRANCH  20  21
ATOM     21  C   UNL     1      22.042  -3.291  60.221  1.00  0.00    -0.000 C 
BRANCH  21  22
ATOM     22  C   UNL     1      22.382  -2.381  59.026  1.00  0.00    -0.000 C 
BRANCH  22  23
ATOM     23  C   UNL     1      23.232  -3.109  57.963  1.00  0.00    -0.000 C 
BRANCH  23  24
ATOM     24  C   UNL     1      23.203  -2.430  56.582  1.00  0.00    -0.000 C 
BRANCH  24  25
ATOM     25  C   UNL     1      23.471  -3.410  55.432  1.00  0.00    -0.003 C 
ATOM     26  C   UNL     1      22.902  -2.882  54.117  1.00  0.00     0.004 C 
ENDBRANCH  24  25
ENDBRANCH  23  24
ENDBRANCH  22  23
ENDBRANCH  21  22
ENDBRANCH  20  21
ENDBRANCH  19  20
ENDBRANCH  18  19
ENDBRANCH  17  18
ENDBRANCH  16  17
ENDBRANCH  15  16
ENDBRANCH   1  15
TORSDOF 22
ENDMDL
MODEL 6
REMARK VINA RESULT:    -5.030      1.877      4.552
REMARK INTER + INTRA:         -14.566
REMARK INTER:                 -11.464
REMARK INTRA:                  -3.102
REMARK UNBOUND:                -3.067
REMARK SMILES CCCCCCCCCCCCCCCCCCCCCCCC(=O)[O-]
REMARK SMILES IDX 13 1 14 2 15 3 16 4 17 5 18 6 19 7 20 8 21 9 22 10 23 11
REMARK SMILES IDX 24 12 25 13 26 14 12 15 11 16 10 17 9 18 8 19 7 20 6 21 5 22
REMARK SMILES IDX 4 23 3 24 2 25 1 26
REMARK H PARENT
REMARK Flexibility Score: inf
ROOT
ATOM      1  C   UNL     1      25.317   0.292  62.561  1.00  0.00     0.000 C 
ENDROOT
BRANCH   1   2
ATOM      2  C   UNL     1      25.883  -0.808  61.638  1.00  0.00     0.000 C 
BRANCH   2   3
ATOM      3  C   UNL     1      25.611  -2.222  62.183  1.00  0.00     0.000 C 
BRANCH   3   4
ATOM      4  C   UNL     1      25.546  -3.279  61.059  1.00  0.00     0.000 C 
BRANCH   4   5
ATOM      5  C   UNL     1      26.028  -2.756  59.695  1.00  0.00     0.000 C 
BRANCH   5   6
ATOM      6  C   UNL     1      25.000  -2.977  58.573  1.00  0.00     0.000 C 
BRANCH   6   7
ATOM      7  C   UNL     1      23.663  -3.522  59.099  1.00  0.00     0.000 C 
BRANCH   7   8
ATOM      8  C   UNL     1      22.483  -2.585  58.792  1.00  0.00     0.000 C 
BRANCH   8   9
ATOM      9  C   UNL     1      21.422  -2.577  59.906  1.00  0.00     0.000 C 
BRANCH   9  10
ATOM     10  C   UNL     1      21.985  -2.574  61.343  1.00  0.00     0.006 C 
BRANCH  10  11
ATOM     11  C   UNL     1      22.235  -1.176  61.927  1.00  0.00     0.053 C 
BRANCH  11  12
ATOM     12  C   UNL     1      20.971  -0.381  62.044  1.00  0.00     0.041 C 
ATOM     13  O   UNL     1      20.587   0.339  61.085  1.00  0.00    -0.550 OA
ATOM     14  O   UNL     1      20.238  -0.407  63.223  1.00  0.00    -0.550 OA
ENDBRANCH  11  12
ENDBRANCH  10  11
ENDBRANCH   9  10
ENDBRANCH   8   9
ENDBRANCH   7   8
ENDBRANCH   6   7
ENDBRANCH   5   6
ENDBRANCH   4   5
ENDBRANCH   3   4
ENDBRANCH   2   3
ENDBRANCH   1   2
BRANCH   1  15
ATOM     15  C   UNL     1      26.348   1.369  62.939  1.00  0.00     0.000 C 
BRANCH  15  16
ATOM     16  C   UNL     1      26.134   1.931  64.351  1.00  0.00     0.000 C 
BRANCH  16  17
ATOM     17  C   UNL     1      25.765   3.421  64.301  1.00  0.00     0.000 C 
BRANCH  17  18
ATOM     18  C   UNL     1      25.652   3.962  62.863  1.00  0.00    -0.000 C 
BRANCH  18  19
ATOM     19  C   UNL     1      24.249   4.454  62.459  1.00  0.00    -0.000 C 
BRANCH  19  20
ATOM     20  C   UNL     1      23.442   3.481  61.580  1.00  0.00    -0.000 C 
BRANCH  20  21
ATOM     21  C   UNL     1      22.595   2.469  62.381  1.00  0.00    -0.000 C 
BRANCH  21  22
ATOM     22  C   UNL     1      21.887   3.112  63.588  1.00  0.00    -0.000 C 
BRANCH  22  23
ATOM     23  C   UNL     1      22.220   2.389  64.910  1.00  0.00    -0.000 C 
BRANCH  23  24
ATOM     24  C   UNL     1      22.774   3.325  65.999  1.00  0.00    -0.000 C 
BRANCH  24  25
ATOM     25  C   UNL     1      23.585   2.581  67.068  1.00  0.00    -0.003 C 
ATOM     26  C   UNL     1      23.155   2.996  68.473  1.00  0.00     0.004 C 
ENDBRANCH  24  25
ENDBRANCH  23  24
ENDBRANCH  22  23
ENDBRANCH  21  22
ENDBRANCH  20  21
ENDBRANCH  19  20
ENDBRANCH  18  19
ENDBRANCH  17  18
ENDBRANCH  16  17
ENDBRANCH  15  16
ENDBRANCH   1  15
TORSDOF 22
ENDMDL
MODEL 7
REMARK VINA RESULT:    -4.981      2.329      4.977
REMARK INTER + INTRA:         -14.455
REMARK INTER:                 -11.327
REMARK INTRA:                  -3.128
REMARK UNBOUND:                -3.067
REMARK SMILES CCCCCCCCCCCCCCCCCCCCCCCC(=O)[O-]
REMARK SMILES IDX 13 1 14 2 15 3 16 4 17 5 18 6 19 7 20 8 21 9 22 10 23 11
REMARK SMILES IDX 24 12 25 13 26 14 12 15 11 16 10 17 9 18 8 19 7 20 6 21 5 22
REMARK SMILES IDX 4 23 3 24 2 25 1 26
REMARK H PARENT
REMARK Flexibility Score: inf
ROOT
ATOM      1  C   UNL     1      21.408  -2.606  59.675  1.00  0.00     0.000 C 
ENDROOT
BRANCH   1   2
ATOM      2  C   UNL     1      22.586  -2.652  58.678  1.00  0.00     0.000 C 
BRANCH   2   3
ATOM      3  C   UNL     1      23.784  -3.447  59.230  1.00  0.00     0.000 C 
BRANCH   3   4
ATOM      4  C   UNL     1      25.129  -2.948  58.658  1.00  0.00     0.000 C 
BRANCH   4   5
ATOM      5  C   UNL     1      26.232  -2.802  59.720  1.00  0.00     0.000 C 
BRANCH   5   6
ATOM      6  C   UNL     1      25.822  -3.370  61.089  1.00  0.00     0.000 C 
BRANCH   6   7
ATOM      7  C   UNL     1      25.404  -2.273  62.079  1.00  0.00     0.000 C 
BRANCH   7   8
ATOM      8  C   UNL     1      25.389  -0.875  61.439  1.00  0.00     0.000 C 
BRANCH   8   9
ATOM      9  C   UNL     1      25.565   0.255  62.469  1.00  0.00     0.000 C 
BRANCH   9  10
ATOM     10  C   UNL     1      24.553   1.413  62.344  1.00  0.00     0.006 C 
BRANCH  10  11
ATOM     11  C   UNL     1      25.150   2.729  61.822  1.00  0.00     0.053 C 
BRANCH  11  12
ATOM     12  C   UNL     1      24.096   3.761  61.566  1.00  0.00     0.041 C 
ATOM     13  O   UNL     1      23.978   4.748  62.338  1.00  0.00    -0.550 OA
ATOM     14  O   UNL     1      23.222   3.614  60.497  1.00  0.00    -0.550 OA
ENDBRANCH  11  12
ENDBRANCH  10  11
ENDBRANCH   9  10
ENDBRANCH   8   9
ENDBRANCH   7   8
ENDBRANCH   6   7
ENDBRANCH   5   6
ENDBRANCH   4   5
ENDBRANCH   3   4
ENDBRANCH   2   3
ENDBRANCH   1   2
BRANCH   1  15
ATOM     15  C   UNL     1      21.817  -2.912  61.126  1.00  0.00     0.000 C 
BRANCH  15  16
ATOM     16  C   UNL     1      21.972  -1.647  61.981  1.00  0.00     0.000 C 
BRANCH  16  17
ATOM     17  C   UNL     1      21.546  -0.397  61.197  1.00  0.00     0.000 C 
BRANCH  17  18
ATOM     18  C   UNL     1      20.963   0.707  62.099  1.00  0.00    -0.000 C 
BRANCH  18  19
ATOM     19  C   UNL     1      20.650   0.273  63.543  1.00  0.00    -0.000 C 
BRANCH  19  20
ATOM     20  C   UNL     1      21.144   1.238  64.638  1.00  0.00    -0.000 C 
BRANCH  20  21
ATOM     21  C   UNL     1      21.306   2.696  64.160  1.00  0.00    -0.000 C 
BRANCH  21  22
ATOM     22  C   UNL     1      22.513   3.402  64.805  1.00  0.00    -0.000 C 
BRANCH  22  23
ATOM     23  C   UNL     1      23.051   2.633  66.030  1.00  0.00    -0.000 C 
BRANCH  23  24
ATOM     24  C   UNL     1      24.486   3.026  66.421  1.00  0.00    -0.000 C 
BRANCH  24  25
ATOM     25  C   UNL     1      25.366   3.352  65.206  1.00  0.00    -0.003 C 
ATOM     26  C   UNL     1      26.538   2.380  65.099  1.00  0.00     0.004 C 
ENDBRANCH  24  25
ENDBRANCH  23  24
ENDBRANCH  22  23
ENDBRANCH  21  22
ENDBRANCH  20  21
ENDBRANCH  19  20
ENDBRANCH  18  19
ENDBRANCH  17  18
ENDBRANCH  16  17
ENDBRANCH  15  16
ENDBRANCH   1  15
TORSDOF 22
ENDMDL
MODEL 8
REMARK VINA RESULT:    -4.976      1.966      7.227
REMARK INTER + INTRA:         -14.442
REMARK INTER:                 -11.203
REMARK INTRA:                  -3.240
REMARK UNBOUND:                -3.067
REMARK SMILES CCCCCCCCCCCCCCCCCCCCCCCC(=O)[O-]
REMARK SMILES IDX 13 1 14 2 15 3 16 4 17 5 18 6 19 7 20 8 21 9 22 10 23 11
REMARK SMILES IDX 24 12 25 13 26 14 12 15 11 16 10 17 9 18 8 19 7 20 6 21 5 22
REMARK SMILES IDX 4 23 3 24 2 25 1 26
REMARK H PARENT
REMARK Flexibility Score: inf
ROOT
ATOM      1  C   UNL     1      25.205  -0.143  62.011  1.00  0.00     0.000 C 
ENDROOT
BRANCH   1   2
ATOM      2  C   UNL     1      25.780   1.046  62.811  1.00  0.00     0.000 C 
BRANCH   2   3
ATOM      3  C   UNL     1      25.660   2.376  62.045  1.00  0.00     0.000 C 
BRANCH   3   4
ATOM      4  C   UNL     1      25.601   3.593  62.993  1.00  0.00     0.000 C 
BRANCH   4   5
ATOM      5  C   UNL     1      25.520   3.210  64.481  1.00  0.00     0.000 C 
BRANCH   5   6
ATOM      6  C   UNL     1      24.271   3.775  65.176  1.00  0.00     0.000 C 
BRANCH   6   7
ATOM      7  C   UNL     1      23.467   2.693  65.912  1.00  0.00     0.000 C 
BRANCH   7   8
ATOM      8  C   UNL     1      22.136   2.370  65.213  1.00  0.00     0.000 C 
BRANCH   8   9
ATOM      9  C   UNL     1      21.849   3.297  64.018  1.00  0.00     0.000 C 
BRANCH   9  10
ATOM     10  C   UNL     1      22.085   2.664  62.631  1.00  0.00     0.006 C 
BRANCH  10  11
ATOM     11  C   UNL     1      22.280   1.141  62.649  1.00  0.00     0.053 C 
BRANCH  11  12
ATOM     12  C   UNL     1      20.990   0.407  62.455  1.00  0.00     0.041 C 
ATOM     13  O   UNL     1      20.339   0.546  61.386  1.00  0.00    -0.550 OA
ATOM     14  O   UNL     1      20.488  -0.401  63.467  1.00  0.00    -0.550 OA
ENDBRANCH  11  12
ENDBRANCH  10  11
ENDBRANCH   9  10
ENDBRANCH   8   9
ENDBRANCH   7   8
ENDBRANCH   6   7
ENDBRANCH   5   6
ENDBRANCH   4   5
ENDBRANCH   3   4
ENDBRANCH   2   3
ENDBRANCH   1   2
BRANCH   1  15
ATOM     15  C   UNL     1      26.276  -1.137  61.532  1.00  0.00     0.000 C 
BRANCH  15  16
ATOM     16  C   UNL     1      26.001  -1.677  60.122  1.00  0.00     0.000 C 
BRANCH  16  17
ATOM     17  C   UNL     1      25.852  -3.206  60.138  1.00  0.00     0.000 C 
BRANCH  17  18
ATOM     18  C   UNL     1      25.749  -3.783  61.562  1.00  0.00    -0.000 C 
BRANCH  18  19
ATOM     19  C   UNL     1      24.377  -4.380  61.928  1.00  0.00    -0.000 C 
BRANCH  19  20
ATOM     20  C   UNL     1      23.452  -3.449  62.734  1.00  0.00    -0.000 C 
BRANCH  20  21
ATOM     21  C   UNL     1      22.513  -2.590  61.860  1.00  0.00    -0.000 C 
BRANCH  21  22
ATOM     22  C   UNL     1      22.116  -3.291  60.548  1.00  0.00    -0.000 C 
BRANCH  22  23
ATOM     23  C   UNL     1      21.317  -2.362  59.610  1.00  0.00    -0.000 C 
BRANCH  23  24
ATOM     24  C   UNL     1      22.131  -1.860  58.404  1.00  0.00    -0.000 C 
BRANCH  24  25
ATOM     25  C   UNL     1      23.209  -2.857  57.956  1.00  0.00    -0.003 C 
ATOM     26  C   UNL     1      23.346  -2.873  56.436  1.00  0.00     0.004 C 
ENDBRANCH  24  25
ENDBRANCH  23  24
ENDBRANCH  22  23
ENDBRANCH  21  22
ENDBRANCH  20  21
ENDBRANCH  19  20
ENDBRANCH  18  19
ENDBRANCH  17  18
ENDBRANCH  16  17
ENDBRANCH  15  16
ENDBRANCH   1  15
TORSDOF 22
ENDMDL
MODEL 9
REMARK VINA RESULT:    -4.811      1.423      2.030
REMARK INTER + INTRA:         -14.066
REMARK INTER:                 -11.100
REMARK INTRA:                  -2.967
REMARK UNBOUND:                -3.067
REMARK SMILES CCCCCCCCCCCCCCCCCCCCCCCC(=O)[O-]
REMARK SMILES IDX 13 1 14 2 15 3 16 4 17 5 18 6 19 7 20 8 21 9 22 10 23 11
REMARK SMILES IDX 24 12 25 13 26 14 12 15 11 16 10 17 9 18 8 19 7 20 6 21 5 22
REMARK SMILES IDX 4 23 3 24 2 25 1 26
REMARK H PARENT
REMARK Flexibility Score: inf
ROOT
ATOM      1  C   UNL     1      21.013   0.647  63.703  1.00  0.00     0.000 C 
ENDROOT
BRANCH   1   2
ATOM      2  C   UNL     1      20.779  -0.362  62.558  1.00  0.00     0.000 C 
BRANCH   2   3
ATOM      3  C   UNL     1      21.699  -0.098  61.353  1.00  0.00     0.000 C 
BRANCH   3   4
ATOM      4  C   UNL     1      21.048  -0.523  60.018  1.00  0.00     0.000 C 
BRANCH   4   5
ATOM      5  C   UNL     1      20.984  -2.047  59.824  1.00  0.00     0.000 C 
BRANCH   5   6
ATOM      6  C   UNL     1      22.361  -2.673  59.550  1.00  0.00     0.000 C 
BRANCH   6   7
ATOM      7  C   UNL     1      22.702  -3.801  60.535  1.00  0.00     0.000 C 
BRANCH   7   8
ATOM      8  C   UNL     1      23.149  -3.269  61.907  1.00  0.00     0.000 C 
BRANCH   8   9
ATOM      9  C   UNL     1      24.656  -3.459  62.159  1.00  0.00     0.000 C 
BRANCH   9  10
ATOM     10  C   UNL     1      25.496  -2.167  62.088  1.00  0.00     0.006 C 
BRANCH  10  11
ATOM     11  C   UNL     1      25.531  -1.503  60.703  1.00  0.00     0.053 C 
BRANCH  11  12
ATOM     12  C   UNL     1      26.318  -2.307  59.715  1.00  0.00     0.041 C 
ATOM     13  O   UNL     1      27.453  -1.912  59.340  1.00  0.00    -0.550 OA
ATOM     14  O   UNL     1      25.784  -3.474  59.182  1.00  0.00    -0.550 OA
ENDBRANCH  11  12
ENDBRANCH  10  11
ENDBRANCH   9  10
ENDBRANCH   8   9
ENDBRANCH   7   8
ENDBRANCH   6   7
ENDBRANCH   5   6
ENDBRANCH   4   5
ENDBRANCH   3   4
ENDBRANCH   2   3
ENDBRANCH   1   2
BRANCH   1  15
ATOM     15  C   UNL     1      21.352   2.065  63.214  1.00  0.00     0.000 C 
BRANCH  15  16
ATOM     16  C   UNL     1      21.706   3.022  64.359  1.00  0.00     0.000 C 
BRANCH  16  17
ATOM     17  C   UNL     1      22.320   2.260  65.544  1.00  0.00     0.000 C 
BRANCH  17  18
ATOM     18  C   UNL     1      23.622   2.900  66.058  1.00  0.00    -0.000 C 
BRANCH  18  19
ATOM     19  C   UNL     1      24.371   3.773  65.034  1.00  0.00    -0.000 C 
BRANCH  19  20
ATOM     20  C   UNL     1      25.852   3.408  64.820  1.00  0.00    -0.000 C 
BRANCH  20  21
ATOM     21  C   UNL     1      26.109   1.892  64.684  1.00  0.00    -0.000 C 
BRANCH  21  22
ATOM     22  C   UNL     1      26.220   1.438  63.217  1.00  0.00    -0.000 C 
BRANCH  22  23
ATOM     23  C   UNL     1      24.937   1.741  62.415  1.00  0.00    -0.000 C 
BRANCH  23  24
ATOM     24  C   UNL     1      25.019   3.039  61.592  1.00  0.00    -0.000 C 
BRANCH  24  25
ATOM     25  C   UNL     1      23.717   3.851  61.631  1.00  0.00    -0.003 C 
ATOM     26  C   UNL     1      23.211   4.146  60.221  1.00  0.00     0.004 C 
ENDBRANCH  24  25
ENDBRANCH  23  24
ENDBRANCH  22  23
ENDBRANCH  21  22
ENDBRANCH  20  21
ENDBRANCH  19  20
ENDBRANCH  18  19
ENDBRANCH  17  18
ENDBRANCH  16  17
ENDBRANCH  15  16
ENDBRANCH   1  15
TORSDOF 22
ENDMDL
