MODEL 1
REMARK VINA RESULT:    -2.938      0.000      0.000
REMARK INTER + INTRA:          -4.023
REMARK INTER:                  -3.539
REMARK INTRA:                  -0.484
REMARK UNBOUND:                -0.484
REMARK SMILES NC(=O)C[C@H]([NH3+])C(=O)[O-]
REMARK SMILES IDX 4 1 5 2 6 3 7 7 8 8 9 9 2 10 3 11 1 12
REMARK H PARENT 6 4 6 5 6 6 1 13 1 14
REMARK Flexibility Score: inf
ROOT
ATOM      1  C   UNL     1     107.705 100.609 100.695  1.00  0.00     0.171 C 
ENDROOT
BRANCH   1   2
ATOM      2  C   UNL     1     106.526 101.502 100.264  1.00  0.00     0.237 C 
BRANCH   2   3
ATOM      3  N   UNL     1     106.848 102.917 100.485  1.00  0.00    -0.350 N 
ATOM      4  H   UNL     1     106.052 103.515 100.164  1.00  0.00     0.345 HD
ATOM      5  H   UNL     1     107.712 103.187  99.960  1.00  0.00     0.345 HD
ATOM      6  H   UNL     1     106.997 103.093 101.506  1.00  0.00     0.345 HD
ENDBRANCH   2   3
BRANCH   2   7
ATOM      7  C   UNL     1     105.270 101.136 101.013  1.00  0.00     0.100 C 
ATOM      8  O   UNL     1     105.260 101.145 102.273  1.00  0.00    -0.544 OA
ATOM      9  O   UNL     1     104.113 100.799 100.321  1.00  0.00    -0.544 OA
ENDBRANCH   2   7
ENDBRANCH   1   2
BRANCH   1  10
ATOM     10  C   UNL     1     108.602 101.310 101.676  1.00  0.00     0.223 C 
ATOM     11  O   UNL     1     109.618 101.928 101.262  1.00  0.00    -0.275 OA
ATOM     12  N   UNL     1     108.333 101.248 103.076  1.00  0.00    -0.369 N 
ATOM     13  H   UNL     1     108.967 101.723 103.756  1.00  0.00     0.159 HD
ATOM     14  H   UNL     1     107.505 100.724 103.439  1.00  0.00     0.159 HD
ENDBRANCH   1  10
TORSDOF 4
ENDMDL
MODEL 2
REMARK VINA RESULT:    -2.918     12.123     13.196
REMARK INTER + INTRA:          -3.999
REMARK INTER:                  -3.723
REMARK INTRA:                  -0.276
REMARK UNBOUND:                -0.484
REMARK SMILES NC(=O)C[C@H]([NH3+])C(=O)[O-]
REMARK SMILES IDX 4 1 5 2 6 3 7 7 8 8 9 9 2 10 3 11 1 12
REMARK H PARENT 6 4 6 5 6 6 1 13 1 14
REMARK Flexibility Score: inf
ROOT
ATOM      1  C   UNL     1     116.502 110.628 100.837  1.00  0.00     0.171 C 
ENDROOT
BRANCH   1   2
ATOM      2  C   UNL     1     115.076 111.167 100.614  1.00  0.00     0.237 C 
BRANCH   2   3
ATOM      3  N   UNL     1     114.593 110.800  99.277  1.00  0.00    -0.350 N 
ATOM      4  H   UNL     1     114.734 109.775  99.119  1.00  0.00     0.345 HD
ATOM      5  H   UNL     1     115.106 111.334  98.538  1.00  0.00     0.345 HD
ATOM      6  H   UNL     1     113.569 111.003  99.201  1.00  0.00     0.345 HD
ENDBRANCH   2   3
BRANCH   2   7
ATOM      7  C   UNL     1     115.032 112.664 100.785  1.00  0.00     0.100 C 
ATOM      8  O   UNL     1     116.103 113.323 100.859  1.00  0.00    -0.544 OA
ATOM      9  O   UNL     1     113.812 113.327 100.849  1.00  0.00    -0.544 OA
ENDBRANCH   2   7
ENDBRANCH   1   2
BRANCH   1  10
ATOM     10  C   UNL     1     116.555 109.132 100.713  1.00  0.00     0.223 C 
ATOM     11  O   UNL     1     115.537 108.445 100.996  1.00  0.00    -0.275 OA
ATOM     12  N   UNL     1     117.761 108.479 100.316  1.00  0.00    -0.369 N 
ATOM     13  H   UNL     1     117.798 107.438 100.245  1.00  0.00     0.159 HD
ATOM     14  H   UNL     1     118.620 109.031 100.096  1.00  0.00     0.159 HD
ENDBRANCH   1  10
TORSDOF 4
ENDMDL
MODEL 3
REMARK VINA RESULT:    -2.916     12.519     13.151
REMARK INTER + INTRA:          -3.996
REMARK INTER:                  -3.516
REMARK INTRA:                  -0.481
REMARK UNBOUND:                -0.484
REMARK SMILES NC(=O)C[C@H]([NH3+])C(=O)[O-]
REMARK SMILES IDX 4 1 5 2 6 3 7 7 8 8 9 9 2 10 3 11 1 12
REMARK H PARENT 6 4 6 5 6 6 1 13 1 14
REMARK Flexibility Score: inf
ROOT
ATOM      1  C   UNL     1     102.055 113.335 100.678  1.00  0.00     0.171 C 
ENDROOT
BRANCH   1   2
ATOM      2  C   UNL     1     103.441 113.869 100.268  1.00  0.00     0.237 C 
BRANCH   2   3
ATOM      3  N   UNL     1     104.472 112.851 100.503  1.00  0.00    -0.350 N 
ATOM      4  H   UNL     1     104.046 111.898 100.456  1.00  0.00     0.345 HD
ATOM      5  H   UNL     1     104.914 112.982 101.442  1.00  0.00     0.345 HD
ATOM      6  H   UNL     1     105.210 112.915  99.763  1.00  0.00     0.345 HD
ENDBRANCH   2   3
BRANCH   2   7
ATOM      7  C   UNL     1     103.778 115.130 101.023  1.00  0.00     0.100 C 
ATOM      8  O   UNL     1     103.737 115.142 102.282  1.00  0.00    -0.544 OA
ATOM      9  O   UNL     1     104.149 116.280 100.337  1.00  0.00    -0.544 OA
ENDBRANCH   2   7
ENDBRANCH   1   2
BRANCH   1  10
ATOM     10  C   UNL     1     102.167 112.188 101.642  1.00  0.00     0.223 C 
ATOM     11  O   UNL     1     102.168 111.005 101.208  1.00  0.00    -0.275 OA
ATOM     12  N   UNL     1     102.231 112.426 103.048  1.00  0.00    -0.369 N 
ATOM     13  H   UNL     1     102.293 111.625 103.715  1.00  0.00     0.159 HD
ATOM     14  H   UNL     1     102.211 113.399 103.427  1.00  0.00     0.159 HD
ENDBRANCH   1  10
TORSDOF 4
ENDMDL
MODEL 4
REMARK VINA RESULT:    -2.912     12.560     13.203
REMARK INTER + INTRA:          -3.991
REMARK INTER:                  -3.514
REMARK INTRA:                  -0.477
REMARK UNBOUND:                -0.484
REMARK SMILES NC(=O)C[C@H]([NH3+])C(=O)[O-]
REMARK SMILES IDX 4 1 5 2 6 3 7 7 8 8 9 9 2 10 3 11 1 12
REMARK H PARENT 6 4 6 5 6 6 1 13 1 14
REMARK Flexibility Score: inf
ROOT
ATOM      1  C   UNL     1     116.002 111.836 100.712  1.00  0.00     0.171 C 
ENDROOT
BRANCH   1   2
ATOM      2  C   UNL     1     115.787 110.375 100.270  1.00  0.00     0.237 C 
BRANCH   2   3
ATOM      3  N   UNL     1     114.390 109.977 100.478  1.00  0.00    -0.350 N 
ATOM      4  H   UNL     1     114.337 108.946 100.646  1.00  0.00     0.345 HD
ATOM      5  H   UNL     1     113.808 110.218  99.643  1.00  0.00     0.345 HD
ATOM      6  H   UNL     1     114.003 110.465 101.320  1.00  0.00     0.345 HD
ENDBRANCH   2   3
BRANCH   2   7
ATOM      7  C   UNL     1     116.706 109.444 101.021  1.00  0.00     0.100 C 
ATOM      8  O   UNL     1     116.675 109.405 102.279  1.00  0.00    -0.544 OA
ATOM      9  O   UNL     1     117.582 108.616 100.330  1.00  0.00    -0.544 OA
ENDBRANCH   2   7
ENDBRANCH   1   2
BRANCH   1  10
ATOM     10  C   UNL     1     114.936 112.287 101.669  1.00  0.00     0.223 C 
ATOM     11  O   UNL     1     113.929 112.907 101.236  1.00  0.00    -0.275 OA
ATOM     12  N   UNL     1     115.074 112.053 103.071  1.00  0.00    -0.369 N 
ATOM     13  H   UNL     1     114.337 112.382 103.734  1.00  0.00     0.159 HD
ATOM     14  H   UNL     1     115.911 111.557 103.450  1.00  0.00     0.159 HD
ENDBRANCH   1  10
TORSDOF 4
ENDMDL
MODEL 5
REMARK VINA RESULT:    -2.910      1.869      3.816
REMARK INTER + INTRA:          -3.989
REMARK INTER:                  -3.717
REMARK INTRA:                  -0.272
REMARK UNBOUND:                -0.484
REMARK SMILES NC(=O)C[C@H]([NH3+])C(=O)[O-]
REMARK SMILES IDX 4 1 5 2 6 3 7 7 8 8 9 9 2 10 3 11 1 12
REMARK H PARENT 6 4 6 5 6 6 1 13 1 14
REMARK Flexibility Score: inf
ROOT
ATOM      1  C   UNL     1     106.443 100.752 100.809  1.00  0.00     0.171 C 
ENDROOT
BRANCH   1   2
ATOM      2  C   UNL     1     107.617 101.726 100.588  1.00  0.00     0.237 C 
BRANCH   2   3
ATOM      3  N   UNL     1     107.555 102.305  99.241  1.00  0.00    -0.350 N 
ATOM      4  H   UNL     1     107.570 103.349  99.304  1.00  0.00     0.345 HD
ATOM      5  H   UNL     1     106.682 102.004  98.748  1.00  0.00     0.345 HD
ATOM      6  H   UNL     1     108.387 102.000  98.684  1.00  0.00     0.345 HD
ENDBRANCH   2   3
BRANCH   2   7
ATOM      7  C   UNL     1     108.939 101.031 100.790  1.00  0.00     0.100 C 
ATOM      8  O   UNL     1     110.003 101.703 100.851  1.00  0.00    -0.544 OA
ATOM      9  O   UNL     1     108.992  99.649 100.924  1.00  0.00    -0.544 OA
ENDBRANCH   2   7
ENDBRANCH   1   2
BRANCH   1  10
ATOM     10  C   UNL     1     105.117 101.450 100.703  1.00  0.00     0.223 C 
ATOM     11  O   UNL     1     105.034 102.678 100.973  1.00  0.00    -0.275 OA
ATOM     12  N   UNL     1     103.943 100.725 100.339  1.00  0.00    -0.369 N 
ATOM     13  H   UNL     1     103.020 101.210 100.281  1.00  0.00     0.159 HD
ATOM     14  H   UNL     1     103.989  99.702 100.131  1.00  0.00     0.159 HD
ENDBRANCH   1  10
TORSDOF 4
ENDMDL
MODEL 6
REMARK VINA RESULT:    -2.852     12.082     12.666
REMARK INTER + INTRA:          -3.919
REMARK INTER:                  -3.660
REMARK INTRA:                  -0.259
REMARK UNBOUND:                -0.484
REMARK SMILES NC(=O)C[C@H]([NH3+])C(=O)[O-]
REMARK SMILES IDX 4 1 5 2 6 3 7 7 8 8 9 9 2 10 3 11 1 12
REMARK H PARENT 6 4 6 5 6 6 1 13 1 14
REMARK Flexibility Score: inf
ROOT
ATOM      1  C   UNL     1     102.319 113.523 100.679  1.00  0.00     0.171 C 
ENDROOT
BRANCH   1   2
ATOM      2  C   UNL     1     102.341 112.478 101.812  1.00  0.00     0.237 C 
BRANCH   2   3
ATOM      3  N   UNL     1     103.249 111.375 101.474  1.00  0.00    -0.350 N 
ATOM      4  H   UNL     1     104.241 111.688 101.586  1.00  0.00     0.345 HD
ATOM      5  H   UNL     1     103.098 111.059 100.489  1.00  0.00     0.345 HD
ATOM      6  H   UNL     1     103.086 110.570 102.123  1.00  0.00     0.345 HD
ENDBRANCH   2   3
BRANCH   2   7
ATOM      7  C   UNL     1     100.956 111.943 102.077  1.00  0.00     0.100 C 
ATOM      8  O   UNL     1      99.984 112.331 101.377  1.00  0.00    -0.544 OA
ATOM      9  O   UNL     1     100.747 111.011 103.086  1.00  0.00    -0.544 OA
ENDBRANCH   2   7
ENDBRANCH   1   2
BRANCH   1  10
ATOM     10  C   UNL     1     103.520 114.424 100.735  1.00  0.00     0.223 C 
ATOM     11  O   UNL     1     104.667 113.952 100.509  1.00  0.00    -0.275 OA
ATOM     12  N   UNL     1     103.378 115.801 101.080  1.00  0.00    -0.369 N 
ATOM     13  H   UNL     1     104.217 116.421 101.132  1.00  0.00     0.159 HD
ATOM     14  H   UNL     1     102.438 116.206 101.289  1.00  0.00     0.159 HD
ENDBRANCH   1  10
TORSDOF 4
ENDMDL
MODEL 7
REMARK VINA RESULT:    -2.851     11.055     11.772
REMARK INTER + INTRA:          -3.918
REMARK INTER:                  -3.453
REMARK INTRA:                  -0.465
REMARK UNBOUND:                -0.484
REMARK SMILES NC(=O)C[C@H]([NH3+])C(=O)[O-]
REMARK SMILES IDX 4 1 5 2 6 3 7 7 8 8 9 9 2 10 3 11 1 12
REMARK H PARENT 6 4 6 5 6 6 1 13 1 14
REMARK Flexibility Score: inf
ROOT
ATOM      1  C   UNL     1     101.500 112.374 100.941  1.00  0.00     0.171 C 
ENDROOT
BRANCH   1   2
ATOM      2  C   UNL     1     101.824 111.789 102.329  1.00  0.00     0.237 C 
BRANCH   2   3
ATOM      3  N   UNL     1     102.589 112.755 103.127  1.00  0.00    -0.350 N 
ATOM      4  H   UNL     1     102.139 112.877 104.063  1.00  0.00     0.345 HD
ATOM      5  H   UNL     1     102.632 113.682 102.644  1.00  0.00     0.345 HD
ATOM      6  H   UNL     1     103.562 112.400 103.277  1.00  0.00     0.345 HD
ENDBRANCH   2   3
BRANCH   2   7
ATOM      7  C   UNL     1     102.593 110.499 102.205  1.00  0.00     0.100 C 
ATOM      8  O   UNL     1     103.000 109.903 103.237  1.00  0.00    -0.544 OA
ATOM      9  O   UNL     1     102.845 109.951 100.953  1.00  0.00    -0.544 OA
ENDBRANCH   2   7
ENDBRANCH   1   2
BRANCH   1  10
ATOM     10  C   UNL     1     102.618 113.239 100.430  1.00  0.00     0.223 C 
ATOM     11  O   UNL     1     102.685 114.446 100.782  1.00  0.00    -0.275 OA
ATOM     12  N   UNL     1     103.582 112.713  99.518  1.00  0.00    -0.369 N 
ATOM     13  H   UNL     1     104.349 113.321  99.153  1.00  0.00     0.159 HD
ATOM     14  H   UNL     1     103.531 111.719  99.200  1.00  0.00     0.159 HD
ENDBRANCH   1  10
TORSDOF 4
ENDMDL
MODEL 8
REMARK VINA RESULT:    -2.836      1.624      4.135
REMARK INTER + INTRA:          -3.900
REMARK INTER:                  -3.440
REMARK INTRA:                  -0.460
REMARK UNBOUND:                -0.484
REMARK SMILES NC(=O)C[C@H]([NH3+])C(=O)[O-]
REMARK SMILES IDX 4 1 5 2 6 3 7 7 8 8 9 9 2 10 3 11 1 12
REMARK H PARENT 6 4 6 5 6 6 1 13 1 14
REMARK Flexibility Score: inf
ROOT
ATOM      1  C   UNL     1     109.015 100.658 100.810  1.00  0.00     0.171 C 
ENDROOT
BRANCH   1   2
ATOM      2  C   UNL     1     109.394 101.140 102.224  1.00  0.00     0.237 C 
BRANCH   2   3
ATOM      3  N   UNL     1     108.211 101.158 103.093  1.00  0.00    -0.350 N 
ATOM      4  H   UNL     1     107.343 101.103 102.511  1.00  0.00     0.345 HD
ATOM      5  H   UNL     1     108.185 102.033 103.665  1.00  0.00     0.345 HD
ATOM      6  H   UNL     1     108.227 100.329 103.732  1.00  0.00     0.345 HD
ENDBRANCH   2   3
BRANCH   2   7
ATOM      7  C   UNL     1     110.021 102.510 102.178  1.00  0.00     0.100 C 
ATOM      8  O   UNL     1     110.220 103.150 103.244  1.00  0.00    -0.544 OA
ATOM      9  O   UNL     1     110.395 103.069 100.962  1.00  0.00    -0.544 OA
ENDBRANCH   2   7
ENDBRANCH   1   2
BRANCH   1  10
ATOM     10  C   UNL     1     107.668 101.175 100.391  1.00  0.00     0.223 C 
ATOM     11  O   UNL     1     106.626 100.568 100.756  1.00  0.00    -0.275 OA
ATOM     12  N   UNL     1     107.561 102.324  99.551  1.00  0.00    -0.369 N 
ATOM     13  H   UNL     1     106.623 102.671  99.250  1.00  0.00     0.159 HD
ATOM     14  H   UNL     1     108.415 102.828  99.224  1.00  0.00     0.159 HD
ENDBRANCH   1  10
TORSDOF 4
ENDMDL
MODEL 9
REMARK VINA RESULT:    -2.802     12.777     13.241
REMARK INTER + INTRA:          -3.859
REMARK INTER:                  -3.392
REMARK INTRA:                  -0.467
REMARK UNBOUND:                -0.484
REMARK SMILES NC(=O)C[C@H]([NH3+])C(=O)[O-]
REMARK SMILES IDX 4 1 5 2 6 3 7 7 8 8 9 9 2 10 3 11 1 12
REMARK H PARENT 6 4 6 5 6 6 1 13 1 14
REMARK Flexibility Score: inf
ROOT
ATOM      1  C   UNL     1     114.968 113.046 100.788  1.00  0.00     0.171 C 
ENDROOT
BRANCH   1   2
ATOM      2  C   UNL     1     114.355 113.039 102.202  1.00  0.00     0.237 C 
BRANCH   2   3
ATOM      3  N   UNL     1     115.009 112.026 103.039  1.00  0.00    -0.350 N 
ATOM      4  H   UNL     1     114.862 111.077 102.625  1.00  0.00     0.345 HD
ATOM      5  H   UNL     1     114.619 112.041 104.010  1.00  0.00     0.345 HD
ATOM      6  H   UNL     1     116.039 112.208 103.079  1.00  0.00     0.345 HD
ENDBRANCH   2   3
BRANCH   2   7
ATOM      7  C   UNL     1     112.871 112.783 102.145  1.00  0.00     0.100 C 
ATOM      8  O   UNL     1     112.198 112.723 103.209  1.00  0.00    -0.544 OA
ATOM      9  O   UNL     1     112.234 112.623 100.921  1.00  0.00    -0.544 OA
ENDBRANCH   2   7
ENDBRANCH   1   2
BRANCH   1  10
ATOM     10  C   UNL     1     115.376 111.666 100.355  1.00  0.00     0.223 C 
ATOM     11  O   UNL     1     116.501 111.212 100.693  1.00  0.00    -0.275 OA
ATOM     12  N   UNL     1     114.514 110.882  99.530  1.00  0.00    -0.369 N 
ATOM     13  H   UNL     1     114.808 109.929  99.219  1.00  0.00     0.159 HD
ATOM     14  H   UNL     1     113.586 111.250  99.225  1.00  0.00     0.159 HD
ENDBRANCH   1  10
TORSDOF 4
ENDMDL
