MODEL 1
REMARK VINA RESULT:    -4.381      0.000      0.000
REMARK INTER + INTRA:          -6.651
REMARK INTER:                  -5.917
REMARK INTRA:                  -0.733
REMARK UNBOUND:                -0.733
REMARK SMILES CC(=O)CCC=C(C)CCC=C(C)C
REMARK SMILES IDX 7 1 6 2 8 3 9 4 10 5 11 6 13 7 12 8 14 9 5 10 4 11 2 12 3 13
REMARK SMILES IDX 1 14
REMARK H PARENT
REMARK Flexibility Score: inf
ROOT
ATOM      1  C   UNL     1      13.275  61.778  21.605  1.00  0.00    -0.077 C 
ATOM      2  C   UNL     1      14.590  61.768  21.923  1.00  0.00    -0.028 C 
ATOM      3  C   UNL     1      12.785  62.200  20.241  1.00  0.00     0.039 C 
ENDROOT
BRANCH   1   4
ATOM      4  C   UNL     1      12.256  61.420  22.666  1.00  0.00     0.034 C 
BRANCH   4   5
ATOM      5  C   UNL     1      12.309  62.389  23.856  1.00  0.00     0.032 C 
BRANCH   5   6
ATOM      6  C   UNL     1      11.639  63.707  23.543  1.00  0.00    -0.028 C 
ATOM      7  C   UNL     1      12.892  64.960  25.312  1.00  0.00     0.039 C 
ATOM      8  C   UNL     1      11.912  64.873  24.166  1.00  0.00    -0.080 C 
ATOM      9  C   UNL     1      11.195  66.117  23.706  1.00  0.00     0.039 C 
ENDBRANCH   5   6
ENDBRANCH   4   5
ENDBRANCH   1   4
BRANCH   2  10
ATOM     10  C   UNL     1      15.708  62.082  20.955  1.00  0.00     0.035 C 
BRANCH  10  11
ATOM     11  C   UNL     1      16.158  60.834  20.186  1.00  0.00     0.079 C 
BRANCH  11  12
ATOM     12  C   UNL     1      16.633  59.748  21.118  1.00  0.00     0.130 C 
ATOM     13  O   UNL     1      17.653  59.917  21.768  1.00  0.00    -0.300 OA
ATOM     14  C   UNL     1      15.876  58.461  21.265  1.00  0.00     0.087 C 
ENDBRANCH  11  12
ENDBRANCH  10  11
ENDBRANCH   2  10
TORSDOF 6
ENDMDL
MODEL 2
REMARK VINA RESULT:    -4.333     15.254     16.612
REMARK INTER + INTRA:          -6.586
REMARK INTER:                  -5.904
REMARK INTRA:                  -0.682
REMARK UNBOUND:                -0.733
REMARK SMILES CC(=O)CCC=C(C)CCC=C(C)C
REMARK SMILES IDX 7 1 6 2 8 3 9 4 10 5 11 6 13 7 12 8 14 9 5 10 4 11 2 12 3 13
REMARK SMILES IDX 1 14
REMARK H PARENT
REMARK Flexibility Score: inf
ROOT
ATOM      1  C   UNL     1      15.374  52.210  35.046  1.00  0.00    -0.077 C 
ATOM      2  C   UNL     1      16.523  52.203  34.332  1.00  0.00    -0.028 C 
ATOM      3  C   UNL     1      15.336  51.821  36.504  1.00  0.00     0.039 C 
ENDROOT
BRANCH   1   4
ATOM      4  C   UNL     1      14.074  52.550  34.349  1.00  0.00     0.034 C 
BRANCH   4   5
ATOM      5  C   UNL     1      13.754  51.559  33.221  1.00  0.00     0.032 C 
BRANCH   5   6
ATOM      6  C   UNL     1      13.236  50.243  33.755  1.00  0.00    -0.028 C 
ATOM      7  C   UNL     1      13.764  48.987  31.654  1.00  0.00     0.039 C 
ATOM      8  C   UNL     1      13.262  49.077  33.075  1.00  0.00    -0.080 C 
ATOM      9  C   UNL     1      12.754  47.836  33.762  1.00  0.00     0.039 C 
ENDBRANCH   5   6
ENDBRANCH   4   5
ENDBRANCH   1   4
BRANCH   2  10
ATOM     10  C   UNL     1      17.888  51.902  34.907  1.00  0.00     0.035 C 
BRANCH  10  11
ATOM     11  C   UNL     1      18.560  53.166  35.459  1.00  0.00     0.079 C 
BRANCH  11  12
ATOM     12  C   UNL     1      19.081  54.046  34.351  1.00  0.00     0.130 C 
ATOM     13  O   UNL     1      18.822  55.239  34.359  1.00  0.00    -0.300 OA
ATOM     14  C   UNL     1      19.913  53.485  33.236  1.00  0.00     0.087 C 
ENDBRANCH  11  12
ENDBRANCH  10  11
ENDBRANCH   2  10
TORSDOF 6
ENDMDL
MODEL 3
REMARK VINA RESULT:    -4.306     15.670     17.264
REMARK INTER + INTRA:          -6.549
REMARK INTER:                  -5.897
REMARK INTRA:                  -0.652
REMARK UNBOUND:                -0.733
REMARK SMILES CC(=O)CCC=C(C)CCC=C(C)C
REMARK SMILES IDX 7 1 6 2 8 3 9 4 10 5 11 6 13 7 12 8 14 9 5 10 4 11 2 12 3 13
REMARK SMILES IDX 1 14
REMARK H PARENT
REMARK Flexibility Score: inf
ROOT
ATOM      1  C   UNL     1      14.149  51.299  33.627  1.00  0.00    -0.077 C 
ATOM      2  C   UNL     1      13.389  50.240  33.987  1.00  0.00    -0.028 C 
ATOM      3  C   UNL     1      14.740  51.425  32.244  1.00  0.00     0.039 C 
ENDROOT
BRANCH   1   4
ATOM      4  C   UNL     1      14.476  52.358  34.658  1.00  0.00     0.034 C 
BRANCH   4   5
ATOM      5  C   UNL     1      15.576  51.894  35.623  1.00  0.00     0.032 C 
BRANCH   5   6
ATOM      6  C   UNL     1      16.746  52.849  35.649  1.00  0.00    -0.028 C 
ATOM      7  C   UNL     1      18.004  51.626  33.862  1.00  0.00     0.039 C 
ATOM      8  C   UNL     1      17.827  52.759  34.845  1.00  0.00    -0.080 C 
ATOM      9  C   UNL     1      18.892  53.820  34.954  1.00  0.00     0.039 C 
ENDBRANCH   5   6
ENDBRANCH   4   5
ENDBRANCH   1   4
BRANCH   2  10
ATOM     10  C   UNL     1      12.971  49.127  33.054  1.00  0.00     0.035 C 
BRANCH  10  11
ATOM     11  C   UNL     1      12.849  47.787  33.790  1.00  0.00     0.079 C 
BRANCH  11  12
ATOM     12  C   UNL     1      11.541  47.103  33.485  1.00  0.00     0.130 C 
ATOM     13  O   UNL     1      10.607  47.216  34.264  1.00  0.00    -0.300 OA
ATOM     14  C   UNL     1      11.362  46.283  32.241  1.00  0.00     0.087 C 
ENDBRANCH  11  12
ENDBRANCH  10  11
ENDBRANCH   2  10
TORSDOF 6
ENDMDL
MODEL 4
REMARK VINA RESULT:    -4.272     15.463     16.864
REMARK INTER + INTRA:          -6.504
REMARK INTER:                  -5.597
REMARK INTRA:                  -0.907
REMARK UNBOUND:                -0.733
REMARK SMILES CC(=O)CCC=C(C)CCC=C(C)C
REMARK SMILES IDX 7 1 6 2 8 3 9 4 10 5 11 6 13 7 12 8 14 9 5 10 4 11 2 12 3 13
REMARK SMILES IDX 1 14
REMARK H PARENT
REMARK Flexibility Score: inf
ROOT
ATOM      1  C   UNL     1      14.864  52.049  32.974  1.00  0.00    -0.077 C 
ATOM      2  C   UNL     1      14.726  50.739  32.665  1.00  0.00    -0.028 C 
ATOM      3  C   UNL     1      13.673  52.966  33.120  1.00  0.00     0.039 C 
ENDROOT
BRANCH   1   4
ATOM      4  C   UNL     1      16.253  52.634  33.111  1.00  0.00     0.034 C 
BRANCH   4   5
ATOM      5  C   UNL     1      16.515  53.155  34.532  1.00  0.00     0.032 C 
BRANCH   5   6
ATOM      6  C   UNL     1      16.138  52.139  35.585  1.00  0.00    -0.028 C 
ATOM      7  C   UNL     1      14.579  53.698  36.774  1.00  0.00     0.039 C 
ATOM      8  C   UNL     1      15.249  52.359  36.578  1.00  0.00    -0.080 C 
ATOM      9  C   UNL     1      14.939  51.227  37.524  1.00  0.00     0.039 C 
ENDBRANCH   5   6
ENDBRANCH   4   5
ENDBRANCH   1   4
BRANCH   2  10
ATOM     10  C   UNL     1      13.401  50.027  32.520  1.00  0.00     0.035 C 
BRANCH  10  11
ATOM     11  C   UNL     1      12.994  49.321  33.818  1.00  0.00     0.079 C 
BRANCH  11  12
ATOM     12  C   UNL     1      12.806  47.840  33.609  1.00  0.00     0.130 C 
ATOM     13  O   UNL     1      11.878  47.267  34.159  1.00  0.00    -0.300 OA
ATOM     14  C   UNL     1      13.739  47.052  32.737  1.00  0.00     0.087 C 
ENDBRANCH  11  12
ENDBRANCH  10  11
ENDBRANCH   2  10
TORSDOF 6
ENDMDL
MODEL 5
REMARK VINA RESULT:    -4.249      2.112      6.220
REMARK INTER + INTRA:          -6.473
REMARK INTER:                  -5.404
REMARK INTRA:                  -1.069
REMARK UNBOUND:                -0.733
REMARK SMILES CC(=O)CCC=C(C)CCC=C(C)C
REMARK SMILES IDX 7 1 6 2 8 3 9 4 10 5 11 6 13 7 12 8 14 9 5 10 4 11 2 12 3 13
REMARK SMILES IDX 1 14
REMARK H PARENT
REMARK Flexibility Score: inf
ROOT
ATOM      1  C   UNL     1      14.059  61.955  21.320  1.00  0.00    -0.077 C 
ATOM      2  C   UNL     1      13.744  61.701  22.611  1.00  0.00    -0.028 C 
ATOM      3  C   UNL     1      13.005  62.061  20.245  1.00  0.00     0.039 C 
ENDROOT
BRANCH   1   4
ATOM      4  C   UNL     1      15.516  62.070  20.925  1.00  0.00     0.034 C 
BRANCH   4   5
ATOM      5  C   UNL     1      15.988  60.848  20.124  1.00  0.00     0.032 C 
BRANCH   5   6
ATOM      6  C   UNL     1      16.627  59.804  21.010  1.00  0.00    -0.028 C 
ATOM      7  C   UNL     1      14.627  58.298  20.969  1.00  0.00     0.039 C 
ATOM      8  C   UNL     1      16.040  58.642  21.372  1.00  0.00    -0.080 C 
ATOM      9  C   UNL     1      16.827  57.677  22.220  1.00  0.00     0.039 C 
ENDBRANCH   5   6
ENDBRANCH   4   5
ENDBRANCH   1   4
BRANCH   2  10
ATOM     10  C   UNL     1      12.334  61.584  23.141  1.00  0.00     0.035 C 
BRANCH  10  11
ATOM     11  C   UNL     1      12.162  62.342  24.463  1.00  0.00     0.079 C 
BRANCH  11  12
ATOM     12  C   UNL     1      12.184  63.835  24.254  1.00  0.00     0.130 C 
ATOM     13  O   UNL     1      12.990  64.517  24.868  1.00  0.00    -0.300 OA
ATOM     14  C   UNL     1      11.232  64.503  23.306  1.00  0.00     0.087 C 
ENDBRANCH  11  12
ENDBRANCH  10  11
ENDBRANCH   2  10
TORSDOF 6
ENDMDL
MODEL 6
REMARK VINA RESULT:    -4.215     10.762     12.675
REMARK INTER + INTRA:          -6.426
REMARK INTER:                  -5.462
REMARK INTRA:                  -0.964
REMARK UNBOUND:                -0.733
REMARK SMILES CC(=O)CCC=C(C)CCC=C(C)C
REMARK SMILES IDX 7 1 6 2 8 3 9 4 10 5 11 6 13 7 12 8 14 9 5 10 4 11 2 12 3 13
REMARK SMILES IDX 1 14
REMARK H PARENT
REMARK Flexibility Score: inf
ROOT
ATOM      1  C   UNL     1      12.138  51.525  20.044  1.00  0.00    -0.077 C 
ATOM      2  C   UNL     1      11.881  50.219  20.283  1.00  0.00    -0.028 C 
ATOM      3  C   UNL     1      12.313  52.524  21.162  1.00  0.00     0.039 C 
ENDROOT
BRANCH   1   4
ATOM      4  C   UNL     1      12.185  52.019  18.614  1.00  0.00     0.034 C 
BRANCH   4   5
ATOM      5  C   UNL     1      11.126  53.098  18.347  1.00  0.00     0.032 C 
BRANCH   5   6
ATOM      6  C   UNL     1       9.758  52.501  18.111  1.00  0.00    -0.028 C 
ATOM      7  C   UNL     1       8.820  53.365  20.266  1.00  0.00     0.039 C 
ATOM      8  C   UNL     1       8.707  52.638  18.948  1.00  0.00    -0.080 C 
ATOM      9  C   UNL     1       7.389  52.025  18.548  1.00  0.00     0.039 C 
ENDBRANCH   5   6
ENDBRANCH   4   5
ENDBRANCH   1   4
BRANCH   2  10
ATOM     10  C   UNL     1      11.827  49.594  21.658  1.00  0.00     0.035 C 
BRANCH  10  11
ATOM     11  C   UNL     1      10.422  49.076  21.990  1.00  0.00     0.079 C 
BRANCH  11  12
ATOM     12  C   UNL     1      10.457  47.651  22.479  1.00  0.00     0.130 C 
ATOM     13  O   UNL     1       9.631  47.275  23.296  1.00  0.00    -0.300 OA
ATOM     14  C   UNL     1      11.489  46.681  21.982  1.00  0.00     0.087 C 
ENDBRANCH  11  12
ENDBRANCH  10  11
ENDBRANCH   2  10
TORSDOF 6
ENDMDL
MODEL 7
REMARK VINA RESULT:    -4.118     10.459     13.332
REMARK INTER + INTRA:          -6.296
REMARK INTER:                  -5.539
REMARK INTRA:                  -0.757
REMARK UNBOUND:                -0.733
REMARK SMILES CC(=O)CCC=C(C)CCC=C(C)C
REMARK SMILES IDX 7 1 6 2 8 3 9 4 10 5 11 6 13 7 12 8 14 9 5 10 4 11 2 12 3 13
REMARK SMILES IDX 1 14
REMARK H PARENT
REMARK Flexibility Score: inf
ROOT
ATOM      1  C   UNL     1      11.507  49.099  21.553  1.00  0.00    -0.077 C 
ATOM      2  C   UNL     1      11.483  47.751  21.662  1.00  0.00    -0.028 C 
ATOM      3  C   UNL     1      11.122  50.001  22.701  1.00  0.00     0.039 C 
ENDROOT
BRANCH   1   4
ATOM      4  C   UNL     1      11.864  49.727  20.222  1.00  0.00     0.034 C 
BRANCH   4   5
ATOM      5  C   UNL     1      12.618  51.052  20.401  1.00  0.00     0.032 C 
BRANCH   5   6
ATOM      6  C   UNL     1      12.282  52.044  19.312  1.00  0.00    -0.028 C 
ATOM      7  C   UNL     1      10.901  53.490  20.819  1.00  0.00     0.039 C 
ATOM      8  C   UNL     1      11.539  53.158  19.492  1.00  0.00    -0.080 C 
ATOM      9  C   UNL     1      11.333  54.079  18.317  1.00  0.00     0.039 C 
ENDBRANCH   5   6
ENDBRANCH   4   5
ENDBRANCH   1   4
BRANCH   2  10
ATOM     10  C   UNL     1      11.166  47.000  22.934  1.00  0.00     0.035 C 
BRANCH  10  11
ATOM     11  C   UNL     1      12.232  45.943  23.249  1.00  0.00     0.079 C 
BRANCH  11  12
ATOM     12  C   UNL     1      13.396  46.537  24.000  1.00  0.00     0.130 C 
ATOM     13  O   UNL     1      14.503  46.031  23.893  1.00  0.00    -0.300 OA
ATOM     14  C   UNL     1      13.224  47.739  24.881  1.00  0.00     0.087 C 
ENDBRANCH  11  12
ENDBRANCH  10  11
ENDBRANCH   2  10
TORSDOF 6
ENDMDL
MODEL 8
REMARK VINA RESULT:    -4.114     14.415     15.791
REMARK INTER + INTRA:          -6.291
REMARK INTER:                  -4.975
REMARK INTRA:                  -1.316
REMARK UNBOUND:                -0.733
REMARK SMILES CC(=O)CCC=C(C)CCC=C(C)C
REMARK SMILES IDX 7 1 6 2 8 3 9 4 10 5 11 6 13 7 12 8 14 9 5 10 4 11 2 12 3 13
REMARK SMILES IDX 1 14
REMARK H PARENT
REMARK Flexibility Score: inf
ROOT
ATOM      1  C   UNL     1      18.154  53.065  34.325  1.00  0.00    -0.077 C 
ATOM      2  C   UNL     1      17.545  52.747  35.490  1.00  0.00    -0.028 C 
ATOM      3  C   UNL     1      17.706  52.488  33.004  1.00  0.00     0.039 C 
ENDROOT
BRANCH   1   4
ATOM      4  C   UNL     1      19.365  53.974  34.349  1.00  0.00     0.034 C 
BRANCH   4   5
ATOM      5  C   UNL     1      19.031  55.382  33.837  1.00  0.00     0.032 C 
BRANCH   5   6
ATOM      6  C   UNL     1      18.119  56.127  34.785  1.00  0.00    -0.028 C 
ATOM      7  C   UNL     1      16.159  56.052  33.228  1.00  0.00     0.039 C 
ATOM      8  C   UNL     1      16.821  56.407  34.537  1.00  0.00    -0.080 C 
ATOM      9  C   UNL     1      16.026  57.114  35.605  1.00  0.00     0.039 C 
ENDBRANCH   5   6
ENDBRANCH   4   5
ENDBRANCH   1   4
BRANCH   2  10
ATOM     10  C   UNL     1      16.319  51.871  35.605  1.00  0.00     0.035 C 
BRANCH  10  11
ATOM     11  C   UNL     1      15.342  52.401  36.662  1.00  0.00     0.079 C 
BRANCH  11  12
ATOM     12  C   UNL     1      14.448  53.477  36.102  1.00  0.00     0.130 C 
ATOM     13  O   UNL     1      14.074  54.386  36.827  1.00  0.00    -0.300 OA
ATOM     14  C   UNL     1      14.005  53.455  34.668  1.00  0.00     0.087 C 
ENDBRANCH  11  12
ENDBRANCH  10  11
ENDBRANCH   2  10
TORSDOF 6
ENDMDL
MODEL 9
REMARK VINA RESULT:    -4.102      2.749      4.203
REMARK INTER + INTRA:          -6.275
REMARK INTER:                  -4.786
REMARK INTRA:                  -1.489
REMARK UNBOUND:                -0.733
REMARK SMILES CC(=O)CCC=C(C)CCC=C(C)C
REMARK SMILES IDX 7 1 6 2 8 3 9 4 10 5 11 6 13 7 12 8 14 9 5 10 4 11 2 12 3 13
REMARK SMILES IDX 1 14
REMARK H PARENT
REMARK Flexibility Score: inf
ROOT
ATOM      1  C   UNL     1      14.543  61.633  21.083  1.00  0.00    -0.077 C 
ATOM      2  C   UNL     1      15.417  60.896  20.361  1.00  0.00    -0.028 C 
ATOM      3  C   UNL     1      14.806  62.002  22.524  1.00  0.00     0.039 C 
ENDROOT
BRANCH   1   4
ATOM      4  C   UNL     1      13.229  62.046  20.455  1.00  0.00     0.034 C 
BRANCH   4   5
ATOM      5  C   UNL     1      12.362  60.831  20.096  1.00  0.00     0.032 C 
BRANCH   5   6
ATOM      6  C   UNL     1      11.821  60.139  21.326  1.00  0.00    -0.028 C 
ATOM      7  C   UNL     1      13.113  58.033  20.917  1.00  0.00     0.039 C 
ATOM      8  C   UNL     1      12.172  58.897  21.723  1.00  0.00    -0.080 C 
ATOM      9  C   UNL     1      11.585  58.361  23.003  1.00  0.00     0.039 C 
ENDBRANCH   5   6
ENDBRANCH   4   5
ENDBRANCH   1   4
BRANCH   2  10
ATOM     10  C   UNL     1      16.768  60.438  20.859  1.00  0.00     0.035 C 
BRANCH  10  11
ATOM     11  C   UNL     1      16.732  58.979  21.332  1.00  0.00     0.079 C 
BRANCH  11  12
ATOM     12  C   UNL     1      16.809  58.880  22.834  1.00  0.00     0.130 C 
ATOM     13  O   UNL     1      17.871  59.097  23.398  1.00  0.00    -0.300 OA
ATOM     14  C   UNL     1      15.605  58.519  23.654  1.00  0.00     0.087 C 
ENDBRANCH  11  12
ENDBRANCH  10  11
ENDBRANCH   2  10
TORSDOF 6
ENDMDL
