MODEL 1
REMARK VINA RESULT:    -5.523      0.000      0.000
REMARK INTER + INTRA:          -9.793
REMARK INTER:                  -8.106
REMARK INTRA:                  -1.688
REMARK UNBOUND:                -1.688
REMARK SMILES Cc1cc2c(C(C)C)c(O)c(O)c(C=O)c2c(O)c1-c1c(C)cc2c(C(C)C)c(O)c(O)c(C=O)c2c1O
REMARK SMILES IDX 1 1 2 2 3 3 4 4 16 5 13 6 11 7 9 8 5 9 17 10 19 11 20 12
REMARK SMILES IDX 37 13 21 14 36 15 23 16 22 17 24 18 33 19 25 20 31 21 29 22
REMARK SMILES IDX 38 23 34 25 35 26 26 27 27 28 28 29 32 30 30 32 18 34 6 36
REMARK SMILES IDX 7 37 8 38 14 39 15 40 10 41 12 43
REMARK H PARENT 38 24 32 31 30 33 18 35 10 42 12 44
REMARK Flexibility Score: inf
ROOT
ATOM      1  C   UNL     1      63.383  21.917  50.739  1.00  0.00     0.045 C 
ATOM      2  C   UNL     1      62.434  23.017  50.327  1.00  0.00    -0.039 A 
ATOM      3  C   UNL     1      62.951  24.231  49.874  1.00  0.00     0.013 A 
ATOM      4  C   UNL     1      62.115  25.292  49.461  1.00  0.00    -0.006 A 
ATOM      5  C   UNL     1      60.700  25.137  49.582  1.00  0.00     0.039 A 
ATOM      6  C   UNL     1      59.853  26.211  49.181  1.00  0.00     0.072 A 
ATOM      7  C   UNL     1      60.411  27.460  48.853  1.00  0.00     0.169 A 
ATOM      8  C   UNL     1      61.806  27.634  48.837  1.00  0.00     0.162 A 
ATOM      9  C   UNL     1      62.663  26.519  48.974  1.00  0.00     0.008 A 
ATOM     10  C   UNL     1      60.182  23.932  50.144  1.00  0.00     0.132 A 
ATOM     11  C   UNL     1      61.046  22.866  50.471  1.00  0.00     0.031 A 
ENDROOT
BRANCH  11  12
ATOM     12  C   UNL     1      60.494  21.596  51.013  1.00  0.00     0.031 A 
ATOM     13  C   UNL     1      60.260  21.454  52.397  1.00  0.00     0.132 A 
ATOM     14  C   UNL     1      60.211  20.533  50.141  1.00  0.00    -0.039 A 
ATOM     15  C   UNL     1      59.721  20.239  52.914  1.00  0.00     0.039 A 
ATOM     16  C   UNL     1      59.800  19.306  50.665  1.00  0.00     0.013 A 
ATOM     17  C   UNL     1      60.397  20.677  48.650  1.00  0.00     0.045 C 
ATOM     18  C   UNL     1      59.625  19.108  52.049  1.00  0.00    -0.006 A 
ATOM     19  C   UNL     1      59.306  20.107  54.270  1.00  0.00     0.072 A 
ATOM     20  C   UNL     1      59.335  17.815  52.586  1.00  0.00     0.008 A 
ATOM     21  C   UNL     1      58.864  18.861  54.748  1.00  0.00     0.169 A 
ATOM     22  C   UNL     1      58.863  17.733  53.920  1.00  0.00     0.162 A 
BRANCH  13  23
ATOM     23  O   UNL     1      60.599  22.500  53.263  1.00  0.00    -0.507 OA
ATOM     24  H   UNL     1      60.856  22.368  54.233  1.00  0.00     0.293 HD
ENDBRANCH  13  23
BRANCH  19  25
ATOM     25  C   UNL     1      59.171  21.274  55.175  1.00  0.00     0.264 C 
ATOM     26  O   UNL     1      59.986  21.462  56.117  1.00  0.00    -0.298 OA
ENDBRANCH  19  25
BRANCH  20  27
ATOM     27  C   UNL     1      59.607  16.503  51.824  1.00  0.00     0.017 C 
ATOM     28  C   UNL     1      58.559  16.230  50.737  1.00  0.00     0.012 C 
ATOM     29  C   UNL     1      61.052  16.346  51.309  1.00  0.00     0.012 C 
ENDBRANCH  20  27
BRANCH  21  30
ATOM     30  O   UNL     1      58.394  18.757  56.062  1.00  0.00    -0.504 OA
ATOM     31  H   UNL     1      58.025  19.545  56.579  1.00  0.00     0.293 HD
ENDBRANCH  21  30
BRANCH  22  32
ATOM     32  O   UNL     1      58.353  16.544  54.455  1.00  0.00    -0.504 OA
ATOM     33  H   UNL     1      57.373  16.297  54.463  1.00  0.00     0.293 HD
ENDBRANCH  22  32
ENDBRANCH  11  12
BRANCH  10  34
ATOM     34  O   UNL     1      58.815  23.813  50.420  1.00  0.00    -0.507 OA
ATOM     35  H   UNL     1      58.439  23.622  51.341  1.00  0.00     0.293 HD
ENDBRANCH  10  34
BRANCH   9  36
ATOM     36  C   UNL     1      64.162  26.669  48.656  1.00  0.00     0.017 C 
ATOM     37  C   UNL     1      64.879  27.458  49.755  1.00  0.00     0.012 C 
ATOM     38  C   UNL     1      64.450  27.262  47.263  1.00  0.00     0.012 C 
ENDBRANCH   9  36
BRANCH   6  39
ATOM     39  C   UNL     1      58.390  26.038  49.007  1.00  0.00     0.264 C 
ATOM     40  O   UNL     1      57.574  26.515  49.840  1.00  0.00    -0.298 OA
ENDBRANCH   6  39
BRANCH   8  41
ATOM     41  O   UNL     1      62.361  28.908  48.698  1.00  0.00    -0.504 OA
ATOM     42  H   UNL     1      62.487  29.376  47.811  1.00  0.00     0.293 HD
ENDBRANCH   8  41
BRANCH   7  43
ATOM     43  O   UNL     1      59.555  28.508  48.494  1.00  0.00    -0.504 OA
ATOM     44  H   UNL     1      58.601  28.593  48.812  1.00  0.00     0.293 HD
ENDBRANCH   7  43
TORSDOF 11
ENDMDL
MODEL 2
REMARK VINA RESULT:    -5.461      1.126      8.993
REMARK INTER + INTRA:          -9.702
REMARK INTER:                  -8.082
REMARK INTRA:                  -1.620
REMARK UNBOUND:                -1.688
REMARK SMILES Cc1cc2c(C(C)C)c(O)c(O)c(C=O)c2c(O)c1-c1c(C)cc2c(C(C)C)c(O)c(O)c(C=O)c2c1O
REMARK SMILES IDX 1 1 2 2 3 3 4 4 16 5 13 6 11 7 9 8 5 9 17 10 19 11 20 12
REMARK SMILES IDX 37 13 21 14 36 15 23 16 22 17 24 18 33 19 25 20 31 21 29 22
REMARK SMILES IDX 38 23 34 25 35 26 26 27 27 28 28 29 32 30 30 32 18 34 6 36
REMARK SMILES IDX 7 37 8 38 14 39 15 40 10 41 12 43
REMARK H PARENT 38 24 32 31 30 33 18 35 10 42 12 44
REMARK Flexibility Score: inf
ROOT
ATOM      1  C   UNL     1      61.129  21.393  48.062  1.00  0.00     0.045 C 
ATOM      2  C   UNL     1      60.751  21.138  49.501  1.00  0.00    -0.039 A 
ATOM      3  C   UNL     1      60.017  19.996  49.821  1.00  0.00     0.013 A 
ATOM      4  C   UNL     1      59.645  19.693  51.150  1.00  0.00    -0.006 A 
ATOM      5  C   UNL     1      59.970  20.627  52.182  1.00  0.00     0.039 A 
ATOM      6  C   UNL     1      59.583  20.334  53.522  1.00  0.00     0.072 A 
ATOM      7  C   UNL     1      58.736  19.243  53.785  1.00  0.00     0.169 A 
ATOM      8  C   UNL     1      58.335  18.387  52.745  1.00  0.00     0.162 A 
ATOM      9  C   UNL     1      58.916  18.505  51.462  1.00  0.00     0.008 A 
ATOM     10  C   UNL     1      60.629  21.844  51.831  1.00  0.00     0.132 A 
ATOM     11  C   UNL     1      61.053  22.071  50.505  1.00  0.00     0.031 A 
ENDROOT
BRANCH  11  12
ATOM     12  C   UNL     1      61.781  23.320  50.157  1.00  0.00     0.031 A 
ATOM     13  C   UNL     1      61.067  24.500  49.859  1.00  0.00     0.132 A 
ATOM     14  C   UNL     1      63.184  23.321  50.120  1.00  0.00    -0.039 A 
ATOM     15  C   UNL     1      61.767  25.701  49.534  1.00  0.00     0.039 A 
ATOM     16  C   UNL     1      63.859  24.462  49.684  1.00  0.00     0.013 A 
ATOM     17  C   UNL     1      63.973  22.089  50.491  1.00  0.00     0.045 C 
ATOM     18  C   UNL     1      63.174  25.635  49.310  1.00  0.00    -0.006 A 
ATOM     19  C   UNL     1      61.104  26.954  49.397  1.00  0.00     0.072 A 
ATOM     20  C   UNL     1      63.864  26.750  48.739  1.00  0.00     0.008 A 
ATOM     21  C   UNL     1      61.829  28.087  48.991  1.00  0.00     0.169 A 
ATOM     22  C   UNL     1      63.190  27.996  48.679  1.00  0.00     0.162 A 
BRANCH  13  23
ATOM     23  O   UNL     1      59.668  24.473  49.844  1.00  0.00    -0.507 OA
ATOM     24  H   UNL     1      59.108  24.754  49.049  1.00  0.00     0.293 HD
ENDBRANCH  13  23
BRANCH  19  25
ATOM     25  C   UNL     1      59.696  27.156  49.815  1.00  0.00     0.264 C 
ATOM     26  O   UNL     1      58.785  27.331  48.963  1.00  0.00    -0.298 OA
ENDBRANCH  19  25
BRANCH  20  27
ATOM     27  C   UNL     1      65.259  26.641  48.094  1.00  0.00     0.017 C 
ATOM     28  C   UNL     1      65.259  27.075  46.623  1.00  0.00     0.012 C 
ATOM     29  C   UNL     1      66.395  27.295  48.907  1.00  0.00     0.012 C 
ENDBRANCH  20  27
BRANCH  21  30
ATOM     30  O   UNL     1      61.184  29.328  48.924  1.00  0.00    -0.504 OA
ATOM     31  H   UNL     1      60.310  29.468  48.434  1.00  0.00     0.293 HD
ENDBRANCH  21  30
BRANCH  22  32
ATOM     32  O   UNL     1      63.853  29.182  48.339  1.00  0.00    -0.504 OA
ATOM     33  H   UNL     1      64.524  29.649  48.933  1.00  0.00     0.293 HD
ENDBRANCH  22  32
ENDBRANCH  11  12
BRANCH  10  34
ATOM     34  O   UNL     1      60.821  22.845  52.791  1.00  0.00    -0.507 OA
ATOM     35  H   UNL     1      61.726  23.219  53.043  1.00  0.00     0.293 HD
ENDBRANCH  10  34
BRANCH   9  36
ATOM     36  C   UNL     1      58.702  17.388  50.425  1.00  0.00     0.017 C 
ATOM     37  C   UNL     1      57.320  17.502  49.775  1.00  0.00     0.012 C 
ATOM     38  C   UNL     1      58.945  15.968  50.973  1.00  0.00     0.012 C 
ENDBRANCH   9  36
BRANCH   6  39
ATOM     39  C   UNL     1      60.116  21.094  54.679  1.00  0.00     0.264 C 
ATOM     40  O   UNL     1      59.399  21.922  55.302  1.00  0.00    -0.298 OA
ENDBRANCH   6  39
BRANCH   8  41
ATOM     41  O   UNL     1      57.351  17.419  52.961  1.00  0.00    -0.504 OA
ATOM     42  H   UNL     1      57.307  16.831  53.782  1.00  0.00     0.293 HD
ENDBRANCH   8  41
BRANCH   7  43
ATOM     43  O   UNL     1      58.344  18.996  55.106  1.00  0.00    -0.504 OA
ATOM     44  H   UNL     1      57.490  19.344  55.517  1.00  0.00     0.293 HD
ENDBRANCH   7  43
TORSDOF 11
ENDMDL
MODEL 3
REMARK VINA RESULT:    -5.152      7.578     10.546
REMARK INTER + INTRA:          -9.250
REMARK INTER:                  -7.672
REMARK INTRA:                  -1.577
REMARK UNBOUND:                -1.688
REMARK SMILES Cc1cc2c(C(C)C)c(O)c(O)c(C=O)c2c(O)c1-c1c(C)cc2c(C(C)C)c(O)c(O)c(C=O)c2c1O
REMARK SMILES IDX 1 1 2 2 3 3 4 4 16 5 13 6 11 7 9 8 5 9 17 10 19 11 20 12
REMARK SMILES IDX 37 13 21 14 36 15 23 16 22 17 24 18 33 19 25 20 31 21 29 22
REMARK SMILES IDX 38 23 34 25 35 26 26 27 27 28 28 29 32 30 30 32 18 34 6 36
REMARK SMILES IDX 7 37 8 38 14 39 15 40 10 41 12 43
REMARK H PARENT 38 24 32 31 30 33 18 35 10 42 12 44
REMARK Flexibility Score: inf
ROOT
ATOM      1  C   UNL     1      60.463  27.880  53.684  1.00  0.00     0.045 C 
ATOM      2  C   UNL     1      59.341  28.887  53.612  1.00  0.00    -0.039 A 
ATOM      3  C   UNL     1      58.482  28.874  52.513  1.00  0.00     0.013 A 
ATOM      4  C   UNL     1      57.404  29.780  52.394  1.00  0.00    -0.006 A 
ATOM      5  C   UNL     1      57.240  30.785  53.397  1.00  0.00     0.039 A 
ATOM      6  C   UNL     1      56.164  31.711  53.274  1.00  0.00     0.072 A 
ATOM      7  C   UNL     1      55.401  31.748  52.093  1.00  0.00     0.169 A 
ATOM      8  C   UNL     1      55.639  30.820  51.064  1.00  0.00     0.162 A 
ATOM      9  C   UNL     1      56.518  29.734  51.274  1.00  0.00     0.008 A 
ATOM     10  C   UNL     1      58.185  30.858  54.465  1.00  0.00     0.132 A 
ATOM     11  C   UNL     1      59.200  29.886  54.588  1.00  0.00     0.031 A 
ENDROOT
BRANCH  11  12
ATOM     12  C   UNL     1      60.153  29.941  55.729  1.00  0.00     0.031 A 
ATOM     13  C   UNL     1      59.857  29.273  56.936  1.00  0.00     0.132 A 
ATOM     14  C   UNL     1      61.347  30.667  55.604  1.00  0.00    -0.039 A 
ATOM     15  C   UNL     1      60.776  29.319  58.027  1.00  0.00     0.039 A 
ATOM     16  C   UNL     1      62.184  30.810  56.712  1.00  0.00     0.013 A 
ATOM     17  C   UNL     1      61.715  31.343  54.305  1.00  0.00     0.045 C 
ATOM     18  C   UNL     1      61.884  30.215  57.953  1.00  0.00    -0.006 A 
ATOM     19  C   UNL     1      60.609  28.523  59.196  1.00  0.00     0.072 A 
ATOM     20  C   UNL     1      62.674  30.478  59.115  1.00  0.00     0.008 A 
ATOM     21  C   UNL     1      61.496  28.673  60.276  1.00  0.00     0.169 A 
ATOM     22  C   UNL     1      62.523  29.623  60.236  1.00  0.00     0.162 A 
BRANCH  13  23
ATOM     23  O   UNL     1      58.638  28.600  57.069  1.00  0.00    -0.507 OA
ATOM     24  H   UNL     1      58.480  27.651  56.752  1.00  0.00     0.293 HD
ENDBRANCH  13  23
BRANCH  19  25
ATOM     25  C   UNL     1      59.620  27.421  59.271  1.00  0.00     0.264 C 
ATOM     26  O   UNL     1      58.617  27.500  60.029  1.00  0.00    -0.298 OA
ENDBRANCH  19  25
BRANCH  20  27
ATOM     27  C   UNL     1      63.605  31.699  59.247  1.00  0.00     0.017 C 
ATOM     28  C   UNL     1      64.899  31.538  58.438  1.00  0.00     0.012 C 
ATOM     29  C   UNL     1      62.918  33.059  59.006  1.00  0.00     0.012 C 
ENDBRANCH  20  27
BRANCH  21  30
ATOM     30  O   UNL     1      61.365  27.840  61.393  1.00  0.00    -0.504 OA
ATOM     31  H   UNL     1      60.705  27.074  61.435  1.00  0.00     0.293 HD
ENDBRANCH  21  30
BRANCH  22  32
ATOM     32  O   UNL     1      63.399  29.669  61.327  1.00  0.00    -0.504 OA
ATOM     33  H   UNL     1      63.367  29.031  62.110  1.00  0.00     0.293 HD
ENDBRANCH  22  32
ENDBRANCH  11  12
BRANCH  10  34
ATOM     34  O   UNL     1      58.144  31.922  55.373  1.00  0.00    -0.507 OA
ATOM     35  H   UNL     1      58.967  32.360  55.767  1.00  0.00     0.293 HD
ENDBRANCH  10  34
BRANCH   9  36
ATOM     36  C   UNL     1      56.541  28.569  50.269  1.00  0.00     0.017 C 
ATOM     37  C   UNL     1      56.359  27.226  50.983  1.00  0.00     0.012 C 
ATOM     38  C   UNL     1      57.783  28.553  49.356  1.00  0.00     0.012 C 
ENDBRANCH   9  36
BRANCH   6  39
ATOM     39  C   UNL     1      55.753  32.594  54.393  1.00  0.00     0.264 C 
ATOM     40  O   UNL     1      55.985  33.832  54.366  1.00  0.00    -0.298 OA
ENDBRANCH   6  39
BRANCH   8  41
ATOM     41  O   UNL     1      55.019  30.965  49.820  1.00  0.00    -0.504 OA
ATOM     42  H   UNL     1      55.344  31.592  49.097  1.00  0.00     0.293 HD
ENDBRANCH   8  41
BRANCH   7  43
ATOM     43  O   UNL     1      54.371  32.689  51.984  1.00  0.00    -0.504 OA
ATOM     44  H   UNL     1      54.041  33.258  52.751  1.00  0.00     0.293 HD
ENDBRANCH   7  43
TORSDOF 11
ENDMDL
MODEL 4
REMARK VINA RESULT:    -5.123      1.545      2.982
REMARK INTER + INTRA:          -9.206
REMARK INTER:                  -7.636
REMARK INTRA:                  -1.570
REMARK UNBOUND:                -1.688
REMARK SMILES Cc1cc2c(C(C)C)c(O)c(O)c(C=O)c2c(O)c1-c1c(C)cc2c(C(C)C)c(O)c(O)c(C=O)c2c1O
REMARK SMILES IDX 1 1 2 2 3 3 4 4 16 5 13 6 11 7 9 8 5 9 17 10 19 11 20 12
REMARK SMILES IDX 37 13 21 14 36 15 23 16 22 17 24 18 33 19 25 20 31 21 29 22
REMARK SMILES IDX 38 23 34 25 35 26 26 27 27 28 28 29 32 30 30 32 18 34 6 36
REMARK SMILES IDX 7 37 8 38 14 39 15 40 10 41 12 43
REMARK H PARENT 38 24 32 31 30 33 18 35 10 42 12 44
REMARK Flexibility Score: inf
ROOT
ATOM      1  C   UNL     1      63.423  22.024  51.345  1.00  0.00     0.045 C 
ATOM      2  C   UNL     1      62.492  23.081  50.801  1.00  0.00    -0.039 A 
ATOM      3  C   UNL     1      63.029  24.209  50.180  1.00  0.00     0.013 A 
ATOM      4  C   UNL     1      62.212  25.226  49.638  1.00  0.00    -0.006 A 
ATOM      5  C   UNL     1      60.796  25.126  49.801  1.00  0.00     0.039 A 
ATOM      6  C   UNL     1      59.968  26.158  49.271  1.00  0.00     0.072 A 
ATOM      7  C   UNL     1      60.549  27.335  48.768  1.00  0.00     0.169 A 
ATOM      8  C   UNL     1      61.946  27.468  48.707  1.00  0.00     0.162 A 
ATOM      9  C   UNL     1      62.780  26.360  48.980  1.00  0.00     0.008 A 
ATOM     10  C   UNL     1      60.259  24.022  50.530  1.00  0.00     0.132 A 
ATOM     11  C   UNL     1      61.104  22.989  50.986  1.00  0.00     0.031 A 
ENDROOT
BRANCH  11  12
ATOM     12  C   UNL     1      60.532  21.818  51.704  1.00  0.00     0.031 A 
ATOM     13  C   UNL     1      60.109  20.680  50.986  1.00  0.00     0.132 A 
ATOM     14  C   UNL     1      60.409  21.852  53.102  1.00  0.00    -0.039 A 
ATOM     15  C   UNL     1      59.569  19.554  51.677  1.00  0.00     0.039 A 
ATOM     16  C   UNL     1      59.769  20.800  53.760  1.00  0.00     0.013 A 
ATOM     17  C   UNL     1      60.907  23.032  53.900  1.00  0.00     0.045 C 
ATOM     18  C   UNL     1      59.271  19.680  53.066  1.00  0.00    -0.006 A 
ATOM     19  C   UNL     1      59.291  18.321  51.021  1.00  0.00     0.072 A 
ATOM     20  C   UNL     1      58.501  18.675  53.730  1.00  0.00     0.008 A 
ATOM     21  C   UNL     1      58.679  17.275  51.731  1.00  0.00     0.169 A 
ATOM     22  C   UNL     1      58.301  17.437  53.068  1.00  0.00     0.162 A 
BRANCH  13  23
ATOM     23  O   UNL     1      60.184  20.681  49.589  1.00  0.00    -0.507 OA
ATOM     24  H   UNL     1      60.660  19.968  49.050  1.00  0.00     0.293 HD
ENDBRANCH  13  23
BRANCH  19  25
ATOM     25  C   UNL     1      59.761  18.032  49.644  1.00  0.00     0.264 C 
ATOM     26  O   UNL     1      58.953  17.988  48.679  1.00  0.00    -0.298 OA
ENDBRANCH  19  25
BRANCH  20  27
ATOM     27  C   UNL     1      57.794  18.905  55.080  1.00  0.00     0.017 C 
ATOM     28  C   UNL     1      56.268  18.796  54.968  1.00  0.00     0.012 C 
ATOM     29  C   UNL     1      58.363  18.081  56.252  1.00  0.00     0.012 C 
ENDBRANCH  20  27
BRANCH  21  30
ATOM     30  O   UNL     1      58.471  16.044  51.097  1.00  0.00    -0.504 OA
ATOM     31  H   UNL     1      57.550  15.658  50.931  1.00  0.00     0.293 HD
ENDBRANCH  21  30
BRANCH  22  32
ATOM     32  O   UNL     1      57.750  16.328  53.721  1.00  0.00    -0.504 OA
ATOM     33  H   UNL     1      57.114  15.671  53.289  1.00  0.00     0.293 HD
ENDBRANCH  22  32
ENDBRANCH  11  12
BRANCH  10  34
ATOM     34  O   UNL     1      58.895  23.978  50.842  1.00  0.00    -0.507 OA
ATOM     35  H   UNL     1      58.429  24.654  51.433  1.00  0.00     0.293 HD
ENDBRANCH  10  34
BRANCH   9  36
ATOM     36  C   UNL     1      64.275  26.426  48.621  1.00  0.00     0.017 C 
ATOM     37  C   UNL     1      65.064  27.182  49.695  1.00  0.00     0.012 C 
ATOM     38  C   UNL     1      64.558  26.994  47.216  1.00  0.00     0.012 C 
ENDBRANCH   9  36
BRANCH   6  39
ATOM     39  C   UNL     1      58.498  26.001  49.146  1.00  0.00     0.264 C 
ATOM     40  O   UNL     1      57.707  26.654  49.879  1.00  0.00    -0.298 OA
ENDBRANCH   6  39
BRANCH   8  41
ATOM     41  O   UNL     1      62.530  28.697  48.387  1.00  0.00    -0.504 OA
ATOM     42  H   UNL     1      63.375  28.797  47.841  1.00  0.00     0.293 HD
ENDBRANCH   8  41
BRANCH   7  43
ATOM     43  O   UNL     1      59.712  28.347  48.282  1.00  0.00    -0.504 OA
ATOM     44  H   UNL     1      59.829  29.327  48.494  1.00  0.00     0.293 HD
ENDBRANCH   7  43
TORSDOF 11
ENDMDL
MODEL 5
REMARK VINA RESULT:    -5.078      7.819     11.504
REMARK INTER + INTRA:          -9.141
REMARK INTER:                  -7.537
REMARK INTRA:                  -1.604
REMARK UNBOUND:                -1.688
REMARK SMILES Cc1cc2c(C(C)C)c(O)c(O)c(C=O)c2c(O)c1-c1c(C)cc2c(C(C)C)c(O)c(O)c(C=O)c2c1O
REMARK SMILES IDX 1 1 2 2 3 3 4 4 16 5 13 6 11 7 9 8 5 9 17 10 19 11 20 12
REMARK SMILES IDX 37 13 21 14 36 15 23 16 22 17 24 18 33 19 25 20 31 21 29 22
REMARK SMILES IDX 38 23 34 25 35 26 26 27 27 28 28 29 32 30 30 32 18 34 6 36
REMARK SMILES IDX 7 37 8 38 14 39 15 40 10 41 12 43
REMARK H PARENT 38 24 32 31 30 33 18 35 10 42 12 44
REMARK Flexibility Score: inf
ROOT
ATOM      1  C   UNL     1      61.654  32.335  54.670  1.00  0.00     0.045 C 
ATOM      2  C   UNL     1      61.354  31.466  55.868  1.00  0.00    -0.039 A 
ATOM      3  C   UNL     1      62.221  31.489  56.962  1.00  0.00     0.013 A 
ATOM      4  C   UNL     1      61.988  30.711  58.118  1.00  0.00    -0.006 A 
ATOM      5  C   UNL     1      60.870  29.821  58.130  1.00  0.00     0.039 A 
ATOM      6  C   UNL     1      60.640  29.022  59.288  1.00  0.00     0.072 A 
ATOM      7  C   UNL     1      61.602  28.977  60.313  1.00  0.00     0.169 A 
ATOM      8  C   UNL     1      62.753  29.781  60.243  1.00  0.00     0.162 A 
ATOM      9  C   UNL     1      62.872  30.768  59.239  1.00  0.00     0.008 A 
ATOM     10  C   UNL     1      60.048  29.726  56.967  1.00  0.00     0.132 A 
ATOM     11  C   UNL     1      60.269  30.577  55.864  1.00  0.00     0.031 A 
ENDROOT
BRANCH  11  12
ATOM     12  C   UNL     1      59.379  30.504  54.675  1.00  0.00     0.031 A 
ATOM     13  C   UNL     1      58.232  31.322  54.592  1.00  0.00     0.132 A 
ATOM     14  C   UNL     1      59.682  29.614  53.633  1.00  0.00    -0.039 A 
ATOM     15  C   UNL     1      57.385  31.258  53.446  1.00  0.00     0.039 A 
ATOM     16  C   UNL     1      58.786  29.467  52.572  1.00  0.00     0.013 A 
ATOM     17  C   UNL     1      60.933  28.770  53.668  1.00  0.00     0.045 C 
ATOM     18  C   UNL     1      57.596  30.216  52.495  1.00  0.00    -0.006 A 
ATOM     19  C   UNL     1      56.319  32.180  53.236  1.00  0.00     0.072 A 
ATOM     20  C   UNL     1      56.622  29.964  51.478  1.00  0.00     0.008 A 
ATOM     21  C   UNL     1      55.462  32.017  52.135  1.00  0.00     0.169 A 
ATOM     22  C   UNL     1      55.615  30.937  51.258  1.00  0.00     0.162 A 
BRANCH  13  23
ATOM     23  O   UNL     1      57.910  32.165  55.662  1.00  0.00    -0.507 OA
ATOM     24  H   UNL     1      57.911  33.175  55.604  1.00  0.00     0.293 HD
ENDBRANCH  13  23
BRANCH  19  25
ATOM     25  C   UNL     1      56.161  33.408  54.052  1.00  0.00     0.264 C 
ATOM     26  O   UNL     1      55.231  33.512  54.895  1.00  0.00    -0.298 OA
ENDBRANCH  19  25
BRANCH  20  27
ATOM     27  C   UNL     1      56.552  28.646  50.682  1.00  0.00     0.017 C 
ATOM     28  C   UNL     1      57.608  28.577  49.571  1.00  0.00     0.012 C 
ATOM     29  C   UNL     1      56.520  27.372  51.550  1.00  0.00     0.012 C 
ENDBRANCH  20  27
BRANCH  21  30
ATOM     30  O   UNL     1      54.460  32.965  51.898  1.00  0.00    -0.504 OA
ATOM     31  H   UNL     1      53.505  32.714  51.677  1.00  0.00     0.293 HD
ENDBRANCH  21  30
BRANCH  22  32
ATOM     32  O   UNL     1      54.757  30.879  50.153  1.00  0.00    -0.504 OA
ATOM     33  H   UNL     1      54.497  31.679  49.592  1.00  0.00     0.293 HD
ENDBRANCH  22  32
ENDBRANCH  11  12
BRANCH  10  34
ATOM     34  O   UNL     1      59.044  28.754  56.890  1.00  0.00    -0.507 OA
ATOM     35  H   UNL     1      58.055  28.965  56.851  1.00  0.00     0.293 HD
ENDBRANCH  10  34
BRANCH   9  36
ATOM     36  C   UNL     1      63.977  31.835  59.348  1.00  0.00     0.017 C 
ATOM     37  C   UNL     1      63.374  33.238  59.466  1.00  0.00     0.012 C 
ATOM     38  C   UNL     1      65.023  31.770  58.218  1.00  0.00     0.012 C 
ENDBRANCH   9  36
BRANCH   6  39
ATOM     39  C   UNL     1      59.366  28.291  59.500  1.00  0.00     0.264 C 
ATOM     40  O   UNL     1      59.314  27.035  59.422  1.00  0.00    -0.298 OA
ENDBRANCH   6  39
BRANCH   8  41
ATOM     41  O   UNL     1      63.797  29.607  61.155  1.00  0.00    -0.504 OA
ATOM     42  H   UNL     1      63.682  29.639  62.159  1.00  0.00     0.293 HD
ENDBRANCH   8  41
BRANCH   7  43
ATOM     43  O   UNL     1      61.367  28.159  61.424  1.00  0.00    -0.504 OA
ATOM     44  H   UNL     1      61.542  27.165  61.442  1.00  0.00     0.293 HD
ENDBRANCH   7  43
TORSDOF 11
ENDMDL
MODEL 6
REMARK VINA RESULT:    -4.990      5.437      8.512
REMARK INTER + INTRA:          -9.011
REMARK INTER:                  -7.458
REMARK INTRA:                  -1.553
REMARK UNBOUND:                -1.688
REMARK SMILES Cc1cc2c(C(C)C)c(O)c(O)c(C=O)c2c(O)c1-c1c(C)cc2c(C(C)C)c(O)c(O)c(C=O)c2c1O
REMARK SMILES IDX 1 1 2 2 3 3 4 4 16 5 13 6 11 7 9 8 5 9 17 10 19 11 20 12
REMARK SMILES IDX 37 13 21 14 36 15 23 16 22 17 24 18 33 19 25 20 31 21 29 22
REMARK SMILES IDX 38 23 34 25 35 26 26 27 27 28 28 29 32 30 30 32 18 34 6 36
REMARK SMILES IDX 7 37 8 38 14 39 15 40 10 41 12 43
REMARK H PARENT 38 24 32 31 30 33 18 35 10 42 12 44
REMARK Flexibility Score: inf
ROOT
ATOM      1  C   UNL     1      59.118  25.832  49.013  1.00  0.00     0.045 C 
ATOM      2  C   UNL     1      59.158  27.031  49.931  1.00  0.00    -0.039 A 
ATOM      3  C   UNL     1      57.978  27.725  50.198  1.00  0.00     0.013 A 
ATOM      4  C   UNL     1      57.946  28.845  51.059  1.00  0.00    -0.006 A 
ATOM      5  C   UNL     1      59.176  29.319  51.611  1.00  0.00     0.039 A 
ATOM      6  C   UNL     1      59.153  30.458  52.468  1.00  0.00     0.072 A 
ATOM      7  C   UNL     1      57.970  31.205  52.609  1.00  0.00     0.169 A 
ATOM      8  C   UNL     1      56.786  30.788  51.977  1.00  0.00     0.162 A 
ATOM      9  C   UNL     1      56.723  29.527  51.342  1.00  0.00     0.008 A 
ATOM     10  C   UNL     1      60.394  28.667  51.250  1.00  0.00     0.132 A 
ATOM     11  C   UNL     1      60.372  27.505  50.450  1.00  0.00     0.031 A 
ENDROOT
BRANCH  11  12
ATOM     12  C   UNL     1      61.641  26.804  50.117  1.00  0.00     0.031 A 
ATOM     13  C   UNL     1      62.401  27.202  48.997  1.00  0.00     0.132 A 
ATOM     14  C   UNL     1      62.078  25.738  50.918  1.00  0.00    -0.039 A 
ATOM     15  C   UNL     1      63.623  26.535  48.683  1.00  0.00     0.039 A 
ATOM     16  C   UNL     1      63.208  25.011  50.538  1.00  0.00     0.013 A 
ATOM     17  C   UNL     1      61.315  25.329  52.155  1.00  0.00     0.045 C 
ATOM     18  C   UNL     1      63.950  25.337  49.386  1.00  0.00    -0.006 A 
ATOM     19  C   UNL     1      64.510  27.007  47.674  1.00  0.00     0.072 A 
ATOM     20  C   UNL     1      65.022  24.508  48.931  1.00  0.00     0.008 A 
ATOM     21  C   UNL     1      65.656  26.263  47.347  1.00  0.00     0.169 A 
ATOM     22  C   UNL     1      65.921  25.040  47.972  1.00  0.00     0.162 A 
BRANCH  13  23
ATOM     23  O   UNL     1      61.926  28.229  48.173  1.00  0.00    -0.507 OA
ATOM     24  H   UNL     1      61.747  29.172  48.494  1.00  0.00     0.293 HD
ENDBRANCH  13  23
BRANCH  19  25
ATOM     25  C   UNL     1      64.359  28.343  47.048  1.00  0.00     0.264 C 
ATOM     26  O   UNL     1      65.218  29.246  47.233  1.00  0.00    -0.298 OA
ENDBRANCH  19  25
BRANCH  20  27
ATOM     27  C   UNL     1      65.190  23.035  49.354  1.00  0.00     0.017 C 
ATOM     28  C   UNL     1      65.727  22.895  50.784  1.00  0.00     0.012 C 
ATOM     29  C   UNL     1      63.958  22.147  49.092  1.00  0.00     0.012 C 
ENDBRANCH  20  27
BRANCH  21  30
ATOM     30  O   UNL     1      66.557  26.768  46.403  1.00  0.00    -0.504 OA
ATOM     31  H   UNL     1      66.764  27.755  46.312  1.00  0.00     0.293 HD
ENDBRANCH  21  30
BRANCH  22  32
ATOM     32  O   UNL     1      67.113  24.389  47.632  1.00  0.00    -0.504 OA
ATOM     33  H   UNL     1      67.914  24.310  48.245  1.00  0.00     0.293 HD
ENDBRANCH  22  32
ENDBRANCH  11  12
BRANCH  10  34
ATOM     34  O   UNL     1      61.625  29.201  51.646  1.00  0.00    -0.507 OA
ATOM     35  H   UNL     1      62.344  28.670  52.123  1.00  0.00     0.293 HD
ENDBRANCH  10  34
BRANCH   9  36
ATOM     36  C   UNL     1      55.358  28.953  50.923  1.00  0.00     0.017 C 
ATOM     37  C   UNL     1      54.752  29.766  49.775  1.00  0.00     0.012 C 
ATOM     38  C   UNL     1      54.359  28.799  52.087  1.00  0.00     0.012 C 
ENDBRANCH   9  36
BRANCH   6  39
ATOM     39  C   UNL     1      60.320  30.843  53.298  1.00  0.00     0.264 C 
ATOM     40  O   UNL     1      61.029  31.843  53.003  1.00  0.00    -0.298 OA
ENDBRANCH   6  39
BRANCH   8  41
ATOM     41  O   UNL     1      55.662  31.618  51.957  1.00  0.00    -0.504 OA
ATOM     42  H   UNL     1      54.980  31.664  52.702  1.00  0.00     0.293 HD
ENDBRANCH   8  41
BRANCH   7  43
ATOM     43  O   UNL     1      57.981  32.338  53.431  1.00  0.00    -0.504 OA
ATOM     44  H   UNL     1      58.094  33.282  53.091  1.00  0.00     0.293 HD
ENDBRANCH   7  43
TORSDOF 11
ENDMDL
MODEL 7
REMARK VINA RESULT:    -4.969      9.858     13.550
REMARK INTER + INTRA:          -8.981
REMARK INTER:                  -7.475
REMARK INTRA:                  -1.506
REMARK UNBOUND:                -1.688
REMARK SMILES Cc1cc2c(C(C)C)c(O)c(O)c(C=O)c2c(O)c1-c1c(C)cc2c(C(C)C)c(O)c(O)c(C=O)c2c1O
REMARK SMILES IDX 1 1 2 2 3 3 4 4 16 5 13 6 11 7 9 8 5 9 17 10 19 11 20 12
REMARK SMILES IDX 37 13 21 14 36 15 23 16 22 17 24 18 33 19 25 20 31 21 29 22
REMARK SMILES IDX 38 23 34 25 35 26 26 27 27 28 28 29 32 30 30 32 18 34 6 36
REMARK SMILES IDX 7 37 8 38 14 39 15 40 10 41 12 43
REMARK H PARENT 38 24 32 31 30 33 18 35 10 42 12 44
REMARK Flexibility Score: inf
ROOT
ATOM      1  C   UNL     1      64.639  29.046  58.210  1.00  0.00     0.045 C 
ATOM      2  C   UNL     1      64.274  27.829  59.026  1.00  0.00    -0.039 A 
ATOM      3  C   UNL     1      63.011  27.755  59.614  1.00  0.00     0.013 A 
ATOM      4  C   UNL     1      62.604  26.637  60.376  1.00  0.00    -0.006 A 
ATOM      5  C   UNL     1      63.545  25.587  60.608  1.00  0.00     0.039 A 
ATOM      6  C   UNL     1      63.145  24.464  61.389  1.00  0.00     0.072 A 
ATOM      7  C   UNL     1      61.915  24.486  62.070  1.00  0.00     0.169 A 
ATOM      8  C   UNL     1      61.037  25.573  61.918  1.00  0.00     0.162 A 
ATOM      9  C   UNL     1      61.297  26.567  60.948  1.00  0.00     0.008 A 
ATOM     10  C   UNL     1      64.869  25.718  60.090  1.00  0.00     0.132 A 
ATOM     11  C   UNL     1      65.211  26.813  59.269  1.00  0.00     0.031 A 
ENDROOT
BRANCH  11  12
ATOM     12  C   UNL     1      66.579  26.919  58.695  1.00  0.00     0.031 A 
ATOM     13  C   UNL     1      67.613  27.538  59.429  1.00  0.00     0.132 A 
ATOM     14  C   UNL     1      66.838  26.403  57.416  1.00  0.00    -0.039 A 
ATOM     15  C   UNL     1      68.927  27.631  58.881  1.00  0.00     0.039 A 
ATOM     16  C   UNL     1      68.092  26.604  56.836  1.00  0.00     0.013 A 
ATOM     17  C   UNL     1      65.766  25.683  56.634  1.00  0.00     0.045 C 
ATOM     18  C   UNL     1      69.125  27.282  57.512  1.00  0.00    -0.006 A 
ATOM     19  C   UNL     1      70.039  28.087  59.645  1.00  0.00     0.072 A 
ATOM     20  C   UNL     1      70.358  27.600  56.861  1.00  0.00     0.008 A 
ATOM     21  C   UNL     1      71.293  28.241  59.030  1.00  0.00     0.169 A 
ATOM     22  C   UNL     1      71.460  27.989  57.664  1.00  0.00     0.162 A 
BRANCH  13  23
ATOM     23  O   UNL     1      67.328  28.099  60.679  1.00  0.00    -0.507 OA
ATOM     24  H   UNL     1      68.024  28.531  61.274  1.00  0.00     0.293 HD
ENDBRANCH  13  23
BRANCH  19  25
ATOM     25  C   UNL     1      69.970  28.266  61.116  1.00  0.00     0.264 C 
ATOM     26  O   UNL     1      70.109  29.404  61.638  1.00  0.00    -0.298 OA
ENDBRANCH  19  25
BRANCH  20  27
ATOM     27  C   UNL     1      70.520  27.639  55.329  1.00  0.00     0.017 C 
ATOM     28  C   UNL     1      70.875  29.040  54.814  1.00  0.00     0.012 C 
ATOM     29  C   UNL     1      71.437  26.543  54.751  1.00  0.00     0.012 C 
ENDBRANCH  20  27
BRANCH  21  30
ATOM     30  O   UNL     1      72.395  28.624  59.804  1.00  0.00    -0.504 OA
ATOM     31  H   UNL     1      73.259  28.964  59.401  1.00  0.00     0.293 HD
ENDBRANCH  21  30
BRANCH  22  32
ATOM     32  O   UNL     1      72.753  28.109  57.141  1.00  0.00    -0.504 OA
ATOM     33  H   UNL     1      72.968  28.516  56.242  1.00  0.00     0.293 HD
ENDBRANCH  22  32
ENDBRANCH  11  12
BRANCH  10  34
ATOM     34  O   UNL     1      65.856  24.786  60.431  1.00  0.00    -0.507 OA
ATOM     35  H   UNL     1      66.763  24.735  59.985  1.00  0.00     0.293 HD
ENDBRANCH  10  34
BRANCH   9  36
ATOM     36  C   UNL     1      60.195  27.577  60.580  1.00  0.00     0.017 C 
ATOM     37  C   UNL     1      59.617  27.276  59.194  1.00  0.00     0.012 C 
ATOM     38  C   UNL     1      60.631  29.051  60.696  1.00  0.00     0.012 C 
ENDBRANCH   9  36
BRANCH   6  39
ATOM     39  C   UNL     1      63.947  23.218  61.444  1.00  0.00     0.264 C 
ATOM     40  O   UNL     1      64.527  22.862  62.505  1.00  0.00    -0.298 OA
ENDBRANCH   6  39
BRANCH   8  41
ATOM     41  O   UNL     1      59.905  25.690  62.729  1.00  0.00    -0.504 OA
ATOM     42  H   UNL     1      58.982  25.911  62.383  1.00  0.00     0.293 HD
ENDBRANCH   8  41
BRANCH   7  43
ATOM     43  O   UNL     1      61.559  23.384  62.857  1.00  0.00    -0.504 OA
ATOM     44  H   UNL     1      60.611  23.165  63.128  1.00  0.00     0.293 HD
ENDBRANCH   7  43
TORSDOF 11
ENDMDL
MODEL 8
REMARK VINA RESULT:    -4.969      9.703     13.702
REMARK INTER + INTRA:          -8.980
REMARK INTER:                  -7.411
REMARK INTRA:                  -1.569
REMARK UNBOUND:                -1.688
REMARK SMILES Cc1cc2c(C(C)C)c(O)c(O)c(C=O)c2c(O)c1-c1c(C)cc2c(C(C)C)c(O)c(O)c(C=O)c2c1O
REMARK SMILES IDX 1 1 2 2 3 3 4 4 16 5 13 6 11 7 9 8 5 9 17 10 19 11 20 12
REMARK SMILES IDX 37 13 21 14 36 15 23 16 22 17 24 18 33 19 25 20 31 21 29 22
REMARK SMILES IDX 38 23 34 25 35 26 26 27 27 28 28 29 32 30 30 32 18 34 6 36
REMARK SMILES IDX 7 37 8 38 14 39 15 40 10 41 12 43
REMARK H PARENT 38 24 32 31 30 33 18 35 10 42 12 44
REMARK Flexibility Score: inf
ROOT
ATOM      1  C   UNL     1      66.672  24.390  59.513  1.00  0.00     0.045 C 
ATOM      2  C   UNL     1      65.630  25.459  59.740  1.00  0.00    -0.039 A 
ATOM      3  C   UNL     1      64.404  25.107  60.304  1.00  0.00     0.013 A 
ATOM      4  C   UNL     1      63.394  26.062  60.556  1.00  0.00    -0.006 A 
ATOM      5  C   UNL     1      63.614  27.415  60.150  1.00  0.00     0.039 A 
ATOM      6  C   UNL     1      62.593  28.380  60.387  1.00  0.00     0.072 A 
ATOM      7  C   UNL     1      61.327  27.965  60.837  1.00  0.00     0.169 A 
ATOM      8  C   UNL     1      61.086  26.613  61.136  1.00  0.00     0.162 A 
ATOM      9  C   UNL     1      62.154  25.688  61.159  1.00  0.00     0.008 A 
ATOM     10  C   UNL     1      64.830  27.746  59.478  1.00  0.00     0.132 A 
ATOM     11  C   UNL     1      65.844  26.780  59.317  1.00  0.00     0.031 A 
ENDROOT
BRANCH  11  12
ATOM     12  C   UNL     1      67.127  27.145  58.658  1.00  0.00     0.031 A 
ATOM     13  C   UNL     1      68.182  27.700  59.413  1.00  0.00     0.132 A 
ATOM     14  C   UNL     1      67.283  26.940  57.279  1.00  0.00    -0.039 A 
ATOM     15  C   UNL     1      69.415  28.041  58.782  1.00  0.00     0.039 A 
ATOM     16  C   UNL     1      68.444  27.387  56.645  1.00  0.00     0.013 A 
ATOM     17  C   UNL     1      66.193  26.294  56.459  1.00  0.00     0.045 C 
ATOM     18  C   UNL     1      69.487  28.011  57.357  1.00  0.00    -0.006 A 
ATOM     19  C   UNL     1      70.564  28.440  59.523  1.00  0.00     0.072 A 
ATOM     20  C   UNL     1      70.610  28.585  56.682  1.00  0.00     0.008 A 
ATOM     21  C   UNL     1      71.725  28.848  58.845  1.00  0.00     0.169 A 
ATOM     22  C   UNL     1      71.759  28.908  57.448  1.00  0.00     0.162 A 
BRANCH  13  23
ATOM     23  O   UNL     1      67.994  27.952  60.777  1.00  0.00    -0.507 OA
ATOM     24  H   UNL     1      68.050  28.873  61.192  1.00  0.00     0.293 HD
ENDBRANCH  13  23
BRANCH  19  25
ATOM     25  C   UNL     1      70.645  28.297  60.996  1.00  0.00     0.264 C 
ATOM     26  O   UNL     1      70.626  29.307  61.748  1.00  0.00    -0.298 OA
ENDBRANCH  19  25
BRANCH  20  27
ATOM     27  C   UNL     1      70.596  28.963  55.188  1.00  0.00     0.017 C 
ATOM     28  C   UNL     1      70.754  30.472  54.965  1.00  0.00     0.012 C 
ATOM     29  C   UNL     1      71.546  28.128  54.306  1.00  0.00     0.012 C 
ENDBRANCH  20  27
BRANCH  21  30
ATOM     30  O   UNL     1      72.871  29.172  59.580  1.00  0.00    -0.504 OA
ATOM     31  H   UNL     1      73.115  30.122  59.830  1.00  0.00     0.293 HD
ENDBRANCH  21  30
BRANCH  22  32
ATOM     32  O   UNL     1      72.972  29.269  56.848  1.00  0.00    -0.504 OA
ATOM     33  H   UNL     1      73.697  28.614  56.592  1.00  0.00     0.293 HD
ENDBRANCH  22  32
ENDBRANCH  11  12
BRANCH  10  34
ATOM     34  O   UNL     1      65.008  29.022  58.931  1.00  0.00    -0.507 OA
ATOM     35  H   UNL     1      65.893  29.368  58.580  1.00  0.00     0.293 HD
ENDBRANCH  10  34
BRANCH   9  36
ATOM     36  C   UNL     1      61.940  24.294  61.775  1.00  0.00     0.017 C 
ATOM     37  C   UNL     1      61.122  23.401  60.837  1.00  0.00     0.012 C 
ATOM     38  C   UNL     1      61.332  24.321  63.191  1.00  0.00     0.012 C 
ENDBRANCH   9  36
BRANCH   6  39
ATOM     39  C   UNL     1      62.841  29.836  60.259  1.00  0.00     0.264 C 
ATOM     40  O   UNL     1      62.379  30.494  59.289  1.00  0.00    -0.298 OA
ENDBRANCH   6  39
BRANCH   8  41
ATOM     41  O   UNL     1      59.790  26.164  61.401  1.00  0.00    -0.504 OA
ATOM     42  H   UNL     1      59.472  25.859  62.311  1.00  0.00     0.293 HD
ENDBRANCH   8  41
BRANCH   7  43
ATOM     43  O   UNL     1      60.330  28.929  61.031  1.00  0.00    -0.504 OA
ATOM     44  H   UNL     1      60.345  29.616  61.771  1.00  0.00     0.293 HD
ENDBRANCH   7  43
TORSDOF 11
ENDMDL
MODEL 9
REMARK VINA RESULT:    -4.967      7.433      9.858
REMARK INTER + INTRA:          -8.977
REMARK INTER:                  -7.501
REMARK INTRA:                  -1.477
REMARK UNBOUND:                -1.688
REMARK SMILES Cc1cc2c(C(C)C)c(O)c(O)c(C=O)c2c(O)c1-c1c(C)cc2c(C(C)C)c(O)c(O)c(C=O)c2c1O
REMARK SMILES IDX 1 1 2 2 3 3 4 4 16 5 13 6 11 7 9 8 5 9 17 10 19 11 20 12
REMARK SMILES IDX 37 13 21 14 36 15 23 16 22 17 24 18 33 19 25 20 31 21 29 22
REMARK SMILES IDX 38 23 34 25 35 26 26 27 27 28 28 29 32 30 30 32 18 34 6 36
REMARK SMILES IDX 7 37 8 38 14 39 15 40 10 41 12 43
REMARK H PARENT 38 24 32 31 30 33 18 35 10 42 12 44
REMARK Flexibility Score: inf
ROOT
ATOM      1  C   UNL     1      57.471  31.495  57.169  1.00  0.00     0.045 C 
ATOM      2  C   UNL     1      57.330  30.760  55.858  1.00  0.00    -0.039 A 
ATOM      3  C   UNL     1      56.747  31.410  54.771  1.00  0.00     0.013 A 
ATOM      4  C   UNL     1      56.599  30.782  53.514  1.00  0.00    -0.006 A 
ATOM      5  C   UNL     1      56.994  29.415  53.381  1.00  0.00     0.039 A 
ATOM      6  C   UNL     1      56.832  28.771  52.120  1.00  0.00     0.072 A 
ATOM      7  C   UNL     1      56.126  29.415  51.088  1.00  0.00     0.169 A 
ATOM      8  C   UNL     1      55.649  30.726  51.264  1.00  0.00     0.162 A 
ATOM      9  C   UNL     1      56.024  31.473  52.403  1.00  0.00     0.008 A 
ATOM     10  C   UNL     1      57.492  28.724  54.527  1.00  0.00     0.132 A 
ATOM     11  C   UNL     1      57.697  29.410  55.742  1.00  0.00     0.031 A 
ENDROOT
BRANCH  11  12
ATOM     12  C   UNL     1      58.261  28.695  56.918  1.00  0.00     0.031 A 
ATOM     13  C   UNL     1      57.404  28.131  57.886  1.00  0.00     0.132 A 
ATOM     14  C   UNL     1      59.652  28.587  57.065  1.00  0.00    -0.039 A 
ATOM     15  C   UNL     1      57.945  27.438  59.009  1.00  0.00     0.039 A 
ATOM     16  C   UNL     1      60.178  28.015  58.224  1.00  0.00     0.013 A 
ATOM     17  C   UNL     1      60.591  29.129  56.015  1.00  0.00     0.045 C 
ATOM     18  C   UNL     1      59.351  27.506  59.245  1.00  0.00    -0.006 A 
ATOM     19  C   UNL     1      57.128  26.705  59.917  1.00  0.00     0.072 A 
ATOM     20  C   UNL     1      59.895  27.046  60.485  1.00  0.00     0.008 A 
ATOM     21  C   UNL     1      57.705  26.114  61.054  1.00  0.00     0.169 A 
ATOM     22  C   UNL     1      59.067  26.266  61.331  1.00  0.00     0.162 A 
BRANCH  13  23
ATOM     23  O   UNL     1      56.020  28.295  57.759  1.00  0.00    -0.507 OA
ATOM     24  H   UNL     1      55.345  27.917  58.412  1.00  0.00     0.293 HD
ENDBRANCH  13  23
BRANCH  19  25
ATOM     25  C   UNL     1      55.704  26.405  59.636  1.00  0.00     0.264 C 
ATOM     26  O   UNL     1      54.782  26.981  60.272  1.00  0.00    -0.298 OA
ENDBRANCH  19  25
BRANCH  20  27
ATOM     27  C   UNL     1      61.296  27.440  60.991  1.00  0.00     0.017 C 
ATOM     28  C   UNL     1      62.411  26.638  60.309  1.00  0.00     0.012 C 
ATOM     29  C   UNL     1      61.574  28.956  60.999  1.00  0.00     0.012 C 
ENDBRANCH  20  27
BRANCH  21  30
ATOM     30  O   UNL     1      56.906  25.339  61.904  1.00  0.00    -0.504 OA
ATOM     31  H   UNL     1      55.983  25.013  61.648  1.00  0.00     0.293 HD
ENDBRANCH  21  30
BRANCH  22  32
ATOM     32  O   UNL     1      59.575  25.596  62.452  1.00  0.00    -0.504 OA
ATOM     33  H   UNL     1      59.504  25.939  63.400  1.00  0.00     0.293 HD
ENDBRANCH  22  32
ENDBRANCH  11  12
BRANCH  10  34
ATOM     34  O   UNL     1      57.739  27.347  54.469  1.00  0.00    -0.507 OA
ATOM     35  H   UNL     1      58.315  26.848  55.135  1.00  0.00     0.293 HD
ENDBRANCH  10  34
BRANCH   9  36
ATOM     36  C   UNL     1      55.754  32.988  52.442  1.00  0.00     0.017 C 
ATOM     37  C   UNL     1      56.951  33.743  53.028  1.00  0.00     0.012 C 
ATOM     38  C   UNL     1      54.445  33.372  53.161  1.00  0.00     0.012 C 
ENDBRANCH   9  36
BRANCH   6  39
ATOM     39  C   UNL     1      57.464  27.464  51.816  1.00  0.00     0.264 C 
ATOM     40  O   UNL     1      56.775  26.414  51.713  1.00  0.00    -0.298 OA
ENDBRANCH   6  39
BRANCH   8  41
ATOM     41  O   UNL     1      54.790  31.301  50.324  1.00  0.00    -0.504 OA
ATOM     42  H   UNL     1      54.090  31.995  50.548  1.00  0.00     0.293 HD
ENDBRANCH   8  41
BRANCH   7  43
ATOM     43  O   UNL     1      55.953  28.749  49.870  1.00  0.00    -0.504 OA
ATOM     44  H   UNL     1      56.066  29.185  48.966  1.00  0.00     0.293 HD
ENDBRANCH   7  43
TORSDOF 11
ENDMDL
