MODEL 1
REMARK VINA RESULT:    -4.063      0.000      0.000
REMARK INTER + INTRA:          -4.450
REMARK INTER:                  -4.419
REMARK INTRA:                  -0.030
REMARK UNBOUND:                -0.030
REMARK SMILES O=C([O-])c1ccc(O)cc1
REMARK SMILES IDX 7 1 6 2 9 3 5 4 10 5 4 6 8 7 2 9 1 10 3 11
REMARK H PARENT 8 8
REMARK Flexibility Score: inf
ROOT
ATOM      1  C   UNL     1      -1.391 -14.648  -7.341  1.00  0.00     0.115 A 
ATOM      2  C   UNL     1      -0.913 -15.781  -8.007  1.00  0.00     0.047 A 
ATOM      3  C   UNL     1      -0.726 -14.182  -6.200  1.00  0.00     0.047 A 
ATOM      4  C   UNL     1       0.222 -16.447  -7.539  1.00  0.00     0.014 A 
ATOM      5  C   UNL     1       0.411 -14.845  -5.729  1.00  0.00     0.014 A 
ATOM      6  C   UNL     1       0.897 -15.987  -6.394  1.00  0.00    -0.003 A 
ENDROOT
BRANCH   1   7
ATOM      7  O   UNL     1      -2.524 -13.995  -7.820  1.00  0.00    -0.508 OA
ATOM      8  H   UNL     1      -3.275 -13.714  -7.200  1.00  0.00     0.293 HD
ENDBRANCH   1   7
BRANCH   6   9
ATOM      9  C   UNL     1       2.099 -16.693  -5.900  1.00  0.00     0.071 C 
ATOM     10  O   UNL     1       2.089 -17.942  -5.739  1.00  0.00    -0.545 OA
ATOM     11  O   UNL     1       3.260 -15.986  -5.606  1.00  0.00    -0.545 OA
ENDBRANCH   6   9
TORSDOF 2
ENDMDL
MODEL 2
REMARK VINA RESULT:    -4.056      0.053      1.533
REMARK INTER + INTRA:          -4.442
REMARK INTER:                  -4.411
REMARK INTRA:                  -0.030
REMARK UNBOUND:                -0.030
REMARK SMILES O=C([O-])c1ccc(O)cc1
REMARK SMILES IDX 7 1 6 2 9 3 5 4 10 5 4 6 8 7 2 9 1 10 3 11
REMARK H PARENT 8 8
REMARK Flexibility Score: inf
ROOT
ATOM      1  C   UNL     1      -1.411 -14.677  -7.385  1.00  0.00     0.115 A 
ATOM      2  C   UNL     1      -0.747 -14.177  -6.261  1.00  0.00     0.047 A 
ATOM      3  C   UNL     1      -0.928 -15.826  -8.023  1.00  0.00     0.047 A 
ATOM      4  C   UNL     1       0.395 -14.819  -5.774  1.00  0.00     0.014 A 
ATOM      5  C   UNL     1       0.213 -16.473  -7.538  1.00  0.00     0.014 A 
ATOM      6  C   UNL     1       0.888 -15.974  -6.407  1.00  0.00    -0.003 A 
ENDROOT
BRANCH   1   7
ATOM      7  O   UNL     1      -2.547 -14.026  -7.859  1.00  0.00    -0.508 OA
ATOM      8  H   UNL     1      -2.639 -13.762  -8.834  1.00  0.00     0.293 HD
ENDBRANCH   1   7
BRANCH   6   9
ATOM      9  C   UNL     1       2.096 -16.653  -5.890  1.00  0.00     0.071 C 
ATOM     10  O   UNL     1       2.095 -17.895  -5.683  1.00  0.00    -0.545 OA
ATOM     11  O   UNL     1       3.252 -15.927  -5.624  1.00  0.00    -0.545 OA
ENDBRANCH   6   9
TORSDOF 2
ENDMDL
MODEL 3
REMARK VINA RESULT:    -4.053     17.903     18.714
REMARK INTER + INTRA:          -4.439
REMARK INTER:                  -4.405
REMARK INTRA:                  -0.034
REMARK UNBOUND:                -0.030
REMARK SMILES O=C([O-])c1ccc(O)cc1
REMARK SMILES IDX 7 1 6 2 9 3 5 4 10 5 4 6 8 7 2 9 1 10 3 11
REMARK H PARENT 8 8
REMARK Flexibility Score: inf
ROOT
ATOM      1  C   UNL     1      14.380 -10.579 -17.088  1.00  0.00     0.115 A 
ATOM      2  C   UNL     1      14.008  -9.802 -18.189  1.00  0.00     0.047 A 
ATOM      3  C   UNL     1      14.128 -11.956 -17.093  1.00  0.00     0.047 A 
ATOM      4  C   UNL     1      13.385 -10.394 -19.291  1.00  0.00     0.014 A 
ATOM      5  C   UNL     1      13.506 -12.553 -18.195  1.00  0.00     0.014 A 
ATOM      6  C   UNL     1      13.127 -11.776 -19.306  1.00  0.00    -0.003 A 
ENDROOT
BRANCH   1   7
ATOM      7  O   UNL     1      14.999  -9.974 -15.997  1.00  0.00    -0.508 OA
ATOM      8  H   UNL     1      15.947 -10.211 -15.727  1.00  0.00     0.293 HD
ENDBRANCH   1   7
BRANCH   6   9
ATOM      9  C   UNL     1      12.469 -12.402 -20.474  1.00  0.00     0.071 C 
ATOM     10  O   UNL     1      12.562 -11.882 -21.617  1.00  0.00    -0.545 OA
ATOM     11  O   UNL     1      11.738 -13.576 -20.326  1.00  0.00    -0.545 OA
ENDBRANCH   6   9
TORSDOF 2
ENDMDL
MODEL 4
REMARK VINA RESULT:    -4.042      2.207      3.879
REMARK INTER + INTRA:          -4.427
REMARK INTER:                  -4.397
REMARK INTRA:                  -0.030
REMARK UNBOUND:                -0.030
REMARK SMILES O=C([O-])c1ccc(O)cc1
REMARK SMILES IDX 7 1 6 2 9 3 5 4 10 5 4 6 8 7 2 9 1 10 3 11
REMARK H PARENT 8 8
REMARK Flexibility Score: inf
ROOT
ATOM      1  C   UNL     1       0.160 -15.984  -7.734  1.00  0.00     0.115 A 
ATOM      2  C   UNL     1       0.890 -15.774  -6.560  1.00  0.00     0.047 A 
ATOM      3  C   UNL     1      -0.974 -15.206  -7.994  1.00  0.00     0.047 A 
ATOM      4  C   UNL     1       0.492 -14.793  -5.649  1.00  0.00     0.014 A 
ATOM      5  C   UNL     1      -1.376 -14.221  -7.086  1.00  0.00     0.014 A 
ATOM      6  C   UNL     1      -0.646 -14.005  -5.902  1.00  0.00    -0.003 A 
ENDROOT
BRANCH   1   7
ATOM      7  O   UNL     1       0.569 -16.967  -8.632  1.00  0.00    -0.508 OA
ATOM      8  H   UNL     1       1.300 -17.629  -8.396  1.00  0.00     0.293 HD
ENDBRANCH   1   7
BRANCH   6   9
ATOM      9  C   UNL     1      -1.065 -12.965  -4.936  1.00  0.00     0.071 C 
ATOM     10  O   UNL     1      -2.252 -12.921  -4.517  1.00  0.00    -0.545 OA
ATOM     11  O   UNL     1      -0.153 -12.021  -4.478  1.00  0.00    -0.545 OA
ENDBRANCH   6   9
TORSDOF 2
ENDMDL
MODEL 5
REMARK VINA RESULT:    -3.945      1.817      2.608
REMARK INTER + INTRA:          -4.321
REMARK INTER:                  -4.285
REMARK INTRA:                  -0.036
REMARK UNBOUND:                -0.030
REMARK SMILES O=C([O-])c1ccc(O)cc1
REMARK SMILES IDX 7 1 6 2 9 3 5 4 10 5 4 6 8 7 2 9 1 10 3 11
REMARK H PARENT 8 8
REMARK Flexibility Score: inf
ROOT
ATOM      1  C   UNL     1      -1.825 -15.114  -7.883  1.00  0.00     0.115 A 
ATOM      2  C   UNL     1      -2.326 -16.328  -8.365  1.00  0.00     0.047 A 
ATOM      3  C   UNL     1      -0.490 -15.030  -7.470  1.00  0.00     0.047 A 
ATOM      4  C   UNL     1      -1.501 -17.453  -8.433  1.00  0.00     0.014 A 
ATOM      5  C   UNL     1       0.340 -16.154  -7.538  1.00  0.00     0.014 A 
ATOM      6  C   UNL     1      -0.158 -17.379  -8.020  1.00  0.00    -0.003 A 
ENDROOT
BRANCH   1   7
ATOM      7  O   UNL     1      -2.661 -14.002  -7.821  1.00  0.00    -0.508 OA
ATOM      8  H   UNL     1      -2.495 -13.182  -8.395  1.00  0.00     0.293 HD
ENDBRANCH   1   7
BRANCH   6   9
ATOM      9  C   UNL     1       0.714 -18.571  -8.094  1.00  0.00     0.071 C 
ATOM     10  O   UNL     1       1.927 -18.499  -7.763  1.00  0.00    -0.545 OA
ATOM     11  O   UNL     1       0.206 -19.790  -8.531  1.00  0.00    -0.545 OA
ENDBRANCH   6   9
TORSDOF 2
ENDMDL
MODEL 6
REMARK VINA RESULT:    -3.720      1.331      4.435
REMARK INTER + INTRA:          -4.077
REMARK INTER:                  -4.042
REMARK INTRA:                  -0.035
REMARK UNBOUND:                -0.030
REMARK SMILES O=C([O-])c1ccc(O)cc1
REMARK SMILES IDX 7 1 6 2 9 3 5 4 10 5 4 6 8 7 2 9 1 10 3 11
REMARK H PARENT 8 8
REMARK Flexibility Score: inf
ROOT
ATOM      1  C   UNL     1       1.508 -17.096  -6.871  1.00  0.00     0.115 A 
ATOM      2  C   UNL     1       0.734 -17.819  -7.785  1.00  0.00     0.047 A 
ATOM      3  C   UNL     1       1.042 -15.868  -6.386  1.00  0.00     0.047 A 
ATOM      4  C   UNL     1      -0.498 -17.320  -8.214  1.00  0.00     0.014 A 
ATOM      5  C   UNL     1      -0.192 -15.366  -6.813  1.00  0.00     0.014 A 
ATOM      6  C   UNL     1      -0.975 -16.087  -7.733  1.00  0.00    -0.003 A 
ENDROOT
BRANCH   1   7
ATOM      7  O   UNL     1       2.734 -17.607  -6.453  1.00  0.00    -0.508 OA
ATOM      8  H   UNL     1       2.806 -18.224  -5.652  1.00  0.00     0.293 HD
ENDBRANCH   1   7
BRANCH   6   9
ATOM      9  C   UNL     1      -2.280 -15.561  -8.188  1.00  0.00     0.071 C 
ATOM     10  O   UNL     1      -2.584 -14.353  -8.004  1.00  0.00    -0.545 OA
ATOM     11  O   UNL     1      -3.192 -16.395  -8.827  1.00  0.00    -0.545 OA
ENDBRANCH   6   9
TORSDOF 2
ENDMDL
MODEL 7
REMARK VINA RESULT:    -3.705     18.259     18.780
REMARK INTER + INTRA:          -4.060
REMARK INTER:                  -4.027
REMARK INTRA:                  -0.033
REMARK UNBOUND:                -0.030
REMARK SMILES O=C([O-])c1ccc(O)cc1
REMARK SMILES IDX 7 1 6 2 9 3 5 4 10 5 4 6 8 7 2 9 1 10 3 11
REMARK H PARENT 8 8
REMARK Flexibility Score: inf
ROOT
ATOM      1  C   UNL     1      14.182  -9.731 -17.932  1.00  0.00     0.115 A 
ATOM      2  C   UNL     1      14.338 -10.988 -17.341  1.00  0.00     0.047 A 
ATOM      3  C   UNL     1      13.574  -9.626 -19.189  1.00  0.00     0.047 A 
ATOM      4  C   UNL     1      13.891 -12.137 -17.999  1.00  0.00     0.014 A 
ATOM      5  C   UNL     1      13.123 -10.773 -19.850  1.00  0.00     0.014 A 
ATOM      6  C   UNL     1      13.278 -12.042 -19.262  1.00  0.00    -0.003 A 
ENDROOT
BRANCH   1   7
ATOM      7  O   UNL     1      14.634  -8.595 -17.264  1.00  0.00    -0.508 OA
ATOM      8  H   UNL     1      15.403  -8.640 -16.604  1.00  0.00     0.293 HD
ENDBRANCH   1   7
BRANCH   6   9
ATOM      9  C   UNL     1      12.804 -13.258 -19.956  1.00  0.00     0.071 C 
ATOM     10  O   UNL     1      13.442 -14.340 -19.864  1.00  0.00    -0.545 OA
ATOM     11  O   UNL     1      11.644 -13.225 -20.723  1.00  0.00    -0.545 OA
ENDBRANCH   6   9
TORSDOF 2
ENDMDL
MODEL 8
REMARK VINA RESULT:    -3.690      2.003      2.868
REMARK INTER + INTRA:          -4.044
REMARK INTER:                  -4.008
REMARK INTRA:                  -0.036
REMARK UNBOUND:                -0.030
REMARK SMILES O=C([O-])c1ccc(O)cc1
REMARK SMILES IDX 7 1 6 2 9 3 5 4 10 5 4 6 8 7 2 9 1 10 3 11
REMARK H PARENT 8 8
REMARK Flexibility Score: inf
ROOT
ATOM      1  C   UNL     1      -0.908 -13.940  -6.214  1.00  0.00     0.115 A 
ATOM      2  C   UNL     1       0.245 -14.681  -5.936  1.00  0.00     0.047 A 
ATOM      3  C   UNL     1      -1.791 -14.379  -7.208  1.00  0.00     0.047 A 
ATOM      4  C   UNL     1       0.517 -15.854  -6.646  1.00  0.00     0.014 A 
ATOM      5  C   UNL     1      -1.523 -15.552  -7.920  1.00  0.00     0.014 A 
ATOM      6  C   UNL     1      -0.364 -16.302  -7.646  1.00  0.00    -0.003 A 
ENDROOT
BRANCH   1   7
ATOM      7  O   UNL     1      -1.164 -12.773  -5.499  1.00  0.00    -0.508 OA
ATOM      8  H   UNL     1      -0.927 -12.691  -4.516  1.00  0.00     0.293 HD
ENDBRANCH   1   7
BRANCH   6   9
ATOM      9  C   UNL     1      -0.075 -17.545  -8.395  1.00  0.00     0.071 C 
ATOM     10  O   UNL     1      -0.925 -18.027  -9.190  1.00  0.00    -0.545 OA
ATOM     11  O   UNL     1       1.141 -18.199  -8.232  1.00  0.00    -0.545 OA
ENDBRANCH   6   9
TORSDOF 2
ENDMDL
MODEL 9
REMARK VINA RESULT:    -3.621     17.644     18.141
REMARK INTER + INTRA:          -3.969
REMARK INTER:                  -3.934
REMARK INTRA:                  -0.036
REMARK UNBOUND:                -0.030
REMARK SMILES O=C([O-])c1ccc(O)cc1
REMARK SMILES IDX 7 1 6 2 9 3 5 4 10 5 4 6 8 7 2 9 1 10 3 11
REMARK H PARENT 8 8
REMARK Flexibility Score: inf
ROOT
ATOM      1  C   UNL     1      13.274 -10.261 -19.050  1.00  0.00     0.115 A 
ATOM      2  C   UNL     1      14.027 -10.134 -17.879  1.00  0.00     0.047 A 
ATOM      3  C   UNL     1      12.910 -11.534 -19.507  1.00  0.00     0.047 A 
ATOM      4  C   UNL     1      14.418 -11.271 -17.166  1.00  0.00     0.014 A 
ATOM      5  C   UNL     1      13.299 -12.674 -18.796  1.00  0.00     0.014 A 
ATOM      6  C   UNL     1      14.058 -12.554 -17.617  1.00  0.00    -0.003 A 
ENDROOT
BRANCH   1   7
ATOM      7  O   UNL     1      12.892  -9.119 -19.749  1.00  0.00    -0.508 OA
ATOM      8  H   UNL     1      13.376  -8.827 -20.591  1.00  0.00     0.293 HD
ENDBRANCH   1   7
BRANCH   6   9
ATOM      9  C   UNL     1      14.472 -13.756 -16.860  1.00  0.00     0.071 C 
ATOM     10  O   UNL     1      14.239 -14.908 -17.311  1.00  0.00    -0.545 OA
ATOM     11  O   UNL     1      15.125 -13.629 -15.639  1.00  0.00    -0.545 OA
ENDBRANCH   6   9
TORSDOF 2
ENDMDL
