MODEL 1
REMARK VINA RESULT:    -3.210      0.000      0.000
REMARK INTER + INTRA:          -3.705
REMARK INTER:                  -3.679
REMARK INTRA:                  -0.026
REMARK UNBOUND:                -0.026
REMARK SMILES CC(C)[C@H]([NH3+])C(=O)[O-]
REMARK SMILES IDX 4 1 5 2 6 6 7 7 8 8 2 9 1 10 3 11
REMARK H PARENT 5 3 5 4 5 5
REMARK Flexibility Score: inf
ROOT
ATOM      1  C   UNL     1      22.921  17.997  41.843  1.00  0.00     0.230 C 
ENDROOT
BRANCH   1   2
ATOM      2  N   UNL     1      23.020  16.961  40.803  1.00  0.00    -0.350 N 
ATOM      3  H   UNL     1      23.260  16.029  41.211  1.00  0.00     0.345 HD
ATOM      4  H   UNL     1      22.122  16.888  40.275  1.00  0.00     0.345 HD
ATOM      5  H   UNL     1      23.768  17.226  40.119  1.00  0.00     0.345 HD
ENDBRANCH   1   2
BRANCH   1   6
ATOM      6  C   UNL     1      24.041  19.001  41.714  1.00  0.00     0.099 C 
ATOM      7  O   UNL     1      24.393  19.436  40.585  1.00  0.00    -0.544 OA
ATOM      8  O   UNL     1      24.726  19.417  42.849  1.00  0.00    -0.544 OA
ENDBRANCH   1   6
BRANCH   1   9
ATOM      9  C   UNL     1      22.867  17.410  43.286  1.00  0.00     0.047 C 
ATOM     10  C   UNL     1      22.629  15.891  43.325  1.00  0.00     0.014 C 
ATOM     11  C   UNL     1      21.827  18.130  44.158  1.00  0.00     0.014 C 
ENDBRANCH   1   9
TORSDOF 3
ENDMDL
MODEL 2
REMARK VINA RESULT:    -3.097      2.887      3.327
REMARK INTER + INTRA:          -3.575
REMARK INTER:                  -3.511
REMARK INTRA:                  -0.064
REMARK UNBOUND:                -0.026
REMARK SMILES CC(C)[C@H]([NH3+])C(=O)[O-]
REMARK SMILES IDX 4 1 5 2 6 6 7 7 8 8 2 9 1 10 3 11
REMARK H PARENT 5 3 5 4 5 5
REMARK Flexibility Score: inf
ROOT
ATOM      1  C   UNL     1      23.304  18.025  44.261  1.00  0.00     0.230 C 
ENDROOT
BRANCH   1   2
ATOM      2  N   UNL     1      24.008  17.170  45.229  1.00  0.00    -0.350 N 
ATOM      3  H   UNL     1      25.045  17.293  45.166  1.00  0.00     0.345 HD
ATOM      4  H   UNL     1      23.691  17.381  46.201  1.00  0.00     0.345 HD
ATOM      5  H   UNL     1      23.782  16.166  45.034  1.00  0.00     0.345 HD
ENDBRANCH   1   2
BRANCH   1   6
ATOM      6  C   UNL     1      22.365  18.975  44.964  1.00  0.00     0.099 C 
ATOM      7  O   UNL     1      21.117  18.878  44.819  1.00  0.00    -0.544 OA
ATOM      8  O   UNL     1      22.882  20.001  45.745  1.00  0.00    -0.544 OA
ENDBRANCH   1   6
BRANCH   1   9
ATOM      9  C   UNL     1      22.552  17.214  43.163  1.00  0.00     0.047 C 
ATOM     10  C   UNL     1      22.711  15.691  43.304  1.00  0.00     0.014 C 
ATOM     11  C   UNL     1      22.953  17.659  41.748  1.00  0.00     0.014 C 
ENDBRANCH   1   9
TORSDOF 3
ENDMDL
MODEL 3
REMARK VINA RESULT:    -3.029     19.207     19.891
REMARK INTER + INTRA:          -3.497
REMARK INTER:                  -3.444
REMARK INTRA:                  -0.054
REMARK UNBOUND:                -0.026
REMARK SMILES CC(C)[C@H]([NH3+])C(=O)[O-]
REMARK SMILES IDX 4 1 5 2 6 6 7 7 8 8 2 9 1 10 3 11
REMARK H PARENT 5 3 5 4 5 5
REMARK Flexibility Score: inf
ROOT
ATOM      1  C   UNL     1      27.885  33.851  53.915  1.00  0.00     0.230 C 
ENDROOT
BRANCH   1   2
ATOM      2  N   UNL     1      28.355  35.125  54.483  1.00  0.00    -0.350 N 
ATOM      3  H   UNL     1      28.063  35.231  55.481  1.00  0.00     0.345 HD
ATOM      4  H   UNL     1      29.395  35.192  54.417  1.00  0.00     0.345 HD
ATOM      5  H   UNL     1      27.952  35.920  53.934  1.00  0.00     0.345 HD
ENDBRANCH   1   2
BRANCH   1   6
ATOM      6  C   UNL     1      28.788  33.394  52.795  1.00  0.00     0.099 C 
ATOM      7  O   UNL     1      28.348  33.265  51.622  1.00  0.00    -0.544 OA
ATOM      8  O   UNL     1      30.110  33.065  53.068  1.00  0.00    -0.544 OA
ENDBRANCH   1   6
BRANCH   1   9
ATOM      9  C   UNL     1      26.401  33.903  53.445  1.00  0.00     0.047 C 
ATOM     10  C   UNL     1      25.629  35.125  53.972  1.00  0.00     0.014 C 
ATOM     11  C   UNL     1      25.645  32.611  53.791  1.00  0.00     0.014 C 
ENDBRANCH   1   9
TORSDOF 3
ENDMDL
MODEL 4
REMARK VINA RESULT:    -2.986      2.760      3.386
REMARK INTER + INTRA:          -3.448
REMARK INTER:                  -3.385
REMARK INTRA:                  -0.062
REMARK UNBOUND:                -0.026
REMARK SMILES CC(C)[C@H]([NH3+])C(=O)[O-]
REMARK SMILES IDX 4 1 5 2 6 6 7 7 8 8 2 9 1 10 3 11
REMARK H PARENT 5 3 5 4 5 5
REMARK Flexibility Score: inf
ROOT
ATOM      1  C   UNL     1      22.713  17.284  44.470  1.00  0.00     0.230 C 
ENDROOT
BRANCH   1   2
ATOM      2  N   UNL     1      23.991  17.089  45.173  1.00  0.00    -0.350 N 
ATOM      3  H   UNL     1      24.786  16.983  44.502  1.00  0.00     0.345 HD
ATOM      4  H   UNL     1      24.182  17.891  45.813  1.00  0.00     0.345 HD
ATOM      5  H   UNL     1      23.936  16.223  45.759  1.00  0.00     0.345 HD
ENDBRANCH   1   2
BRANCH   1   6
ATOM      6  C   UNL     1      22.738  16.625  43.112  1.00  0.00     0.099 C 
ATOM      7  O   UNL     1      22.851  17.312  42.062  1.00  0.00    -0.544 OA
ATOM      8  O   UNL     1      22.587  15.248  43.013  1.00  0.00    -0.544 OA
ENDBRANCH   1   6
BRANCH   1   9
ATOM      9  C   UNL     1      22.305  18.784  44.351  1.00  0.00     0.047 C 
ATOM     10  C   UNL     1      23.223  19.737  45.135  1.00  0.00     0.014 C 
ATOM     11  C   UNL     1      20.840  19.011  44.754  1.00  0.00     0.014 C 
ENDBRANCH   1   9
TORSDOF 3
ENDMDL
MODEL 5
REMARK VINA RESULT:    -2.981      2.719      3.429
REMARK INTER + INTRA:          -3.442
REMARK INTER:                  -3.383
REMARK INTRA:                  -0.059
REMARK UNBOUND:                -0.026
REMARK SMILES CC(C)[C@H]([NH3+])C(=O)[O-]
REMARK SMILES IDX 4 1 5 2 6 6 7 7 8 8 2 9 1 10 3 11
REMARK H PARENT 5 3 5 4 5 5
REMARK Flexibility Score: inf
ROOT
ATOM      1  C   UNL     1      22.712  17.289  44.462  1.00  0.00     0.230 C 
ENDROOT
BRANCH   1   2
ATOM      2  N   UNL     1      24.003  17.092  45.140  1.00  0.00    -0.350 N 
ATOM      3  H   UNL     1      24.743  16.777  44.472  1.00  0.00     0.345 HD
ATOM      4  H   UNL     1      24.309  17.975  45.606  1.00  0.00     0.345 HD
ATOM      5  H   UNL     1      23.896  16.362  45.884  1.00  0.00     0.345 HD
ENDBRANCH   1   2
BRANCH   1   6
ATOM      6  C   UNL     1      22.710  16.633  43.102  1.00  0.00     0.099 C 
ATOM      7  O   UNL     1      22.569  15.386  42.986  1.00  0.00    -0.544 OA
ATOM      8  O   UNL     1      22.912  17.405  41.965  1.00  0.00    -0.544 OA
ENDBRANCH   1   6
BRANCH   1   9
ATOM      9  C   UNL     1      22.302  18.789  44.354  1.00  0.00     0.047 C 
ATOM     10  C   UNL     1      23.208  19.736  45.159  1.00  0.00     0.014 C 
ATOM     11  C   UNL     1      20.832  19.010  44.740  1.00  0.00     0.014 C 
ENDBRANCH   1   9
TORSDOF 3
ENDMDL
MODEL 6
REMARK VINA RESULT:    -2.837      2.309      3.260
REMARK INTER + INTRA:          -3.277
REMARK INTER:                  -3.258
REMARK INTRA:                  -0.019
REMARK UNBOUND:                -0.026
REMARK SMILES CC(C)[C@H]([NH3+])C(=O)[O-]
REMARK SMILES IDX 4 1 5 2 6 6 7 7 8 8 2 9 1 10 3 11
REMARK H PARENT 5 3 5 4 5 5
REMARK Flexibility Score: inf
ROOT
ATOM      1  C   UNL     1      23.029  17.862  42.007  1.00  0.00     0.230 C 
ENDROOT
BRANCH   1   2
ATOM      2  N   UNL     1      23.055  17.110  40.742  1.00  0.00    -0.350 N 
ATOM      3  H   UNL     1      23.433  16.145  40.877  1.00  0.00     0.345 HD
ATOM      4  H   UNL     1      22.096  17.053  40.333  1.00  0.00     0.345 HD
ATOM      5  H   UNL     1      23.664  17.611  40.053  1.00  0.00     0.345 HD
ENDBRANCH   1   2
BRANCH   1   6
ATOM      6  C   UNL     1      22.600  16.977  43.152  1.00  0.00     0.099 C 
ATOM      7  O   UNL     1      22.267  17.471  44.263  1.00  0.00    -0.544 OA
ATOM      8  O   UNL     1      22.615  15.596  42.998  1.00  0.00    -0.544 OA
ENDBRANCH   1   6
BRANCH   1   9
ATOM      9  C   UNL     1      22.148  19.145  41.937  1.00  0.00     0.047 C 
ATOM     10  C   UNL     1      21.635  19.465  40.523  1.00  0.00     0.014 C 
ATOM     11  C   UNL     1      22.869  20.367  42.527  1.00  0.00     0.014 C 
ENDBRANCH   1   9
TORSDOF 3
ENDMDL
MODEL 7
REMARK VINA RESULT:    -2.766     20.531     21.206
REMARK INTER + INTRA:          -3.196
REMARK INTER:                  -3.138
REMARK INTRA:                  -0.058
REMARK UNBOUND:                -0.026
REMARK SMILES CC(C)[C@H]([NH3+])C(=O)[O-]
REMARK SMILES IDX 4 1 5 2 6 6 7 7 8 8 2 9 1 10 3 11
REMARK H PARENT 5 3 5 4 5 5
REMARK Flexibility Score: inf
ROOT
ATOM      1  C   UNL     1      30.150  34.197  54.822  1.00  0.00     0.230 C 
ENDROOT
BRANCH   1   2
ATOM      2  N   UNL     1      31.222  35.001  54.214  1.00  0.00    -0.350 N 
ATOM      3  H   UNL     1      31.178  34.972  53.170  1.00  0.00     0.345 HD
ATOM      4  H   UNL     1      31.162  35.993  54.537  1.00  0.00     0.345 HD
ATOM      5  H   UNL     1      32.151  34.626  54.517  1.00  0.00     0.345 HD
ENDBRANCH   1   2
BRANCH   1   6
ATOM      6  C   UNL     1      30.718  33.161  55.762  1.00  0.00     0.099 C 
ATOM      7  O   UNL     1      30.842  31.960  55.402  1.00  0.00    -0.544 OA
ATOM      8  O   UNL     1      31.067  33.525  57.056  1.00  0.00    -0.544 OA
ENDBRANCH   1   6
BRANCH   1   9
ATOM      9  C   UNL     1      29.212  33.534  53.768  1.00  0.00     0.047 C 
ATOM     10  C   UNL     1      29.737  33.633  52.326  1.00  0.00     0.014 C 
ATOM     11  C   UNL     1      27.781  34.087  53.848  1.00  0.00     0.014 C 
ENDBRANCH   1   9
TORSDOF 3
ENDMDL
MODEL 8
REMARK VINA RESULT:    -2.696     18.100     18.833
REMARK INTER + INTRA:          -3.115
REMARK INTER:                  -3.068
REMARK INTRA:                  -0.047
REMARK UNBOUND:                -0.026
REMARK SMILES CC(C)[C@H]([NH3+])C(=O)[O-]
REMARK SMILES IDX 4 1 5 2 6 6 7 7 8 8 2 9 1 10 3 11
REMARK H PARENT 5 3 5 4 5 5
REMARK Flexibility Score: inf
ROOT
ATOM      1  C   UNL     1      25.689  33.385  52.318  1.00  0.00     0.230 C 
ENDROOT
BRANCH   1   2
ATOM      2  N   UNL     1      24.868  34.340  51.556  1.00  0.00    -0.350 N 
ATOM      3  H   UNL     1      23.856  34.078  51.578  1.00  0.00     0.345 HD
ATOM      4  H   UNL     1      24.985  35.305  51.936  1.00  0.00     0.345 HD
ATOM      5  H   UNL     1      25.185  34.352  50.559  1.00  0.00     0.345 HD
ENDBRANCH   1   2
BRANCH   1   6
ATOM      6  C   UNL     1      26.278  34.039  53.545  1.00  0.00     0.099 C 
ATOM      7  O   UNL     1      27.326  33.587  54.079  1.00  0.00    -0.544 OA
ATOM      8  O   UNL     1      25.632  35.125  54.123  1.00  0.00    -0.544 OA
ENDBRANCH   1   6
BRANCH   1   9
ATOM      9  C   UNL     1      26.803  32.716  51.458  1.00  0.00     0.047 C 
ATOM     10  C   UNL     1      26.788  33.150  49.982  1.00  0.00     0.014 C 
ATOM     11  C   UNL     1      26.760  31.184  51.559  1.00  0.00     0.014 C 
ENDBRANCH   1   9
TORSDOF 3
ENDMDL
MODEL 9
REMARK VINA RESULT:    -2.681     20.356     20.978
REMARK INTER + INTRA:          -3.098
REMARK INTER:                  -3.031
REMARK INTRA:                  -0.068
REMARK UNBOUND:                -0.026
REMARK SMILES CC(C)[C@H]([NH3+])C(=O)[O-]
REMARK SMILES IDX 4 1 5 2 6 6 7 7 8 8 2 9 1 10 3 11
REMARK H PARENT 5 3 5 4 5 5
REMARK Flexibility Score: inf
ROOT
ATOM      1  C   UNL     1      30.677  33.788  54.250  1.00  0.00     0.230 C 
ENDROOT
BRANCH   1   2
ATOM      2  N   UNL     1      31.210  35.121  54.572  1.00  0.00    -0.350 N 
ATOM      3  H   UNL     1      32.211  35.073  54.868  1.00  0.00     0.345 HD
ATOM      4  H   UNL     1      31.121  35.758  53.749  1.00  0.00     0.345 HD
ATOM      5  H   UNL     1      30.653  35.538  55.355  1.00  0.00     0.345 HD
ENDBRANCH   1   2
BRANCH   1   6
ATOM      6  C   UNL     1      29.519  33.888  53.286  1.00  0.00     0.099 C 
ATOM      7  O   UNL     1      28.354  34.137  53.698  1.00  0.00    -0.544 OA
ATOM      8  O   UNL     1      29.729  33.657  51.933  1.00  0.00    -0.544 OA
ENDBRANCH   1   6
BRANCH   1   9
ATOM      9  C   UNL     1      30.278  32.968  55.513  1.00  0.00     0.047 C 
ATOM     10  C   UNL     1      31.169  33.245  56.736  1.00  0.00     0.014 C 
ATOM     11  C   UNL     1      30.231  31.460  55.225  1.00  0.00     0.014 C 
ENDBRANCH   1   9
TORSDOF 3
ENDMDL
