MODEL 1
REMARK VINA RESULT:    -5.372      0.000      0.000
REMARK INTER + INTRA:          -6.349
REMARK INTER:                  -6.157
REMARK INTRA:                  -0.191
REMARK UNBOUND:                -0.191
REMARK SMILES O=C([O-])C=Cc1ccc(O)cc1
REMARK SMILES IDX 6 1 7 2 12 3 8 4 11 5 9 6 5 7 4 8 2 9 1 10 3 11 10 12
REMARK H PARENT 10 13
REMARK Flexibility Score: inf
ROOT
ATOM      1  C   UNL     1      -2.952   7.736  -0.462  1.00  0.00    -0.025 A 
ATOM      2  C   UNL     1      -2.995   8.241  -1.773  1.00  0.00     0.012 A 
ATOM      3  C   UNL     1      -4.096   7.826   0.346  1.00  0.00     0.012 A 
ATOM      4  C   UNL     1      -4.148   8.874  -2.248  1.00  0.00     0.047 A 
ATOM      5  C   UNL     1      -5.248   8.461  -0.130  1.00  0.00     0.047 A 
ATOM      6  C   UNL     1      -5.275   8.990  -1.427  1.00  0.00     0.115 A 
ENDROOT
BRANCH   1   7
ATOM      7  C   UNL     1      -1.766   7.015   0.043  1.00  0.00     0.010 C 
ATOM      8  C   UNL     1      -0.695   7.585   0.615  1.00  0.00     0.025 C 
BRANCH   8   9
ATOM      9  C   UNL     1      -0.592   9.002   1.014  1.00  0.00     0.064 C 
ATOM     10  O   UNL     1       0.383   9.688   0.606  1.00  0.00    -0.545 OA
ATOM     11  O   UNL     1      -1.507   9.579   1.887  1.00  0.00    -0.545 OA
ENDBRANCH   8   9
ENDBRANCH   1   7
BRANCH   6  12
ATOM     12  O   UNL     1      -6.416   9.624  -1.912  1.00  0.00    -0.508 OA
ATOM     13  H   UNL     1      -6.857  10.382  -1.404  1.00  0.00     0.293 HD
ENDBRANCH   6  12
TORSDOF 3
ENDMDL
MODEL 2
REMARK VINA RESULT:    -5.287      2.039      2.696
REMARK INTER + INTRA:          -6.251
REMARK INTER:                  -6.010
REMARK INTRA:                  -0.241
REMARK UNBOUND:                -0.191
REMARK SMILES O=C([O-])C=Cc1ccc(O)cc1
REMARK SMILES IDX 6 1 7 2 12 3 8 4 11 5 9 6 5 7 4 8 2 9 1 10 3 11 10 12
REMARK H PARENT 10 13
REMARK Flexibility Score: inf
ROOT
ATOM      1  C   UNL     1      -1.753   9.200   0.442  1.00  0.00    -0.025 A 
ATOM      2  C   UNL     1      -1.937   7.824   0.216  1.00  0.00     0.012 A 
ATOM      3  C   UNL     1      -2.293  10.123  -0.467  1.00  0.00     0.012 A 
ATOM      4  C   UNL     1      -2.605   7.381  -0.930  1.00  0.00     0.047 A 
ATOM      5  C   UNL     1      -2.960   9.678  -1.613  1.00  0.00     0.047 A 
ATOM      6  C   UNL     1      -3.114   8.305  -1.849  1.00  0.00     0.115 A 
ENDROOT
BRANCH   1   7
ATOM      7  C   UNL     1      -1.100   9.694   1.672  1.00  0.00     0.010 C 
ATOM      8  C   UNL     1       0.214   9.631   1.932  1.00  0.00     0.025 C 
BRANCH   8   9
ATOM      9  C   UNL     1       1.259   9.236   0.968  1.00  0.00     0.064 C 
ATOM     10  O   UNL     1       1.843  10.125   0.294  1.00  0.00    -0.545 OA
ATOM     11  O   UNL     1       1.566   7.900   0.736  1.00  0.00    -0.545 OA
ENDBRANCH   8   9
ENDBRANCH   1   7
BRANCH   6  12
ATOM     12  O   UNL     1      -3.775   7.849  -2.987  1.00  0.00    -0.508 OA
ATOM     13  H   UNL     1      -4.086   8.488  -3.710  1.00  0.00     0.293 HD
ENDBRANCH   6  12
TORSDOF 3
ENDMDL
MODEL 3
REMARK VINA RESULT:    -4.937      8.329      9.948
REMARK INTER + INTRA:          -5.850
REMARK INTER:                  -5.777
REMARK INTRA:                  -0.073
REMARK UNBOUND:                -0.191
REMARK SMILES O=C([O-])C=Cc1ccc(O)cc1
REMARK SMILES IDX 6 1 7 2 12 3 8 4 11 5 9 6 5 7 4 8 2 9 1 10 3 11 10 12
REMARK H PARENT 10 13
REMARK Flexibility Score: inf
ROOT
ATOM      1  C   UNL     1       1.190  -0.279   0.444  1.00  0.00    -0.025 A 
ATOM      2  C   UNL     1       0.550  -0.780   1.591  1.00  0.00     0.012 A 
ATOM      3  C   UNL     1       1.112   1.093   0.158  1.00  0.00     0.012 A 
ATOM      4  C   UNL     1      -0.201   0.071   2.408  1.00  0.00     0.047 A 
ATOM      5  C   UNL     1       0.360   1.942   0.976  1.00  0.00     0.047 A 
ATOM      6  C   UNL     1      -0.302   1.432   2.101  1.00  0.00     0.115 A 
ENDROOT
BRANCH   1   7
ATOM      7  C   UNL     1       2.034  -1.147  -0.403  1.00  0.00     0.010 C 
ATOM      8  C   UNL     1       1.799  -1.441  -1.691  1.00  0.00     0.025 C 
BRANCH   8   9
ATOM      9  C   UNL     1       0.773  -0.805  -2.540  1.00  0.00     0.064 C 
ATOM     10  O   UNL     1      -0.405  -1.248  -2.520  1.00  0.00    -0.545 OA
ATOM     11  O   UNL     1       1.093   0.227  -3.415  1.00  0.00    -0.545 OA
ENDBRANCH   8   9
ENDBRANCH   1   7
BRANCH   6  12
ATOM     12  O   UNL     1      -1.054   2.268   2.922  1.00  0.00    -0.508 OA
ATOM     13  H   UNL     1      -0.625   2.807   3.665  1.00  0.00     0.293 HD
ENDBRANCH   6  12
TORSDOF 3
ENDMDL
MODEL 4
REMARK VINA RESULT:    -4.853     11.117     12.645
REMARK INTER + INTRA:          -5.754
REMARK INTER:                  -5.607
REMARK INTRA:                  -0.147
REMARK UNBOUND:                -0.191
REMARK SMILES O=C([O-])C=Cc1ccc(O)cc1
REMARK SMILES IDX 6 1 7 2 12 3 8 4 11 5 9 6 5 7 4 8 2 9 1 10 3 11 10 12
REMARK H PARENT 10 13
REMARK Flexibility Score: inf
ROOT
ATOM      1  C   UNL     1      -4.830   0.833  -9.370  1.00  0.00    -0.025 A 
ATOM      2  C   UNL     1      -4.846  -0.573  -9.349  1.00  0.00     0.012 A 
ATOM      3  C   UNL     1      -3.610   1.508  -9.217  1.00  0.00     0.012 A 
ATOM      4  C   UNL     1      -3.666  -1.289  -9.124  1.00  0.00     0.047 A 
ATOM      5  C   UNL     1      -2.430   0.790  -8.992  1.00  0.00     0.047 A 
ATOM      6  C   UNL     1      -2.456  -0.610  -8.941  1.00  0.00     0.115 A 
ENDROOT
BRANCH   1   7
ATOM      7  C   UNL     1      -6.054   1.608  -9.660  1.00  0.00     0.010 C 
ATOM      8  C   UNL     1      -7.151   1.645  -8.890  1.00  0.00     0.025 C 
BRANCH   8   9
ATOM      9  C   UNL     1      -7.262   1.077  -7.532  1.00  0.00     0.064 C 
ATOM     10  O   UNL     1      -7.673  -0.104  -7.390  1.00  0.00    -0.545 OA
ATOM     11  O   UNL     1      -6.991   1.840  -6.402  1.00  0.00    -0.545 OA
ENDBRANCH   8   9
ENDBRANCH   1   7
BRANCH   6  12
ATOM     12  O   UNL     1      -1.288  -1.335  -8.717  1.00  0.00    -0.508 OA
ATOM     13  H   UNL     1      -0.434  -0.882  -8.413  1.00  0.00     0.293 HD
ENDBRANCH   6  12
TORSDOF 3
ENDMDL
MODEL 5
REMARK VINA RESULT:    -4.822      8.202      9.661
REMARK INTER + INTRA:          -5.719
REMARK INTER:                  -6.075
REMARK INTRA:                   0.356
REMARK UNBOUND:                -0.191
REMARK SMILES O=C([O-])C=Cc1ccc(O)cc1
REMARK SMILES IDX 6 1 7 2 12 3 8 4 11 5 9 6 5 7 4 8 2 9 1 10 3 11 10 12
REMARK H PARENT 10 13
REMARK Flexibility Score: inf
ROOT
ATOM      1  C   UNL     1       0.662  -0.664   0.177  1.00  0.00    -0.025 A 
ATOM      2  C   UNL     1       1.932  -0.240  -0.253  1.00  0.00     0.012 A 
ATOM      3  C   UNL     1      -0.320  -0.968  -0.778  1.00  0.00     0.012 A 
ATOM      4  C   UNL     1       2.195  -0.073  -1.616  1.00  0.00     0.047 A 
ATOM      5  C   UNL     1      -0.055  -0.799  -2.141  1.00  0.00     0.047 A 
ATOM      6  C   UNL     1       1.203  -0.348  -2.563  1.00  0.00     0.115 A 
ENDROOT
BRANCH   1   7
ATOM      7  C   UNL     1       0.377  -0.900   1.607  1.00  0.00     0.010 C 
ATOM      8  C   UNL     1       0.049   0.046   2.501  1.00  0.00     0.025 C 
BRANCH   8   9
ATOM      9  C   UNL     1      -0.271   1.450   2.182  1.00  0.00     0.064 C 
ATOM     10  O   UNL     1      -1.013   2.105   2.960  1.00  0.00    -0.545 OA
ATOM     11  O   UNL     1       0.170   2.046   1.005  1.00  0.00    -0.545 OA
ENDBRANCH   8   9
ENDBRANCH   1   7
BRANCH   6  12
ATOM     12  O   UNL     1       1.479  -0.175  -3.917  1.00  0.00    -0.508 OA
ATOM     13  H   UNL     1       0.895   0.408  -4.506  1.00  0.00     0.293 HD
ENDBRANCH   6  12
TORSDOF 3
ENDMDL
MODEL 6
REMARK VINA RESULT:    -4.758      2.161      4.789
REMARK INTER + INTRA:          -5.645
REMARK INTER:                  -5.821
REMARK INTRA:                   0.176
REMARK UNBOUND:                -0.191
REMARK SMILES O=C([O-])C=Cc1ccc(O)cc1
REMARK SMILES IDX 6 1 7 2 12 3 8 4 11 5 9 6 5 7 4 8 2 9 1 10 3 11 10 12
REMARK H PARENT 10 13
REMARK Flexibility Score: inf
ROOT
ATOM      1  C   UNL     1      -2.160   8.988  -0.031  1.00  0.00    -0.025 A 
ATOM      2  C   UNL     1      -2.269   7.628  -0.370  1.00  0.00     0.012 A 
ATOM      3  C   UNL     1      -1.042   9.426   0.696  1.00  0.00     0.012 A 
ATOM      4  C   UNL     1      -1.301   6.714   0.059  1.00  0.00     0.047 A 
ATOM      5  C   UNL     1      -0.076   8.510   1.125  1.00  0.00     0.047 A 
ATOM      6  C   UNL     1      -0.205   7.151   0.810  1.00  0.00     0.115 A 
ENDROOT
BRANCH   1   7
ATOM      7  C   UNL     1      -3.140   9.980  -0.518  1.00  0.00     0.010 C 
ATOM      8  C   UNL     1      -4.454   9.970  -0.250  1.00  0.00     0.025 C 
BRANCH   8   9
ATOM      9  C   UNL     1      -5.122   9.087   0.725  1.00  0.00     0.064 C 
ATOM     10  O   UNL     1      -5.262   7.865   0.455  1.00  0.00    -0.545 OA
ATOM     11  O   UNL     1      -5.662   9.585   1.906  1.00  0.00    -0.545 OA
ENDBRANCH   8   9
ENDBRANCH   1   7
BRANCH   6  12
ATOM     12  O   UNL     1       0.750   6.230   1.231  1.00  0.00    -0.508 OA
ATOM     13  H   UNL     1       1.671   6.192   0.810  1.00  0.00     0.293 HD
ENDBRANCH   6  12
TORSDOF 3
ENDMDL
MODEL 7
REMARK VINA RESULT:    -4.728      1.461      4.861
REMARK INTER + INTRA:          -5.611
REMARK INTER:                  -5.466
REMARK INTRA:                  -0.145
REMARK UNBOUND:                -0.191
REMARK SMILES O=C([O-])C=Cc1ccc(O)cc1
REMARK SMILES IDX 6 1 7 2 12 3 8 4 11 5 9 6 5 7 4 8 2 9 1 10 3 11 10 12
REMARK H PARENT 10 13
REMARK Flexibility Score: inf
ROOT
ATOM      1  C   UNL     1      -2.288   8.048   0.446  1.00  0.00    -0.025 A 
ATOM      2  C   UNL     1      -2.090   9.378   0.858  1.00  0.00     0.012 A 
ATOM      3  C   UNL     1      -1.191   7.174   0.401  1.00  0.00     0.012 A 
ATOM      4  C   UNL     1      -0.807   9.838   1.167  1.00  0.00     0.047 A 
ATOM      5  C   UNL     1       0.093   7.636   0.709  1.00  0.00     0.047 A 
ATOM      6  C   UNL     1       0.288   8.970   1.090  1.00  0.00     0.115 A 
ENDROOT
BRANCH   1   7
ATOM      7  C   UNL     1      -3.641   7.525   0.167  1.00  0.00     0.010 C 
ATOM      8  C   UNL     1      -4.468   7.979  -0.786  1.00  0.00     0.025 C 
BRANCH   8   9
ATOM      9  C   UNL     1      -4.107   8.944  -1.843  1.00  0.00     0.064 C 
ATOM     10  O   UNL     1      -4.559  10.118  -1.786  1.00  0.00    -0.545 OA
ATOM     11  O   UNL     1      -3.337   8.567  -2.938  1.00  0.00    -0.545 OA
ENDBRANCH   8   9
ENDBRANCH   1   7
BRANCH   6  12
ATOM     12  O   UNL     1       1.562   9.442   1.400  1.00  0.00    -0.508 OA
ATOM     13  H   UNL     1       2.371   8.832   1.380  1.00  0.00     0.293 HD
ENDBRANCH   6  12
TORSDOF 3
ENDMDL
MODEL 8
REMARK VINA RESULT:    -4.694      1.662      2.305
REMARK INTER + INTRA:          -5.571
REMARK INTER:                  -6.035
REMARK INTRA:                   0.463
REMARK UNBOUND:                -0.191
REMARK SMILES O=C([O-])C=Cc1ccc(O)cc1
REMARK SMILES IDX 6 1 7 2 12 3 8 4 11 5 9 6 5 7 4 8 2 9 1 10 3 11 10 12
REMARK H PARENT 10 13
REMARK Flexibility Score: inf
ROOT
ATOM      1  C   UNL     1      -1.152   7.819   0.493  1.00  0.00    -0.025 A 
ATOM      2  C   UNL     1      -2.095   7.127  -0.288  1.00  0.00     0.012 A 
ATOM      3  C   UNL     1      -1.524   9.020   1.115  1.00  0.00     0.012 A 
ATOM      4  C   UNL     1      -3.373   7.659  -0.485  1.00  0.00     0.047 A 
ATOM      5  C   UNL     1      -2.803   9.552   0.915  1.00  0.00     0.047 A 
ATOM      6  C   UNL     1      -3.729   8.874   0.112  1.00  0.00     0.115 A 
ENDROOT
BRANCH   1   7
ATOM      7  C   UNL     1       0.185   7.250   0.761  1.00  0.00     0.010 C 
ATOM      8  C   UNL     1       1.316   7.957   0.900  1.00  0.00     0.025 C 
BRANCH   8   9
ATOM      9  C   UNL     1       1.399   9.427   1.001  1.00  0.00     0.064 C 
ATOM     10  O   UNL     1       1.639  10.103  -0.033  1.00  0.00    -0.545 OA
ATOM     11  O   UNL     1       1.289  10.078   2.225  1.00  0.00    -0.545 OA
ENDBRANCH   8   9
ENDBRANCH   1   7
BRANCH   6  12
ATOM     12  O   UNL     1      -5.005   9.393  -0.095  1.00  0.00    -0.508 OA
ATOM     13  H   UNL     1      -5.417   9.432  -1.020  1.00  0.00     0.293 HD
ENDBRANCH   6  12
TORSDOF 3
ENDMDL
