MODEL 1
REMARK VINA RESULT:    -4.387      0.000      0.000
REMARK INTER + INTRA:          -5.318
REMARK INTER:                  -5.028
REMARK INTRA:                  -0.290
REMARK UNBOUND:                -0.290
REMARK SMILES O=C1C[C@@H](c2ccc(O)cc2)Oc2cc(O)cc(O)c21
REMARK SMILES IDX 3 1 4 2 12 3 13 4 14 5 15 6 17 7 18 8 20 9 2 10 1 11 5 12
REMARK SMILES IDX 6 13 11 14 7 15 10 16 8 17 9 18 19 20 16 22
REMARK H PARENT 9 19 19 21 16 23
REMARK Flexibility Score: inf
ROOT
ATOM      1  C   UNL     1     -25.346  49.290  43.770  1.00  0.00     0.131 C 
ATOM      2  C   UNL     1     -25.891  50.085  42.575  1.00  0.00     0.211 C 
ATOM      3  O   UNL     1     -26.657  51.207  43.025  1.00  0.00    -0.484 OA
ATOM      4  C   UNL     1     -26.284  51.983  44.131  1.00  0.00     0.138 A 
ATOM      5  C   UNL     1     -26.917  53.211  44.340  1.00  0.00     0.093 A 
ATOM      6  C   UNL     1     -26.556  54.013  45.426  1.00  0.00     0.123 A 
ATOM      7  C   UNL     1     -25.579  53.572  46.321  1.00  0.00     0.093 A 
ATOM      8  C   UNL     1     -24.962  52.327  46.153  1.00  0.00     0.133 A 
ATOM      9  C   UNL     1     -25.290  51.529  45.025  1.00  0.00     0.102 A 
ATOM     10  C   UNL     1     -24.649  50.229  44.710  1.00  0.00     0.174 C 
ATOM     11  O   UNL     1     -23.517  49.919  45.165  1.00  0.00    -0.294 OA
ENDROOT
BRANCH   2  12
ATOM     12  C   UNL     1     -26.734  49.205  41.687  1.00  0.00    -0.007 A 
ATOM     13  C   UNL     1     -27.140  47.934  42.128  1.00  0.00     0.011 A 
ATOM     14  C   UNL     1     -27.171  49.666  40.432  1.00  0.00     0.011 A 
ATOM     15  C   UNL     1     -27.946  47.129  41.318  1.00  0.00     0.046 A 
ATOM     16  C   UNL     1     -27.978  48.859  39.625  1.00  0.00     0.046 A 
ATOM     17  C   UNL     1     -28.366  47.589  40.063  1.00  0.00     0.115 A 
BRANCH  17  18
ATOM     18  O   UNL     1     -29.170  46.795  39.248  1.00  0.00    -0.508 OA
ATOM     19  H   UNL     1     -30.073  47.119  38.918  1.00  0.00     0.293 HD
ENDBRANCH  17  18
ENDBRANCH   2  12
BRANCH   8  20
ATOM     20  O   UNL     1     -24.064  51.917  47.142  1.00  0.00    -0.507 OA
ATOM     21  H   UNL     1     -23.735  52.512  47.888  1.00  0.00     0.293 HD
ENDBRANCH   8  20
BRANCH   6  22
ATOM     22  O   UNL     1     -27.166  55.249  45.628  1.00  0.00    -0.508 OA
ATOM     23  H   UNL     1     -27.338  55.610  46.560  1.00  0.00     0.293 HD
ENDBRANCH   6  22
TORSDOF 4
ENDMDL
MODEL 2
REMARK VINA RESULT:    -4.343      2.113      2.871
REMARK INTER + INTRA:          -5.268
REMARK INTER:                  -4.966
REMARK INTRA:                  -0.301
REMARK UNBOUND:                -0.290
REMARK SMILES O=C1C[C@@H](c2ccc(O)cc2)Oc2cc(O)cc(O)c21
REMARK SMILES IDX 3 1 4 2 12 3 13 4 14 5 15 6 17 7 18 8 20 9 2 10 1 11 5 12
REMARK SMILES IDX 6 13 11 14 7 15 10 16 8 17 9 18 19 20 16 22
REMARK H PARENT 9 19 19 21 16 23
REMARK Flexibility Score: inf
ROOT
ATOM      1  C   UNL     1     -24.946  51.817  41.533  1.00  0.00     0.131 C 
ATOM      2  C   UNL     1     -26.368  51.377  41.908  1.00  0.00     0.211 C 
ATOM      3  O   UNL     1     -26.707  51.838  43.220  1.00  0.00    -0.484 OA
ATOM      4  C   UNL     1     -26.333  53.102  43.698  1.00  0.00     0.138 A 
ATOM      5  C   UNL     1     -26.928  53.587  44.865  1.00  0.00     0.093 A 
ATOM      6  C   UNL     1     -26.586  54.850  45.357  1.00  0.00     0.123 A 
ATOM      7  C   UNL     1     -25.626  55.617  44.694  1.00  0.00     0.093 A 
ATOM      8  C   UNL     1     -24.988  55.133  43.546  1.00  0.00     0.133 A 
ATOM      9  C   UNL     1     -25.366  53.871  43.015  1.00  0.00     0.102 A 
ATOM     10  C   UNL     1     -24.809  53.292  41.767  1.00  0.00     0.174 C 
ATOM     11  O   UNL     1     -24.277  54.012  40.882  1.00  0.00    -0.294 OA
ENDROOT
BRANCH   2  12
ATOM     12  C   UNL     1     -26.500  49.877  41.837  1.00  0.00    -0.007 A 
ATOM     13  C   UNL     1     -26.177  49.083  42.950  1.00  0.00     0.011 A 
ATOM     14  C   UNL     1     -27.001  49.258  40.677  1.00  0.00     0.011 A 
ATOM     15  C   UNL     1     -26.328  47.694  42.896  1.00  0.00     0.046 A 
ATOM     16  C   UNL     1     -27.151  47.869  40.626  1.00  0.00     0.046 A 
ATOM     17  C   UNL     1     -26.814  47.083  41.732  1.00  0.00     0.115 A 
BRANCH  17  18
ATOM     18  O   UNL     1     -26.968  45.700  41.667  1.00  0.00    -0.508 OA
ATOM     19  H   UNL     1     -27.465  45.188  42.387  1.00  0.00     0.293 HD
ENDBRANCH  17  18
ENDBRANCH   2  12
BRANCH   8  20
ATOM     20  O   UNL     1     -23.972  55.919  42.995  1.00  0.00    -0.507 OA
ATOM     21  H   UNL     1     -22.995  55.823  43.229  1.00  0.00     0.293 HD
ENDBRANCH   8  20
BRANCH   6  22
ATOM     22  O   UNL     1     -27.191  55.350  46.508  1.00  0.00    -0.508 OA
ATOM     23  H   UNL     1     -28.121  55.753  46.486  1.00  0.00     0.293 HD
ENDBRANCH   6  22
TORSDOF 4
ENDMDL
MODEL 3
REMARK VINA RESULT:    -4.337      0.072      1.086
REMARK INTER + INTRA:          -5.261
REMARK INTER:                  -4.977
REMARK INTRA:                  -0.284
REMARK UNBOUND:                -0.290
REMARK SMILES O=C1C[C@@H](c2ccc(O)cc2)Oc2cc(O)cc(O)c21
REMARK SMILES IDX 3 1 4 2 12 3 13 4 14 5 15 6 17 7 18 8 20 9 2 10 1 11 5 12
REMARK SMILES IDX 6 13 11 14 7 15 10 16 8 17 9 18 19 20 16 22
REMARK H PARENT 9 19 19 21 16 23
REMARK Flexibility Score: inf
ROOT
ATOM      1  C   UNL     1     -25.333  49.335  43.800  1.00  0.00     0.131 C 
ATOM      2  C   UNL     1     -25.900  50.132  42.617  1.00  0.00     0.211 C 
ATOM      3  O   UNL     1     -26.666  51.247  43.082  1.00  0.00    -0.484 OA
ATOM      4  C   UNL     1     -26.280  52.021  44.186  1.00  0.00     0.138 A 
ATOM      5  C   UNL     1     -26.916  53.244  44.410  1.00  0.00     0.093 A 
ATOM      6  C   UNL     1     -26.543  54.044  45.493  1.00  0.00     0.123 A 
ATOM      7  C   UNL     1     -25.550  53.605  46.372  1.00  0.00     0.093 A 
ATOM      8  C   UNL     1     -24.928  52.364  46.189  1.00  0.00     0.133 A 
ATOM      9  C   UNL     1     -25.270  51.569  45.063  1.00  0.00     0.102 A 
ATOM     10  C   UNL     1     -24.627  50.273  44.732  1.00  0.00     0.174 C 
ATOM     11  O   UNL     1     -23.486  49.969  45.168  1.00  0.00    -0.294 OA
ENDROOT
BRANCH   2  12
ATOM     12  C   UNL     1     -26.752  49.250  41.738  1.00  0.00    -0.007 A 
ATOM     13  C   UNL     1     -27.151  49.692  40.465  1.00  0.00     0.011 A 
ATOM     14  C   UNL     1     -27.109  47.956  42.156  1.00  0.00     0.011 A 
ATOM     15  C   UNL     1     -27.914  48.865  39.636  1.00  0.00     0.046 A 
ATOM     16  C   UNL     1     -27.872  47.130  41.325  1.00  0.00     0.046 A 
ATOM     17  C   UNL     1     -28.279  47.581  40.065  1.00  0.00     0.115 A 
BRANCH  17  18
ATOM     18  O   UNL     1     -29.040  46.748  39.248  1.00  0.00    -0.508 OA
ATOM     19  H   UNL     1     -28.656  46.343  38.401  1.00  0.00     0.293 HD
ENDBRANCH  17  18
ENDBRANCH   2  12
BRANCH   8  20
ATOM     20  O   UNL     1     -24.013  51.954  47.162  1.00  0.00    -0.507 OA
ATOM     21  H   UNL     1     -23.347  51.208  47.032  1.00  0.00     0.293 HD
ENDBRANCH   8  20
BRANCH   6  22
ATOM     22  O   UNL     1     -27.157  55.276  45.711  1.00  0.00    -0.508 OA
ATOM     23  H   UNL     1     -28.075  55.344  46.135  1.00  0.00     0.293 HD
ENDBRANCH   6  22
TORSDOF 4
ENDMDL
MODEL 4
REMARK VINA RESULT:    -4.064      1.920      2.006
REMARK INTER + INTRA:          -4.949
REMARK INTER:                  -4.633
REMARK INTRA:                  -0.316
REMARK UNBOUND:                -0.290
REMARK SMILES O=C1C[C@@H](c2ccc(O)cc2)Oc2cc(O)cc(O)c21
REMARK SMILES IDX 3 1 4 2 12 3 13 4 14 5 15 6 17 7 18 8 20 9 2 10 1 11 5 12
REMARK SMILES IDX 6 13 11 14 7 15 10 16 8 17 9 18 19 20 16 22
REMARK H PARENT 9 19 19 21 16 23
REMARK Flexibility Score: inf
ROOT
ATOM      1  C   UNL     1     -26.004  49.522  43.314  1.00  0.00     0.131 C 
ATOM      2  C   UNL     1     -25.941  49.681  41.788  1.00  0.00     0.211 C 
ATOM      3  O   UNL     1     -26.058  51.059  41.422  1.00  0.00    -0.484 OA
ATOM      4  C   UNL     1     -25.448  52.091  42.150  1.00  0.00     0.138 A 
ATOM      5  C   UNL     1     -25.373  53.365  41.584  1.00  0.00     0.093 A 
ATOM      6  C   UNL     1     -24.758  54.409  42.281  1.00  0.00     0.123 A 
ATOM      7  C   UNL     1     -24.240  54.183  43.558  1.00  0.00     0.093 A 
ATOM      8  C   UNL     1     -24.341  52.922  44.160  1.00  0.00     0.133 A 
ATOM      9  C   UNL     1     -24.923  51.847  43.438  1.00  0.00     0.102 A 
ATOM     10  C   UNL     1     -25.017  50.457  43.948  1.00  0.00     0.174 C 
ATOM     11  O   UNL     1     -24.258  50.030  44.856  1.00  0.00    -0.294 OA
ENDROOT
BRANCH   2  12
ATOM     12  C   UNL     1     -27.026  48.874  41.121  1.00  0.00    -0.007 A 
ATOM     13  C   UNL     1     -27.574  47.753  41.766  1.00  0.00     0.011 A 
ATOM     14  C   UNL     1     -27.543  49.265  39.873  1.00  0.00     0.011 A 
ATOM     15  C   UNL     1     -28.602  47.021  41.163  1.00  0.00     0.046 A 
ATOM     16  C   UNL     1     -28.571  48.532  39.272  1.00  0.00     0.046 A 
ATOM     17  C   UNL     1     -29.101  47.408  39.912  1.00  0.00     0.115 A 
BRANCH  17  18
ATOM     18  O   UNL     1     -30.125  46.687  39.302  1.00  0.00    -0.508 OA
ATOM     19  H   UNL     1     -31.046  46.617  39.721  1.00  0.00     0.293 HD
ENDBRANCH  17  18
ENDBRANCH   2  12
BRANCH   8  20
ATOM     20  O   UNL     1     -23.884  52.800  45.474  1.00  0.00    -0.507 OA
ATOM     21  H   UNL     1     -24.482  52.600  46.263  1.00  0.00     0.293 HD
ENDBRANCH   8  20
BRANCH   6  22
ATOM     22  O   UNL     1     -24.659  55.679  41.715  1.00  0.00    -0.508 OA
ATOM     23  H   UNL     1     -24.023  55.870  40.950  1.00  0.00     0.293 HD
ENDBRANCH   6  22
TORSDOF 4
ENDMDL
MODEL 5
REMARK VINA RESULT:    -4.059      2.116      6.952
REMARK INTER + INTRA:          -4.942
REMARK INTER:                  -4.622
REMARK INTRA:                  -0.321
REMARK UNBOUND:                -0.290
REMARK SMILES O=C1C[C@@H](c2ccc(O)cc2)Oc2cc(O)cc(O)c21
REMARK SMILES IDX 3 1 4 2 12 3 13 4 14 5 15 6 17 7 18 8 20 9 2 10 1 11 5 12
REMARK SMILES IDX 6 13 11 14 7 15 10 16 8 17 9 18 19 20 16 22
REMARK H PARENT 9 19 19 21 16 23
REMARK Flexibility Score: inf
ROOT
ATOM      1  C   UNL     1     -25.473  51.473  40.853  1.00  0.00     0.131 C 
ATOM      2  C   UNL     1     -25.363  51.145  42.348  1.00  0.00     0.211 C 
ATOM      3  O   UNL     1     -26.239  50.067  42.692  1.00  0.00    -0.484 OA
ATOM      4  C   UNL     1     -26.440  48.959  41.857  1.00  0.00     0.138 A 
ATOM      5  C   UNL     1     -27.081  47.831  42.373  1.00  0.00     0.093 A 
ATOM      6  C   UNL     1     -27.283  46.706  41.568  1.00  0.00     0.123 A 
ATOM      7  C   UNL     1     -26.866  46.722  40.236  1.00  0.00     0.093 A 
ATOM      8  C   UNL     1     -26.258  47.858  39.687  1.00  0.00     0.133 A 
ATOM      9  C   UNL     1     -26.008  48.985  40.513  1.00  0.00     0.102 A 
ATOM     10  C   UNL     1     -25.308  50.212  40.058  1.00  0.00     0.174 C 
ATOM     11  O   UNL     1     -24.541  50.206  39.060  1.00  0.00    -0.294 OA
ENDROOT
BRANCH   2  12
ATOM     12  C   UNL     1     -25.679  52.358  43.186  1.00  0.00    -0.007 A 
ATOM     13  C   UNL     1     -25.028  53.578  42.942  1.00  0.00     0.011 A 
ATOM     14  C   UNL     1     -26.669  52.298  44.184  1.00  0.00     0.011 A 
ATOM     15  C   UNL     1     -25.342  54.712  43.698  1.00  0.00     0.046 A 
ATOM     16  C   UNL     1     -26.982  53.433  44.938  1.00  0.00     0.046 A 
ATOM     17  C   UNL     1     -26.319  54.641  44.700  1.00  0.00     0.115 A 
BRANCH  17  18
ATOM     18  O   UNL     1     -26.641  55.764  45.459  1.00  0.00    -0.508 OA
ATOM     19  H   UNL     1     -26.344  55.853  46.424  1.00  0.00     0.293 HD
ENDBRANCH  17  18
ENDBRANCH   2  12
BRANCH   8  20
ATOM     20  O   UNL     1     -25.955  47.829  38.323  1.00  0.00    -0.507 OA
ATOM     21  H   UNL     1     -25.395  47.113  37.885  1.00  0.00     0.293 HD
ENDBRANCH   8  20
BRANCH   6  22
ATOM     22  O   UNL     1     -27.902  45.568  42.081  1.00  0.00    -0.508 OA
ATOM     23  H   UNL     1     -28.354  45.573  42.988  1.00  0.00     0.293 HD
ENDBRANCH   6  22
TORSDOF 4
ENDMDL
MODEL 6
REMARK VINA RESULT:    -4.004      2.002      6.685
REMARK INTER + INTRA:          -4.879
REMARK INTER:                  -4.571
REMARK INTRA:                  -0.308
REMARK UNBOUND:                -0.290
REMARK SMILES O=C1C[C@@H](c2ccc(O)cc2)Oc2cc(O)cc(O)c21
REMARK SMILES IDX 3 1 4 2 12 3 13 4 14 5 15 6 17 7 18 8 20 9 2 10 1 11 5 12
REMARK SMILES IDX 6 13 11 14 7 15 10 16 8 17 9 18 19 20 16 22
REMARK H PARENT 9 19 19 21 16 23
REMARK Flexibility Score: inf
ROOT
ATOM      1  C   UNL     1     -25.508  50.920  44.828  1.00  0.00     0.131 C 
ATOM      2  C   UNL     1     -26.422  51.909  44.091  1.00  0.00     0.211 C 
ATOM      3  O   UNL     1     -26.269  51.776  42.674  1.00  0.00    -0.484 OA
ATOM      4  C   UNL     1     -26.111  50.534  42.044  1.00  0.00     0.138 A 
ATOM      5  C   UNL     1     -26.246  50.458  40.656  1.00  0.00     0.093 A 
ATOM      6  C   UNL     1     -26.109  49.231  40.001  1.00  0.00     0.123 A 
ATOM      7  C   UNL     1     -25.808  48.081  40.735  1.00  0.00     0.093 A 
ATOM      8  C   UNL     1     -25.629  48.143  42.123  1.00  0.00     0.133 A 
ATOM      9  C   UNL     1     -25.814  49.378  42.798  1.00  0.00     0.102 A 
ATOM     10  C   UNL     1     -25.720  49.544  44.270  1.00  0.00     0.174 C 
ATOM     11  O   UNL     1     -25.867  48.574  45.058  1.00  0.00    -0.294 OA
ENDROOT
BRANCH   2  12
ATOM     12  C   UNL     1     -26.127  53.326  44.513  1.00  0.00    -0.007 A 
ATOM     13  C   UNL     1     -25.423  54.189  43.656  1.00  0.00     0.011 A 
ATOM     14  C   UNL     1     -26.600  53.819  45.742  1.00  0.00     0.011 A 
ATOM     15  C   UNL     1     -25.175  55.513  44.032  1.00  0.00     0.046 A 
ATOM     16  C   UNL     1     -26.351  55.143  46.116  1.00  0.00     0.046 A 
ATOM     17  C   UNL     1     -25.637  55.993  45.265  1.00  0.00     0.115 A 
BRANCH  17  18
ATOM     18  O   UNL     1     -25.396  57.310  45.650  1.00  0.00    -0.508 OA
ATOM     19  H   UNL     1     -25.084  57.538  46.587  1.00  0.00     0.293 HD
ENDBRANCH  17  18
ENDBRANCH   2  12
BRANCH   8  20
ATOM     20  O   UNL     1     -25.238  46.969  42.772  1.00  0.00    -0.507 OA
ATOM     21  H   UNL     1     -24.453  46.402  42.488  1.00  0.00     0.293 HD
ENDBRANCH   8  20
BRANCH   6  22
ATOM     22  O   UNL     1     -26.263  49.142  38.619  1.00  0.00    -0.508 OA
ATOM     23  H   UNL     1     -27.144  49.363  38.169  1.00  0.00     0.293 HD
ENDBRANCH   6  22
TORSDOF 4
ENDMDL
MODEL 7
REMARK VINA RESULT:    -3.998      2.124      6.981
REMARK INTER + INTRA:          -4.873
REMARK INTER:                  -4.559
REMARK INTRA:                  -0.314
REMARK UNBOUND:                -0.290
REMARK SMILES O=C1C[C@@H](c2ccc(O)cc2)Oc2cc(O)cc(O)c21
REMARK SMILES IDX 3 1 4 2 12 3 13 4 14 5 15 6 17 7 18 8 20 9 2 10 1 11 5 12
REMARK SMILES IDX 6 13 11 14 7 15 10 16 8 17 9 18 19 20 16 22
REMARK H PARENT 9 19 19 21 16 23
REMARK Flexibility Score: inf
ROOT
ATOM      1  C   UNL     1     -25.054  51.792  40.734  1.00  0.00     0.131 C 
ATOM      2  C   UNL     1     -25.354  51.320  42.164  1.00  0.00     0.211 C 
ATOM      3  O   UNL     1     -26.408  50.352  42.163  1.00  0.00    -0.484 OA
ATOM      4  C   UNL     1     -26.526  49.363  41.176  1.00  0.00     0.138 A 
ATOM      5  C   UNL     1     -27.402  48.296  41.389  1.00  0.00     0.093 A 
ATOM      6  C   UNL     1     -27.530  47.288  40.430  1.00  0.00     0.123 A 
ATOM      7  C   UNL     1     -26.799  47.362  39.242  1.00  0.00     0.093 A 
ATOM      8  C   UNL     1     -25.945  48.443  38.991  1.00  0.00     0.133 A 
ATOM      9  C   UNL     1     -25.776  49.446  39.983  1.00  0.00     0.102 A 
ATOM     10  C   UNL     1     -24.848  50.596  39.854  1.00  0.00     0.174 C 
ATOM     11  O   UNL     1     -23.864  50.570  39.068  1.00  0.00    -0.294 OA
ENDROOT
BRANCH   2  12
ATOM     12  C   UNL     1     -25.723  52.486  43.045  1.00  0.00    -0.007 A 
ATOM     13  C   UNL     1     -26.663  52.325  44.077  1.00  0.00     0.011 A 
ATOM     14  C   UNL     1     -25.092  53.732  42.884  1.00  0.00     0.011 A 
ATOM     15  C   UNL     1     -26.984  53.397  44.916  1.00  0.00     0.046 A 
ATOM     16  C   UNL     1     -25.414  54.803  43.724  1.00  0.00     0.046 A 
ATOM     17  C   UNL     1     -26.361  54.640  44.740  1.00  0.00     0.115 A 
BRANCH  17  18
ATOM     18  O   UNL     1     -26.673  55.715  45.569  1.00  0.00    -0.508 OA
ATOM     19  H   UNL     1     -26.587  55.648  46.577  1.00  0.00     0.293 HD
ENDBRANCH  17  18
ENDBRANCH   2  12
BRANCH   8  20
ATOM     20  O   UNL     1     -25.322  48.493  37.742  1.00  0.00    -0.507 OA
ATOM     21  H   UNL     1     -24.382  48.170  37.567  1.00  0.00     0.293 HD
ENDBRANCH   8  20
BRANCH   6  22
ATOM     22  O   UNL     1     -28.385  46.209  40.644  1.00  0.00    -0.508 OA
ATOM     23  H   UNL     1     -29.181  46.278  41.267  1.00  0.00     0.293 HD
ENDBRANCH   6  22
TORSDOF 4
ENDMDL
MODEL 8
REMARK VINA RESULT:    -3.771      2.432      3.596
REMARK INTER + INTRA:          -4.612
REMARK INTER:                  -4.301
REMARK INTRA:                  -0.311
REMARK UNBOUND:                -0.290
REMARK SMILES O=C1C[C@@H](c2ccc(O)cc2)Oc2cc(O)cc(O)c21
REMARK SMILES IDX 3 1 4 2 12 3 13 4 14 5 15 6 17 7 18 8 20 9 2 10 1 11 5 12
REMARK SMILES IDX 6 13 11 14 7 15 10 16 8 17 9 18 19 20 16 22
REMARK H PARENT 9 19 19 21 16 23
REMARK Flexibility Score: inf
ROOT
ATOM      1  C   UNL     1     -24.747  53.625  42.235  1.00  0.00     0.131 C 
ATOM      2  C   UNL     1     -26.055  52.919  42.617  1.00  0.00     0.211 C 
ATOM      3  O   UNL     1     -26.285  53.013  44.026  1.00  0.00    -0.484 OA
ATOM      4  C   UNL     1     -26.000  54.171  44.764  1.00  0.00     0.138 A 
ATOM      5  C   UNL     1     -26.502  54.287  46.062  1.00  0.00     0.093 A 
ATOM      6  C   UNL     1     -26.247  55.436  46.815  1.00  0.00     0.123 A 
ATOM      7  C   UNL     1     -25.465  56.460  46.277  1.00  0.00     0.093 A 
ATOM      8  C   UNL     1     -24.918  56.347  44.993  1.00  0.00     0.133 A 
ATOM      9  C   UNL     1     -25.213  55.203  44.206  1.00  0.00     0.102 A 
ATOM     10  C   UNL     1     -24.748  55.010  42.810  1.00  0.00     0.174 C 
ATOM     11  O   UNL     1     -24.409  55.980  42.084  1.00  0.00    -0.294 OA
ENDROOT
BRANCH   2  12
ATOM     12  C   UNL     1     -26.026  51.472  42.193  1.00  0.00    -0.007 A 
ATOM     13  C   UNL     1     -26.179  50.451  43.145  1.00  0.00     0.011 A 
ATOM     14  C   UNL     1     -25.904  51.128  40.834  1.00  0.00     0.011 A 
ATOM     15  C   UNL     1     -26.183  49.110  42.751  1.00  0.00     0.046 A 
ATOM     16  C   UNL     1     -25.909  49.786  40.442  1.00  0.00     0.046 A 
ATOM     17  C   UNL     1     -26.046  48.774  41.397  1.00  0.00     0.115 A 
BRANCH  17  18
ATOM     18  O   UNL     1     -26.049  47.441  40.992  1.00  0.00    -0.508 OA
ATOM     19  H   UNL     1     -25.819  47.176  40.041  1.00  0.00     0.293 HD
ENDBRANCH  17  18
ENDBRANCH   2  12
BRANCH   8  20
ATOM     20  O   UNL     1     -24.070  57.370  44.564  1.00  0.00    -0.507 OA
ATOM     21  H   UNL     1     -23.299  57.234  43.927  1.00  0.00     0.293 HD
ENDBRANCH   8  20
BRANCH   6  22
ATOM     22  O   UNL     1     -26.763  55.570  48.103  1.00  0.00    -0.508 OA
ATOM     23  H   UNL     1     -26.329  56.177  48.788  1.00  0.00     0.293 HD
ENDBRANCH   6  22
TORSDOF 4
ENDMDL
MODEL 9
REMARK VINA RESULT:    -3.709      2.108      6.996
REMARK INTER + INTRA:          -4.541
REMARK INTER:                  -4.248
REMARK INTRA:                  -0.293
REMARK UNBOUND:                -0.290
REMARK SMILES O=C1C[C@@H](c2ccc(O)cc2)Oc2cc(O)cc(O)c21
REMARK SMILES IDX 3 1 4 2 12 3 13 4 14 5 15 6 17 7 18 8 20 9 2 10 1 11 5 12
REMARK SMILES IDX 6 13 11 14 7 15 10 16 8 17 9 18 19 20 16 22
REMARK H PARENT 9 19 19 21 16 23
REMARK Flexibility Score: inf
ROOT
ATOM      1  C   UNL     1     -25.135  52.925  42.093  1.00  0.00     0.131 C 
ATOM      2  C   UNL     1     -25.002  52.311  43.493  1.00  0.00     0.211 C 
ATOM      3  O   UNL     1     -25.785  51.118  43.596  1.00  0.00    -0.484 OA
ATOM      4  C   UNL     1     -25.890  50.190  42.550  1.00  0.00     0.138 A 
ATOM      5  C   UNL     1     -26.435  48.931  42.815  1.00  0.00     0.093 A 
ATOM      6  C   UNL     1     -26.539  47.980  41.796  1.00  0.00     0.123 A 
ATOM      7  C   UNL     1     -26.121  48.300  40.503  1.00  0.00     0.093 A 
ATOM      8  C   UNL     1     -25.608  49.569  40.207  1.00  0.00     0.133 A 
ATOM      9  C   UNL     1     -25.457  50.522  41.248  1.00  0.00     0.102 A 
ATOM     10  C   UNL     1     -24.862  51.869  41.064  1.00  0.00     0.174 C 
ATOM     11  O   UNL     1     -24.094  52.128  40.101  1.00  0.00    -0.294 OA
ENDROOT
BRANCH   2  12
ATOM     12  C   UNL     1     -25.422  53.299  44.552  1.00  0.00    -0.007 A 
ATOM     13  C   UNL     1     -26.031  54.511  44.189  1.00  0.00     0.011 A 
ATOM     14  C   UNL     1     -25.262  52.995  45.917  1.00  0.00     0.011 A 
ATOM     15  C   UNL     1     -26.450  55.415  45.170  1.00  0.00     0.046 A 
ATOM     16  C   UNL     1     -25.682  53.900  46.896  1.00  0.00     0.046 A 
ATOM     17  C   UNL     1     -26.274  55.112  46.527  1.00  0.00     0.115 A 
BRANCH  17  18
ATOM     18  O   UNL     1     -26.687  56.005  47.514  1.00  0.00    -0.508 OA
ATOM     19  H   UNL     1     -27.250  56.818  47.290  1.00  0.00     0.293 HD
ENDBRANCH  17  18
ENDBRANCH   2  12
BRANCH   8  20
ATOM     20  O   UNL     1     -25.300  49.842  38.872  1.00  0.00    -0.507 OA
ATOM     21  H   UNL     1     -24.369  49.796  38.487  1.00  0.00     0.293 HD
ENDBRANCH   8  20
BRANCH   6  22
ATOM     22  O   UNL     1     -27.062  46.716  42.057  1.00  0.00    -0.508 OA
ATOM     23  H   UNL     1     -26.841  46.216  42.910  1.00  0.00     0.293 HD
ENDBRANCH   6  22
TORSDOF 4
ENDMDL
