MODEL 1
REMARK VINA RESULT:    -3.113      0.000      0.000
REMARK INTER + INTRA:          -4.090
REMARK INTER:                  -3.840
REMARK INTRA:                  -0.250
REMARK UNBOUND:                -0.250
REMARK SMILES C=CC[C@H](C)C(=O)CC
REMARK SMILES IDX 4 1 5 2 6 3 7 4 8 5 9 6 3 7 2 8 1 9
REMARK H PARENT
REMARK Flexibility Score: inf
ROOT
ATOM      1  C   UNL     1      -3.524  -8.382   1.376  1.00  0.00     0.057 C 
ATOM      2  C   UNL     1      -4.861  -8.277   2.124  1.00  0.00     0.016 C 
ENDROOT
BRANCH   1   3
ATOM      3  C   UNL     1      -2.899  -7.009   1.245  1.00  0.00     0.135 C 
ATOM      4  O   UNL     1      -1.692  -6.876   1.389  1.00  0.00    -0.299 OA
BRANCH   3   5
ATOM      5  C   UNL     1      -3.738  -5.797   0.932  1.00  0.00     0.072 C 
ATOM      6  C   UNL     1      -2.854  -4.603   0.589  1.00  0.00     0.012 C 
ENDBRANCH   3   5
ENDBRANCH   1   3
BRANCH   1   7
ATOM      7  C   UNL     1      -3.699  -9.014  -0.019  1.00  0.00     0.038 C 
BRANCH   7   8
ATOM      8  C   UNL     1      -2.920 -10.297  -0.148  1.00  0.00    -0.034 C 
ATOM      9  C   UNL     1      -1.621 -10.368   0.157  1.00  0.00     0.004 C 
ENDBRANCH   7   8
ENDBRANCH   1   7
TORSDOF 4
ENDMDL
MODEL 2
REMARK VINA RESULT:    -3.096     16.126     16.951
REMARK INTER + INTRA:          -4.070
REMARK INTER:                  -3.581
REMARK INTRA:                  -0.489
REMARK UNBOUND:                -0.250
REMARK SMILES C=CC[C@H](C)C(=O)CC
REMARK SMILES IDX 4 1 5 2 6 3 7 4 8 5 9 6 3 7 2 8 1 9
REMARK H PARENT
REMARK Flexibility Score: inf
ROOT
ATOM      1  C   UNL     1      -2.500  -5.452 -16.192  1.00  0.00     0.057 C 
ATOM      2  C   UNL     1      -1.661  -5.992 -17.358  1.00  0.00     0.016 C 
ENDROOT
BRANCH   1   3
ATOM      3  C   UNL     1      -2.883  -6.586 -15.265  1.00  0.00     0.135 C 
ATOM      4  O   UNL     1      -3.350  -7.617 -15.728  1.00  0.00    -0.299 OA
BRANCH   3   5
ATOM      5  C   UNL     1      -2.693  -6.472 -13.774  1.00  0.00     0.072 C 
ATOM      6  C   UNL     1      -1.412  -5.713 -13.450  1.00  0.00     0.012 C 
ENDBRANCH   3   5
ENDBRANCH   1   3
BRANCH   1   7
ATOM      7  C   UNL     1      -3.768  -4.728 -16.688  1.00  0.00     0.038 C 
BRANCH   7   8
ATOM      8  C   UNL     1      -4.033  -3.472 -15.902  1.00  0.00    -0.034 C 
ATOM      9  C   UNL     1      -3.082  -2.879 -15.175  1.00  0.00     0.004 C 
ENDBRANCH   7   8
ENDBRANCH   1   7
TORSDOF 4
ENDMDL
MODEL 3
REMARK VINA RESULT:    -3.091     16.166     17.042
REMARK INTER + INTRA:          -4.063
REMARK INTER:                  -3.718
REMARK INTRA:                  -0.345
REMARK UNBOUND:                -0.250
REMARK SMILES C=CC[C@H](C)C(=O)CC
REMARK SMILES IDX 4 1 5 2 6 3 7 4 8 5 9 6 3 7 2 8 1 9
REMARK H PARENT
REMARK Flexibility Score: inf
ROOT
ATOM      1  C   UNL     1      -2.623  -5.607 -14.601  1.00  0.00     0.057 C 
ATOM      2  C   UNL     1      -1.626  -5.823 -13.454  1.00  0.00     0.016 C 
ENDROOT
BRANCH   1   3
ATOM      3  C   UNL     1      -2.342  -6.589 -15.719  1.00  0.00     0.135 C 
ATOM      4  O   UNL     1      -1.498  -6.323 -16.562  1.00  0.00    -0.299 OA
BRANCH   3   5
ATOM      5  C   UNL     1      -3.082  -7.899 -15.810  1.00  0.00     0.072 C 
ATOM      6  C   UNL     1      -4.105  -7.864 -16.939  1.00  0.00     0.012 C 
ENDBRANCH   3   5
ENDBRANCH   1   3
BRANCH   1   7
ATOM      7  C   UNL     1      -2.567  -4.165 -15.143  1.00  0.00     0.038 C 
BRANCH   7   8
ATOM      8  C   UNL     1      -3.931  -3.671 -15.548  1.00  0.00    -0.034 C 
ATOM      9  C   UNL     1      -4.349  -3.712 -16.816  1.00  0.00     0.004 C 
ENDBRANCH   7   8
ENDBRANCH   1   7
TORSDOF 4
ENDMDL
MODEL 4
REMARK VINA RESULT:    -3.077      1.547      2.148
REMARK INTER + INTRA:          -4.047
REMARK INTER:                  -3.851
REMARK INTRA:                  -0.196
REMARK UNBOUND:                -0.250
REMARK SMILES C=CC[C@H](C)C(=O)CC
REMARK SMILES IDX 4 1 5 2 6 3 7 4 8 5 9 6 3 7 2 8 1 9
REMARK H PARENT
REMARK Flexibility Score: inf
ROOT
ATOM      1  C   UNL     1      -3.163  -7.302   0.997  1.00  0.00     0.057 C 
ATOM      2  C   UNL     1      -1.803  -7.288   1.710  1.00  0.00     0.016 C 
ENDROOT
BRANCH   1   3
ATOM      3  C   UNL     1      -3.863  -5.975   1.197  1.00  0.00     0.135 C 
ATOM      4  O   UNL     1      -4.694  -5.854   2.087  1.00  0.00    -0.299 OA
BRANCH   3   5
ATOM      5  C   UNL     1      -3.549  -4.788   0.323  1.00  0.00     0.072 C 
ATOM      6  C   UNL     1      -4.800  -3.952   0.077  1.00  0.00     0.012 C 
ENDBRANCH   3   5
ENDBRANCH   1   3
BRANCH   1   7
ATOM      7  C   UNL     1      -4.060  -8.450   1.501  1.00  0.00     0.038 C 
BRANCH   7   8
ATOM      8  C   UNL     1      -3.964  -9.661   0.612  1.00  0.00    -0.034 C 
ATOM      9  C   UNL     1      -3.835  -9.556  -0.714  1.00  0.00     0.004 C 
ENDBRANCH   7   8
ENDBRANCH   1   7
TORSDOF 4
ENDMDL
MODEL 5
REMARK VINA RESULT:    -3.026     16.388     17.029
REMARK INTER + INTRA:          -3.983
REMARK INTER:                  -3.562
REMARK INTRA:                  -0.421
REMARK UNBOUND:                -0.250
REMARK SMILES C=CC[C@H](C)C(=O)CC
REMARK SMILES IDX 4 1 5 2 6 3 7 4 8 5 9 6 3 7 2 8 1 9
REMARK H PARENT
REMARK Flexibility Score: inf
ROOT
ATOM      1  C   UNL     1      -3.372  -7.268 -16.205  1.00  0.00     0.057 C 
ATOM      2  C   UNL     1      -3.422  -8.418 -17.221  1.00  0.00     0.016 C 
ENDROOT
BRANCH   1   3
ATOM      3  C   UNL     1      -2.982  -5.982 -16.902  1.00  0.00     0.135 C 
ATOM      4  O   UNL     1      -1.848  -5.848 -17.339  1.00  0.00    -0.299 OA
BRANCH   3   5
ATOM      5  C   UNL     1      -3.972  -4.859 -17.076  1.00  0.00     0.072 C 
ATOM      6  C   UNL     1      -3.823  -3.830 -15.961  1.00  0.00     0.012 C 
ENDBRANCH   3   5
ENDBRANCH   1   3
BRANCH   1   7
ATOM      7  C   UNL     1      -2.386  -7.563 -15.057  1.00  0.00     0.038 C 
BRANCH   7   8
ATOM      8  C   UNL     1      -2.563  -6.600 -13.912  1.00  0.00    -0.034 C 
ATOM      9  C   UNL     1      -1.570  -5.812 -13.491  1.00  0.00     0.004 C 
ENDBRANCH   7   8
ENDBRANCH   1   7
TORSDOF 4
ENDMDL
MODEL 6
REMARK VINA RESULT:    -3.009     16.079     16.616
REMARK INTER + INTRA:          -3.963
REMARK INTER:                  -3.454
REMARK INTRA:                  -0.509
REMARK UNBOUND:                -0.250
REMARK SMILES C=CC[C@H](C)C(=O)CC
REMARK SMILES IDX 4 1 5 2 6 3 7 4 8 5 9 6 3 7 2 8 1 9
REMARK H PARENT
REMARK Flexibility Score: inf
ROOT
ATOM      1  C   UNL     1      -1.502  -6.114 -14.738  1.00  0.00     0.057 C 
ATOM      2  C   UNL     1      -2.498  -6.359 -13.595  1.00  0.00     0.016 C 
ENDROOT
BRANCH   1   3
ATOM      3  C   UNL     1      -1.817  -4.801 -15.422  1.00  0.00     0.135 C 
ATOM      4  O   UNL     1      -0.952  -4.234 -16.076  1.00  0.00    -0.299 OA
BRANCH   3   5
ATOM      5  C   UNL     1      -3.186  -4.178 -15.321  1.00  0.00     0.072 C 
ATOM      6  C   UNL     1      -3.914  -4.254 -16.659  1.00  0.00     0.012 C 
ENDBRANCH   3   5
ENDBRANCH   1   3
BRANCH   1   7
ATOM      7  C   UNL     1      -1.522  -7.261 -15.768  1.00  0.00     0.038 C 
BRANCH   7   8
ATOM      8  C   UNL     1      -2.810  -8.040 -15.706  1.00  0.00    -0.034 C 
ATOM      9  C   UNL     1      -3.683  -8.044 -16.717  1.00  0.00     0.004 C 
ENDBRANCH   7   8
ENDBRANCH   1   7
TORSDOF 4
ENDMDL
MODEL 7
REMARK VINA RESULT:    -2.984      1.008      3.918
REMARK INTER + INTRA:          -3.932
REMARK INTER:                  -3.750
REMARK INTRA:                  -0.183
REMARK UNBOUND:                -0.250
REMARK SMILES C=CC[C@H](C)C(=O)CC
REMARK SMILES IDX 4 1 5 2 6 3 7 4 8 5 9 6 3 7 2 8 1 9
REMARK H PARENT
REMARK Flexibility Score: inf
ROOT
ATOM      1  C   UNL     1      -3.589  -7.305   0.923  1.00  0.00     0.057 C 
ATOM      2  C   UNL     1      -4.516  -7.586   2.115  1.00  0.00     0.016 C 
ENDROOT
BRANCH   1   3
ATOM      3  C   UNL     1      -2.467  -8.320   0.892  1.00  0.00     0.135 C 
ATOM      4  O   UNL     1      -1.378  -8.037   1.371  1.00  0.00    -0.299 OA
BRANCH   3   5
ATOM      5  C   UNL     1      -2.668  -9.685   0.285  1.00  0.00     0.072 C 
ATOM      6  C   UNL     1      -3.761  -9.647  -0.779  1.00  0.00     0.012 C 
ENDBRANCH   3   5
ENDBRANCH   1   3
BRANCH   1   7
ATOM      7  C   UNL     1      -3.005  -5.879   0.979  1.00  0.00     0.038 C 
BRANCH   7   8
ATOM      8  C   UNL     1      -3.837  -4.907   0.185  1.00  0.00    -0.034 C 
ATOM      9  C   UNL     1      -3.325  -3.775  -0.306  1.00  0.00     0.004 C 
ENDBRANCH   7   8
ENDBRANCH   1   7
TORSDOF 4
ENDMDL
MODEL 8
REMARK VINA RESULT:    -2.967     16.368     16.996
REMARK INTER + INTRA:          -3.911
REMARK INTER:                  -3.397
REMARK INTRA:                  -0.514
REMARK UNBOUND:                -0.250
REMARK SMILES C=CC[C@H](C)C(=O)CC
REMARK SMILES IDX 4 1 5 2 6 3 7 4 8 5 9 6 3 7 2 8 1 9
REMARK H PARENT
REMARK Flexibility Score: inf
ROOT
ATOM      1  C   UNL     1      -3.396  -4.769 -15.770  1.00  0.00     0.057 C 
ATOM      2  C   UNL     1      -4.048  -3.393 -15.568  1.00  0.00     0.016 C 
ENDROOT
BRANCH   1   3
ATOM      3  C   UNL     1      -1.935  -4.708 -15.379  1.00  0.00     0.135 C 
ATOM      4  O   UNL     1      -1.176  -3.959 -15.979  1.00  0.00    -0.299 OA
BRANCH   3   5
ATOM      5  C   UNL     1      -1.393  -5.552 -14.254  1.00  0.00     0.072 C 
ATOM      6  C   UNL     1      -2.505  -6.376 -13.614  1.00  0.00     0.012 C 
ENDBRANCH   3   5
ENDBRANCH   1   3
BRANCH   1   7
ATOM      7  C   UNL     1      -3.530  -5.255 -17.227  1.00  0.00     0.038 C 
BRANCH   7   8
ATOM      8  C   UNL     1      -3.146  -6.705 -17.365  1.00  0.00    -0.034 C 
ATOM      9  C   UNL     1      -3.886  -7.685 -16.841  1.00  0.00     0.004 C 
ENDBRANCH   7   8
ENDBRANCH   1   7
TORSDOF 4
ENDMDL
MODEL 9
REMARK VINA RESULT:    -2.913     16.582     17.343
REMARK INTER + INTRA:          -3.844
REMARK INTER:                  -3.365
REMARK INTRA:                  -0.479
REMARK UNBOUND:                -0.250
REMARK SMILES C=CC[C@H](C)C(=O)CC
REMARK SMILES IDX 4 1 5 2 6 3 7 4 8 5 9 6 3 7 2 8 1 9
REMARK H PARENT
REMARK Flexibility Score: inf
ROOT
ATOM      1  C   UNL     1      -2.544  -4.321 -16.328  1.00  0.00     0.057 C 
ATOM      2  C   UNL     1      -3.409  -3.372 -15.487  1.00  0.00     0.016 C 
ENDROOT
BRANCH   1   3
ATOM      3  C   UNL     1      -3.427  -5.303 -17.069  1.00  0.00     0.135 C 
ATOM      4  O   UNL     1      -4.549  -4.965 -17.420  1.00  0.00    -0.299 OA
BRANCH   3   5
ATOM      5  C   UNL     1      -2.946  -6.694 -17.391  1.00  0.00     0.072 C 
ATOM      6  C   UNL     1      -3.913  -7.740 -16.846  1.00  0.00     0.012 C 
ENDBRANCH   3   5
ENDBRANCH   1   3
BRANCH   1   7
ATOM      7  C   UNL     1      -1.524  -5.084 -15.459  1.00  0.00     0.038 C 
BRANCH   7   8
ATOM      8  C   UNL     1      -2.035  -5.291 -14.057  1.00  0.00    -0.034 C 
ATOM      9  C   UNL     1      -2.452  -6.485 -13.626  1.00  0.00     0.004 C 
ENDBRANCH   7   8
ENDBRANCH   1   7
TORSDOF 4
ENDMDL
