MODEL 1
REMARK VINA RESULT:    -5.911      0.000      0.000
REMARK INTER + INTRA:          -5.911
REMARK INTER:                  -5.911
REMARK INTRA:                   0.000
REMARK UNBOUND:                 0.000
REMARK SMILES CC1=CC(=O)[C@@H]2C[C@H]1C2(C)C
REMARK SMILES IDX 1 1 2 2 3 3 4 4 5 5 6 6 7 7 8 8 9 9 10 10 11 11
REMARK H PARENT
REMARK Flexibility Score: inf
ROOT
ATOM      1  C   UNL     1      -6.927  33.148  20.127  1.00  0.00     0.040 C 
ATOM      2  C   UNL     1      -7.613  32.480  21.276  1.00  0.00    -0.066 C 
ATOM      3  C   UNL     1      -8.569  33.122  22.003  1.00  0.00     0.047 C 
ATOM      4  C   UNL     1      -9.203  32.334  23.109  1.00  0.00     0.159 C 
ATOM      5  O   UNL     1     -10.125  32.803  23.825  1.00  0.00    -0.295 OA
ATOM      6  C   UNL     1      -8.653  30.921  23.304  1.00  0.00     0.067 C 
ATOM      7  C   UNL     1      -7.120  31.100  23.244  1.00  0.00     0.021 C 
ATOM      8  C   UNL     1      -7.260  31.039  21.706  1.00  0.00     0.022 C 
ATOM      9  C   UNL     1      -8.570  30.225  21.915  1.00  0.00    -0.019 C 
ATOM     10  C   UNL     1      -8.307  28.703  22.032  1.00  0.00     0.012 C 
ATOM     11  C   UNL     1      -9.738  30.441  20.910  1.00  0.00     0.012 C 
ENDROOT
TORSDOF 0
ENDMDL
MODEL 2
REMARK VINA RESULT:    -5.633      1.923      3.029
REMARK INTER + INTRA:          -5.633
REMARK INTER:                  -5.633
REMARK INTRA:                   0.000
REMARK UNBOUND:                 0.000
REMARK SMILES CC1=CC(=O)[C@@H]2C[C@H]1C2(C)C
REMARK SMILES IDX 1 1 2 2 3 3 4 4 5 5 6 6 7 7 8 8 9 9 10 10 11 11
REMARK H PARENT
REMARK Flexibility Score: inf
ROOT
ATOM      1  C   UNL     1      -8.518  34.388  24.397  1.00  0.00     0.040 C 
ATOM      2  C   UNL     1      -8.384  33.425  23.261  1.00  0.00    -0.066 C 
ATOM      3  C   UNL     1      -7.579  33.693  22.195  1.00  0.00     0.047 C 
ATOM      4  C   UNL     1      -7.506  32.634  21.136  1.00  0.00     0.159 C 
ATOM      5  O   UNL     1      -6.768  32.747  20.124  1.00  0.00    -0.295 OA
ATOM      6  C   UNL     1      -8.389  31.409  21.374  1.00  0.00     0.067 C 
ATOM      7  C   UNL     1      -9.749  32.000  21.803  1.00  0.00     0.021 C 
ATOM      8  C   UNL     1      -9.161  32.092  23.230  1.00  0.00     0.022 C 
ATOM      9  C   UNL     1      -8.193  30.935  22.844  1.00  0.00    -0.019 C 
ATOM     10  C   UNL     1      -8.811  29.538  23.100  1.00  0.00     0.012 C 
ATOM     11  C   UNL     1      -6.756  30.950  23.439  1.00  0.00     0.012 C 
ENDROOT
TORSDOF 0
ENDMDL
MODEL 3
REMARK VINA RESULT:    -5.597      1.576      3.142
REMARK INTER + INTRA:          -5.597
REMARK INTER:                  -5.597
REMARK INTRA:                   0.000
REMARK UNBOUND:                 0.000
REMARK SMILES CC1=CC(=O)[C@@H]2C[C@H]1C2(C)C
REMARK SMILES IDX 1 1 2 2 3 3 4 4 5 5 6 6 7 7 8 8 9 9 10 10 11 11
REMARK H PARENT
REMARK Flexibility Score: inf
ROOT
ATOM      1  C   UNL     1      -8.617  28.302  22.123  1.00  0.00     0.040 C 
ATOM      2  C   UNL     1      -8.353  29.709  22.559  1.00  0.00    -0.066 C 
ATOM      3  C   UNL     1      -8.622  30.766  21.744  1.00  0.00     0.047 C 
ATOM      4  C   UNL     1      -8.343  32.126  22.307  1.00  0.00     0.159 C 
ATOM      5  O   UNL     1      -8.587  33.182  21.667  1.00  0.00    -0.295 OA
ATOM      6  C   UNL     1      -7.744  32.142  23.714  1.00  0.00     0.067 C 
ATOM      7  C   UNL     1      -6.636  31.068  23.665  1.00  0.00     0.021 C 
ATOM      8  C   UNL     1      -7.749  30.031  23.942  1.00  0.00     0.022 C 
ATOM      9  C   UNL     1      -8.567  31.173  24.612  1.00  0.00    -0.019 C 
ATOM     10  C   UNL     1      -8.230  31.336  26.116  1.00  0.00     0.012 C 
ATOM     11  C   UNL     1     -10.114  31.157  24.458  1.00  0.00     0.012 C 
ENDROOT
TORSDOF 0
ENDMDL
MODEL 4
REMARK VINA RESULT:    -5.589      2.020      3.603
REMARK INTER + INTRA:          -5.589
REMARK INTER:                  -5.589
REMARK INTRA:                   0.000
REMARK UNBOUND:                 0.000
REMARK SMILES CC1=CC(=O)[C@@H]2C[C@H]1C2(C)C
REMARK SMILES IDX 1 1 2 2 3 3 4 4 5 5 6 6 7 7 8 8 9 9 10 10 11 11
REMARK H PARENT
REMARK Flexibility Score: inf
ROOT
ATOM      1  C   UNL     1      -9.896  31.126  25.455  1.00  0.00     0.040 C 
ATOM      2  C   UNL     1      -9.047  30.719  24.293  1.00  0.00    -0.066 C 
ATOM      3  C   UNL     1      -9.103  29.459  23.780  1.00  0.00     0.047 C 
ATOM      4  C   UNL     1      -8.226  29.185  22.595  1.00  0.00     0.159 C 
ATOM      5  O   UNL     1      -8.219  28.072  22.009  1.00  0.00    -0.295 OA
ATOM      6  C   UNL     1      -7.345  30.351  22.149  1.00  0.00     0.067 C 
ATOM      7  C   UNL     1      -6.745  30.896  23.463  1.00  0.00     0.021 C 
ATOM      8  C   UNL     1      -8.055  31.699  23.629  1.00  0.00     0.022 C 
ATOM      9  C   UNL     1      -8.221  31.636  22.082  1.00  0.00    -0.019 C 
ATOM     10  C   UNL     1      -7.500  32.804  21.363  1.00  0.00     0.012 C 
ATOM     11  C   UNL     1      -9.659  31.519  21.501  1.00  0.00     0.012 C 
ENDROOT
TORSDOF 0
ENDMDL
MODEL 5
REMARK VINA RESULT:    -5.436      1.810      2.374
REMARK INTER + INTRA:          -5.436
REMARK INTER:                  -5.436
REMARK INTRA:                   0.000
REMARK UNBOUND:                 0.000
REMARK SMILES CC1=CC(=O)[C@@H]2C[C@H]1C2(C)C
REMARK SMILES IDX 1 1 2 2 3 3 4 4 5 5 6 6 7 7 8 8 9 9 10 10 11 11
REMARK H PARENT
REMARK Flexibility Score: inf
ROOT
ATOM      1  C   UNL     1      -7.205  34.542  23.805  1.00  0.00     0.040 C 
ATOM      2  C   UNL     1      -7.836  33.214  24.080  1.00  0.00    -0.066 C 
ATOM      3  C   UNL     1      -8.685  33.036  25.130  1.00  0.00     0.047 C 
ATOM      4  C   UNL     1      -9.276  31.667  25.280  1.00  0.00     0.159 C 
ATOM      5  O   UNL     1     -10.104  31.389  26.186  1.00  0.00    -0.295 OA
ATOM      6  C   UNL     1      -8.806  30.635  24.256  1.00  0.00     0.067 C 
ATOM      7  C   UNL     1      -7.275  30.829  24.198  1.00  0.00     0.021 C 
ATOM      8  C   UNL     1      -7.545  31.979  23.201  1.00  0.00     0.022 C 
ATOM      9  C   UNL     1      -8.884  31.273  22.838  1.00  0.00    -0.019 C 
ATOM     10  C   UNL     1      -8.712  30.225  21.710  1.00  0.00     0.012 C 
ATOM     11  C   UNL     1     -10.114  32.161  22.496  1.00  0.00     0.012 C 
ENDROOT
TORSDOF 0
ENDMDL
MODEL 6
REMARK VINA RESULT:    -5.428      1.921      3.537
REMARK INTER + INTRA:          -5.428
REMARK INTER:                  -5.428
REMARK INTRA:                   0.000
REMARK UNBOUND:                 0.000
REMARK SMILES CC1=CC(=O)[C@@H]2C[C@H]1C2(C)C
REMARK SMILES IDX 1 1 2 2 3 3 4 4 5 5 6 6 7 7 8 8 9 9 10 10 11 11
REMARK H PARENT
REMARK Flexibility Score: inf
ROOT
ATOM      1  C   UNL     1      -9.477  31.396  26.666  1.00  0.00     0.040 C 
ATOM      2  C   UNL     1      -9.039  31.858  25.313  1.00  0.00    -0.066 C 
ATOM      3  C   UNL     1      -8.292  32.986  25.155  1.00  0.00     0.047 C 
ATOM      4  C   UNL     1      -7.890  33.326  23.752  1.00  0.00     0.159 C 
ATOM      5  O   UNL     1      -7.167  34.319  23.482  1.00  0.00    -0.295 OA
ATOM      6  C   UNL     1      -8.416  32.379  22.673  1.00  0.00     0.067 C 
ATOM      7  C   UNL     1      -9.903  32.179  23.039  1.00  0.00     0.021 C 
ATOM      8  C   UNL     1      -9.424  31.092  24.029  1.00  0.00     0.022 C 
ATOM      9  C   UNL     1      -8.163  30.914  23.133  1.00  0.00    -0.019 C 
ATOM     10  C   UNL     1      -8.389  29.891  21.992  1.00  0.00     0.012 C 
ATOM     11  C   UNL     1      -6.811  30.581  23.826  1.00  0.00     0.012 C 
ENDROOT
TORSDOF 0
ENDMDL
MODEL 7
REMARK VINA RESULT:    -5.369      1.745      3.031
REMARK INTER + INTRA:          -5.369
REMARK INTER:                  -5.369
REMARK INTRA:                   0.000
REMARK UNBOUND:                 0.000
REMARK SMILES CC1=CC(=O)[C@@H]2C[C@H]1C2(C)C
REMARK SMILES IDX 1 1 2 2 3 3 4 4 5 5 6 6 7 7 8 8 9 9 10 10 11 11
REMARK H PARENT
REMARK Flexibility Score: inf
ROOT
ATOM      1  C   UNL     1      -7.118  33.518  19.909  1.00  0.00     0.040 C 
ATOM      2  C   UNL     1      -7.590  32.482  20.879  1.00  0.00    -0.066 C 
ATOM      3  C   UNL     1      -6.817  31.410  21.205  1.00  0.00     0.047 C 
ATOM      4  C   UNL     1      -7.390  30.459  22.212  1.00  0.00     0.159 C 
ATOM      5  O   UNL     1      -6.756  29.454  22.624  1.00  0.00    -0.295 OA
ATOM      6  C   UNL     1      -8.797  30.799  22.705  1.00  0.00     0.067 C 
ATOM      7  C   UNL     1      -9.575  31.145  21.418  1.00  0.00     0.021 C 
ATOM      8  C   UNL     1      -8.981  32.566  21.544  1.00  0.00     0.022 C 
ATOM      9  C   UNL     1      -8.842  32.310  23.073  1.00  0.00    -0.019 C 
ATOM     10  C   UNL     1     -10.125  32.689  23.854  1.00  0.00     0.012 C 
ATOM     11  C   UNL     1      -7.620  32.926  23.813  1.00  0.00     0.012 C 
ENDROOT
TORSDOF 0
ENDMDL
MODEL 8
REMARK VINA RESULT:    -5.335      1.895      2.916
REMARK INTER + INTRA:          -5.335
REMARK INTER:                  -5.335
REMARK INTRA:                   0.000
REMARK UNBOUND:                 0.000
REMARK SMILES CC1=CC(=O)[C@@H]2C[C@H]1C2(C)C
REMARK SMILES IDX 1 1 2 2 3 3 4 4 5 5 6 6 7 7 8 8 9 9 10 10 11 11
REMARK H PARENT
REMARK Flexibility Score: inf
ROOT
ATOM      1  C   UNL     1      -7.133  34.611  23.541  1.00  0.00     0.040 C 
ATOM      2  C   UNL     1      -7.937  33.359  23.383  1.00  0.00    -0.066 C 
ATOM      3  C   UNL     1      -8.296  32.897  22.154  1.00  0.00     0.047 C 
ATOM      4  C   UNL     1      -9.074  31.616  22.129  1.00  0.00     0.159 C 
ATOM      5  O   UNL     1      -9.429  31.067  21.053  1.00  0.00    -0.295 OA
ATOM      6  C   UNL     1      -9.403  31.022  23.498  1.00  0.00     0.067 C 
ATOM      7  C   UNL     1      -9.900  32.229  24.323  1.00  0.00     0.021 C 
ATOM      8  C   UNL     1      -8.413  32.541  24.603  1.00  0.00     0.022 C 
ATOM      9  C   UNL     1      -8.111  31.033  24.366  1.00  0.00    -0.019 C 
ATOM     10  C   UNL     1      -8.261  30.190  25.657  1.00  0.00     0.012 C 
ATOM     11  C   UNL     1      -6.764  30.651  23.688  1.00  0.00     0.012 C 
ENDROOT
TORSDOF 0
ENDMDL
MODEL 9
REMARK VINA RESULT:    -5.238      1.443      3.328
REMARK INTER + INTRA:          -5.238
REMARK INTER:                  -5.238
REMARK INTRA:                   0.000
REMARK UNBOUND:                 0.000
REMARK SMILES CC1=CC(=O)[C@@H]2C[C@H]1C2(C)C
REMARK SMILES IDX 1 1 2 2 3 3 4 4 5 5 6 6 7 7 8 8 9 9 10 10 11 11
REMARK H PARENT
REMARK Flexibility Score: inf
ROOT
ATOM      1  C   UNL     1      -6.741  29.733  22.396  1.00  0.00     0.040 C 
ATOM      2  C   UNL     1      -7.763  30.750  22.794  1.00  0.00    -0.066 C 
ATOM      3  C   UNL     1      -8.469  30.630  23.952  1.00  0.00     0.047 C 
ATOM      4  C   UNL     1      -9.441  31.730  24.254  1.00  0.00     0.159 C 
ATOM      5  O   UNL     1     -10.122  31.754  25.312  1.00  0.00    -0.295 OA
ATOM      6  C   UNL     1      -9.545  32.822  23.189  1.00  0.00     0.067 C 
ATOM      7  C   UNL     1      -9.624  32.044  21.857  1.00  0.00     0.021 C 
ATOM      8  C   UNL     1      -8.081  31.973  21.907  1.00  0.00     0.022 C 
ATOM      9  C   UNL     1      -8.107  33.258  22.785  1.00  0.00    -0.019 C 
ATOM     10  C   UNL     1      -8.100  34.553  21.935  1.00  0.00     0.012 C 
ATOM     11  C   UNL     1      -7.038  33.404  23.905  1.00  0.00     0.012 C 
ENDROOT
TORSDOF 0
ENDMDL
