MODEL 1
REMARK VINA RESULT:     3.209      0.000      0.000
REMARK INTER + INTRA:           6.271
REMARK INTER:                   4.523
REMARK INTRA:                   1.748
REMARK UNBOUND:                 1.748
REMARK SMILES CC1=CCCC(C)=CCC(C)(C)C=CC1
REMARK SMILES IDX 2 1 3 2 1 3 4 4 5 5 6 6 7 7 8 8 15 10 14 11 13 12 10 13
REMARK SMILES IDX 11 14 12 15 9 16
REMARK H PARENT
REMARK Flexibility Score: 60.00
ROOT
ATOM      1  C   UNL     1     -14.917  -4.109  15.713  1.00  0.00    -0.074 C 
ATOM      2  C   UNL     1     -13.841  -3.876  16.518  1.00  0.00    -0.027 C 
ATOM      3  C   UNL     1     -15.012  -5.402  14.949  1.00  0.00     0.039 C 
ENDROOT
BRANCH   2   4
ATOM      4  C   UNL     1     -13.600  -2.573  17.289  1.00  0.00     0.032 C 
BRANCH   4   5
ATOM      5  C   UNL     1     -13.144  -2.713  18.778  1.00  0.00     0.034 C 
BRANCH   5   6
ATOM      6  C   UNL     1     -14.090  -1.974  19.729  1.00  0.00    -0.077 C 
ATOM      7  C   UNL     1     -13.513  -1.553  21.058  1.00  0.00     0.039 C 
ATOM      8  C   UNL     1     -15.390  -1.619  19.480  1.00  0.00    -0.027 CG0
ATOM      9  G   UNL     1     -16.249  -1.851  18.236  1.00  0.00     0.000 G0
ENDBRANCH   5   6
ENDBRANCH   4   5
ENDBRANCH   2   4
BRANCH   1  10
ATOM     10  C   UNL     1     -16.151  -3.284  15.924  1.00  0.00     0.057 C 
BRANCH  10  11
ATOM     11  C   UNL     1     -16.403  -2.025  15.170  1.00  0.00    -0.026 C 
ATOM     12  C   UNL     1     -16.743  -0.884  15.824  1.00  0.00    -0.024 C 
BRANCH  12  13
ATOM     13  C   UNL     1     -16.507  -0.566  17.328  1.00  0.00    -0.014 C 
ATOM     14  C   UNL     1     -15.340   0.456  17.411  1.00  0.00     0.016 C 
ATOM     15  C   UNL     1     -17.770   0.171  17.836  1.00  0.00     0.016 C 
BRANCH  13  16
ATOM     16  C   UNL     1     -16.282  -1.847  18.258  1.00  0.00     0.038 CG0
ATOM     17  G   UNL     1     -15.385  -1.621  19.477  1.00  0.00     0.000 G0
ENDBRANCH  13  16
ENDBRANCH  12  13
ENDBRANCH  10  11
ENDBRANCH   1  10
TORSDOF 0
ENDMDL
MODEL 2
REMARK VINA RESULT:     5.285      0.957      3.603
REMARK INTER + INTRA:           9.196
REMARK INTER:                   7.175
REMARK INTRA:                   2.021
REMARK UNBOUND:                 1.748
REMARK SMILES CC1=CCCC(C)=CCC(C)(C)C=CC1
REMARK SMILES IDX 2 1 3 2 1 3 4 4 5 5 6 6 7 7 8 8 15 10 14 11 13 12 10 13
REMARK SMILES IDX 11 14 12 15 9 16
REMARK H PARENT
REMARK Flexibility Score: 60.00
ROOT
ATOM      1  C   UNL     1     -15.202  -3.452  16.078  1.00  0.00    -0.074 C 
ATOM      2  C   UNL     1     -16.132  -2.882  15.259  1.00  0.00    -0.027 C 
ATOM      3  C   UNL     1     -14.918  -4.926  15.975  1.00  0.00     0.039 C 
ENDROOT
BRANCH   2   4
ATOM      4  C   UNL     1     -16.555  -1.410  15.318  1.00  0.00     0.032 C 
BRANCH   4   5
ATOM      5  C   UNL     1     -17.268  -0.937  16.627  1.00  0.00     0.034 C 
BRANCH   5   6
ATOM      6  C   UNL     1     -16.340  -0.082  17.495  1.00  0.00    -0.077 C 
ATOM      7  C   UNL     1     -16.313   1.396  17.195  1.00  0.00     0.039 C 
ATOM      8  C   UNL     1     -15.567  -0.513  18.541  1.00  0.00    -0.027 CG0
ATOM      9  G   UNL     1     -15.401  -1.918  19.124  1.00  0.00     0.000 G0
ENDBRANCH   5   6
ENDBRANCH   4   5
ENDBRANCH   2   4
BRANCH   1  10
ATOM     10  C   UNL     1     -14.208  -2.555  16.753  1.00  0.00     0.057 C 
BRANCH  10  11
ATOM     11  C   UNL     1     -13.055  -3.088  17.529  1.00  0.00    -0.026 C 
ATOM     12  C   UNL     1     -12.889  -2.759  18.837  1.00  0.00    -0.024 C 
BRANCH  12  13
ATOM     13  C   UNL     1     -13.978  -2.217  19.806  1.00  0.00    -0.014 C 
ATOM     14  C   UNL     1     -14.070  -3.202  21.002  1.00  0.00     0.016 C 
ATOM     15  C   UNL     1     -13.445  -0.882  20.379  1.00  0.00     0.016 C 
BRANCH  13  16
ATOM     16  C   UNL     1     -15.397  -1.925  19.127  1.00  0.00     0.038 CG0
ATOM     17  G   UNL     1     -15.564  -0.522  18.540  1.00  0.00     0.000 G0
ENDBRANCH  13  16
ENDBRANCH  12  13
ENDBRANCH  10  11
ENDBRANCH   1  10
TORSDOF 0
ENDMDL
MODEL 3
REMARK VINA RESULT:     5.322      1.415      4.451
REMARK INTER + INTRA:           9.249
REMARK INTER:                   8.207
REMARK INTRA:                   1.041
REMARK UNBOUND:                 1.748
REMARK SMILES CC1=CCCC(C)=CCC(C)(C)C=CC1
REMARK SMILES IDX 2 1 3 2 1 3 4 4 5 5 6 6 7 7 8 8 15 10 14 11 13 12 10 13
REMARK SMILES IDX 11 14 12 15 9 16
REMARK H PARENT
REMARK Flexibility Score: 60.00
ROOT
ATOM      1  C   UNL     1     -16.624  -0.316  17.168  1.00  0.00    -0.074 C 
ATOM      2  C   UNL     1     -16.899  -1.090  16.080  1.00  0.00    -0.027 C 
ATOM      3  C   UNL     1     -17.536   0.827  17.524  1.00  0.00     0.039 C 
ENDROOT
BRANCH   2   4
ATOM      4  C   UNL     1     -16.010  -2.234  15.580  1.00  0.00     0.032 C 
BRANCH   4   5
ATOM      5  C   UNL     1     -14.468  -2.061  15.778  1.00  0.00     0.034 C 
BRANCH   5   6
ATOM      6  C   UNL     1     -13.840  -3.305  16.415  1.00  0.00    -0.077 C 
ATOM      7  C   UNL     1     -13.943  -4.587  15.626  1.00  0.00     0.039 C 
ATOM      8  C   UNL     1     -13.160  -3.364  17.602  1.00  0.00    -0.027 CG0
ATOM      9  G   UNL     1     -12.844  -2.255  18.608  1.00  0.00     0.000 G0
ENDBRANCH   5   6
ENDBRANCH   4   5
ENDBRANCH   2   4
BRANCH   1  10
ATOM     10  C   UNL     1     -15.682  -0.857  18.203  1.00  0.00     0.057 C 
BRANCH  10  11
ATOM     11  C   UNL     1     -16.104  -1.866  19.211  1.00  0.00    -0.026 C 
ATOM     12  C   UNL     1     -15.182  -2.632  19.852  1.00  0.00    -0.024 C 
BRANCH  12  13
ATOM     13  C   UNL     1     -13.663  -2.330  20.003  1.00  0.00    -0.014 C 
ATOM     14  C   UNL     1     -13.527  -1.036  20.851  1.00  0.00     0.016 C 
ATOM     15  C   UNL     1     -13.060  -3.474  20.853  1.00  0.00     0.016 C 
BRANCH  13  16
ATOM     16  C   UNL     1     -12.852  -2.263  18.627  1.00  0.00     0.038 CG0
ATOM     17  G   UNL     1     -13.182  -3.365  17.619  1.00  0.00     0.000 G0
ENDBRANCH  13  16
ENDBRANCH  12  13
ENDBRANCH  10  11
ENDBRANCH   1  10
TORSDOF 0
ENDMDL
MODEL 4
REMARK VINA RESULT:     5.741      1.465      3.656
REMARK INTER + INTRA:           9.839
REMARK INTER:                   6.991
REMARK INTRA:                   2.848
REMARK UNBOUND:                 1.748
REMARK SMILES CC1=CCCC(C)=CCC(C)(C)C=CC1
REMARK SMILES IDX 2 1 3 2 1 3 4 4 5 5 6 6 7 7 8 8 15 10 14 11 13 12 10 13
REMARK SMILES IDX 11 14 12 15 9 16
REMARK H PARENT
REMARK Flexibility Score: 60.00
ROOT
ATOM      1  C   UNL     1     -16.598  -1.783  16.326  1.00  0.00    -0.074 C 
ATOM      2  C   UNL     1     -16.386  -0.643  17.042  1.00  0.00    -0.027 C 
ATOM      3  C   UNL     1     -17.156  -1.697  14.931  1.00  0.00     0.039 C 
ENDROOT
BRANCH   2   4
ATOM      4  C   UNL     1     -15.890  -0.608  18.492  1.00  0.00     0.032 C 
BRANCH   4   5
ATOM      5  C   UNL     1     -15.707  -1.987  19.205  1.00  0.00     0.034 C 
BRANCH   5   6
ATOM      6  C   UNL     1     -14.227  -2.312  19.431  1.00  0.00    -0.077 C 
ATOM      7  C   UNL     1     -13.827  -2.673  20.840  1.00  0.00     0.039 C 
ATOM      8  C   UNL     1     -13.242  -2.350  18.480  1.00  0.00    -0.027 CG0
ATOM      9  G   UNL     1     -13.319  -2.084  16.976  1.00  0.00     0.000 G0
ENDBRANCH   5   6
ENDBRANCH   4   5
ENDBRANCH   2   4
BRANCH   1  10
ATOM     10  C   UNL     1     -15.901  -3.036  16.765  1.00  0.00     0.057 C 
BRANCH  10  11
ATOM     11  C   UNL     1     -15.418  -4.059  15.797  1.00  0.00    -0.026 C 
ATOM     12  C   UNL     1     -14.136  -4.034  15.348  1.00  0.00    -0.024 C 
BRANCH  12  13
ATOM     13  C   UNL     1     -12.927  -3.322  16.018  1.00  0.00    -0.014 C 
ATOM     14  C   UNL     1     -12.092  -4.409  16.748  1.00  0.00     0.016 C 
ATOM     15  C   UNL     1     -12.034  -2.780  14.875  1.00  0.00     0.016 C 
BRANCH  13  16
ATOM     16  C   UNL     1     -13.312  -2.090  16.963  1.00  0.00     0.038 CG0
ATOM     17  G   UNL     1     -13.227  -2.368  18.465  1.00  0.00     0.000 G0
ENDBRANCH  13  16
ENDBRANCH  12  13
ENDBRANCH  10  11
ENDBRANCH   1  10
TORSDOF 0
ENDMDL
MODEL 5
REMARK VINA RESULT:     6.092      1.292      3.806
REMARK INTER + INTRA:          10.333
REMARK INTER:                   8.387
REMARK INTRA:                   1.946
REMARK UNBOUND:                 1.748
REMARK SMILES CC1=CCCC(C)=CCC(C)(C)C=CC1
REMARK SMILES IDX 2 1 3 2 1 3 4 4 5 5 6 6 7 7 8 8 15 10 14 11 13 12 10 13
REMARK SMILES IDX 11 14 12 15 9 16
REMARK H PARENT
REMARK Flexibility Score: 60.00
ROOT
ATOM      1  C   UNL     1     -13.655  -2.396  19.746  1.00  0.00    -0.074 C 
ATOM      2  C   UNL     1     -12.861  -2.506  18.643  1.00  0.00    -0.027 C 
ATOM      3  C   UNL     1     -13.075  -2.639  21.113  1.00  0.00     0.039 C 
ENDROOT
BRANCH   2   4
ATOM      4  C   UNL     1     -13.354  -2.352  17.200  1.00  0.00     0.032 C 
BRANCH   4   5
ATOM      5  C   UNL     1     -13.487  -3.664  16.360  1.00  0.00     0.034 C 
BRANCH   5   6
ATOM      6  C   UNL     1     -14.938  -3.919  15.941  1.00  0.00    -0.077 C 
ATOM      7  C   UNL     1     -15.362  -5.363  15.834  1.00  0.00     0.039 C 
ATOM      8  C   UNL     1     -15.899  -2.974  15.696  1.00  0.00    -0.027 CG0
ATOM      9  G   UNL     1     -15.812  -1.448  15.758  1.00  0.00     0.000 G0
ENDBRANCH   5   6
ENDBRANCH   4   5
ENDBRANCH   2   4
BRANCH   1  10
ATOM     10  C   UNL     1     -14.948  -1.647  19.616  1.00  0.00     0.057 C 
BRANCH  10  11
ATOM     11  C   UNL     1     -16.206  -2.304  19.166  1.00  0.00    -0.026 C 
ATOM     12  C   UNL     1     -16.939  -1.774  18.152  1.00  0.00    -0.024 C 
BRANCH  12  13
ATOM     13  C   UNL     1     -16.444  -0.771  17.071  1.00  0.00    -0.014 C 
ATOM     14  C   UNL     1     -17.623   0.188  16.751  1.00  0.00     0.016 C 
ATOM     15  C   UNL     1     -15.343   0.094  17.729  1.00  0.00     0.016 C 
BRANCH  13  16
ATOM     16  C   UNL     1     -15.818  -1.448  15.764  1.00  0.00     0.038 CG0
ATOM     17  G   UNL     1     -15.910  -2.974  15.710  1.00  0.00     0.000 G0
ENDBRANCH  13  16
ENDBRANCH  12  13
ENDBRANCH  10  11
ENDBRANCH   1  10
TORSDOF 0
ENDMDL
