MODEL 1
REMARK VINA RESULT:     7.723      0.000      0.000
REMARK INTER + INTRA:          13.643
REMARK INTER:                  14.946
REMARK INTRA:                  -1.303
REMARK UNBOUND:                -1.303
REMARK SMILES CCCCCCCCCCCCCCCCCC(=O)[O-]
REMARK SMILES IDX 10 1 11 2 12 3 13 4 14 5 15 6 16 7 17 8 18 9 19 10 20 11
REMARK SMILES IDX 9 12 8 13 7 14 6 15 5 16 4 17 3 18 2 19 1 20
REMARK H PARENT
REMARK Flexibility Score: inf
ROOT
ATOM      1  C   UNL     1      36.505  15.100  44.047  1.00  0.00     0.000 C 
ENDROOT
BRANCH   1   2
ATOM      2  C   UNL     1      35.074  15.647  44.161  1.00  0.00     0.000 C 
BRANCH   2   3
ATOM      3  C   UNL     1      34.925  16.959  43.376  1.00  0.00     0.000 C 
BRANCH   3   4
ATOM      4  C   UNL     1      33.515  17.149  42.787  1.00  0.00     0.000 C 
BRANCH   4   5
ATOM      5  C   UNL     1      33.453  18.013  41.515  1.00  0.00     0.000 C 
BRANCH   5   6
ATOM      6  C   UNL     1      33.993  17.290  40.272  1.00  0.00     0.000 C 
BRANCH   6   7
ATOM      7  C   UNL     1      33.664  18.075  38.994  1.00  0.00     0.006 C 
BRANCH   7   8
ATOM      8  C   UNL     1      32.353  18.863  39.116  1.00  0.00     0.053 C 
BRANCH   8   9
ATOM      9  C   UNL     1      31.532  18.775  37.866  1.00  0.00     0.041 C 
ATOM     10  O   UNL     1      31.131  19.825  37.298  1.00  0.00    -0.550 OA
ATOM     11  O   UNL     1      31.241  17.536  37.310  1.00  0.00    -0.550 OA
ENDBRANCH   8   9
ENDBRANCH   7   8
ENDBRANCH   6   7
ENDBRANCH   5   6
ENDBRANCH   4   5
ENDBRANCH   3   4
ENDBRANCH   2   3
ENDBRANCH   1   2
BRANCH   1  12
ATOM     12  C   UNL     1      36.584  13.818  43.203  1.00  0.00     0.000 C 
BRANCH  12  13
ATOM     13  C   UNL     1      35.212  13.369  42.677  1.00  0.00    -0.000 C 
BRANCH  13  14
ATOM     14  C   UNL     1      35.316  12.883  41.223  1.00  0.00    -0.000 C 
BRANCH  14  15
ATOM     15  C   UNL     1      34.197  13.443  40.329  1.00  0.00    -0.000 C 
BRANCH  15  16
ATOM     16  C   UNL     1      33.080  12.422  40.067  1.00  0.00    -0.000 C 
BRANCH  16  17
ATOM     17  C   UNL     1      33.080  11.323  41.141  1.00  0.00    -0.000 C 
BRANCH  17  18
ATOM     18  C   UNL     1      32.598   9.967  40.601  1.00  0.00    -0.000 C 
BRANCH  18  19
ATOM     19  C   UNL     1      33.586   9.341  39.605  1.00  0.00    -0.003 C 
ATOM     20  C   UNL     1      34.979   9.220  40.219  1.00  0.00     0.004 C 
ENDBRANCH  18  19
ENDBRANCH  17  18
ENDBRANCH  16  17
ENDBRANCH  15  16
ENDBRANCH  14  15
ENDBRANCH  13  14
ENDBRANCH  12  13
ENDBRANCH   1  12
TORSDOF 16
ENDMDL
MODEL 2
REMARK VINA RESULT:     7.781      3.170      6.945
REMARK INTER + INTRA:          13.756
REMARK INTER:                  14.967
REMARK INTRA:                  -1.211
REMARK UNBOUND:                -1.303
REMARK SMILES CCCCCCCCCCCCCCCCCC(=O)[O-]
REMARK SMILES IDX 10 1 11 2 12 3 13 4 14 5 15 6 16 7 17 8 18 9 19 10 20 11
REMARK SMILES IDX 9 12 8 13 7 14 6 15 5 16 4 17 3 18 2 19 1 20
REMARK H PARENT
REMARK Flexibility Score: inf
ROOT
ATOM      1  C   UNL     1      35.020  15.694  44.054  1.00  0.00     0.000 C 
ENDROOT
BRANCH   1   2
ATOM      2  C   UNL     1      36.479  15.210  44.051  1.00  0.00     0.000 C 
BRANCH   2   3
ATOM      3  C   UNL     1      36.598  13.837  43.375  1.00  0.00     0.000 C 
BRANCH   3   4
ATOM      4  C   UNL     1      35.270  13.350  42.765  1.00  0.00     0.000 C 
BRANCH   4   5
ATOM      5  C   UNL     1      35.389  12.721  41.366  1.00  0.00     0.000 C 
BRANCH   5   6
ATOM      6  C   UNL     1      34.427  13.345  40.345  1.00  0.00     0.000 C 
BRANCH   6   7
ATOM      7  C   UNL     1      33.204  12.443  40.120  1.00  0.00     0.006 C 
BRANCH   7   8
ATOM      8  C   UNL     1      33.200  11.226  41.053  1.00  0.00     0.053 C 
BRANCH   8   9
ATOM      9  C   UNL     1      33.349   9.942  40.295  1.00  0.00     0.041 C 
ATOM     10  O   UNL     1      32.329   9.305  39.922  1.00  0.00    -0.550 OA
ATOM     11  O   UNL     1      34.614   9.468  39.970  1.00  0.00    -0.550 OA
ENDBRANCH   8   9
ENDBRANCH   7   8
ENDBRANCH   6   7
ENDBRANCH   5   6
ENDBRANCH   4   5
ENDBRANCH   3   4
ENDBRANCH   2   3
ENDBRANCH   1   2
BRANCH   1  12
ATOM     12  C   UNL     1      34.850  17.067  43.385  1.00  0.00     0.000 C 
BRANCH  12  13
ATOM     13  C   UNL     1      33.399  17.348  42.968  1.00  0.00    -0.000 C 
BRANCH  13  14
ATOM     14  C   UNL     1      33.342  17.961  41.561  1.00  0.00    -0.000 C 
BRANCH  14  15
ATOM     15  C   UNL     1      34.119  17.136  40.521  1.00  0.00    -0.000 C 
BRANCH  15  16
ATOM     16  C   UNL     1      33.968  17.685  39.095  1.00  0.00    -0.000 C 
BRANCH  16  17
ATOM     17  C   UNL     1      32.709  18.556  38.974  1.00  0.00    -0.000 C 
BRANCH  17  18
ATOM     18  C   UNL     1      31.809  18.135  37.800  1.00  0.00    -0.000 C 
BRANCH  18  19
ATOM     19  C   UNL     1      30.869  19.260  37.342  1.00  0.00    -0.003 C 
ATOM     20  C   UNL     1      31.151  20.554  38.102  1.00  0.00     0.004 C 
ENDBRANCH  18  19
ENDBRANCH  17  18
ENDBRANCH  16  17
ENDBRANCH  15  16
ENDBRANCH  14  15
ENDBRANCH  13  14
ENDBRANCH  12  13
ENDBRANCH   1  12
TORSDOF 16
ENDMDL
MODEL 3
REMARK VINA RESULT:     8.475      0.779      1.317
REMARK INTER + INTRA:          15.099
REMARK INTER:                  16.167
REMARK INTRA:                  -1.068
REMARK UNBOUND:                -1.303
REMARK SMILES CCCCCCCCCCCCCCCCCC(=O)[O-]
REMARK SMILES IDX 10 1 11 2 12 3 13 4 14 5 15 6 16 7 17 8 18 9 19 10 20 11
REMARK SMILES IDX 9 12 8 13 7 14 6 15 5 16 4 17 3 18 2 19 1 20
REMARK H PARENT
REMARK Flexibility Score: inf
ROOT
ATOM      1  C   UNL     1      35.193  15.251  44.131  1.00  0.00     0.000 C 
ENDROOT
BRANCH   1   2
ATOM      2  C   UNL     1      35.016  16.726  43.738  1.00  0.00     0.000 C 
BRANCH   2   3
ATOM      3  C   UNL     1      33.678  16.943  43.017  1.00  0.00     0.000 C 
BRANCH   3   4
ATOM      4  C   UNL     1      33.795  17.888  41.807  1.00  0.00     0.000 C 
BRANCH   4   5
ATOM      5  C   UNL     1      34.073  17.192  40.463  1.00  0.00     0.000 C 
BRANCH   5   6
ATOM      6  C   UNL     1      33.744  18.076  39.251  1.00  0.00     0.000 C 
BRANCH   6   7
ATOM      7  C   UNL     1      32.496  17.561  38.519  1.00  0.00     0.006 C 
BRANCH   7   8
ATOM      8  C   UNL     1      32.147  18.416  37.294  1.00  0.00     0.053 C 
BRANCH   8   9
ATOM      9  C   UNL     1      31.101  19.442  37.610  1.00  0.00     0.041 C 
ATOM     10  O   UNL     1      29.886  19.116  37.646  1.00  0.00    -0.550 OA
ATOM     11  O   UNL     1      31.474  20.749  37.899  1.00  0.00    -0.550 OA
ENDBRANCH   8   9
ENDBRANCH   7   8
ENDBRANCH   6   7
ENDBRANCH   5   6
ENDBRANCH   4   5
ENDBRANCH   3   4
ENDBRANCH   2   3
ENDBRANCH   1   2
BRANCH   1  12
ATOM     12  C   UNL     1      36.569  14.693  43.734  1.00  0.00     0.000 C 
BRANCH  12  13
ATOM     13  C   UNL     1      36.482  13.629  42.629  1.00  0.00    -0.000 C 
BRANCH  13  14
ATOM     14  C   UNL     1      35.024  13.393  42.210  1.00  0.00    -0.000 C 
BRANCH  14  15
ATOM     15  C   UNL     1      34.881  13.070  40.713  1.00  0.00    -0.000 C 
BRANCH  15  16
ATOM     16  C   UNL     1      33.513  12.462  40.366  1.00  0.00    -0.000 C 
BRANCH  16  17
ATOM     17  C   UNL     1      33.266  11.176  41.168  1.00  0.00    -0.000 C 
BRANCH  17  18
ATOM     18  C   UNL     1      32.667  10.049  40.311  1.00  0.00    -0.000 C 
BRANCH  18  19
ATOM     19  C   UNL     1      33.739   9.108  39.740  1.00  0.00    -0.003 C 
ATOM     20  C   UNL     1      35.130   9.497  40.233  1.00  0.00     0.004 C 
ENDBRANCH  18  19
ENDBRANCH  17  18
ENDBRANCH  16  17
ENDBRANCH  15  16
ENDBRANCH  14  15
ENDBRANCH  13  14
ENDBRANCH  12  13
ENDBRANCH   1  12
TORSDOF 16
ENDMDL
MODEL 4
REMARK VINA RESULT:     8.811      3.208      7.629
REMARK INTER + INTRA:          15.750
REMARK INTER:                  16.891
REMARK INTRA:                  -1.141
REMARK UNBOUND:                -1.303
REMARK SMILES CCCCCCCCCCCCCCCCCC(=O)[O-]
REMARK SMILES IDX 10 1 11 2 12 3 13 4 14 5 15 6 16 7 17 8 18 9 19 10 20 11
REMARK SMILES IDX 9 12 8 13 7 14 6 15 5 16 4 17 3 18 2 19 1 20
REMARK H PARENT
REMARK Flexibility Score: inf
ROOT
ATOM      1  C   UNL     1      34.497  17.511  42.956  1.00  0.00     0.000 C 
ENDROOT
BRANCH   1   2
ATOM      2  C   UNL     1      34.444  16.132  43.632  1.00  0.00     0.000 C 
BRANCH   2   3
ATOM      3  C   UNL     1      35.859  15.600  43.903  1.00  0.00     0.000 C 
BRANCH   3   4
ATOM      4  C   UNL     1      36.075  14.172  43.371  1.00  0.00     0.000 C 
BRANCH   4   5
ATOM      5  C   UNL     1      34.887  13.581  42.591  1.00  0.00     0.000 C 
BRANCH   5   6
ATOM      6  C   UNL     1      35.306  12.919  41.271  1.00  0.00     0.000 C 
BRANCH   6   7
ATOM      7  C   UNL     1      34.084  12.641  40.383  1.00  0.00     0.006 C 
BRANCH   7   8
ATOM      8  C   UNL     1      33.148  11.591  40.996  1.00  0.00     0.053 C 
BRANCH   8   9
ATOM      9  C   UNL     1      33.326  10.246  40.359  1.00  0.00     0.041 C 
ATOM     10  O   UNL     1      34.466   9.876  39.972  1.00  0.00    -0.550 OA
ATOM     11  O   UNL     1      32.241   9.390  40.226  1.00  0.00    -0.550 OA
ENDBRANCH   8   9
ENDBRANCH   7   8
ENDBRANCH   6   7
ENDBRANCH   5   6
ENDBRANCH   4   5
ENDBRANCH   3   4
ENDBRANCH   2   3
ENDBRANCH   1   2
BRANCH   1  12
ATOM     12  C   UNL     1      33.576  17.605  41.729  1.00  0.00     0.000 C 
BRANCH  12  13
ATOM     13  C   UNL     1      34.207  16.999  40.466  1.00  0.00    -0.000 C 
BRANCH  13  14
ATOM     14  C   UNL     1      33.954  17.894  39.244  1.00  0.00    -0.000 C 
BRANCH  14  15
ATOM     15  C   UNL     1      32.530  18.474  39.218  1.00  0.00    -0.000 C 
BRANCH  15  16
ATOM     16  C   UNL     1      31.791  18.175  37.904  1.00  0.00    -0.000 C 
BRANCH  16  17
ATOM     17  C   UNL     1      31.127  19.444  37.349  1.00  0.00    -0.000 C 
BRANCH  17  18
ATOM     18  C   UNL     1      31.469  20.699  38.169  1.00  0.00    -0.000 C 
BRANCH  18  19
ATOM     19  C   UNL     1      31.504  21.974  37.314  1.00  0.00    -0.003 C 
ATOM     20  C   UNL     1      32.255  23.094  38.028  1.00  0.00     0.004 C 
ENDBRANCH  18  19
ENDBRANCH  17  18
ENDBRANCH  16  17
ENDBRANCH  15  16
ENDBRANCH  14  15
ENDBRANCH  13  14
ENDBRANCH  12  13
ENDBRANCH   1  12
TORSDOF 16
ENDMDL
MODEL 5
REMARK VINA RESULT:    10.395      4.679      9.439
REMARK INTER + INTRA:          18.814
REMARK INTER:                  19.728
REMARK INTRA:                  -0.913
REMARK UNBOUND:                -1.303
REMARK SMILES CCCCCCCCCCCCCCCCCC(=O)[O-]
REMARK SMILES IDX 10 1 11 2 12 3 13 4 14 5 15 6 16 7 17 8 18 9 19 10 20 11
REMARK SMILES IDX 9 12 8 13 7 14 6 15 5 16 4 17 3 18 2 19 1 20
REMARK H PARENT
REMARK Flexibility Score: inf
ROOT
ATOM      1  C   UNL     1      32.664  10.267  41.135  1.00  0.00     0.000 C 
ENDROOT
BRANCH   1   2
ATOM      2  C   UNL     1      33.385   9.687  39.908  1.00  0.00     0.000 C 
BRANCH   2   3
ATOM      3  C   UNL     1      34.471   8.689  40.333  1.00  0.00     0.000 C 
BRANCH   3   4
ATOM      4  C   UNL     1      34.136   7.236  39.946  1.00  0.00     0.000 C 
BRANCH   4   5
ATOM      5  C   UNL     1      34.188   6.226  41.106  1.00  0.00     0.000 C 
BRANCH   5   6
ATOM      6  C   UNL     1      33.087   5.159  41.022  1.00  0.00     0.000 C 
BRANCH   6   7
ATOM      7  C   UNL     1      31.943   5.471  41.997  1.00  0.00     0.006 C 
BRANCH   7   8
ATOM      8  C   UNL     1      30.580   5.020  41.458  1.00  0.00     0.053 C 
BRANCH   8   9
ATOM      9  C   UNL     1      29.456   5.820  42.044  1.00  0.00     0.041 C 
ATOM     10  O   UNL     1      28.752   5.339  42.970  1.00  0.00    -0.550 OA
ATOM     11  O   UNL     1      29.211   7.110  41.590  1.00  0.00    -0.550 OA
ENDBRANCH   8   9
ENDBRANCH   7   8
ENDBRANCH   6   7
ENDBRANCH   5   6
ENDBRANCH   4   5
ENDBRANCH   3   4
ENDBRANCH   2   3
ENDBRANCH   1   2
BRANCH   1  12
ATOM     12  C   UNL     1      32.868  11.783  41.280  1.00  0.00     0.000 C 
BRANCH  12  13
ATOM     13  C   UNL     1      33.494  12.420  40.030  1.00  0.00    -0.000 C 
BRANCH  13  14
ATOM     14  C   UNL     1      34.605  13.407  40.417  1.00  0.00    -0.000 C 
BRANCH  14  15
ATOM     15  C   UNL     1      35.481  12.893  41.572  1.00  0.00    -0.000 C 
BRANCH  15  16
ATOM     16  C   UNL     1      35.102  13.514  42.925  1.00  0.00    -0.000 C 
BRANCH  16  17
ATOM     17  C   UNL     1      36.324  14.167  43.588  1.00  0.00    -0.000 C 
BRANCH  17  18
ATOM     18  C   UNL     1      36.146  15.680  43.797  1.00  0.00    -0.000 C 
BRANCH  18  19
ATOM     19  C   UNL     1      34.682  16.076  44.038  1.00  0.00    -0.003 C 
ATOM     20  C   UNL     1      34.195  17.054  42.973  1.00  0.00     0.004 C 
ENDBRANCH  18  19
ENDBRANCH  17  18
ENDBRANCH  16  17
ENDBRANCH  15  16
ENDBRANCH  14  15
ENDBRANCH  13  14
ENDBRANCH  12  13
ENDBRANCH   1  12
TORSDOF 16
ENDMDL
MODEL 6
REMARK VINA RESULT:    10.720      4.584      8.641
REMARK INTER + INTRA:          19.445
REMARK INTER:                  20.511
REMARK INTRA:                  -1.066
REMARK UNBOUND:                -1.303
REMARK SMILES CCCCCCCCCCCCCCCCCC(=O)[O-]
REMARK SMILES IDX 10 1 11 2 12 3 13 4 14 5 15 6 16 7 17 8 18 9 19 10 20 11
REMARK SMILES IDX 9 12 8 13 7 14 6 15 5 16 4 17 3 18 2 19 1 20
REMARK H PARENT
REMARK Flexibility Score: inf
ROOT
ATOM      1  C   UNL     1      34.819  13.298  40.857  1.00  0.00     0.000 C 
ENDROOT
BRANCH   1   2
ATOM      2  C   UNL     1      33.667  12.425  40.335  1.00  0.00     0.000 C 
BRANCH   2   3
ATOM      3  C   UNL     1      33.493  11.171  41.204  1.00  0.00     0.000 C 
BRANCH   3   4
ATOM      4  C   UNL     1      33.488   9.867  40.384  1.00  0.00     0.000 C 
BRANCH   4   5
ATOM      5  C   UNL     1      32.100   9.405  39.906  1.00  0.00     0.000 C 
BRANCH   5   6
ATOM      6  C   UNL     1      31.254   8.790  41.030  1.00  0.00     0.000 C 
BRANCH   6   7
ATOM      7  C   UNL     1      30.206   7.822  40.462  1.00  0.00     0.006 C 
BRANCH   7   8
ATOM      8  C   UNL     1      29.241   7.311  41.539  1.00  0.00     0.053 C 
BRANCH   8   9
ATOM      9  C   UNL     1      29.622   5.946  42.027  1.00  0.00     0.041 C 
ATOM     10  O   UNL     1      30.684   5.405  41.624  1.00  0.00    -0.550 OA
ATOM     11  O   UNL     1      28.821   5.290  42.953  1.00  0.00    -0.550 OA
ENDBRANCH   8   9
ENDBRANCH   7   8
ENDBRANCH   6   7
ENDBRANCH   5   6
ENDBRANCH   4   5
ENDBRANCH   3   4
ENDBRANCH   2   3
ENDBRANCH   1   2
BRANCH   1  12
ATOM     12  C   UNL     1      34.872  13.354  42.392  1.00  0.00     0.000 C 
BRANCH  12  13
ATOM     13  C   UNL     1      36.231  13.833  42.922  1.00  0.00    -0.000 C 
BRANCH  13  14
ATOM     14  C   UNL     1      36.048  14.875  44.035  1.00  0.00    -0.000 C 
BRANCH  14  15
ATOM     15  C   UNL     1      34.712  15.629  43.930  1.00  0.00    -0.000 C 
BRANCH  15  16
ATOM     16  C   UNL     1      34.884  17.078  43.450  1.00  0.00    -0.000 C 
BRANCH  16  17
ATOM     17  C   UNL     1      33.745  17.480  42.502  1.00  0.00    -0.000 C 
BRANCH  17  18
ATOM     18  C   UNL     1      33.987  17.017  41.056  1.00  0.00    -0.000 C 
BRANCH  18  19
ATOM     19  C   UNL     1      33.447  18.013  40.018  1.00  0.00    -0.003 C 
ATOM     20  C   UNL     1      34.491  18.305  38.943  1.00  0.00     0.004 C 
ENDBRANCH  18  19
ENDBRANCH  17  18
ENDBRANCH  16  17
ENDBRANCH  15  16
ENDBRANCH  14  15
ENDBRANCH  13  14
ENDBRANCH  12  13
ENDBRANCH   1  12
TORSDOF 16
ENDMDL
