MODEL 1
REMARK VINA RESULT:    -3.118      0.000      0.000
REMARK INTER + INTRA:          -8.288
REMARK INTER:                  -6.764
REMARK INTRA:                  -1.524
REMARK UNBOUND:                -1.524
REMARK SMILES CCCCCCCCCCCCCCCCCCCCCC(=O)[O-]
REMARK SMILES IDX 12 1 11 2 10 3 9 4 8 5 7 6 6 7 5 8 4 9 3 10 2 11 1 12 13 13
REMARK SMILES IDX 14 14 15 15 16 16 17 17 18 18 19 19 20 20 21 21 22 22 23 23
REMARK SMILES IDX 24 24
REMARK H PARENT
REMARK Flexibility Score: inf
ROOT
ATOM      1  C   UNL     1      24.808  32.491  34.445  1.00  0.00     0.000 C 
ENDROOT
BRANCH   1   2
ATOM      2  C   UNL     1      25.789  33.186  33.485  1.00  0.00     0.000 C 
BRANCH   2   3
ATOM      3  C   UNL     1      25.219  33.320  32.063  1.00  0.00     0.000 C 
BRANCH   3   4
ATOM      4  C   UNL     1      26.179  34.072  31.122  1.00  0.00    -0.000 C 
BRANCH   4   5
ATOM      5  C   UNL     1      27.646  34.016  31.597  1.00  0.00    -0.000 C 
BRANCH   5   6
ATOM      6  C   UNL     1      28.133  35.312  32.274  1.00  0.00    -0.000 C 
BRANCH   6   7
ATOM      7  C   UNL     1      27.038  36.127  32.986  1.00  0.00    -0.000 C 
BRANCH   7   8
ATOM      8  C   UNL     1      27.015  37.632  32.651  1.00  0.00    -0.000 C 
BRANCH   8   9
ATOM      9  C   UNL     1      26.807  38.518  33.895  1.00  0.00    -0.000 C 
BRANCH   9  10
ATOM     10  C   UNL     1      27.079  40.010  33.627  1.00  0.00    -0.000 C 
BRANCH  10  11
ATOM     11  C   UNL     1      25.834  40.849  33.286  1.00  0.00    -0.003 C 
ATOM     12  C   UNL     1      24.787  40.850  34.400  1.00  0.00     0.004 C 
ENDBRANCH  10  11
ENDBRANCH   9  10
ENDBRANCH   8   9
ENDBRANCH   7   8
ENDBRANCH   6   7
ENDBRANCH   5   6
ENDBRANCH   4   5
ENDBRANCH   3   4
ENDBRANCH   2   3
ENDBRANCH   1   2
BRANCH   1  13
ATOM     13  C   UNL     1      24.434  33.376  35.645  1.00  0.00     0.000 C 
BRANCH  13  14
ATOM     14  C   UNL     1      25.671  33.780  36.468  1.00  0.00     0.000 C 
BRANCH  14  15
ATOM     15  C   UNL     1      26.540  32.569  36.845  1.00  0.00     0.000 C 
BRANCH  15  16
ATOM     16  C   UNL     1      28.055  32.887  36.866  1.00  0.00     0.000 C 
BRANCH  16  17
ATOM     17  C   UNL     1      28.606  33.284  35.483  1.00  0.00     0.000 C 
BRANCH  17  18
ATOM     18  C   UNL     1      29.376  32.160  34.759  1.00  0.00     0.000 C 
BRANCH  18  19
ATOM     19  C   UNL     1      29.829  30.991  35.655  1.00  0.00     0.000 C 
BRANCH  19  20
ATOM     20  C   UNL     1      30.465  29.835  34.862  1.00  0.00     0.006 C 
BRANCH  20  21
ATOM     21  C   UNL     1      30.077  29.864  33.378  1.00  0.00     0.053 C 
BRANCH  21  22
ATOM     22  C   UNL     1      30.334  28.551  32.701  1.00  0.00     0.041 C 
ATOM     23  O   UNL     1      30.390  28.485  31.445  1.00  0.00    -0.550 OA
ATOM     24  O   UNL     1      30.520  27.401  33.461  1.00  0.00    -0.550 OA
ENDBRANCH  21  22
ENDBRANCH  20  21
ENDBRANCH  19  20
ENDBRANCH  18  19
ENDBRANCH  17  18
ENDBRANCH  16  17
ENDBRANCH  15  16
ENDBRANCH  14  15
ENDBRANCH  13  14
ENDBRANCH   1  13
TORSDOF 20
ENDMDL
MODEL 2
REMARK VINA RESULT:    -2.894      2.244      4.775
REMARK INTER + INTRA:          -7.802
REMARK INTER:                  -6.209
REMARK INTRA:                  -1.593
REMARK UNBOUND:                -1.524
REMARK SMILES CCCCCCCCCCCCCCCCCCCCCC(=O)[O-]
REMARK SMILES IDX 12 1 11 2 10 3 9 4 8 5 7 6 6 7 5 8 4 9 3 10 2 11 1 12 13 13
REMARK SMILES IDX 14 14 15 15 16 16 17 17 18 18 19 19 20 20 21 21 22 22 23 23
REMARK SMILES IDX 24 24
REMARK H PARENT
REMARK Flexibility Score: inf
ROOT
ATOM      1  C   UNL     1      25.028  34.099  36.097  1.00  0.00     0.000 C 
ENDROOT
BRANCH   1   2
ATOM      2  C   UNL     1      24.735  33.064  34.997  1.00  0.00     0.000 C 
BRANCH   2   3
ATOM      3  C   UNL     1      25.486  33.372  33.691  1.00  0.00     0.000 C 
BRANCH   3   4
ATOM      4  C   UNL     1      26.722  34.259  33.929  1.00  0.00    -0.000 C 
BRANCH   4   5
ATOM      5  C   UNL     1      26.757  35.495  33.005  1.00  0.00    -0.000 C 
BRANCH   5   6
ATOM      6  C   UNL     1      27.545  35.275  31.699  1.00  0.00    -0.000 C 
BRANCH   6   7
ATOM      7  C   UNL     1      27.619  33.814  31.220  1.00  0.00    -0.000 C 
BRANCH   7   8
ATOM      8  C   UNL     1      29.042  33.234  31.094  1.00  0.00    -0.000 C 
BRANCH   8   9
ATOM      9  C   UNL     1      29.371  32.761  29.664  1.00  0.00    -0.000 C 
BRANCH   9  10
ATOM     10  C   UNL     1      30.633  31.881  29.593  1.00  0.00    -0.000 C 
BRANCH  10  11
ATOM     11  C   UNL     1      30.903  31.241  28.219  1.00  0.00    -0.003 C 
ATOM     12  C   UNL     1      30.110  31.892  27.086  1.00  0.00     0.004 C 
ENDBRANCH  10  11
ENDBRANCH   9  10
ENDBRANCH   8   9
ENDBRANCH   7   8
ENDBRANCH   6   7
ENDBRANCH   5   6
ENDBRANCH   4   5
ENDBRANCH   3   4
ENDBRANCH   2   3
ENDBRANCH   1   2
BRANCH   1  13
ATOM     13  C   UNL     1      26.155  33.648  37.042  1.00  0.00     0.000 C 
BRANCH  13  14
ATOM     14  C   UNL     1      26.255  32.114  37.125  1.00  0.00     0.000 C 
BRANCH  14  15
ATOM     15  C   UNL     1      27.682  31.608  36.856  1.00  0.00     0.000 C 
BRANCH  15  16
ATOM     16  C   UNL     1      28.716  32.751  36.707  1.00  0.00     0.000 C 
BRANCH  16  17
ATOM     17  C   UNL     1      29.498  32.686  35.382  1.00  0.00     0.000 C 
BRANCH  17  18
ATOM     18  C   UNL     1      30.931  32.128  35.516  1.00  0.00     0.000 C 
BRANCH  18  19
ATOM     19  C   UNL     1      31.123  31.068  36.617  1.00  0.00     0.000 C 
BRANCH  19  20
ATOM     20  C   UNL     1      30.974  29.626  36.099  1.00  0.00     0.006 C 
BRANCH  20  21
ATOM     21  C   UNL     1      30.980  29.555  34.566  1.00  0.00     0.053 C 
BRANCH  21  22
ATOM     22  C   UNL     1      30.586  28.199  34.063  1.00  0.00     0.041 C 
ATOM     23  O   UNL     1      30.621  27.945  32.830  1.00  0.00    -0.550 OA
ATOM     24  O   UNL     1      30.186  27.213  34.958  1.00  0.00    -0.550 OA
ENDBRANCH  21  22
ENDBRANCH  20  21
ENDBRANCH  19  20
ENDBRANCH  18  19
ENDBRANCH  17  18
ENDBRANCH  16  17
ENDBRANCH  15  16
ENDBRANCH  14  15
ENDBRANCH  13  14
ENDBRANCH   1  13
TORSDOF 20
ENDMDL
MODEL 3
REMARK VINA RESULT:    -2.739      1.173      2.006
REMARK INTER + INTRA:          -7.466
REMARK INTER:                  -5.424
REMARK INTRA:                  -2.042
REMARK UNBOUND:                -1.524
REMARK SMILES CCCCCCCCCCCCCCCCCCCCCC(=O)[O-]
REMARK SMILES IDX 12 1 11 2 10 3 9 4 8 5 7 6 6 7 5 8 4 9 3 10 2 11 1 12 13 13
REMARK SMILES IDX 14 14 15 15 16 16 17 17 18 18 19 19 20 20 21 21 22 22 23 23
REMARK SMILES IDX 24 24
REMARK H PARENT
REMARK Flexibility Score: inf
ROOT
ATOM      1  C   UNL     1      24.879  33.547  32.796  1.00  0.00     0.000 C 
ENDROOT
BRANCH   1   2
ATOM      2  C   UNL     1      25.243  32.737  31.540  1.00  0.00     0.000 C 
BRANCH   2   3
ATOM      3  C   UNL     1      25.431  33.631  30.303  1.00  0.00     0.000 C 
BRANCH   3   4
ATOM      4  C   UNL     1      26.683  34.521  30.416  1.00  0.00    -0.000 C 
BRANCH   4   5
ATOM      5  C   UNL     1      27.946  33.726  30.807  1.00  0.00    -0.000 C 
BRANCH   5   6
ATOM      6  C   UNL     1      28.365  33.905  32.280  1.00  0.00    -0.000 C 
BRANCH   6   7
ATOM      7  C   UNL     1      28.454  35.365  32.760  1.00  0.00    -0.000 C 
BRANCH   7   8
ATOM      8  C   UNL     1      27.194  35.904  33.467  1.00  0.00    -0.000 C 
BRANCH   8   9
ATOM      9  C   UNL     1      26.748  37.278  32.931  1.00  0.00    -0.000 C 
BRANCH   9  10
ATOM     10  C   UNL     1      26.823  38.394  33.990  1.00  0.00    -0.000 C 
BRANCH  10  11
ATOM     11  C   UNL     1      27.018  39.814  33.427  1.00  0.00    -0.003 C 
ATOM     12  C   UNL     1      25.815  40.725  33.665  1.00  0.00     0.004 C 
ENDBRANCH  10  11
ENDBRANCH   9  10
ENDBRANCH   8   9
ENDBRANCH   7   8
ENDBRANCH   6   7
ENDBRANCH   5   6
ENDBRANCH   4   5
ENDBRANCH   3   4
ENDBRANCH   2   3
ENDBRANCH   1   2
BRANCH   1  13
ATOM     13  C   UNL     1      25.287  32.830  34.094  1.00  0.00     0.000 C 
BRANCH  13  14
ATOM     14  C   UNL     1      24.206  32.955  35.184  1.00  0.00     0.000 C 
BRANCH  14  15
ATOM     15  C   UNL     1      24.786  33.422  36.528  1.00  0.00     0.000 C 
BRANCH  15  16
ATOM     16  C   UNL     1      26.275  33.835  36.440  1.00  0.00     0.000 C 
BRANCH  16  17
ATOM     17  C   UNL     1      27.232  32.760  36.989  1.00  0.00     0.000 C 
BRANCH  17  18
ATOM     18  C   UNL     1      28.721  33.161  36.965  1.00  0.00     0.000 C 
BRANCH  18  19
ATOM     19  C   UNL     1      29.401  33.086  35.584  1.00  0.00     0.000 C 
BRANCH  19  20
ATOM     20  C   UNL     1      30.789  32.425  35.630  1.00  0.00     0.006 C 
BRANCH  20  21
ATOM     21  C   UNL     1      30.709  30.894  35.562  1.00  0.00     0.053 C 
BRANCH  21  22
ATOM     22  C   UNL     1      30.176  30.415  34.244  1.00  0.00     0.041 C 
ATOM     23  O   UNL     1      30.399  31.072  33.193  1.00  0.00    -0.550 OA
ATOM     24  O   UNL     1      29.439  29.238  34.178  1.00  0.00    -0.550 OA
ENDBRANCH  21  22
ENDBRANCH  20  21
ENDBRANCH  19  20
ENDBRANCH  18  19
ENDBRANCH  17  18
ENDBRANCH  16  17
ENDBRANCH  15  16
ENDBRANCH  14  15
ENDBRANCH  13  14
ENDBRANCH   1  13
TORSDOF 20
ENDMDL
MODEL 4
REMARK VINA RESULT:    -2.715      2.536      5.389
REMARK INTER + INTRA:          -7.414
REMARK INTER:                  -4.730
REMARK INTRA:                  -2.684
REMARK UNBOUND:                -1.524
REMARK SMILES CCCCCCCCCCCCCCCCCCCCCC(=O)[O-]
REMARK SMILES IDX 12 1 11 2 10 3 9 4 8 5 7 6 6 7 5 8 4 9 3 10 2 11 1 12 13 13
REMARK SMILES IDX 14 14 15 15 16 16 17 17 18 18 19 19 20 20 21 21 22 22 23 23
REMARK SMILES IDX 24 24
REMARK H PARENT
REMARK Flexibility Score: inf
ROOT
ATOM      1  C   UNL     1      25.921  33.997  33.567  1.00  0.00     0.000 C 
ENDROOT
BRANCH   1   2
ATOM      2  C   UNL     1      26.955  35.134  33.497  1.00  0.00     0.000 C 
BRANCH   2   3
ATOM      3  C   UNL     1      27.407  35.424  32.056  1.00  0.00     0.000 C 
BRANCH   3   4
ATOM      4  C   UNL     1      26.799  34.431  31.048  1.00  0.00    -0.000 C 
BRANCH   4   5
ATOM      5  C   UNL     1      27.801  33.347  30.599  1.00  0.00    -0.000 C 
BRANCH   5   6
ATOM      6  C   UNL     1      29.154  33.405  31.334  1.00  0.00    -0.000 C 
BRANCH   6   7
ATOM      7  C   UNL     1      29.597  32.084  31.990  1.00  0.00    -0.000 C 
BRANCH   7   8
ATOM      8  C   UNL     1      30.829  31.413  31.350  1.00  0.00    -0.000 C 
BRANCH   8   9
ATOM      9  C   UNL     1      30.960  31.716  29.844  1.00  0.00    -0.000 C 
BRANCH   9  10
ATOM     10  C   UNL     1      31.067  30.447  28.979  1.00  0.00    -0.000 C 
BRANCH  10  11
ATOM     11  C   UNL     1      30.524  30.589  27.545  1.00  0.00    -0.003 C 
ATOM     12  C   UNL     1      29.991  31.989  27.240  1.00  0.00     0.004 C 
ENDBRANCH  10  11
ENDBRANCH   9  10
ENDBRANCH   8   9
ENDBRANCH   7   8
ENDBRANCH   6   7
ENDBRANCH   5   6
ENDBRANCH   4   5
ENDBRANCH   3   4
ENDBRANCH   2   3
ENDBRANCH   1   2
BRANCH   1  13
ATOM     13  C   UNL     1      26.339  32.884  34.543  1.00  0.00     0.000 C 
BRANCH  13  14
ATOM     14  C   UNL     1      26.463  33.402  35.987  1.00  0.00     0.000 C 
BRANCH  14  15
ATOM     15  C   UNL     1      27.791  32.989  36.642  1.00  0.00     0.000 C 
BRANCH  15  16
ATOM     16  C   UNL     1      29.033  33.388  35.808  1.00  0.00     0.000 C 
BRANCH  16  17
ATOM     17  C   UNL     1      30.052  32.243  35.660  1.00  0.00     0.000 C 
BRANCH  17  18
ATOM     18  C   UNL     1      29.532  30.864  36.118  1.00  0.00     0.000 C 
BRANCH  18  19
ATOM     19  C   UNL     1      29.085  29.920  34.984  1.00  0.00     0.000 C 
BRANCH  19  20
ATOM     20  C   UNL     1      30.254  29.148  34.348  1.00  0.00     0.006 C 
BRANCH  20  21
ATOM     21  C   UNL     1      30.983  28.256  35.362  1.00  0.00     0.053 C 
BRANCH  21  22
ATOM     22  C   UNL     1      30.272  26.955  35.584  1.00  0.00     0.041 C 
ATOM     23  O   UNL     1      29.879  26.271  34.602  1.00  0.00    -0.550 OA
ATOM     24  O   UNL     1      30.049  26.495  36.877  1.00  0.00    -0.550 OA
ENDBRANCH  21  22
ENDBRANCH  20  21
ENDBRANCH  19  20
ENDBRANCH  18  19
ENDBRANCH  17  18
ENDBRANCH  16  17
ENDBRANCH  15  16
ENDBRANCH  14  15
ENDBRANCH  13  14
ENDBRANCH   1  13
TORSDOF 20
ENDMDL
MODEL 5
REMARK VINA RESULT:    -2.673      4.199      8.939
REMARK INTER + INTRA:          -7.323
REMARK INTER:                  -5.917
REMARK INTRA:                  -1.405
REMARK UNBOUND:                -1.524
REMARK SMILES CCCCCCCCCCCCCCCCCCCCCC(=O)[O-]
REMARK SMILES IDX 12 1 11 2 10 3 9 4 8 5 7 6 6 7 5 8 4 9 3 10 2 11 1 12 13 13
REMARK SMILES IDX 14 14 15 15 16 16 17 17 18 18 19 19 20 20 21 21 22 22 23 23
REMARK SMILES IDX 24 24
REMARK H PARENT
REMARK Flexibility Score: inf
ROOT
ATOM      1  C   UNL     1      24.882  32.651  34.445  1.00  0.00     0.000 C 
ENDROOT
BRANCH   1   2
ATOM      2  C   UNL     1      24.577  33.824  35.392  1.00  0.00     0.000 C 
BRANCH   2   3
ATOM      3  C   UNL     1      25.507  33.843  36.617  1.00  0.00     0.000 C 
BRANCH   3   4
ATOM      4  C   UNL     1      26.414  32.600  36.675  1.00  0.00    -0.000 C 
BRANCH   4   5
ATOM      5  C   UNL     1      27.899  32.955  36.897  1.00  0.00    -0.000 C 
BRANCH   5   6
ATOM      6  C   UNL     1      28.817  32.568  35.721  1.00  0.00    -0.000 C 
BRANCH   6   7
ATOM      7  C   UNL     1      29.089  31.059  35.575  1.00  0.00    -0.000 C 
BRANCH   7   8
ATOM      8  C   UNL     1      30.274  30.521  36.402  1.00  0.00    -0.000 C 
BRANCH   8   9
ATOM      9  C   UNL     1      30.623  29.059  36.064  1.00  0.00    -0.000 C 
BRANCH   9  10
ATOM     10  C   UNL     1      30.472  28.731  34.567  1.00  0.00    -0.000 C 
BRANCH  10  11
ATOM     11  C   UNL     1      30.305  27.236  34.241  1.00  0.00    -0.003 C 
ATOM     12  C   UNL     1      30.091  26.370  35.483  1.00  0.00     0.004 C 
ENDBRANCH  10  11
ENDBRANCH   9  10
ENDBRANCH   8   9
ENDBRANCH   7   8
ENDBRANCH   6   7
ENDBRANCH   5   6
ENDBRANCH   4   5
ENDBRANCH   3   4
ENDBRANCH   2   3
ENDBRANCH   1   2
BRANCH   1  13
ATOM     13  C   UNL     1      25.985  32.990  33.428  1.00  0.00     0.000 C 
BRANCH  13  14
ATOM     14  C   UNL     1      25.405  33.295  32.034  1.00  0.00     0.000 C 
BRANCH  14  15
ATOM     15  C   UNL     1      26.183  34.406  31.311  1.00  0.00     0.000 C 
BRANCH  15  16
ATOM     16  C   UNL     1      27.701  34.386  31.617  1.00  0.00     0.000 C 
BRANCH  16  17
ATOM     17  C   UNL     1      28.145  35.540  32.536  1.00  0.00     0.000 C 
BRANCH  17  18
ATOM     18  C   UNL     1      26.994  36.215  33.311  1.00  0.00     0.000 C 
BRANCH  18  19
ATOM     19  C   UNL     1      26.631  37.637  32.841  1.00  0.00     0.000 C 
BRANCH  19  20
ATOM     20  C   UNL     1      26.914  38.714  33.904  1.00  0.00     0.006 C 
BRANCH  20  21
ATOM     21  C   UNL     1      26.738  40.135  33.354  1.00  0.00     0.053 C 
BRANCH  21  22
ATOM     22  C   UNL     1      25.598  40.857  34.007  1.00  0.00     0.041 C 
ATOM     23  O   UNL     1      25.083  40.405  35.064  1.00  0.00    -0.550 OA
ATOM     24  O   UNL     1      25.109  42.034  33.452  1.00  0.00    -0.550 OA
ENDBRANCH  21  22
ENDBRANCH  20  21
ENDBRANCH  19  20
ENDBRANCH  18  19
ENDBRANCH  17  18
ENDBRANCH  16  17
ENDBRANCH  15  16
ENDBRANCH  14  15
ENDBRANCH  13  14
ENDBRANCH   1  13
TORSDOF 20
ENDMDL
MODEL 6
REMARK VINA RESULT:    -2.668      4.155      8.447
REMARK INTER + INTRA:          -7.312
REMARK INTER:                  -6.178
REMARK INTRA:                  -1.134
REMARK UNBOUND:                -1.524
REMARK SMILES CCCCCCCCCCCCCCCCCCCCCC(=O)[O-]
REMARK SMILES IDX 12 1 11 2 10 3 9 4 8 5 7 6 6 7 5 8 4 9 3 10 2 11 1 12 13 13
REMARK SMILES IDX 14 14 15 15 16 16 17 17 18 18 19 19 20 20 21 21 22 22 23 23
REMARK SMILES IDX 24 24
REMARK H PARENT
REMARK Flexibility Score: inf
ROOT
ATOM      1  C   UNL     1      24.799  32.878  34.674  1.00  0.00     0.000 C 
ENDROOT
BRANCH   1   2
ATOM      2  C   UNL     1      24.706  33.869  35.848  1.00  0.00     0.000 C 
BRANCH   2   3
ATOM      3  C   UNL     1      25.590  33.452  37.035  1.00  0.00     0.000 C 
BRANCH   3   4
ATOM      4  C   UNL     1      26.506  32.264  36.685  1.00  0.00    -0.000 C 
BRANCH   4   5
ATOM      5  C   UNL     1      27.997  32.564  36.946  1.00  0.00    -0.000 C 
BRANCH   5   6
ATOM      6  C   UNL     1      28.709  33.261  35.770  1.00  0.00    -0.000 C 
BRANCH   6   7
ATOM      7  C   UNL     1      30.238  33.371  35.906  1.00  0.00    -0.000 C 
BRANCH   7   8
ATOM      8  C   UNL     1      30.991  32.026  35.972  1.00  0.00    -0.000 C 
BRANCH   8   9
ATOM      9  C   UNL     1      30.970  31.264  34.632  1.00  0.00    -0.000 C 
BRANCH   9  10
ATOM     10  C   UNL     1      30.270  29.895  34.726  1.00  0.00    -0.000 C 
BRANCH  10  11
ATOM     11  C   UNL     1      30.340  29.039  33.449  1.00  0.00    -0.003 C 
ATOM     12  C   UNL     1      30.601  29.861  32.187  1.00  0.00     0.004 C 
ENDBRANCH  10  11
ENDBRANCH   9  10
ENDBRANCH   8   9
ENDBRANCH   7   8
ENDBRANCH   6   7
ENDBRANCH   5   6
ENDBRANCH   4   5
ENDBRANCH   3   4
ENDBRANCH   2   3
ENDBRANCH   1   2
BRANCH   1  13
ATOM     13  C   UNL     1      25.880  33.276  33.656  1.00  0.00     0.000 C 
BRANCH  13  14
ATOM     14  C   UNL     1      25.370  33.176  32.207  1.00  0.00     0.000 C 
BRANCH  14  15
ATOM     15  C   UNL     1      26.019  34.223  31.287  1.00  0.00     0.000 C 
BRANCH  15  16
ATOM     16  C   UNL     1      27.562  34.269  31.409  1.00  0.00     0.000 C 
BRANCH  16  17
ATOM     17  C   UNL     1      28.063  35.438  32.277  1.00  0.00     0.000 C 
BRANCH  17  18
ATOM     18  C   UNL     1      26.943  36.246  32.964  1.00  0.00     0.000 C 
BRANCH  18  19
ATOM     19  C   UNL     1      26.941  37.757  32.660  1.00  0.00     0.000 C 
BRANCH  19  20
ATOM     20  C   UNL     1      26.648  38.621  33.900  1.00  0.00     0.006 C 
BRANCH  20  21
ATOM     21  C   UNL     1      26.724  40.123  33.594  1.00  0.00     0.053 C 
BRANCH  21  22
ATOM     22  C   UNL     1      25.516  40.861  34.087  1.00  0.00     0.041 C 
ATOM     23  O   UNL     1      24.945  40.504  35.151  1.00  0.00    -0.550 OA
ATOM     24  O   UNL     1      25.025  41.949  33.374  1.00  0.00    -0.550 OA
ENDBRANCH  21  22
ENDBRANCH  20  21
ENDBRANCH  19  20
ENDBRANCH  18  19
ENDBRANCH  17  18
ENDBRANCH  16  17
ENDBRANCH  15  16
ENDBRANCH  14  15
ENDBRANCH  13  14
ENDBRANCH   1  13
TORSDOF 20
ENDMDL
MODEL 7
REMARK VINA RESULT:    -2.565      1.061      2.672
REMARK INTER + INTRA:          -7.089
REMARK INTER:                  -5.360
REMARK INTRA:                  -1.730
REMARK UNBOUND:                -1.524
REMARK SMILES CCCCCCCCCCCCCCCCCCCCCC(=O)[O-]
REMARK SMILES IDX 12 1 11 2 10 3 9 4 8 5 7 6 6 7 5 8 4 9 3 10 2 11 1 12 13 13
REMARK SMILES IDX 14 14 15 15 16 16 17 17 18 18 19 19 20 20 21 21 22 22 23 23
REMARK SMILES IDX 24 24
REMARK H PARENT
REMARK Flexibility Score: inf
ROOT
ATOM      1  C   UNL     1      25.259  34.018  31.362  1.00  0.00     0.000 C 
ENDROOT
BRANCH   1   2
ATOM      2  C   UNL     1      26.506  33.965  30.462  1.00  0.00     0.000 C 
BRANCH   2   3
ATOM      3  C   UNL     1      27.810  33.894  31.275  1.00  0.00     0.000 C 
BRANCH   3   4
ATOM      4  C   UNL     1      28.175  35.253  31.903  1.00  0.00    -0.000 C 
BRANCH   4   5
ATOM      5  C   UNL     1      27.773  35.350  33.389  1.00  0.00    -0.000 C 
BRANCH   5   6
ATOM      6  C   UNL     1      26.696  36.414  33.676  1.00  0.00    -0.000 C 
BRANCH   6   7
ATOM      7  C   UNL     1      26.957  37.793  33.043  1.00  0.00    -0.000 C 
BRANCH   7   8
ATOM      8  C   UNL     1      26.838  38.992  34.006  1.00  0.00    -0.000 C 
BRANCH   8   9
ATOM      9  C   UNL     1      26.827  40.348  33.273  1.00  0.00    -0.000 C 
BRANCH   9  10
ATOM     10  C   UNL     1      25.600  41.212  33.616  1.00  0.00    -0.000 C 
BRANCH  10  11
ATOM     11  C   UNL     1      24.502  40.493  34.422  1.00  0.00    -0.003 C 
ATOM     12  C   UNL     1      24.632  40.697  35.931  1.00  0.00     0.004 C 
ENDBRANCH  10  11
ENDBRANCH   9  10
ENDBRANCH   8   9
ENDBRANCH   7   8
ENDBRANCH   6   7
ENDBRANCH   5   6
ENDBRANCH   4   5
ENDBRANCH   3   4
ENDBRANCH   2   3
ENDBRANCH   1   2
BRANCH   1  13
ATOM     13  C   UNL     1      25.137  32.782  32.268  1.00  0.00     0.000 C 
BRANCH  13  14
ATOM     14  C   UNL     1      25.555  33.089  33.718  1.00  0.00     0.000 C 
BRANCH  14  15
ATOM     15  C   UNL     1      24.385  32.944  34.704  1.00  0.00     0.000 C 
BRANCH  15  16
ATOM     16  C   UNL     1      24.780  33.252  36.170  1.00  0.00     0.000 C 
BRANCH  16  17
ATOM     17  C   UNL     1      26.028  32.476  36.632  1.00  0.00     0.000 C 
BRANCH  17  18
ATOM     18  C   UNL     1      27.250  33.364  36.943  1.00  0.00     0.000 C 
BRANCH  18  19
ATOM     19  C   UNL     1      28.609  32.793  36.493  1.00  0.00     0.000 C 
BRANCH  19  20
ATOM     20  C   UNL     1      28.560  32.153  35.094  1.00  0.00     0.006 C 
BRANCH  20  21
ATOM     21  C   UNL     1      29.942  31.683  34.620  1.00  0.00     0.053 C 
BRANCH  21  22
ATOM     22  C   UNL     1      29.937  30.242  34.206  1.00  0.00     0.041 C 
ATOM     23  O   UNL     1      29.549  29.353  35.009  1.00  0.00    -0.550 OA
ATOM     24  O   UNL     1      30.354  29.882  32.930  1.00  0.00    -0.550 OA
ENDBRANCH  21  22
ENDBRANCH  20  21
ENDBRANCH  19  20
ENDBRANCH  18  19
ENDBRANCH  17  18
ENDBRANCH  16  17
ENDBRANCH  15  16
ENDBRANCH  14  15
ENDBRANCH  13  14
ENDBRANCH   1  13
TORSDOF 20
ENDMDL
MODEL 8
REMARK VINA RESULT:    -2.540      2.735      4.698
REMARK INTER + INTRA:          -7.034
REMARK INTER:                  -4.989
REMARK INTRA:                  -2.045
REMARK UNBOUND:                -1.524
REMARK SMILES CCCCCCCCCCCCCCCCCCCCCC(=O)[O-]
REMARK SMILES IDX 12 1 11 2 10 3 9 4 8 5 7 6 6 7 5 8 4 9 3 10 2 11 1 12 13 13
REMARK SMILES IDX 14 14 15 15 16 16 17 17 18 18 19 19 20 20 21 21 22 22 23 23
REMARK SMILES IDX 24 24
REMARK H PARENT
REMARK Flexibility Score: inf
ROOT
ATOM      1  C   UNL     1      30.704  30.956  31.894  1.00  0.00     0.000 C 
ENDROOT
BRANCH   1   2
ATOM      2  C   UNL     1      29.790  32.182  32.061  1.00  0.00     0.000 C 
BRANCH   2   3
ATOM      3  C   UNL     1      29.312  32.742  30.711  1.00  0.00     0.000 C 
BRANCH   3   4
ATOM      4  C   UNL     1      28.082  33.656  30.866  1.00  0.00    -0.000 C 
BRANCH   4   5
ATOM      5  C   UNL     1      28.142  34.527  32.138  1.00  0.00    -0.000 C 
BRANCH   5   6
ATOM      6  C   UNL     1      26.886  35.391  32.363  1.00  0.00    -0.000 C 
BRANCH   6   7
ATOM      7  C   UNL     1      27.049  36.525  33.391  1.00  0.00    -0.000 C 
BRANCH   7   8
ATOM      8  C   UNL     1      26.644  37.928  32.894  1.00  0.00    -0.000 C 
BRANCH   8   9
ATOM      9  C   UNL     1      26.932  39.034  33.929  1.00  0.00    -0.000 C 
BRANCH   9  10
ATOM     10  C   UNL     1      26.595  40.446  33.414  1.00  0.00    -0.000 C 
BRANCH  10  11
ATOM     11  C   UNL     1      25.149  40.907  33.677  1.00  0.00    -0.003 C 
ATOM     12  C   UNL     1      25.010  42.427  33.764  1.00  0.00     0.004 C 
ENDBRANCH  10  11
ENDBRANCH   9  10
ENDBRANCH   8   9
ENDBRANCH   7   8
ENDBRANCH   6   7
ENDBRANCH   5   6
ENDBRANCH   4   5
ENDBRANCH   3   4
ENDBRANCH   2   3
ENDBRANCH   1   2
BRANCH   1  13
ATOM     13  C   UNL     1      31.023  30.274  33.235  1.00  0.00     0.000 C 
BRANCH  13  14
ATOM     14  C   UNL     1      30.265  28.943  33.397  1.00  0.00     0.000 C 
BRANCH  14  15
ATOM     15  C   UNL     1      30.427  28.349  34.806  1.00  0.00     0.000 C 
BRANCH  15  16
ATOM     16  C   UNL     1      30.872  29.392  35.860  1.00  0.00     0.000 C 
BRANCH  16  17
ATOM     17  C   UNL     1      29.864  29.551  37.013  1.00  0.00     0.000 C 
BRANCH  17  18
ATOM     18  C   UNL     1      28.674  30.480  36.694  1.00  0.00     0.000 C 
BRANCH  18  19
ATOM     19  C   UNL     1      29.036  31.778  35.945  1.00  0.00     0.000 C 
BRANCH  19  20
ATOM     20  C   UNL     1      27.849  32.379  35.172  1.00  0.00     0.006 C 
BRANCH  20  21
ATOM     21  C   UNL     1      26.944  33.236  36.068  1.00  0.00     0.053 C 
BRANCH  21  22
ATOM     22  C   UNL     1      25.617  33.515  35.429  1.00  0.00     0.041 C 
ATOM     23  O   UNL     1      24.842  34.374  35.925  1.00  0.00    -0.550 OA
ATOM     24  O   UNL     1      25.241  32.830  34.279  1.00  0.00    -0.550 OA
ENDBRANCH  21  22
ENDBRANCH  20  21
ENDBRANCH  19  20
ENDBRANCH  18  19
ENDBRANCH  17  18
ENDBRANCH  16  17
ENDBRANCH  15  16
ENDBRANCH  14  15
ENDBRANCH  13  14
ENDBRANCH   1  13
TORSDOF 20
ENDMDL
MODEL 9
REMARK VINA RESULT:    -2.445      4.917      8.076
REMARK INTER + INTRA:          -6.827
REMARK INTER:                  -5.281
REMARK INTRA:                  -1.547
REMARK UNBOUND:                -1.524
REMARK SMILES CCCCCCCCCCCCCCCCCCCCCC(=O)[O-]
REMARK SMILES IDX 12 1 11 2 10 3 9 4 8 5 7 6 6 7 5 8 4 9 3 10 2 11 1 12 13 13
REMARK SMILES IDX 14 14 15 15 16 16 17 17 18 18 19 19 20 20 21 21 22 22 23 23
REMARK SMILES IDX 24 24
REMARK H PARENT
REMARK Flexibility Score: inf
ROOT
ATOM      1  C   UNL     1      30.409  31.734  30.294  1.00  0.00     0.000 C 
ENDROOT
BRANCH   1   2
ATOM      2  C   UNL     1      30.733  30.463  31.099  1.00  0.00     0.000 C 
BRANCH   2   3
ATOM      3  C   UNL     1      31.008  30.766  32.582  1.00  0.00     0.000 C 
BRANCH   3   4
ATOM      4  C   UNL     1      30.429  29.683  33.511  1.00  0.00    -0.000 C 
BRANCH   4   5
ATOM      5  C   UNL     1      30.745  29.941  34.999  1.00  0.00    -0.000 C 
BRANCH   5   6
ATOM      6  C   UNL     1      30.343  31.347  35.488  1.00  0.00    -0.000 C 
BRANCH   6   7
ATOM      7  C   UNL     1      28.827  31.586  35.608  1.00  0.00    -0.000 C 
BRANCH   7   8
ATOM      8  C   UNL     1      28.331  32.946  35.076  1.00  0.00    -0.000 C 
BRANCH   8   9
ATOM      9  C   UNL     1      29.162  33.461  33.885  1.00  0.00    -0.000 C 
BRANCH   9  10
ATOM     10  C   UNL     1      28.313  33.745  32.632  1.00  0.00    -0.000 C 
BRANCH  10  11
ATOM     11  C   UNL     1      26.894  34.274  32.913  1.00  0.00    -0.003 C 
ATOM     12  C   UNL     1      26.804  35.799  32.881  1.00  0.00     0.004 C 
ENDBRANCH  10  11
ENDBRANCH   9  10
ENDBRANCH   8   9
ENDBRANCH   7   8
ENDBRANCH   6   7
ENDBRANCH   5   6
ENDBRANCH   4   5
ENDBRANCH   3   4
ENDBRANCH   2   3
ENDBRANCH   1   2
BRANCH   1  13
ATOM     13  C   UNL     1      31.062  31.728  28.902  1.00  0.00     0.000 C 
BRANCH  13  14
ATOM     14  C   UNL     1      30.069  31.305  27.803  1.00  0.00     0.000 C 
BRANCH  14  15
ATOM     15  C   UNL     1      30.779  30.723  26.570  1.00  0.00     0.000 C 
BRANCH  15  16
ATOM     16  C   UNL     1      31.125  29.221  26.717  1.00  0.00     0.000 C 
BRANCH  16  17
ATOM     17  C   UNL     1      30.583  28.603  28.019  1.00  0.00     0.000 C 
BRANCH  17  18
ATOM     18  C   UNL     1      30.024  27.174  27.860  1.00  0.00     0.000 C 
BRANCH  18  19
ATOM     19  C   UNL     1      31.085  26.064  27.724  1.00  0.00     0.000 C 
BRANCH  19  20
ATOM     20  C   UNL     1      30.952  25.259  26.420  1.00  0.00     0.006 C 
BRANCH  20  21
ATOM     21  C   UNL     1      29.510  24.803  26.161  1.00  0.00     0.053 C 
BRANCH  21  22
ATOM     22  C   UNL     1      29.293  24.398  24.734  1.00  0.00     0.041 C 
ATOM     23  O   UNL     1      28.128  24.190  24.304  1.00  0.00    -0.550 OA
ATOM     24  O   UNL     1      30.379  24.257  23.878  1.00  0.00    -0.550 OA
ENDBRANCH  21  22
ENDBRANCH  20  21
ENDBRANCH  19  20
ENDBRANCH  18  19
ENDBRANCH  17  18
ENDBRANCH  16  17
ENDBRANCH  15  16
ENDBRANCH  14  15
ENDBRANCH  13  14
ENDBRANCH   1  13
TORSDOF 20
ENDMDL
