MODEL 1
REMARK VINA RESULT:    -6.345      0.000      0.000
REMARK INTER + INTRA:          -6.260
REMARK INTER:                  -6.902
REMARK INTRA:                   0.641
REMARK UNBOUND:                 0.641
REMARK SMILES C=C(C)[C@H]1CC[C@@]2(C)CC[C@]3(C)[C@H](CC[C@H]4[C@]5(C)CC[C@H](O)C(C)(C)[C@H]5CC[C@]43C)[C@@H]12
REMARK SMILES IDX 4 1 5 2 6 3 7 4 31 5 13 6 14 7 15 8 16 9 17 10 19 11 20 12
REMARK SMILES IDX 21 13 23 14 26 15 27 16 28 17 29 18 11 19 10 20 9 21 12 22
REMARK SMILES IDX 30 23 24 24 25 25 18 26 8 27 2 28 3 29 1 30 22 31
REMARK H PARENT 22 32
REMARK Flexibility Score: inf
ROOT
ATOM      1  C   UNL     1      -5.967  -5.036  -9.065  1.00  0.00     0.018 C 
ATOM      2  C   UNL     1      -5.671  -5.957  -7.882  1.00  0.00     0.009 C 
ATOM      3  C   UNL     1      -7.025  -6.507  -7.439  1.00  0.00     0.008 C 
ATOM      4  C   UNL     1      -8.113  -5.798  -8.286  1.00  0.00    -0.029 C 
ATOM      5  C   UNL     1      -7.412  -4.494  -8.819  1.00  0.00     0.006 C 
ATOM      6  C   UNL     1      -7.527  -3.312  -7.773  1.00  0.00    -0.000 C 
ATOM      7  C   UNL     1      -6.895  -1.986  -8.182  1.00  0.00     0.005 C 
ATOM      8  C   UNL     1      -6.629  -1.145  -6.932  1.00  0.00     0.005 C 
ATOM      9  C   UNL     1      -7.658  -1.295  -5.737  1.00  0.00     0.002 C 
ATOM     10  C   UNL     1      -7.596  -0.016  -4.736  1.00  0.00    -0.026 C 
ATOM     11  C   UNL     1      -7.783  -0.439  -3.248  1.00  0.00     0.010 C 
ATOM     12  C   UNL     1      -7.833   0.766  -2.265  1.00  0.00     0.033 C 
ATOM     13  C   UNL     1      -8.805   1.916  -2.663  1.00  0.00     0.120 C 
ATOM     14  C   UNL     1      -8.807   2.319  -4.195  1.00  0.00    -0.006 C 
ATOM     15  C   UNL     1      -8.758   0.997  -5.051  1.00  0.00     0.003 C 
ATOM     16  C   UNL     1      -9.076   1.044  -6.551  1.00  0.00     0.005 C 
ATOM     17  C   UNL     1      -9.582  -0.340  -7.084  1.00  0.00     0.008 C 
ATOM     18  C   UNL     1      -9.084  -1.656  -6.329  1.00  0.00    -0.024 C 
ATOM     19  C   UNL     1      -9.001  -3.007  -7.300  1.00  0.00    -0.024 C 
ATOM     20  C   UNL     1      -9.412  -4.332  -6.558  1.00  0.00     0.008 C 
ATOM     21  C   UNL     1      -9.396  -5.587  -7.436  1.00  0.00     0.007 C 
ATOM     22  C   UNL     1      -9.969  -2.841  -8.523  1.00  0.00     0.012 C 
ATOM     23  C   UNL     1     -10.125  -1.985  -5.197  1.00  0.00     0.012 C 
ATOM     24  C   UNL     1      -7.652   3.308  -4.510  1.00  0.00     0.014 C 
ATOM     25  C   UNL     1     -10.125   3.097  -4.491  1.00  0.00     0.014 C 
ATOM     26  C   UNL     1      -6.171   0.637  -4.825  1.00  0.00     0.012 C 
ATOM     27  C   UNL     1      -8.517  -6.719  -9.473  1.00  0.00     0.011 C 
ENDROOT
BRANCH   1  28
ATOM     28  C   UNL     1      -4.859  -4.065  -9.440  1.00  0.00    -0.077 C 
ATOM     29  C   UNL     1      -3.406  -4.374  -9.161  1.00  0.00     0.039 C 
ATOM     30  C   UNL     1      -5.179  -2.936 -10.099  1.00  0.00     0.008 C 
ENDBRANCH   1  28
BRANCH  13  31
ATOM     31  O   UNL     1     -10.103   1.614  -2.199  1.00  0.00    -0.393 OA
ATOM     32  H   UNL     1     -10.305   2.207  -1.431  1.00  0.00     0.210 HD
ENDBRANCH  13  31
TORSDOF 2
ENDMDL
MODEL 2
REMARK VINA RESULT:    -4.614     15.455     17.893
REMARK INTER + INTRA:          -4.377
REMARK INTER:                  -3.870
REMARK INTRA:                  -0.507
REMARK UNBOUND:                 0.641
REMARK SMILES C=C(C)[C@H]1CC[C@@]2(C)CC[C@]3(C)[C@H](CC[C@H]4[C@]5(C)CC[C@H](O)C(C)(C)[C@H]5CC[C@]43C)[C@@H]12
REMARK SMILES IDX 4 1 5 2 6 3 7 4 31 5 13 6 14 7 15 8 16 9 17 10 19 11 20 12
REMARK SMILES IDX 21 13 23 14 26 15 27 16 28 17 29 18 11 19 10 20 9 21 12 22
REMARK SMILES IDX 30 23 24 24 25 25 18 26 8 27 2 28 3 29 1 30 22 31
REMARK H PARENT 22 32
REMARK Flexibility Score: inf
ROOT
ATOM      1  C   UNL     1       0.366   7.688   7.457  1.00  0.00     0.018 C 
ATOM      2  C   UNL     1       0.472   6.360   8.205  1.00  0.00     0.009 C 
ATOM      3  C   UNL     1       0.015   5.290   7.215  1.00  0.00     0.008 C 
ATOM      4  C   UNL     1      -0.478   6.021   5.940  1.00  0.00    -0.029 C 
ATOM      5  C   UNL     1      -0.784   7.489   6.418  1.00  0.00     0.006 C 
ATOM      6  C   UNL     1      -2.252   7.611   6.995  1.00  0.00    -0.000 C 
ATOM      7  C   UNL     1      -2.673   8.994   7.480  1.00  0.00     0.005 C 
ATOM      8  C   UNL     1      -3.852   8.854   8.445  1.00  0.00     0.005 C 
ATOM      9  C   UNL     1      -4.872   7.675   8.165  1.00  0.00     0.002 C 
ATOM     10  C   UNL     1      -6.305   7.946   8.881  1.00  0.00    -0.026 C 
ATOM     11  C   UNL     1      -6.931   6.631   9.433  1.00  0.00     0.010 C 
ATOM     12  C   UNL     1      -8.351   6.828  10.036  1.00  0.00     0.033 C 
ATOM     13  C   UNL     1      -9.357   7.613   9.142  1.00  0.00     0.120 C 
ATOM     14  C   UNL     1      -8.774   8.887   8.404  1.00  0.00    -0.006 C 
ATOM     15  C   UNL     1      -7.344   8.525   7.850  1.00  0.00     0.003 C 
ATOM     16  C   UNL     1      -6.668   9.437   6.818  1.00  0.00     0.005 C 
ATOM     17  C   UNL     1      -5.620   8.659   5.951  1.00  0.00     0.008 C 
ATOM     18  C   UNL     1      -4.907   7.389   6.606  1.00  0.00    -0.024 C 
ATOM     19  C   UNL     1      -3.377   7.090   6.019  1.00  0.00    -0.024 C 
ATOM     20  C   UNL     1      -3.049   5.557   5.892  1.00  0.00     0.008 C 
ATOM     21  C   UNL     1      -1.667   5.246   5.308  1.00  0.00     0.007 C 
ATOM     22  C   UNL     1      -3.226   7.716   4.589  1.00  0.00     0.012 C 
ATOM     23  C   UNL     1      -5.771   6.121   6.260  1.00  0.00     0.012 C 
ATOM     24  C   UNL     1      -8.783  10.125   9.342  1.00  0.00     0.014 C 
ATOM     25  C   UNL     1      -9.727   9.243   7.223  1.00  0.00     0.014 C 
ATOM     26  C   UNL     1      -6.088   8.879  10.125  1.00  0.00     0.012 C 
ATOM     27  C   UNL     1       0.660   6.023   4.879  1.00  0.00     0.011 C 
ENDROOT
BRANCH   1  28
ATOM     28  C   UNL     1       0.382   8.938   8.323  1.00  0.00    -0.077 C 
ATOM     29  C   UNL     1       0.068   8.882   9.800  1.00  0.00     0.039 C 
ATOM     30  C   UNL     1       0.755  10.106   7.771  1.00  0.00     0.008 C 
ENDBRANCH   1  28
BRANCH  13  31
ATOM     31  O   UNL     1      -9.974   6.722   8.239  1.00  0.00    -0.393 OA
ATOM     32  H   UNL     1     -10.065   5.840   8.683  1.00  0.00     0.210 HD
ENDBRANCH  13  31
TORSDOF 2
ENDMDL
MODEL 3
REMARK VINA RESULT:    -4.100     15.800     18.466
REMARK INTER + INTRA:          -3.819
REMARK INTER:                  -5.264
REMARK INTRA:                   1.446
REMARK UNBOUND:                 0.641
REMARK SMILES C=C(C)[C@H]1CC[C@@]2(C)CC[C@]3(C)[C@H](CC[C@H]4[C@]5(C)CC[C@H](O)C(C)(C)[C@H]5CC[C@]43C)[C@@H]12
REMARK SMILES IDX 4 1 5 2 6 3 7 4 31 5 13 6 14 7 15 8 16 9 17 10 19 11 20 12
REMARK SMILES IDX 21 13 23 14 26 15 27 16 28 17 29 18 11 19 10 20 9 21 12 22
REMARK SMILES IDX 30 23 24 24 25 25 18 26 8 27 2 28 3 29 1 30 22 31
REMARK H PARENT 22 32
REMARK Flexibility Score: inf
ROOT
ATOM      1  C   UNL     1      -8.965   7.246   9.132  1.00  0.00     0.018 C 
ATOM      2  C   UNL     1      -8.721   8.381  10.125  1.00  0.00     0.009 C 
ATOM      3  C   UNL     1      -8.461   9.624   9.276  1.00  0.00     0.008 C 
ATOM      4  C   UNL     1      -8.426   9.171   7.793  1.00  0.00    -0.029 C 
ATOM      5  C   UNL     1      -8.144   7.625   7.858  1.00  0.00     0.006 C 
ATOM      6  C   UNL     1      -6.592   7.327   7.933  1.00  0.00    -0.000 C 
ATOM      7  C   UNL     1      -6.189   5.857   7.986  1.00  0.00     0.005 C 
ATOM      8  C   UNL     1      -4.777   5.739   8.563  1.00  0.00     0.005 C 
ATOM      9  C   UNL     1      -3.768   6.913   8.229  1.00  0.00     0.002 C 
ATOM     10  C   UNL     1      -2.224   6.441   8.415  1.00  0.00    -0.026 C 
ATOM     11  C   UNL     1      -1.340   7.580   9.003  1.00  0.00     0.010 C 
ATOM     12  C   UNL     1       0.167   7.204   9.102  1.00  0.00     0.033 C 
ATOM     13  C   UNL     1       0.793   6.598   7.811  1.00  0.00     0.120 C 
ATOM     14  C   UNL     1      -0.099   5.537   7.044  1.00  0.00    -0.006 C 
ATOM     15  C   UNL     1      -1.584   6.064   7.027  1.00  0.00     0.003 C 
ATOM     16  C   UNL     1      -2.612   5.424   6.085  1.00  0.00     0.005 C 
ATOM     17  C   UNL     1      -3.782   6.410   5.744  1.00  0.00     0.008 C 
ATOM     18  C   UNL     1      -4.149   7.531   6.819  1.00  0.00    -0.024 C 
ATOM     19  C   UNL     1      -5.745   8.007   6.789  1.00  0.00    -0.024 C 
ATOM     20  C   UNL     1      -5.942   9.542   7.072  1.00  0.00     0.008 C 
ATOM     21  C   UNL     1      -7.395  10.023   7.001  1.00  0.00     0.007 C 
ATOM     22  C   UNL     1      -6.359   7.714   5.375  1.00  0.00     0.012 C 
ATOM     23  C   UNL     1      -3.298   8.812   6.489  1.00  0.00     0.012 C 
ATOM     24  C   UNL     1       0.054   4.126   7.672  1.00  0.00     0.014 C 
ATOM     25  C   UNL     1       0.439   5.414   5.586  1.00  0.00     0.014 C 
ATOM     26  C   UNL     1      -2.169   5.268   9.456  1.00  0.00     0.012 C 
ATOM     27  C   UNL     1      -9.813   9.443   7.143  1.00  0.00     0.011 C 
ENDROOT
BRANCH   1  28
ATOM     28  C   UNL     1      -8.858   5.838   9.698  1.00  0.00    -0.077 C 
ATOM     29  C   UNL     1      -7.528   5.249  10.110  1.00  0.00     0.039 C 
ATOM     30  C   UNL     1      -9.985   5.132   9.902  1.00  0.00     0.008 C 
ENDBRANCH   1  28
BRANCH  13  31
ATOM     31  O   UNL     1       1.214   7.641   6.960  1.00  0.00    -0.393 OA
ATOM     32  H   UNL     1       0.774   8.480   7.254  1.00  0.00     0.210 HD
ENDBRANCH  13  31
TORSDOF 2
ENDMDL
