MODEL 1
REMARK VINA RESULT:    -3.824      0.000      0.000
REMARK INTER + INTRA:          -6.564
REMARK INTER:                  -5.836
REMARK INTRA:                  -0.728
REMARK UNBOUND:                -0.728
REMARK SMILES CCCCCCCCCCC(=O)[O-]
REMARK SMILES IDX 7 1 8 2 9 3 10 4 11 5 12 6 13 7 6 8 5 9 4 10 3 11 2 12 1 13
REMARK H PARENT
REMARK Flexibility Score: inf
ROOT
ATOM      1  C   UNL     1     -11.058   9.387 -18.815  1.00  0.00     0.000 C 
ENDROOT
BRANCH   1   2
ATOM      2  C   UNL     1     -10.095   8.223 -18.542  1.00  0.00     0.000 C 
BRANCH   2   3
ATOM      3  C   UNL     1      -8.924   8.611 -17.622  1.00  0.00     0.006 C 
BRANCH   3   4
ATOM      4  C   UNL     1      -8.920  10.094 -17.207  1.00  0.00     0.053 C 
BRANCH   4   5
ATOM      5  C   UNL     1      -7.967  10.379 -16.087  1.00  0.00     0.041 C 
ATOM      6  O   UNL     1      -8.398  10.597 -14.924  1.00  0.00    -0.550 OA
ATOM      7  O   UNL     1      -6.597  10.372 -16.321  1.00  0.00    -0.550 OA
ENDBRANCH   4   5
ENDBRANCH   3   4
ENDBRANCH   2   3
ENDBRANCH   1   2
BRANCH   1   8
ATOM      8  C   UNL     1     -11.722   9.242 -20.190  1.00  0.00     0.000 C 
BRANCH   8   9
ATOM      9  C   UNL     1     -12.868   8.224 -20.144  1.00  0.00    -0.000 C 
BRANCH   9  10
ATOM     10  C   UNL     1     -13.141   7.642 -21.540  1.00  0.00    -0.000 C 
BRANCH  10  11
ATOM     11  C   UNL     1     -12.232   6.446 -21.869  1.00  0.00    -0.000 C 
BRANCH  11  12
ATOM     12  C   UNL     1     -12.028   5.511 -20.669  1.00  0.00    -0.003 C 
ATOM     13  C   UNL     1     -10.569   5.081 -20.549  1.00  0.00     0.004 C 
ENDBRANCH  11  12
ENDBRANCH  10  11
ENDBRANCH   9  10
ENDBRANCH   8   9
ENDBRANCH   1   8
TORSDOF 9
ENDMDL
MODEL 2
REMARK VINA RESULT:    -3.818      3.151      3.989
REMARK INTER + INTRA:          -6.555
REMARK INTER:                  -5.190
REMARK INTRA:                  -1.365
REMARK UNBOUND:                -0.728
REMARK SMILES CCCCCCCCCCC(=O)[O-]
REMARK SMILES IDX 7 1 8 2 9 3 10 4 11 5 12 6 13 7 6 8 5 9 4 10 3 11 2 12 1 13
REMARK H PARENT
REMARK Flexibility Score: inf
ROOT
ATOM      1  C   UNL     1     -11.591   9.228 -19.200  1.00  0.00     0.000 C 
ENDROOT
BRANCH   1   2
ATOM      2  C   UNL     1     -10.253   8.842 -18.553  1.00  0.00     0.000 C 
BRANCH   2   3
ATOM      3  C   UNL     1     -10.023   7.321 -18.506  1.00  0.00     0.006 C 
BRANCH   3   4
ATOM      4  C   UNL     1      -8.891   6.830 -19.428  1.00  0.00     0.053 C 
BRANCH   4   5
ATOM      5  C   UNL     1      -8.902   5.344 -19.616  1.00  0.00     0.041 C 
ATOM      6  O   UNL     1      -9.856   4.785 -20.218  1.00  0.00    -0.550 OA
ATOM      7  O   UNL     1      -7.839   4.577 -19.154  1.00  0.00    -0.550 OA
ENDBRANCH   4   5
ENDBRANCH   3   4
ENDBRANCH   2   3
ENDBRANCH   1   2
BRANCH   1   8
ATOM      8  C   UNL     1     -12.442   7.986 -19.488  1.00  0.00     0.000 C 
BRANCH   8   9
ATOM      9  C   UNL     1     -12.936   7.980 -20.940  1.00  0.00    -0.000 C 
BRANCH   9  10
ATOM     10  C   UNL     1     -12.423   6.740 -21.689  1.00  0.00    -0.000 C 
BRANCH  10  11
ATOM     11  C   UNL     1     -11.200   7.046 -22.570  1.00  0.00    -0.000 C 
BRANCH  11  12
ATOM     12  C   UNL     1     -11.006   8.550 -22.809  1.00  0.00    -0.003 C 
ATOM     13  C   UNL     1      -9.613   8.999 -22.376  1.00  0.00     0.004 C 
ENDBRANCH  11  12
ENDBRANCH  10  11
ENDBRANCH   9  10
ENDBRANCH   8   9
ENDBRANCH   1   8
TORSDOF 9
ENDMDL
MODEL 3
REMARK VINA RESULT:    -3.809      3.163      4.238
REMARK INTER + INTRA:          -6.541
REMARK INTER:                  -5.725
REMARK INTRA:                  -0.817
REMARK UNBOUND:                -0.728
REMARK SMILES CCCCCCCCCCC(=O)[O-]
REMARK SMILES IDX 7 1 8 2 9 3 10 4 11 5 12 6 13 7 6 8 5 9 4 10 3 11 2 12 1 13
REMARK H PARENT
REMARK Flexibility Score: inf
ROOT
ATOM      1  C   UNL     1      -8.582   8.803 -17.925  1.00  0.00     0.000 C 
ENDROOT
BRANCH   1   2
ATOM      2  C   UNL     1      -7.422   8.049 -18.590  1.00  0.00     0.000 C 
BRANCH   2   3
ATOM      3  C   UNL     1      -7.794   7.458 -19.961  1.00  0.00     0.006 C 
BRANCH   3   4
ATOM      4  C   UNL     1      -7.209   6.056 -20.217  1.00  0.00     0.053 C 
BRANCH   4   5
ATOM      5  C   UNL     1      -7.940   4.980 -19.475  1.00  0.00     0.041 C 
ATOM      6  O   UNL     1      -9.195   4.905 -19.534  1.00  0.00    -0.550 OA
ATOM      7  O   UNL     1      -7.230   4.037 -18.740  1.00  0.00    -0.550 OA
ENDBRANCH   4   5
ENDBRANCH   3   4
ENDBRANCH   2   3
ENDBRANCH   1   2
BRANCH   1   8
ATOM      8  C   UNL     1      -9.932   8.174 -18.292  1.00  0.00     0.000 C 
BRANCH   8   9
ATOM      9  C   UNL     1     -10.919   9.237 -18.791  1.00  0.00    -0.000 C 
BRANCH   9  10
ATOM     10  C   UNL     1     -12.102   8.586 -19.524  1.00  0.00    -0.000 C 
BRANCH  10  11
ATOM     11  C   UNL     1     -12.013   7.051 -19.545  1.00  0.00    -0.000 C 
BRANCH  11  12
ATOM     12  C   UNL     1     -12.386   6.456 -20.909  1.00  0.00    -0.003 C 
ATOM     13  C   UNL     1     -13.165   7.461 -21.753  1.00  0.00     0.004 C 
ENDBRANCH  11  12
ENDBRANCH  10  11
ENDBRANCH   9  10
ENDBRANCH   8   9
ENDBRANCH   1   8
TORSDOF 9
ENDMDL
MODEL 4
REMARK VINA RESULT:    -3.742      3.868      5.508
REMARK INTER + INTRA:          -6.440
REMARK INTER:                  -5.155
REMARK INTRA:                  -1.285
REMARK UNBOUND:                -0.728
REMARK SMILES CCCCCCCCCCC(=O)[O-]
REMARK SMILES IDX 7 1 8 2 9 3 10 4 11 5 12 6 13 7 6 8 5 9 4 10 3 11 2 12 1 13
REMARK H PARENT
REMARK Flexibility Score: inf
ROOT
ATOM      1  C   UNL     1     -10.125   9.564 -18.144  1.00  0.00     0.000 C 
ENDROOT
BRANCH   1   2
ATOM      2  C   UNL     1     -10.794   9.274 -19.496  1.00  0.00     0.000 C 
BRANCH   2   3
ATOM      3  C   UNL     1     -12.129   8.521 -19.359  1.00  0.00     0.006 C 
BRANCH   3   4
ATOM      4  C   UNL     1     -12.036   7.018 -19.680  1.00  0.00     0.053 C 
BRANCH   4   5
ATOM      5  C   UNL     1     -12.410   6.705 -21.097  1.00  0.00     0.041 C 
ATOM      6  O   UNL     1     -11.919   5.703 -21.679  1.00  0.00    -0.550 OA
ATOM      7  O   UNL     1     -13.329   7.504 -21.765  1.00  0.00    -0.550 OA
ENDBRANCH   4   5
ENDBRANCH   3   4
ENDBRANCH   2   3
ENDBRANCH   1   2
BRANCH   1   8
ATOM      8  C   UNL     1      -9.260   8.381 -17.693  1.00  0.00     0.000 C 
BRANCH   8   9
ATOM      9  C   UNL     1      -7.799   8.572 -18.121  1.00  0.00    -0.000 C 
BRANCH   9  10
ATOM     10  C   UNL     1      -7.285   7.340 -18.883  1.00  0.00    -0.000 C 
BRANCH  10  11
ATOM     11  C   UNL     1      -8.394   6.314 -19.164  1.00  0.00    -0.000 C 
BRANCH  11  12
ATOM     12  C   UNL     1      -8.477   5.924 -20.646  1.00  0.00    -0.003 C 
ATOM     13  C   UNL     1      -8.595   7.160 -21.534  1.00  0.00     0.004 C 
ENDBRANCH  11  12
ENDBRANCH  10  11
ENDBRANCH   9  10
ENDBRANCH   8   9
ENDBRANCH   1   8
TORSDOF 9
ENDMDL
MODEL 5
REMARK VINA RESULT:    -3.715      1.220      2.760
REMARK INTER + INTRA:          -6.398
REMARK INTER:                  -5.251
REMARK INTRA:                  -1.147
REMARK UNBOUND:                -0.728
REMARK SMILES CCCCCCCCCCC(=O)[O-]
REMARK SMILES IDX 7 1 8 2 9 3 10 4 11 5 12 6 13 7 6 8 5 9 4 10 3 11 2 12 1 13
REMARK H PARENT
REMARK Flexibility Score: inf
ROOT
ATOM      1  C   UNL     1      -8.348   7.035 -19.802  1.00  0.00     0.000 C 
ENDROOT
BRANCH   1   2
ATOM      2  C   UNL     1      -7.901   7.905 -18.618  1.00  0.00     0.000 C 
BRANCH   2   3
ATOM      3  C   UNL     1      -9.061   8.294 -17.684  1.00  0.00     0.006 C 
BRANCH   3   4
ATOM      4  C   UNL     1      -9.286   9.813 -17.566  1.00  0.00     0.053 C 
BRANCH   4   5
ATOM      5  C   UNL     1      -8.344  10.464 -16.599  1.00  0.00     0.041 C 
ATOM      6  O   UNL     1      -7.351  11.114 -17.017  1.00  0.00    -0.550 OA
ATOM      7  O   UNL     1      -8.582  10.378 -15.233  1.00  0.00    -0.550 OA
ENDBRANCH   4   5
ENDBRANCH   3   4
ENDBRANCH   2   3
ENDBRANCH   1   2
BRANCH   1   8
ATOM      8  C   UNL     1      -9.529   6.138 -19.412  1.00  0.00     0.000 C 
BRANCH   8   9
ATOM      9  C   UNL     1     -10.354   5.744 -20.644  1.00  0.00    -0.000 C 
BRANCH   9  10
ATOM     10  C   UNL     1     -11.833   6.117 -20.457  1.00  0.00    -0.000 C 
BRANCH  10  11
ATOM     11  C   UNL     1     -12.076   6.948 -19.187  1.00  0.00    -0.000 C 
BRANCH  11  12
ATOM     12  C   UNL     1     -12.693   8.321 -19.488  1.00  0.00    -0.003 C 
ATOM     13  C   UNL     1     -11.722   9.198 -20.276  1.00  0.00     0.004 C 
ENDBRANCH  11  12
ENDBRANCH  10  11
ENDBRANCH   9  10
ENDBRANCH   8   9
ENDBRANCH   1   8
TORSDOF 9
ENDMDL
MODEL 6
REMARK VINA RESULT:    -3.673      1.811      2.309
REMARK INTER + INTRA:          -6.334
REMARK INTER:                  -5.067
REMARK INTRA:                  -1.267
REMARK UNBOUND:                -0.728
REMARK SMILES CCCCCCCCCCC(=O)[O-]
REMARK SMILES IDX 7 1 8 2 9 3 10 4 11 5 12 6 13 7 6 8 5 9 4 10 3 11 2 12 1 13
REMARK H PARENT
REMARK Flexibility Score: inf
ROOT
ATOM      1  C   UNL     1     -11.959   7.035 -19.525  1.00  0.00     0.000 C 
ENDROOT
BRANCH   1   2
ATOM      2  C   UNL     1     -10.750   7.705 -18.857  1.00  0.00     0.000 C 
BRANCH   2   3
ATOM      3  C   UNL     1     -10.840   9.242 -18.848  1.00  0.00     0.006 C 
BRANCH   3   4
ATOM      4  C   UNL     1      -9.481   9.947 -18.682  1.00  0.00     0.053 C 
BRANCH   4   5
ATOM      5  C   UNL     1      -8.672   9.385 -17.553  1.00  0.00     0.041 C 
ATOM      6  O   UNL     1      -9.051   9.534 -16.362  1.00  0.00    -0.550 OA
ATOM      7  O   UNL     1      -7.512   8.668 -17.819  1.00  0.00    -0.550 OA
ENDBRANCH   4   5
ENDBRANCH   3   4
ENDBRANCH   2   3
ENDBRANCH   1   2
BRANCH   1   8
ATOM      8  C   UNL     1     -12.863   8.075 -20.199  1.00  0.00     0.000 C 
BRANCH   8   9
ATOM      9  C   UNL     1     -13.075   7.744 -21.681  1.00  0.00    -0.000 C 
BRANCH   9  10
ATOM     10  C   UNL     1     -11.768   7.256 -22.327  1.00  0.00    -0.000 C 
BRANCH  10  11
ATOM     11  C   UNL     1     -10.919   8.410 -22.885  1.00  0.00    -0.000 C 
BRANCH  11  12
ATOM     12  C   UNL     1      -9.478   8.392 -22.356  1.00  0.00    -0.003 C 
ATOM     13  C   UNL     1      -9.028   6.970 -22.033  1.00  0.00     0.004 C 
ENDBRANCH  11  12
ENDBRANCH  10  11
ENDBRANCH   9  10
ENDBRANCH   8   9
ENDBRANCH   1   8
TORSDOF 9
ENDMDL
MODEL 7
REMARK VINA RESULT:    -3.670      1.296      2.541
REMARK INTER + INTRA:          -6.330
REMARK INTER:                  -5.853
REMARK INTRA:                  -0.477
REMARK UNBOUND:                -0.728
REMARK SMILES CCCCCCCCCCC(=O)[O-]
REMARK SMILES IDX 7 1 8 2 9 3 10 4 11 5 12 6 13 7 6 8 5 9 4 10 3 11 2 12 1 13
REMARK H PARENT
REMARK Flexibility Score: inf
ROOT
ATOM      1  C   UNL     1      -9.412   8.637 -17.407  1.00  0.00     0.000 C 
ENDROOT
BRANCH   1   2
ATOM      2  C   UNL     1      -8.898  10.074 -17.235  1.00  0.00     0.000 C 
BRANCH   2   3
ATOM      3  C   UNL     1      -8.539  10.416 -15.778  1.00  0.00     0.006 C 
BRANCH   3   4
ATOM      4  C   UNL     1      -7.579  11.612 -15.634  1.00  0.00     0.053 C 
BRANCH   4   5
ATOM      5  C   UNL     1      -6.232  11.214 -15.114  1.00  0.00     0.041 C 
ATOM      6  O   UNL     1      -5.614  10.243 -15.625  1.00  0.00    -0.550 OA
ATOM      7  O   UNL     1      -5.644  11.935 -14.082  1.00  0.00    -0.550 OA
ENDBRANCH   4   5
ENDBRANCH   3   4
ENDBRANCH   2   3
ENDBRANCH   1   2
BRANCH   1   8
ATOM      8  C   UNL     1      -9.901   8.395 -18.840  1.00  0.00     0.000 C 
BRANCH   8   9
ATOM      9  C   UNL     1     -11.134   9.252 -19.154  1.00  0.00    -0.000 C 
BRANCH   9  10
ATOM     10  C   UNL     1     -12.377   8.372 -19.358  1.00  0.00    -0.000 C 
BRANCH  10  11
ATOM     11  C   UNL     1     -12.022   6.896 -19.602  1.00  0.00    -0.000 C 
BRANCH  11  12
ATOM     12  C   UNL     1     -12.386   6.427 -21.017  1.00  0.00    -0.003 C 
ATOM     13  C   UNL     1     -13.159   7.505 -21.772  1.00  0.00     0.004 C 
ENDBRANCH  11  12
ENDBRANCH  10  11
ENDBRANCH   9  10
ENDBRANCH   8   9
ENDBRANCH   1   8
TORSDOF 9
ENDMDL
MODEL 8
REMARK VINA RESULT:    -3.662      2.849      4.775
REMARK INTER + INTRA:          -6.317
REMARK INTER:                  -5.261
REMARK INTRA:                  -1.056
REMARK UNBOUND:                -0.728
REMARK SMILES CCCCCCCCCCC(=O)[O-]
REMARK SMILES IDX 7 1 8 2 9 3 10 4 11 5 12 6 13 7 6 8 5 9 4 10 3 11 2 12 1 13
REMARK H PARENT
REMARK Flexibility Score: inf
ROOT
ATOM      1  C   UNL     1     -12.360   6.045 -21.010  1.00  0.00     0.000 C 
ENDROOT
BRANCH   1   2
ATOM      2  C   UNL     1     -11.211   5.494 -21.867  1.00  0.00     0.000 C 
BRANCH   2   3
ATOM      3  C   UNL     1      -9.820   5.861 -21.318  1.00  0.00     0.006 C 
BRANCH   3   4
ATOM      4  C   UNL     1      -9.425   5.084 -20.048  1.00  0.00     0.053 C 
BRANCH   4   5
ATOM      5  C   UNL     1      -7.954   5.146 -19.766  1.00  0.00     0.041 C 
ATOM      6  O   UNL     1      -7.427   4.342 -18.955  1.00  0.00    -0.550 OA
ATOM      7  O   UNL     1      -7.159   6.076 -20.426  1.00  0.00    -0.550 OA
ENDBRANCH   4   5
ENDBRANCH   3   4
ENDBRANCH   2   3
ENDBRANCH   1   2
BRANCH   1   8
ATOM      8  C   UNL     1     -12.844   7.399 -21.543  1.00  0.00     0.000 C 
BRANCH   8   9
ATOM      9  C   UNL     1     -12.829   8.463 -20.438  1.00  0.00    -0.000 C 
BRANCH   9  10
ATOM     10  C   UNL     1     -12.044   7.971 -19.213  1.00  0.00    -0.000 C 
BRANCH  10  11
ATOM     11  C   UNL     1     -10.754   8.774 -18.976  1.00  0.00    -0.000 C 
BRANCH  11  12
ATOM     12  C   UNL     1      -9.748   8.027 -18.090  1.00  0.00    -0.003 C 
ATOM     13  C   UNL     1      -8.358   8.648 -18.194  1.00  0.00     0.004 C 
ENDBRANCH  11  12
ENDBRANCH  10  11
ENDBRANCH   9  10
ENDBRANCH   8   9
ENDBRANCH   1   8
TORSDOF 9
ENDMDL
MODEL 9
REMARK VINA RESULT:    -3.616      1.300      2.528
REMARK INTER + INTRA:          -6.246
REMARK INTER:                  -5.217
REMARK INTRA:                  -1.029
REMARK UNBOUND:                -0.728
REMARK SMILES CCCCCCCCCCC(=O)[O-]
REMARK SMILES IDX 7 1 8 2 9 3 10 4 11 5 12 6 13 7 6 8 5 9 4 10 3 11 2 12 1 13
REMARK H PARENT
REMARK Flexibility Score: inf
ROOT
ATOM      1  C   UNL     1     -13.038   8.436 -20.334  1.00  0.00     0.000 C 
ENDROOT
BRANCH   1   2
ATOM      2  C   UNL     1     -12.079   7.846 -19.290  1.00  0.00     0.000 C 
BRANCH   2   3
ATOM      3  C   UNL     1     -10.877   8.759 -18.992  1.00  0.00     0.006 C 
BRANCH   3   4
ATOM      4  C   UNL     1      -9.727   8.056 -18.246  1.00  0.00     0.053 C 
BRANCH   4   5
ATOM      5  C   UNL     1      -8.759   9.022 -17.633  1.00  0.00     0.041 C 
ATOM      6  O   UNL     1      -7.733   9.383 -18.266  1.00  0.00    -0.550 OA
ATOM      7  O   UNL     1      -9.008   9.549 -16.372  1.00  0.00    -0.550 OA
ENDBRANCH   4   5
ENDBRANCH   3   4
ENDBRANCH   2   3
ENDBRANCH   1   2
BRANCH   1   8
ATOM      8  C   UNL     1     -13.085   7.562 -21.594  1.00  0.00     0.000 C 
BRANCH   8   9
ATOM      9  C   UNL     1     -12.287   6.267 -21.397  1.00  0.00    -0.000 C 
BRANCH   9  10
ATOM     10  C   UNL     1     -11.143   6.167 -22.417  1.00  0.00    -0.000 C 
BRANCH  10  11
ATOM     11  C   UNL     1      -9.777   5.928 -21.752  1.00  0.00    -0.000 C 
BRANCH  11  12
ATOM     12  C   UNL     1      -9.870   5.010 -20.526  1.00  0.00    -0.003 C 
ATOM     13  C   UNL     1      -8.538   4.947 -19.784  1.00  0.00     0.004 C 
ENDBRANCH  11  12
ENDBRANCH  10  11
ENDBRANCH   9  10
ENDBRANCH   8   9
ENDBRANCH   1   8
TORSDOF 9
ENDMDL
