MODEL 1
REMARK VINA RESULT:    -9.282      0.000      0.000
REMARK INTER + INTRA:         -10.349
REMARK INTER:                 -10.095
REMARK INTRA:                  -0.254
REMARK UNBOUND:                -0.254
REMARK SMILES C=C(C)[C@@H]1CC[C@@]2(C)CC[C@]3(C)[C@@H](CC[C@H]4[C@]5(C)CC[C@@H](O)C(C)(C)[C@@H]5CC[C@]43C)[C@H]12
REMARK SMILES IDX 4 1 5 2 6 3 7 4 31 5 13 6 14 7 15 8 16 9 17 10 19 11 20 12
REMARK SMILES IDX 21 13 23 14 26 15 27 16 28 17 29 18 11 19 10 20 9 21 12 22
REMARK SMILES IDX 30 23 24 24 25 25 18 26 8 27 2 28 3 29 1 30 22 31
REMARK H PARENT 22 32
REMARK Flexibility Score: inf
ROOT
ATOM      1  C   UNL     1     132.659 132.621 136.369  1.00  0.00     0.018 C 
ATOM      2  C   UNL     1     132.066 133.961 135.875  1.00  0.00     0.009 C 
ATOM      3  C   UNL     1     130.752 134.177 136.652  1.00  0.00     0.008 C 
ATOM      4  C   UNL     1     130.956 133.450 137.991  1.00  0.00    -0.029 C 
ATOM      5  C   UNL     1     131.707 132.188 137.513  1.00  0.00     0.006 C 
ATOM      6  C   UNL     1     132.085 131.251 138.688  1.00  0.00    -0.000 C 
ATOM      7  C   UNL     1     133.030 130.112 138.271  1.00  0.00     0.005 C 
ATOM      8  C   UNL     1     133.169 129.120 139.416  1.00  0.00     0.005 C 
ATOM      9  C   UNL     1     131.879 128.275 139.581  1.00  0.00     0.002 C 
ATOM     10  C   UNL     1     131.961 127.177 140.773  1.00  0.00    -0.026 C 
ATOM     11  C   UNL     1     132.838 125.981 140.255  1.00  0.00     0.010 C 
ATOM     12  C   UNL     1     132.017 124.959 139.472  1.00  0.00     0.033 C 
ATOM     13  C   UNL     1     130.983 124.228 140.344  1.00  0.00     0.120 C 
ATOM     14  C   UNL     1     130.465 125.061 141.574  1.00  0.00    -0.006 C 
ATOM     15  C   UNL     1     130.546 126.629 141.297  1.00  0.00     0.003 C 
ATOM     16  C   UNL     1     129.375 127.147 140.443  1.00  0.00     0.005 C 
ATOM     17  C   UNL     1     129.445 128.667 140.345  1.00  0.00     0.008 C 
ATOM     18  C   UNL     1     130.544 129.143 139.359  1.00  0.00    -0.024 C 
ATOM     19  C   UNL     1     130.772 130.759 139.479  1.00  0.00    -0.024 C 
ATOM     20  C   UNL     1     129.473 131.534 138.980  1.00  0.00     0.008 C 
ATOM     21  C   UNL     1     129.638 133.054 138.734  1.00  0.00     0.007 C 
ATOM     22  C   UNL     1     130.952 131.194 140.968  1.00  0.00     0.012 C 
ATOM     23  C   UNL     1     129.991 128.802 137.919  1.00  0.00     0.012 C 
ATOM     24  C   UNL     1     131.256 124.714 142.874  1.00  0.00     0.014 C 
ATOM     25  C   UNL     1     129.005 124.616 141.874  1.00  0.00     0.014 C 
ATOM     26  C   UNL     1     132.705 127.771 142.002  1.00  0.00     0.012 C 
ATOM     27  C   UNL     1     131.765 134.405 138.917  1.00  0.00     0.011 C 
ENDROOT
BRANCH   1  28
ATOM     28  C   UNL     1     134.167 132.675 136.639  1.00  0.00    -0.077 C 
ATOM     29  C   UNL     1     135.160 131.788 135.928  1.00  0.00     0.039 C 
ATOM     30  C   UNL     1     134.622 133.460 137.635  1.00  0.00     0.008 C 
ENDBRANCH   1  28
BRANCH  13  31
ATOM     31  O   UNL     1     131.524 122.994 140.755  1.00  0.00    -0.393 OA
ATOM     32  H   UNL     1     132.473 123.158 140.994  1.00  0.00     0.210 HD
ENDBRANCH  13  31
TORSDOF 2
ENDMDL
MODEL 2
REMARK VINA RESULT:    -9.095      3.100      8.366
REMARK INTER + INTRA:         -10.146
REMARK INTER:                  -9.776
REMARK INTRA:                  -0.370
REMARK UNBOUND:                -0.254
REMARK SMILES C=C(C)[C@@H]1CC[C@@]2(C)CC[C@]3(C)[C@@H](CC[C@H]4[C@]5(C)CC[C@@H](O)C(C)(C)[C@@H]5CC[C@]43C)[C@H]12
REMARK SMILES IDX 4 1 5 2 6 3 7 4 31 5 13 6 14 7 15 8 16 9 17 10 19 11 20 12
REMARK SMILES IDX 21 13 23 14 26 15 27 16 28 17 29 18 11 19 10 20 9 21 12 22
REMARK SMILES IDX 30 23 24 24 25 25 18 26 8 27 2 28 3 29 1 30 22 31
REMARK H PARENT 22 32
REMARK Flexibility Score: inf
ROOT
ATOM      1  C   UNL     1     128.653 125.452 141.753  1.00  0.00     0.018 C 
ATOM      2  C   UNL     1     129.380 124.094 141.883  1.00  0.00     0.009 C 
ATOM      3  C   UNL     1     130.885 124.379 141.700  1.00  0.00     0.008 C 
ATOM      4  C   UNL     1     131.079 125.824 142.187  1.00  0.00    -0.029 C 
ATOM      5  C   UNL     1     129.801 126.484 141.625  1.00  0.00     0.006 C 
ATOM      6  C   UNL     1     129.704 127.985 141.998  1.00  0.00    -0.000 C 
ATOM      7  C   UNL     1     128.340 128.606 141.653  1.00  0.00     0.005 C 
ATOM      8  C   UNL     1     128.404 130.114 141.839  1.00  0.00     0.005 C 
ATOM      9  C   UNL     1     129.232 130.780 140.709  1.00  0.00     0.002 C 
ATOM     10  C   UNL     1     129.327 132.395 140.828  1.00  0.00    -0.026 C 
ATOM     11  C   UNL     1     127.951 132.986 140.353  1.00  0.00     0.010 C 
ATOM     12  C   UNL     1     127.896 133.177 138.839  1.00  0.00     0.033 C 
ATOM     13  C   UNL     1     128.881 134.245 138.334  1.00  0.00     0.120 C 
ATOM     14  C   UNL     1     130.165 134.418 139.228  1.00  0.00    -0.006 C 
ATOM     15  C   UNL     1     130.526 133.074 140.004  1.00  0.00     0.003 C 
ATOM     16  C   UNL     1     131.268 132.053 139.122  1.00  0.00     0.005 C 
ATOM     17  C   UNL     1     131.703 130.863 139.969  1.00  0.00     0.008 C 
ATOM     18  C   UNL     1     130.522 129.912 140.299  1.00  0.00    -0.024 C 
ATOM     19  C   UNL     1     130.964 128.805 141.420  1.00  0.00    -0.024 C 
ATOM     20  C   UNL     1     132.065 127.824 140.817  1.00  0.00     0.008 C 
ATOM     21  C   UNL     1     132.354 126.541 141.633  1.00  0.00     0.007 C 
ATOM     22  C   UNL     1     131.658 129.486 142.643  1.00  0.00     0.012 C 
ATOM     23  C   UNL     1     130.187 129.174 138.944  1.00  0.00     0.012 C 
ATOM     24  C   UNL     1     129.999 135.588 140.247  1.00  0.00     0.014 C 
ATOM     25  C   UNL     1     131.334 134.867 138.304  1.00  0.00     0.014 C 
ATOM     26  C   UNL     1     129.499 132.816 142.315  1.00  0.00     0.012 C 
ATOM     27  C   UNL     1     131.186 125.778 143.740  1.00  0.00     0.011 C 
ENDROOT
BRANCH   1  28
ATOM     28  C   UNL     1     127.568 125.676 142.815  1.00  0.00    -0.077 C 
ATOM     29  C   UNL     1     127.808 125.467 144.290  1.00  0.00     0.039 C 
ATOM     30  C   UNL     1     126.314 125.959 142.412  1.00  0.00     0.008 C 
ENDBRANCH   1  28
BRANCH  13  31
ATOM     31  O   UNL     1     128.194 135.465 138.186  1.00  0.00    -0.393 OA
ATOM     32  H   UNL     1     128.129 135.875 139.088  1.00  0.00     0.210 HD
ENDBRANCH  13  31
TORSDOF 2
ENDMDL
MODEL 3
REMARK VINA RESULT:    -8.901      1.469      3.120
REMARK INTER + INTRA:          -9.935
REMARK INTER:                  -9.513
REMARK INTRA:                  -0.423
REMARK UNBOUND:                -0.254
REMARK SMILES C=C(C)[C@@H]1CC[C@@]2(C)CC[C@]3(C)[C@@H](CC[C@H]4[C@]5(C)CC[C@@H](O)C(C)(C)[C@@H]5CC[C@]43C)[C@H]12
REMARK SMILES IDX 4 1 5 2 6 3 7 4 31 5 13 6 14 7 15 8 16 9 17 10 19 11 20 12
REMARK SMILES IDX 21 13 23 14 26 15 27 16 28 17 29 18 11 19 10 20 9 21 12 22
REMARK SMILES IDX 30 23 24 24 25 25 18 26 8 27 2 28 3 29 1 30 22 31
REMARK H PARENT 22 32
REMARK Flexibility Score: inf
ROOT
ATOM      1  C   UNL     1     133.657 133.669 138.605  1.00  0.00     0.018 C 
ATOM      2  C   UNL     1     134.254 134.316 137.334  1.00  0.00     0.009 C 
ATOM      3  C   UNL     1     134.013 133.325 136.178  1.00  0.00     0.008 C 
ATOM      4  C   UNL     1     132.742 132.555 136.571  1.00  0.00    -0.029 C 
ATOM      5  C   UNL     1     132.980 132.375 138.086  1.00  0.00     0.006 C 
ATOM      6  C   UNL     1     131.808 131.636 138.780  1.00  0.00    -0.000 C 
ATOM      7  C   UNL     1     131.910 131.649 140.314  1.00  0.00     0.005 C 
ATOM      8  C   UNL     1     130.859 130.721 140.904  1.00  0.00     0.005 C 
ATOM      9  C   UNL     1     131.239 129.235 140.679  1.00  0.00     0.002 C 
ATOM     10  C   UNL     1     130.172 128.182 141.301  1.00  0.00    -0.026 C 
ATOM     11  C   UNL     1     130.397 128.144 142.855  1.00  0.00     0.010 C 
ATOM     12  C   UNL     1     131.490 127.157 143.258  1.00  0.00     0.033 C 
ATOM     13  C   UNL     1     131.113 125.695 142.965  1.00  0.00     0.120 C 
ATOM     14  C   UNL     1     130.118 125.510 141.761  1.00  0.00    -0.006 C 
ATOM     15  C   UNL     1     130.249 126.695 140.702  1.00  0.00     0.003 C 
ATOM     16  C   UNL     1     131.445 126.518 139.750  1.00  0.00     0.005 C 
ATOM     17  C   UNL     1     131.418 127.607 138.684  1.00  0.00     0.008 C 
ATOM     18  C   UNL     1     131.891 128.979 139.231  1.00  0.00    -0.024 C 
ATOM     19  C   UNL     1     131.596 130.170 138.149  1.00  0.00    -0.024 C 
ATOM     20  C   UNL     1     132.497 129.965 136.850  1.00  0.00     0.008 C 
ATOM     21  C   UNL     1     132.571 131.165 135.875  1.00  0.00     0.007 C 
ATOM     22  C   UNL     1     130.124 130.110 137.630  1.00  0.00     0.012 C 
ATOM     23  C   UNL     1     133.451 128.835 139.433  1.00  0.00     0.012 C 
ATOM     24  C   UNL     1     128.640 125.402 142.251  1.00  0.00     0.014 C 
ATOM     25  C   UNL     1     130.413 124.131 141.103  1.00  0.00     0.014 C 
ATOM     26  C   UNL     1     128.721 128.691 141.076  1.00  0.00     0.012 C 
ATOM     27  C   UNL     1     131.524 133.445 136.182  1.00  0.00     0.011 C 
ENDROOT
BRANCH   1  28
ATOM     28  C   UNL     1     132.840 134.640 139.467  1.00  0.00    -0.077 C 
ATOM     29  C   UNL     1     131.611 135.353 138.960  1.00  0.00     0.039 C 
ATOM     30  C   UNL     1     133.299 134.965 140.691  1.00  0.00     0.008 C 
ENDBRANCH   1  28
BRANCH  13  31
ATOM     31  O   UNL     1     130.606 125.111 144.141  1.00  0.00    -0.393 OA
ATOM     32  H   UNL     1     131.198 124.345 144.364  1.00  0.00     0.210 HD
ENDBRANCH  13  31
TORSDOF 2
ENDMDL
MODEL 4
REMARK VINA RESULT:    -8.726      1.862      2.829
REMARK INTER + INTRA:          -9.745
REMARK INTER:                  -9.337
REMARK INTRA:                  -0.408
REMARK UNBOUND:                -0.254
REMARK SMILES C=C(C)[C@@H]1CC[C@@]2(C)CC[C@]3(C)[C@@H](CC[C@H]4[C@]5(C)CC[C@@H](O)C(C)(C)[C@@H]5CC[C@]43C)[C@H]12
REMARK SMILES IDX 4 1 5 2 6 3 7 4 31 5 13 6 14 7 15 8 16 9 17 10 19 11 20 12
REMARK SMILES IDX 21 13 23 14 26 15 27 16 28 17 29 18 11 19 10 20 9 21 12 22
REMARK SMILES IDX 30 23 24 24 25 25 18 26 8 27 2 28 3 29 1 30 22 31
REMARK H PARENT 22 32
REMARK Flexibility Score: inf
ROOT
ATOM      1  C   UNL     1     129.948 134.314 138.600  1.00  0.00     0.018 C 
ATOM      2  C   UNL     1     129.433 135.745 138.875  1.00  0.00     0.009 C 
ATOM      3  C   UNL     1     129.000 135.783 140.355  1.00  0.00     0.008 C 
ATOM      4  C   UNL     1     129.884 134.739 141.056  1.00  0.00    -0.029 C 
ATOM      5  C   UNL     1     129.903 133.624 139.987  1.00  0.00     0.006 C 
ATOM      6  C   UNL     1     130.772 132.415 140.417  1.00  0.00    -0.000 C 
ATOM      7  C   UNL     1     130.996 131.401 139.284  1.00  0.00     0.005 C 
ATOM      8  C   UNL     1     131.659 130.150 139.842  1.00  0.00     0.005 C 
ATOM      9  C   UNL     1     130.656 129.315 140.680  1.00  0.00     0.002 C 
ATOM     10  C   UNL     1     131.287 127.951 141.293  1.00  0.00    -0.026 C 
ATOM     11  C   UNL     1     131.386 126.909 140.122  1.00  0.00     0.010 C 
ATOM     12  C   UNL     1     130.085 126.131 139.930  1.00  0.00     0.033 C 
ATOM     13  C   UNL     1     129.750 125.223 141.125  1.00  0.00     0.120 C 
ATOM     14  C   UNL     1     130.312 125.730 142.504  1.00  0.00    -0.006 C 
ATOM     15  C   UNL     1     130.478 127.315 142.524  1.00  0.00     0.003 C 
ATOM     16  C   UNL     1     129.152 128.053 142.785  1.00  0.00     0.005 C 
ATOM     17  C   UNL     1     129.417 129.547 142.932  1.00  0.00     0.008 C 
ATOM     18  C   UNL     1     129.680 130.235 141.567  1.00  0.00    -0.024 C 
ATOM     19  C   UNL     1     130.221 131.764 141.782  1.00  0.00    -0.024 C 
ATOM     20  C   UNL     1     129.076 132.664 142.430  1.00  0.00     0.008 C 
ATOM     21  C   UNL     1     129.315 134.193 142.406  1.00  0.00     0.007 C 
ATOM     22  C   UNL     1     131.396 131.809 142.811  1.00  0.00     0.012 C 
ATOM     23  C   UNL     1     128.278 130.277 140.840  1.00  0.00     0.012 C 
ATOM     24  C   UNL     1     131.675 125.053 142.850  1.00  0.00     0.014 C 
ATOM     25  C   UNL     1     129.342 125.250 143.622  1.00  0.00     0.014 C 
ATOM     26  C   UNL     1     132.741 128.204 141.783  1.00  0.00     0.012 C 
ATOM     27  C   UNL     1     131.256 135.416 141.347  1.00  0.00     0.011 C 
ENDROOT
BRANCH   1  28
ATOM     28  C   UNL     1     131.251 134.270 137.792  1.00  0.00    -0.077 C 
ATOM     29  C   UNL     1     132.504 134.995 138.216  1.00  0.00     0.039 C 
ATOM     30  C   UNL     1     131.250 133.658 136.592  1.00  0.00     0.008 C 
ENDBRANCH   1  28
BRANCH  13  31
ATOM     31  O   UNL     1     130.192 123.916 140.843  1.00  0.00    -0.393 OA
ATOM     32  H   UNL     1     130.726 123.963 140.007  1.00  0.00     0.210 HD
ENDBRANCH  13  31
TORSDOF 2
ENDMDL
MODEL 5
REMARK VINA RESULT:    -8.595      2.850      8.086
REMARK INTER + INTRA:          -9.602
REMARK INTER:                  -9.209
REMARK INTRA:                  -0.393
REMARK UNBOUND:                -0.254
REMARK SMILES C=C(C)[C@@H]1CC[C@@]2(C)CC[C@]3(C)[C@@H](CC[C@H]4[C@]5(C)CC[C@@H](O)C(C)(C)[C@@H]5CC[C@]43C)[C@H]12
REMARK SMILES IDX 4 1 5 2 6 3 7 4 31 5 13 6 14 7 15 8 16 9 17 10 19 11 20 12
REMARK SMILES IDX 21 13 23 14 26 15 27 16 28 17 29 18 11 19 10 20 9 21 12 22
REMARK SMILES IDX 30 23 24 24 25 25 18 26 8 27 2 28 3 29 1 30 22 31
REMARK H PARENT 22 32
REMARK Flexibility Score: inf
ROOT
ATOM      1  C   UNL     1     129.363 125.426 141.256  1.00  0.00     0.018 C 
ATOM      2  C   UNL     1     130.016 124.026 141.203  1.00  0.00     0.009 C 
ATOM      3  C   UNL     1     131.388 124.203 140.523  1.00  0.00     0.008 C 
ATOM      4  C   UNL     1     131.813 125.643 140.852  1.00  0.00    -0.029 C 
ATOM      5  C   UNL     1     130.460 126.374 140.710  1.00  0.00     0.006 C 
ATOM      6  C   UNL     1     130.576 127.887 141.024  1.00  0.00    -0.000 C 
ATOM      7  C   UNL     1     129.211 128.590 141.117  1.00  0.00     0.005 C 
ATOM      8  C   UNL     1     129.417 130.095 141.202  1.00  0.00     0.005 C 
ATOM      9  C   UNL     1     129.860 130.674 139.833  1.00  0.00     0.002 C 
ATOM     10  C   UNL     1     130.080 132.282 139.839  1.00  0.00    -0.026 C 
ATOM     11  C   UNL     1     128.660 132.952 139.815  1.00  0.00     0.010 C 
ATOM     12  C   UNL     1     128.118 133.108 138.396  1.00  0.00     0.033 C 
ATOM     13  C   UNL     1     128.939 134.093 137.547  1.00  0.00     0.120 C 
ATOM     14  C   UNL     1     130.453 134.202 137.961  1.00  0.00    -0.006 C 
ATOM     15  C   UNL     1     130.975 132.856 138.637  1.00  0.00     0.003 C 
ATOM     16  C   UNL     1     131.326 131.765 137.609  1.00  0.00     0.005 C 
ATOM     17  C   UNL     1     131.950 130.570 138.321  1.00  0.00     0.008 C 
ATOM     18  C   UNL     1     130.893 129.711 139.064  1.00  0.00    -0.024 C 
ATOM     19  C   UNL     1     131.617 128.605 140.028  1.00  0.00    -0.024 C 
ATOM     20  C   UNL     1     132.401 127.536 139.143  1.00  0.00     0.008 C 
ATOM     21  C   UNL     1     132.872 126.257 139.878  1.00  0.00     0.007 C 
ATOM     22  C   UNL     1     132.714 129.267 140.922  1.00  0.00     0.012 C 
ATOM     23  C   UNL     1     130.088 128.962 137.929  1.00  0.00     0.012 C 
ATOM     24  C   UNL     1     130.699 135.405 138.923  1.00  0.00     0.014 C 
ATOM     25  C   UNL     1     131.275 134.547 136.685  1.00  0.00     0.014 C 
ATOM     26  C   UNL     1     130.756 132.727 141.166  1.00  0.00     0.012 C 
ATOM     27  C   UNL     1     132.424 125.629 142.284  1.00  0.00     0.011 C 
ENDROOT
BRANCH   1  28
ATOM     28  C   UNL     1     128.704 125.750 142.602  1.00  0.00    -0.077 C 
ATOM     29  C   UNL     1     129.431 125.636 143.920  1.00  0.00     0.039 C 
ATOM     30  C   UNL     1     127.388 126.038 142.630  1.00  0.00     0.008 C 
ENDBRANCH   1  28
BRANCH  13  31
ATOM     31  O   UNL     1     128.311 135.353 137.576  1.00  0.00    -0.393 OA
ATOM     32  H   UNL     1     129.029 136.038 137.537  1.00  0.00     0.210 HD
ENDBRANCH  13  31
TORSDOF 2
ENDMDL
MODEL 6
REMARK VINA RESULT:    -8.408      3.092      7.194
REMARK INTER + INTRA:          -9.399
REMARK INTER:                  -9.002
REMARK INTRA:                  -0.397
REMARK UNBOUND:                -0.254
REMARK SMILES C=C(C)[C@@H]1CC[C@@]2(C)CC[C@]3(C)[C@@H](CC[C@H]4[C@]5(C)CC[C@@H](O)C(C)(C)[C@@H]5CC[C@]43C)[C@H]12
REMARK SMILES IDX 4 1 5 2 6 3 7 4 31 5 13 6 14 7 15 8 16 9 17 10 19 11 20 12
REMARK SMILES IDX 21 13 23 14 26 15 27 16 28 17 29 18 11 19 10 20 9 21 12 22
REMARK SMILES IDX 30 23 24 24 25 25 18 26 8 27 2 28 3 29 1 30 22 31
REMARK H PARENT 22 32
REMARK Flexibility Score: inf
ROOT
ATOM      1  C   UNL     1     135.311 126.364 138.571  1.00  0.00     0.018 C 
ATOM      2  C   UNL     1     135.655 125.016 139.246  1.00  0.00     0.009 C 
ATOM      3  C   UNL     1     134.486 124.686 140.196  1.00  0.00     0.008 C 
ATOM      4  C   UNL     1     133.257 125.361 139.566  1.00  0.00    -0.029 C 
ATOM      5  C   UNL     1     133.883 126.686 139.079  1.00  0.00     0.006 C 
ATOM      6  C   UNL     1     132.854 127.588 138.352  1.00  0.00    -0.000 C 
ATOM      7  C   UNL     1     133.498 128.799 137.658  1.00  0.00     0.005 C 
ATOM      8  C   UNL     1     132.411 129.743 137.166  1.00  0.00     0.005 C 
ATOM      9  C   UNL     1     131.755 130.501 138.350  1.00  0.00     0.002 C 
ATOM     10  C   UNL     1     130.596 131.545 137.900  1.00  0.00    -0.026 C 
ATOM     11  C   UNL     1     131.308 132.813 137.307  1.00  0.00     0.010 C 
ATOM     12  C   UNL     1     131.690 133.821 138.389  1.00  0.00     0.033 C 
ATOM     13  C   UNL     1     130.468 134.448 139.081  1.00  0.00     0.120 C 
ATOM     14  C   UNL     1     129.192 133.529 139.103  1.00  0.00    -0.006 C 
ATOM     15  C   UNL     1     129.580 131.983 139.063  1.00  0.00     0.003 C 
ATOM     16  C   UNL     1     130.007 131.437 140.437  1.00  0.00     0.005 C 
ATOM     17  C   UNL     1     130.222 129.930 140.346  1.00  0.00     0.008 C 
ATOM     18  C   UNL     1     131.556 129.567 139.643  1.00  0.00    -0.024 C 
ATOM     19  C   UNL     1     131.627 127.964 139.324  1.00  0.00    -0.024 C 
ATOM     20  C   UNL     1     131.694 127.137 140.685  1.00  0.00     0.008 C 
ATOM     21  C   UNL     1     132.080 125.643 140.556  1.00  0.00     0.007 C 
ATOM     22  C   UNL     1     130.324 127.470 138.618  1.00  0.00     0.012 C 
ATOM     23  C   UNL     1     132.690 129.941 140.677  1.00  0.00     0.012 C 
ATOM     24  C   UNL     1     128.227 133.861 137.923  1.00  0.00     0.014 C 
ATOM     25  C   UNL     1     128.377 133.872 140.383  1.00  0.00     0.014 C 
ATOM     26  C   UNL     1     129.743 130.939 136.751  1.00  0.00     0.012 C 
ATOM     27  C   UNL     1     132.733 124.413 138.447  1.00  0.00     0.011 C 
ENDROOT
BRANCH   1  28
ATOM     28  C   UNL     1     135.585 126.388 137.063  1.00  0.00    -0.077 C 
ATOM     29  C   UNL     1     134.769 125.599 136.068  1.00  0.00     0.039 C 
ATOM     30  C   UNL     1     136.670 127.045 136.609  1.00  0.00     0.008 C 
ENDBRANCH   1  28
BRANCH  13  31
ATOM     31  O   UNL     1     130.192 135.691 138.480  1.00  0.00    -0.393 OA
ATOM     32  H   UNL     1     130.546 135.651 137.553  1.00  0.00     0.210 HD
ENDBRANCH  13  31
TORSDOF 2
ENDMDL
MODEL 7
REMARK VINA RESULT:    -8.392      1.351      3.597
REMARK INTER + INTRA:          -9.381
REMARK INTER:                  -8.961
REMARK INTRA:                  -0.420
REMARK UNBOUND:                -0.254
REMARK SMILES C=C(C)[C@@H]1CC[C@@]2(C)CC[C@]3(C)[C@@H](CC[C@H]4[C@]5(C)CC[C@@H](O)C(C)(C)[C@@H]5CC[C@]43C)[C@H]12
REMARK SMILES IDX 4 1 5 2 6 3 7 4 31 5 13 6 14 7 15 8 16 9 17 10 19 11 20 12
REMARK SMILES IDX 21 13 23 14 26 15 27 16 28 17 29 18 11 19 10 20 9 21 12 22
REMARK SMILES IDX 30 23 24 24 25 25 18 26 8 27 2 28 3 29 1 30 22 31
REMARK H PARENT 22 32
REMARK Flexibility Score: inf
ROOT
ATOM      1  C   UNL     1     131.193 134.409 139.142  1.00  0.00     0.018 C 
ATOM      2  C   UNL     1     131.987 135.570 138.500  1.00  0.00     0.009 C 
ATOM      3  C   UNL     1     133.104 134.927 137.653  1.00  0.00     0.008 C 
ATOM      4  C   UNL     1     132.544 133.560 137.226  1.00  0.00    -0.029 C 
ATOM      5  C   UNL     1     131.822 133.135 138.524  1.00  0.00     0.006 C 
ATOM      6  C   UNL     1     131.114 131.765 138.379  1.00  0.00    -0.000 C 
ATOM      7  C   UNL     1     130.200 131.429 139.569  1.00  0.00     0.005 C 
ATOM      8  C   UNL     1     129.726 129.988 139.457  1.00  0.00     0.005 C 
ATOM      9  C   UNL     1     130.873 128.997 139.783  1.00  0.00     0.002 C 
ATOM     10  C   UNL     1     130.436 127.436 139.705  1.00  0.00    -0.026 C 
ATOM     11  C   UNL     1     129.606 127.112 140.999  1.00  0.00     0.010 C 
ATOM     12  C   UNL     1     130.499 126.724 142.176  1.00  0.00     0.033 C 
ATOM     13  C   UNL     1     131.246 125.400 141.949  1.00  0.00     0.120 C 
ATOM     14  C   UNL     1     131.536 125.068 140.439  1.00  0.00    -0.006 C 
ATOM     15  C   UNL     1     131.646 126.392 139.558  1.00  0.00     0.003 C 
ATOM     16  C   UNL     1     133.018 127.080 139.678  1.00  0.00     0.005 C 
ATOM     17  C   UNL     1     133.094 128.248 138.702  1.00  0.00     0.008 C 
ATOM     18  C   UNL     1     132.289 129.480 139.194  1.00  0.00    -0.024 C 
ATOM     19  C   UNL     1     132.170 130.605 138.013  1.00  0.00    -0.024 C 
ATOM     20  C   UNL     1     133.606 131.214 137.689  1.00  0.00     0.008 C 
ATOM     21  C   UNL     1     133.623 132.501 136.828  1.00  0.00     0.007 C 
ATOM     22  C   UNL     1     131.692 129.966 136.670  1.00  0.00     0.012 C 
ATOM     23  C   UNL     1     133.125 130.074 140.396  1.00  0.00     0.012 C 
ATOM     24  C   UNL     1     130.446 124.125 139.840  1.00  0.00     0.014 C 
ATOM     25  C   UNL     1     132.850 124.237 140.375  1.00  0.00     0.014 C 
ATOM     26  C   UNL     1     129.482 127.204 138.499  1.00  0.00     0.012 C 
ATOM     27  C   UNL     1     131.625 133.802 135.993  1.00  0.00     0.011 C 
ENDROOT
BRANCH   1  28
ATOM     28  C   UNL     1     129.672 134.592 139.077  1.00  0.00    -0.077 C 
ATOM     29  C   UNL     1     128.903 134.622 137.779  1.00  0.00     0.039 C 
ATOM     30  C   UNL     1     129.000 134.854 140.216  1.00  0.00     0.008 C 
ENDBRANCH   1  28
BRANCH  13  31
ATOM     31  O   UNL     1     130.529 124.360 142.572  1.00  0.00    -0.393 OA
ATOM     32  H   UNL     1     130.844 123.508 142.170  1.00  0.00     0.210 HD
ENDBRANCH  13  31
TORSDOF 2
ENDMDL
MODEL 8
REMARK VINA RESULT:    -8.379      2.247      2.909
REMARK INTER + INTRA:          -9.367
REMARK INTER:                  -8.958
REMARK INTRA:                  -0.409
REMARK UNBOUND:                -0.254
REMARK SMILES C=C(C)[C@@H]1CC[C@@]2(C)CC[C@]3(C)[C@@H](CC[C@H]4[C@]5(C)CC[C@@H](O)C(C)(C)[C@@H]5CC[C@]43C)[C@H]12
REMARK SMILES IDX 4 1 5 2 6 3 7 4 31 5 13 6 14 7 15 8 16 9 17 10 19 11 20 12
REMARK SMILES IDX 21 13 23 14 26 15 27 16 28 17 29 18 11 19 10 20 9 21 12 22
REMARK SMILES IDX 30 23 24 24 25 25 18 26 8 27 2 28 3 29 1 30 22 31
REMARK H PARENT 22 32
REMARK Flexibility Score: inf
ROOT
ATOM      1  C   UNL     1     131.850 134.915 139.749  1.00  0.00     0.018 C 
ATOM      2  C   UNL     1     131.048 136.122 139.211  1.00  0.00     0.009 C 
ATOM      3  C   UNL     1     129.591 135.645 139.041  1.00  0.00     0.008 C 
ATOM      4  C   UNL     1     129.409 134.537 140.090  1.00  0.00    -0.029 C 
ATOM      5  C   UNL     1     130.775 133.824 139.985  1.00  0.00     0.006 C 
ATOM      6  C   UNL     1     130.898 132.643 140.981  1.00  0.00    -0.000 C 
ATOM      7  C   UNL     1     132.322 132.067 141.061  1.00  0.00     0.005 C 
ATOM      8  C   UNL     1     132.308 130.785 141.879  1.00  0.00     0.005 C 
ATOM      9  C   UNL     1     131.653 129.625 141.085  1.00  0.00     0.002 C 
ATOM     10  C   UNL     1     131.622 128.214 141.888  1.00  0.00    -0.026 C 
ATOM     11  C   UNL     1     133.070 127.610 141.839  1.00  0.00     0.010 C 
ATOM     12  C   UNL     1     133.314 126.795 140.570  1.00  0.00     0.033 C 
ATOM     13  C   UNL     1     132.448 125.527 140.498  1.00  0.00     0.120 C 
ATOM     14  C   UNL     1     131.077 125.632 141.263  1.00  0.00    -0.006 C 
ATOM     15  C   UNL     1     130.563 127.139 141.342  1.00  0.00     0.003 C 
ATOM     16  C   UNL     1     129.883 127.608 140.043  1.00  0.00     0.005 C 
ATOM     17  C   UNL     1     129.294 129.000 140.245  1.00  0.00     0.008 C 
ATOM     18  C   UNL     1     130.381 130.107 140.229  1.00  0.00    -0.024 C 
ATOM     19  C   UNL     1     129.757 131.540 140.713  1.00  0.00    -0.024 C 
ATOM     20  C   UNL     1     128.690 132.060 139.650  1.00  0.00     0.008 C 
ATOM     21  C   UNL     1     128.245 133.535 139.796  1.00  0.00     0.007 C 
ATOM     22  C   UNL     1     128.955 131.386 142.044  1.00  0.00     0.012 C 
ATOM     23  C   UNL     1     130.839 130.222 138.721  1.00  0.00     0.012 C 
ATOM     24  C   UNL     1     131.176 125.033 142.701  1.00  0.00     0.014 C 
ATOM     25  C   UNL     1     130.049 124.723 140.531  1.00  0.00     0.014 C 
ATOM     26  C   UNL     1     131.295 128.457 143.388  1.00  0.00     0.012 C 
ATOM     27  C   UNL     1     129.117 135.233 141.452  1.00  0.00     0.011 C 
ENDROOT
BRANCH   1  28
ATOM     28  C   UNL     1     132.809 135.270 140.891  1.00  0.00    -0.077 C 
ATOM     29  C   UNL     1     132.336 135.694 142.260  1.00  0.00     0.039 C 
ATOM     30  C   UNL     1     134.132 135.322 140.637  1.00  0.00     0.008 C 
ENDBRANCH   1  28
BRANCH  13  31
ATOM     31  O   UNL     1     133.205 124.431 140.957  1.00  0.00    -0.393 OA
ATOM     32  H   UNL     1     134.058 124.434 140.448  1.00  0.00     0.210 HD
ENDBRANCH  13  31
TORSDOF 2
ENDMDL
MODEL 9
REMARK VINA RESULT:    -8.377      2.515      4.938
REMARK INTER + INTRA:          -9.365
REMARK INTER:                  -9.016
REMARK INTRA:                  -0.349
REMARK UNBOUND:                -0.254
REMARK SMILES C=C(C)[C@@H]1CC[C@@]2(C)CC[C@]3(C)[C@@H](CC[C@H]4[C@]5(C)CC[C@@H](O)C(C)(C)[C@@H]5CC[C@]43C)[C@H]12
REMARK SMILES IDX 4 1 5 2 6 3 7 4 31 5 13 6 14 7 15 8 16 9 17 10 19 11 20 12
REMARK SMILES IDX 21 13 23 14 26 15 27 16 28 17 29 18 11 19 10 20 9 21 12 22
REMARK SMILES IDX 30 23 24 24 25 25 18 26 8 27 2 28 3 29 1 30 22 31
REMARK H PARENT 22 32
REMARK Flexibility Score: inf
ROOT
ATOM      1  C   UNL     1     129.686 133.797 140.610  1.00  0.00     0.018 C 
ATOM      2  C   UNL     1     129.149 135.200 140.244  1.00  0.00     0.009 C 
ATOM      3  C   UNL     1     129.403 135.391 138.735  1.00  0.00     0.008 C 
ATOM      4  C   UNL     1     129.373 133.973 138.143  1.00  0.00    -0.029 C 
ATOM      5  C   UNL     1     130.114 133.191 139.249  1.00  0.00     0.006 C 
ATOM      6  C   UNL     1     130.212 131.677 138.933  1.00  0.00    -0.000 C 
ATOM      7  C   UNL     1     130.735 130.846 140.116  1.00  0.00     0.005 C 
ATOM      8  C   UNL     1     131.012 129.423 139.656  1.00  0.00     0.005 C 
ATOM      9  C   UNL     1     132.286 129.361 138.774  1.00  0.00     0.002 C 
ATOM     10  C   UNL     1     132.660 127.867 138.262  1.00  0.00    -0.026 C 
ATOM     11  C   UNL     1     133.297 127.097 139.474  1.00  0.00     0.010 C 
ATOM     12  C   UNL     1     134.799 127.349 139.593  1.00  0.00     0.033 C 
ATOM     13  C   UNL     1     135.597 126.777 138.409  1.00  0.00     0.120 C 
ATOM     14  C   UNL     1     134.791 126.698 137.060  1.00  0.00    -0.006 C 
ATOM     15  C   UNL     1     133.644 127.802 136.996  1.00  0.00     0.003 C 
ATOM     16  C   UNL     1     134.173 129.195 136.607  1.00  0.00     0.005 C 
ATOM     17  C   UNL     1     133.004 130.156 136.426  1.00  0.00     0.008 C 
ATOM     18  C   UNL     1     132.409 130.620 137.781  1.00  0.00    -0.024 C 
ATOM     19  C   UNL     1     131.004 131.427 137.553  1.00  0.00    -0.024 C 
ATOM     20  C   UNL     1     131.277 132.797 136.787  1.00  0.00     0.008 C 
ATOM     21  C   UNL     1     130.111 133.815 136.773  1.00  0.00     0.007 C 
ATOM     22  C   UNL     1     130.040 130.629 136.618  1.00  0.00     0.012 C 
ATOM     23  C   UNL     1     133.480 131.605 138.395  1.00  0.00     0.012 C 
ATOM     24  C   UNL     1     134.173 125.281 136.845  1.00  0.00     0.014 C 
ATOM     25  C   UNL     1     135.802 126.865 135.889  1.00  0.00     0.014 C 
ATOM     26  C   UNL     1     131.368 127.092 137.877  1.00  0.00     0.012 C 
ATOM     27  C   UNL     1     127.878 133.590 137.934  1.00  0.00     0.011 C 
ENDROOT
BRANCH   1  28
ATOM     28  C   UNL     1     128.747 132.993 141.517  1.00  0.00    -0.077 C 
ATOM     29  C   UNL     1     127.476 132.350 141.020  1.00  0.00     0.039 C 
ATOM     30  C   UNL     1     129.000 132.953 142.840  1.00  0.00     0.008 C 
ENDBRANCH   1  28
BRANCH  13  31
ATOM     31  O   UNL     1     136.110 125.517 138.772  1.00  0.00    -0.393 OA
ATOM     32  H   UNL     1     136.390 125.064 137.934  1.00  0.00     0.210 HD
ENDBRANCH  13  31
TORSDOF 2
ENDMDL
