MODEL 1
REMARK VINA RESULT:    -4.648      0.000      0.000
REMARK INTER + INTRA:         -12.201
REMARK INTER:                 -10.627
REMARK INTRA:                  -1.574
REMARK UNBOUND:                -1.574
REMARK SMILES CCCCCCCCCCCCCCCCCCCCCCCC(=O)[O-]
REMARK SMILES IDX 13 1 14 2 15 3 16 4 17 5 18 6 19 7 20 8 21 9 22 10 23 11
REMARK SMILES IDX 24 12 25 13 26 14 12 15 11 16 10 17 9 18 8 19 7 20 6 21 5 22
REMARK SMILES IDX 4 23 3 24 2 25 1 26
REMARK H PARENT
REMARK Flexibility Score: inf
ROOT
ATOM      1  C   UNL     1      22.966   1.124  -4.804  1.00  0.00     0.000 C 
ENDROOT
BRANCH   1   2
ATOM      2  C   UNL     1      21.836   0.241  -5.355  1.00  0.00     0.000 C 
BRANCH   2   3
ATOM      3  C   UNL     1      21.477   0.642  -6.794  1.00  0.00     0.000 C 
BRANCH   3   4
ATOM      4  C   UNL     1      20.538  -0.367  -7.477  1.00  0.00     0.000 C 
BRANCH   4   5
ATOM      5  C   UNL     1      19.048  -0.228  -7.105  1.00  0.00     0.000 C 
BRANCH   5   6
ATOM      6  C   UNL     1      18.392  -1.512  -6.564  1.00  0.00     0.000 C 
BRANCH   6   7
ATOM      7  C   UNL     1      19.422  -2.575  -6.149  1.00  0.00     0.000 C 
BRANCH   7   8
ATOM      8  C   UNL     1      19.838  -2.450  -4.674  1.00  0.00     0.000 C 
BRANCH   8   9
ATOM      9  C   UNL     1      18.731  -2.900  -3.709  1.00  0.00     0.000 C 
BRANCH   9  10
ATOM     10  C   UNL     1      18.326  -1.755  -2.767  1.00  0.00     0.006 C 
BRANCH  10  11
ATOM     11  C   UNL     1      16.805  -1.581  -2.684  1.00  0.00     0.053 C 
BRANCH  11  12
ATOM     12  C   UNL     1      16.293  -0.645  -3.735  1.00  0.00     0.041 C 
ATOM     13  O   UNL     1      15.120  -0.768  -4.177  1.00  0.00    -0.550 OA
ATOM     14  O   UNL     1      17.098   0.388  -4.200  1.00  0.00    -0.550 OA
ENDBRANCH  11  12
ENDBRANCH  10  11
ENDBRANCH   9  10
ENDBRANCH   8   9
ENDBRANCH   7   8
ENDBRANCH   6   7
ENDBRANCH   5   6
ENDBRANCH   4   5
ENDBRANCH   3   4
ENDBRANCH   2   3
ENDBRANCH   1   2
BRANCH   1  15
ATOM     15  C   UNL     1      24.237   1.068  -5.668  1.00  0.00     0.000 C 
BRANCH  15  16
ATOM     16  C   UNL     1      25.523   1.124  -4.831  1.00  0.00     0.000 C 
BRANCH  16  17
ATOM     17  C   UNL     1      26.431  -0.074  -5.133  1.00  0.00     0.000 C 
BRANCH  17  18
ATOM     18  C   UNL     1      26.821  -0.807  -3.842  1.00  0.00    -0.000 C 
BRANCH  18  19
ATOM     19  C   UNL     1      28.276  -1.299  -3.854  1.00  0.00    -0.000 C 
BRANCH  19  20
ATOM     20  C   UNL     1      28.384  -2.829  -3.981  1.00  0.00    -0.000 C 
BRANCH  20  21
ATOM     21  C   UNL     1      27.707  -3.363  -5.258  1.00  0.00    -0.000 C 
BRANCH  21  22
ATOM     22  C   UNL     1      26.858  -4.631  -5.039  1.00  0.00    -0.000 C 
BRANCH  22  23
ATOM     23  C   UNL     1      27.551  -5.719  -4.194  1.00  0.00    -0.000 C 
BRANCH  23  24
ATOM     24  C   UNL     1      27.482  -7.107  -4.854  1.00  0.00    -0.000 C 
BRANCH  24  25
ATOM     25  C   UNL     1      26.731  -7.086  -6.194  1.00  0.00    -0.003 C 
ATOM     26  C   UNL     1      27.610  -7.513  -7.370  1.00  0.00     0.004 C 
ENDBRANCH  24  25
ENDBRANCH  23  24
ENDBRANCH  22  23
ENDBRANCH  21  22
ENDBRANCH  20  21
ENDBRANCH  19  20
ENDBRANCH  18  19
ENDBRANCH  17  18
ENDBRANCH  16  17
ENDBRANCH  15  16
ENDBRANCH   1  15
TORSDOF 22
ENDMDL
MODEL 2
REMARK VINA RESULT:    -4.606      4.268      9.456
REMARK INTER + INTRA:         -12.105
REMARK INTER:                 -10.666
REMARK INTRA:                  -1.439
REMARK UNBOUND:                -1.574
REMARK SMILES CCCCCCCCCCCCCCCCCCCCCCCC(=O)[O-]
REMARK SMILES IDX 13 1 14 2 15 3 16 4 17 5 18 6 19 7 20 8 21 9 22 10 23 11
REMARK SMILES IDX 24 12 25 13 26 14 12 15 11 16 10 17 9 18 8 19 7 20 6 21 5 22
REMARK SMILES IDX 4 23 3 24 2 25 1 26
REMARK H PARENT
REMARK Flexibility Score: inf
ROOT
ATOM      1  C   UNL     1      24.960   1.125  -4.644  1.00  0.00     0.000 C 
ENDROOT
BRANCH   1   2
ATOM      2  C   UNL     1      26.180   0.727  -5.489  1.00  0.00     0.000 C 
BRANCH   2   3
ATOM      3  C   UNL     1      27.452   0.681  -4.629  1.00  0.00     0.000 C 
BRANCH   3   4
ATOM      4  C   UNL     1      27.932  -0.754  -4.350  1.00  0.00     0.000 C 
BRANCH   4   5
ATOM      5  C   UNL     1      27.515  -1.326  -2.980  1.00  0.00     0.000 C 
BRANCH   5   6
ATOM      6  C   UNL     1      27.694  -2.848  -2.830  1.00  0.00     0.000 C 
BRANCH   6   7
ATOM      7  C   UNL     1      27.807  -3.567  -4.185  1.00  0.00     0.000 C 
BRANCH   7   8
ATOM      8  C   UNL     1      26.507  -4.286  -4.581  1.00  0.00     0.000 C 
BRANCH   8   9
ATOM      9  C   UNL     1      26.455  -5.735  -4.074  1.00  0.00     0.000 C 
BRANCH   9  10
ATOM     10  C   UNL     1      26.394  -6.724  -5.248  1.00  0.00     0.006 C 
BRANCH  10  11
ATOM     11  C   UNL     1      27.679  -6.711  -6.087  1.00  0.00     0.053 C 
BRANCH  11  12
ATOM     12  C   UNL     1      28.654  -7.752  -5.630  1.00  0.00     0.041 C 
ATOM     13  O   UNL     1      29.074  -8.624  -6.434  1.00  0.00    -0.550 OA
ATOM     14  O   UNL     1      29.126  -7.736  -4.323  1.00  0.00    -0.550 OA
ENDBRANCH  11  12
ENDBRANCH  10  11
ENDBRANCH   9  10
ENDBRANCH   8   9
ENDBRANCH   7   8
ENDBRANCH   6   7
ENDBRANCH   5   6
ENDBRANCH   4   5
ENDBRANCH   3   4
ENDBRANCH   2   3
ENDBRANCH   1   2
BRANCH   1  15
ATOM     15  C   UNL     1      23.628   0.859  -5.365  1.00  0.00     0.000 C 
BRANCH  15  16
ATOM     16  C   UNL     1      22.409   1.096  -4.460  1.00  0.00     0.000 C 
BRANCH  16  17
ATOM     17  C   UNL     1      21.108   0.716  -5.177  1.00  0.00     0.000 C 
BRANCH  17  18
ATOM     18  C   UNL     1      21.273   0.808  -6.701  1.00  0.00    -0.000 C 
BRANCH  18  19
ATOM     19  C   UNL     1      20.702  -0.414  -7.435  1.00  0.00    -0.000 C 
BRANCH  19  20
ATOM     20  C   UNL     1      19.300  -0.805  -6.934  1.00  0.00    -0.000 C 
BRANCH  20  21
ATOM     21  C   UNL     1      19.272  -2.210  -6.301  1.00  0.00    -0.000 C 
BRANCH  21  22
ATOM     22  C   UNL     1      19.874  -2.274  -4.883  1.00  0.00    -0.000 C 
BRANCH  22  23
ATOM     23  C   UNL     1      18.983  -2.992  -3.849  1.00  0.00    -0.000 C 
BRANCH  23  24
ATOM     24  C   UNL     1      18.186  -2.007  -2.976  1.00  0.00    -0.000 C 
BRANCH  24  25
ATOM     25  C   UNL     1      16.915  -1.498  -3.672  1.00  0.00    -0.003 C 
ATOM     26  C   UNL     1      17.064  -0.074  -4.208  1.00  0.00     0.004 C 
ENDBRANCH  24  25
ENDBRANCH  23  24
ENDBRANCH  22  23
ENDBRANCH  21  22
ENDBRANCH  20  21
ENDBRANCH  19  20
ENDBRANCH  18  19
ENDBRANCH  17  18
ENDBRANCH  16  17
ENDBRANCH  15  16
ENDBRANCH   1  15
TORSDOF 22
ENDMDL
MODEL 3
REMARK VINA RESULT:    -4.510      1.246      2.137
REMARK INTER + INTRA:         -11.883
REMARK INTER:                 -10.340
REMARK INTRA:                  -1.544
REMARK UNBOUND:                -1.574
REMARK SMILES CCCCCCCCCCCCCCCCCCCCCCCC(=O)[O-]
REMARK SMILES IDX 13 1 14 2 15 3 16 4 17 5 18 6 19 7 20 8 21 9 22 10 23 11
REMARK SMILES IDX 24 12 25 13 26 14 12 15 11 16 10 17 9 18 8 19 7 20 6 21 5 22
REMARK SMILES IDX 4 23 3 24 2 25 1 26
REMARK H PARENT
REMARK Flexibility Score: inf
ROOT
ATOM      1  C   UNL     1      23.124   0.627  -5.274  1.00  0.00     0.000 C 
ENDROOT
BRANCH   1   2
ATOM      2  C   UNL     1      22.102   1.057  -6.338  1.00  0.00     0.000 C 
BRANCH   2   3
ATOM      3  C   UNL     1      20.669   0.739  -5.883  1.00  0.00     0.000 C 
BRANCH   3   4
ATOM      4  C   UNL     1      20.538   0.635  -4.354  1.00  0.00     0.000 C 
BRANCH   4   5
ATOM      5  C   UNL     1      19.797  -0.619  -3.847  1.00  0.00     0.000 C 
BRANCH   5   6
ATOM      6  C   UNL     1      20.155  -1.925  -4.578  1.00  0.00     0.000 C 
BRANCH   6   7
ATOM      7  C   UNL     1      18.962  -2.523  -5.343  1.00  0.00     0.000 C 
BRANCH   7   8
ATOM      8  C   UNL     1      18.559  -1.677  -6.562  1.00  0.00     0.000 C 
BRANCH   8   9
ATOM      9  C   UNL     1      17.091  -1.229  -6.510  1.00  0.00     0.000 C 
BRANCH   9  10
ATOM     10  C   UNL     1      16.985   0.304  -6.521  1.00  0.00     0.006 C 
BRANCH  10  11
ATOM     11  C   UNL     1      16.230   0.844  -5.300  1.00  0.00     0.053 C 
BRANCH  11  12
ATOM     12  C   UNL     1      15.818  -0.255  -4.369  1.00  0.00     0.041 C 
ATOM     13  O   UNL     1      16.627  -0.694  -3.510  1.00  0.00    -0.550 OA
ATOM     14  O   UNL     1      14.529  -0.769  -4.425  1.00  0.00    -0.550 OA
ENDBRANCH  11  12
ENDBRANCH  10  11
ENDBRANCH   9  10
ENDBRANCH   8   9
ENDBRANCH   7   8
ENDBRANCH   6   7
ENDBRANCH   5   6
ENDBRANCH   4   5
ENDBRANCH   3   4
ENDBRANCH   2   3
ENDBRANCH   1   2
BRANCH   1  15
ATOM     15  C   UNL     1      24.545   1.124  -5.584  1.00  0.00     0.000 C 
BRANCH  15  16
ATOM     16  C   UNL     1      25.547   0.779  -4.471  1.00  0.00     0.000 C 
BRANCH  16  17
ATOM     17  C   UNL     1      26.991   0.959  -4.954  1.00  0.00     0.000 C 
BRANCH  17  18
ATOM     18  C   UNL     1      27.854  -0.251  -4.569  1.00  0.00    -0.000 C 
BRANCH  18  19
ATOM     19  C   UNL     1      27.285  -1.576  -5.095  1.00  0.00    -0.000 C 
BRANCH  19  20
ATOM     20  C   UNL     1      27.930  -2.805  -4.429  1.00  0.00    -0.000 C 
BRANCH  20  21
ATOM     21  C   UNL     1      26.899  -3.684  -3.694  1.00  0.00    -0.000 C 
BRANCH  21  22
ATOM     22  C   UNL     1      27.301  -5.168  -3.583  1.00  0.00    -0.000 C 
BRANCH  22  23
ATOM     23  C   UNL     1      26.539  -6.103  -4.545  1.00  0.00    -0.000 C 
BRANCH  23  24
ATOM     24  C   UNL     1      26.341  -5.478  -5.937  1.00  0.00    -0.000 C 
BRANCH  24  25
ATOM     25  C   UNL     1      27.159  -6.192  -7.025  1.00  0.00    -0.003 C 
ATOM     26  C   UNL     1      27.487  -7.640  -6.663  1.00  0.00     0.004 C 
ENDBRANCH  24  25
ENDBRANCH  23  24
ENDBRANCH  22  23
ENDBRANCH  21  22
ENDBRANCH  20  21
ENDBRANCH  19  20
ENDBRANCH  18  19
ENDBRANCH  17  18
ENDBRANCH  16  17
ENDBRANCH  15  16
ENDBRANCH   1  15
TORSDOF 22
ENDMDL
MODEL 4
REMARK VINA RESULT:    -4.498      6.568      9.271
REMARK INTER + INTRA:         -11.857
REMARK INTER:                  -9.061
REMARK INTRA:                  -2.797
REMARK UNBOUND:                -1.574
REMARK SMILES CCCCCCCCCCCCCCCCCCCCCCCC(=O)[O-]
REMARK SMILES IDX 13 1 14 2 15 3 16 4 17 5 18 6 19 7 20 8 21 9 22 10 23 11
REMARK SMILES IDX 24 12 25 13 26 14 12 15 11 16 10 17 9 18 8 19 7 20 6 21 5 22
REMARK SMILES IDX 4 23 3 24 2 25 1 26
REMARK H PARENT
REMARK Flexibility Score: inf
ROOT
ATOM      1  C   UNL     1      26.589  -7.232  -5.970  1.00  0.00     0.000 C 
ENDROOT
BRANCH   1   2
ATOM      2  C   UNL     1      26.250  -6.303  -4.795  1.00  0.00     0.000 C 
BRANCH   2   3
ATOM      3  C   UNL     1      25.953  -4.879  -5.288  1.00  0.00     0.000 C 
BRANCH   3   4
ATOM      4  C   UNL     1      26.515  -3.794  -4.353  1.00  0.00     0.000 C 
BRANCH   4   5
ATOM      5  C   UNL     1      26.946  -4.294  -2.959  1.00  0.00     0.000 C 
BRANCH   5   6
ATOM      6  C   UNL     1      26.869  -3.241  -1.839  1.00  0.00     0.000 C 
BRANCH   6   7
ATOM      7  C   UNL     1      28.221  -2.561  -1.570  1.00  0.00     0.000 C 
BRANCH   7   8
ATOM      8  C   UNL     1      28.697  -2.746  -0.120  1.00  0.00     0.000 C 
BRANCH   8   9
ATOM      9  C   UNL     1      29.802  -1.753   0.270  1.00  0.00     0.000 C 
BRANCH   9  10
ATOM     10  C   UNL     1      29.728  -1.410   1.766  1.00  0.00     0.006 C 
BRANCH  10  11
ATOM     11  C   UNL     1      28.384  -0.779   2.152  1.00  0.00     0.053 C 
BRANCH  11  12
ATOM     12  C   UNL     1      27.895  -1.279   3.477  1.00  0.00     0.041 C 
ATOM     13  O   UNL     1      27.273  -0.509   4.255  1.00  0.00    -0.550 OA
ATOM     14  O   UNL     1      28.093  -2.606   3.836  1.00  0.00    -0.550 OA
ENDBRANCH  11  12
ENDBRANCH  10  11
ENDBRANCH   9  10
ENDBRANCH   8   9
ENDBRANCH   7   8
ENDBRANCH   6   7
ENDBRANCH   5   6
ENDBRANCH   4   5
ENDBRANCH   3   4
ENDBRANCH   2   3
ENDBRANCH   1   2
BRANCH   1  15
ATOM     15  C   UNL     1      28.079  -7.189  -6.348  1.00  0.00     0.000 C 
BRANCH  15  16
ATOM     16  C   UNL     1      28.907  -8.252  -5.612  1.00  0.00     0.000 C 
BRANCH  16  17
ATOM     17  C   UNL     1      29.989  -7.604  -4.740  1.00  0.00     0.000 C 
BRANCH  17  18
ATOM     18  C   UNL     1      29.362  -6.713  -3.659  1.00  0.00    -0.000 C 
BRANCH  18  19
ATOM     19  C   UNL     1      30.066  -5.354  -3.527  1.00  0.00    -0.000 C 
BRANCH  19  20
ATOM     20  C   UNL     1      29.908  -4.479  -4.783  1.00  0.00    -0.000 C 
BRANCH  20  21
ATOM     21  C   UNL     1      30.124  -2.982  -4.488  1.00  0.00    -0.000 C 
BRANCH  21  22
ATOM     22  C   UNL     1      29.638  -2.042  -5.609  1.00  0.00    -0.000 C 
BRANCH  22  23
ATOM     23  C   UNL     1      29.507  -0.565  -5.184  1.00  0.00    -0.000 C 
BRANCH  23  24
ATOM     24  C   UNL     1      28.493  -0.370  -4.042  1.00  0.00    -0.000 C 
BRANCH  24  25
ATOM     25  C   UNL     1      27.071  -0.102  -4.557  1.00  0.00    -0.003 C 
ATOM     26  C   UNL     1      27.055   0.522  -5.952  1.00  0.00     0.004 C 
ENDBRANCH  24  25
ENDBRANCH  23  24
ENDBRANCH  22  23
ENDBRANCH  21  22
ENDBRANCH  20  21
ENDBRANCH  19  20
ENDBRANCH  18  19
ENDBRANCH  17  18
ENDBRANCH  16  17
ENDBRANCH  15  16
ENDBRANCH   1  15
TORSDOF 22
ENDMDL
MODEL 5
REMARK VINA RESULT:    -4.478      6.897      8.768
REMARK INTER + INTRA:         -11.811
REMARK INTER:                  -8.361
REMARK INTRA:                  -3.450
REMARK UNBOUND:                -1.574
REMARK SMILES CCCCCCCCCCCCCCCCCCCCCCCC(=O)[O-]
REMARK SMILES IDX 13 1 14 2 15 3 16 4 17 5 18 6 19 7 20 8 21 9 22 10 23 11
REMARK SMILES IDX 24 12 25 13 26 14 12 15 11 16 10 17 9 18 8 19 7 20 6 21 5 22
REMARK SMILES IDX 4 23 3 24 2 25 1 26
REMARK H PARENT
REMARK Flexibility Score: inf
ROOT
ATOM      1  C   UNL     1      28.178  -3.101  -1.562  1.00  0.00     0.000 C 
ENDROOT
BRANCH   1   2
ATOM      2  C   UNL     1      27.296  -1.896  -1.921  1.00  0.00     0.000 C 
BRANCH   2   3
ATOM      3  C   UNL     1      28.143  -0.626  -2.093  1.00  0.00     0.000 C 
BRANCH   3   4
ATOM      4  C   UNL     1      27.293   0.654  -2.164  1.00  0.00     0.000 C 
BRANCH   4   5
ATOM      5  C   UNL     1      26.669   1.098  -0.825  1.00  0.00     0.000 C 
BRANCH   5   6
ATOM      6  C   UNL     1      27.633   1.086   0.375  1.00  0.00     0.000 C 
BRANCH   6   7
ATOM      7  C   UNL     1      26.961   0.598   1.670  1.00  0.00     0.000 C 
BRANCH   7   8
ATOM      8  C   UNL     1      27.799  -0.460   2.407  1.00  0.00     0.000 C 
BRANCH   8   9
ATOM      9  C   UNL     1      28.690  -1.273   1.456  1.00  0.00     0.000 C 
BRANCH   9  10
ATOM     10  C   UNL     1      28.950  -2.679   2.018  1.00  0.00     0.006 C 
BRANCH  10  11
ATOM     11  C   UNL     1      27.903  -3.093   3.060  1.00  0.00     0.053 C 
BRANCH  11  12
ATOM     12  C   UNL     1      28.107  -4.501   3.527  1.00  0.00     0.041 C 
ATOM     13  O   UNL     1      27.839  -5.467   2.765  1.00  0.00    -0.550 OA
ATOM     14  O   UNL     1      28.629  -4.746   4.791  1.00  0.00    -0.550 OA
ENDBRANCH  11  12
ENDBRANCH  10  11
ENDBRANCH   9  10
ENDBRANCH   8   9
ENDBRANCH   7   8
ENDBRANCH   6   7
ENDBRANCH   5   6
ENDBRANCH   4   5
ENDBRANCH   3   4
ENDBRANCH   2   3
ENDBRANCH   1   2
BRANCH   1  15
ATOM     15  C   UNL     1      29.647  -2.903  -1.971  1.00  0.00     0.000 C 
BRANCH  15  16
ATOM     16  C   UNL     1      30.032  -3.728  -3.207  1.00  0.00     0.000 C 
BRANCH  16  17
ATOM     17  C   UNL     1      29.936  -2.886  -4.485  1.00  0.00     0.000 C 
BRANCH  17  18
ATOM     18  C   UNL     1      28.952  -3.514  -5.482  1.00  0.00    -0.000 C 
BRANCH  18  19
ATOM     19  C   UNL     1      27.612  -2.765  -5.545  1.00  0.00    -0.000 C 
BRANCH  19  20
ATOM     20  C   UNL     1      26.453  -3.570  -4.929  1.00  0.00    -0.000 C 
BRANCH  20  21
ATOM     21  C   UNL     1      26.648  -5.091  -5.082  1.00  0.00    -0.000 C 
BRANCH  21  22
ATOM     22  C   UNL     1      26.918  -5.829  -3.756  1.00  0.00    -0.000 C 
BRANCH  22  23
ATOM     23  C   UNL     1      27.884  -7.024  -3.882  1.00  0.00    -0.000 C 
BRANCH  23  24
ATOM     24  C   UNL     1      28.784  -6.923  -5.127  1.00  0.00    -0.000 C 
BRANCH  24  25
ATOM     25  C   UNL     1      28.489  -8.024  -6.157  1.00  0.00    -0.003 C 
ATOM     26  C   UNL     1      27.429  -7.610  -7.178  1.00  0.00     0.004 C 
ENDBRANCH  24  25
ENDBRANCH  23  24
ENDBRANCH  22  23
ENDBRANCH  21  22
ENDBRANCH  20  21
ENDBRANCH  19  20
ENDBRANCH  18  19
ENDBRANCH  17  18
ENDBRANCH  16  17
ENDBRANCH  15  16
ENDBRANCH   1  15
TORSDOF 22
ENDMDL
MODEL 6
REMARK VINA RESULT:    -4.458      6.362      8.977
REMARK INTER + INTRA:         -11.766
REMARK INTER:                  -9.323
REMARK INTRA:                  -2.443
REMARK UNBOUND:                -1.574
REMARK SMILES CCCCCCCCCCCCCCCCCCCCCCCC(=O)[O-]
REMARK SMILES IDX 13 1 14 2 15 3 16 4 17 5 18 6 19 7 20 8 21 9 22 10 23 11
REMARK SMILES IDX 24 12 25 13 26 14 12 15 11 16 10 17 9 18 8 19 7 20 6 21 5 22
REMARK SMILES IDX 4 23 3 24 2 25 1 26
REMARK H PARENT
REMARK Flexibility Score: inf
ROOT
ATOM      1  C   UNL     1      25.708  -5.303  -5.093  1.00  0.00     0.000 C 
ENDROOT
BRANCH   1   2
ATOM      2  C   UNL     1      26.348  -5.120  -3.709  1.00  0.00     0.000 C 
BRANCH   2   3
ATOM      3  C   UNL     1      26.611  -3.635  -3.417  1.00  0.00     0.000 C 
BRANCH   3   4
ATOM      4  C   UNL     1      27.128  -3.390  -1.989  1.00  0.00     0.000 C 
BRANCH   4   5
ATOM      5  C   UNL     1      27.164  -1.912  -1.552  1.00  0.00     0.000 C 
BRANCH   5   6
ATOM      6  C   UNL     1      27.872  -1.649  -0.211  1.00  0.00     0.000 C 
BRANCH   6   7
ATOM      7  C   UNL     1      28.390  -2.937   0.449  1.00  0.00     0.000 C 
BRANCH   7   8
ATOM      8  C   UNL     1      28.156  -2.958   1.968  1.00  0.00     0.000 C 
BRANCH   8   9
ATOM      9  C   UNL     1      28.640  -1.674   2.657  1.00  0.00     0.000 C 
BRANCH   9  10
ATOM     10  C   UNL     1      27.999  -1.522   4.045  1.00  0.00     0.006 C 
BRANCH  10  11
ATOM     11  C   UNL     1      27.606  -0.070   4.349  1.00  0.00     0.053 C 
BRANCH  11  12
ATOM     12  C   UNL     1      26.138   0.160   4.159  1.00  0.00     0.041 C 
ATOM     13  O   UNL     1      25.713   0.715   3.112  1.00  0.00    -0.550 OA
ATOM     14  O   UNL     1      25.235  -0.272   5.124  1.00  0.00    -0.550 OA
ENDBRANCH  11  12
ENDBRANCH  10  11
ENDBRANCH   9  10
ENDBRANCH   8   9
ENDBRANCH   7   8
ENDBRANCH   6   7
ENDBRANCH   5   6
ENDBRANCH   4   5
ENDBRANCH   3   4
ENDBRANCH   2   3
ENDBRANCH   1   2
BRANCH   1  15
ATOM     15  C   UNL     1      26.724  -5.738  -6.163  1.00  0.00     0.000 C 
BRANCH  15  16
ATOM     16  C   UNL     1      26.899  -7.263  -6.226  1.00  0.00     0.000 C 
BRANCH  16  17
ATOM     17  C   UNL     1      28.383  -7.648  -6.216  1.00  0.00     0.000 C 
BRANCH  17  18
ATOM     18  C   UNL     1      28.848  -8.007  -4.797  1.00  0.00    -0.000 C 
BRANCH  18  19
ATOM     19  C   UNL     1      29.957  -7.077  -4.284  1.00  0.00    -0.000 C 
BRANCH  19  20
ATOM     20  C   UNL     1      29.404  -5.857  -3.524  1.00  0.00    -0.000 C 
BRANCH  20  21
ATOM     21  C   UNL     1      30.125  -4.550  -3.909  1.00  0.00    -0.000 C 
BRANCH  21  22
ATOM     22  C   UNL     1      29.602  -3.899  -5.205  1.00  0.00    -0.000 C 
BRANCH  22  23
ATOM     23  C   UNL     1      29.227  -2.411  -5.060  1.00  0.00    -0.000 C 
BRANCH  23  24
ATOM     24  C   UNL     1      28.994  -1.729  -6.419  1.00  0.00    -0.000 C 
BRANCH  24  25
ATOM     25  C   UNL     1      28.019  -0.544  -6.325  1.00  0.00    -0.003 C 
ATOM     26  C   UNL     1      27.363  -0.428  -4.949  1.00  0.00     0.004 C 
ENDBRANCH  24  25
ENDBRANCH  23  24
ENDBRANCH  22  23
ENDBRANCH  21  22
ENDBRANCH  20  21
ENDBRANCH  19  20
ENDBRANCH  18  19
ENDBRANCH  17  18
ENDBRANCH  16  17
ENDBRANCH  15  16
ENDBRANCH   1  15
TORSDOF 22
ENDMDL
MODEL 7
REMARK VINA RESULT:    -4.399      7.139      9.568
REMARK INTER + INTRA:         -11.630
REMARK INTER:                  -9.273
REMARK INTRA:                  -2.358
REMARK UNBOUND:                -1.574
REMARK SMILES CCCCCCCCCCCCCCCCCCCCCCCC(=O)[O-]
REMARK SMILES IDX 13 1 14 2 15 3 16 4 17 5 18 6 19 7 20 8 21 9 22 10 23 11
REMARK SMILES IDX 24 12 25 13 26 14 12 15 11 16 10 17 9 18 8 19 7 20 6 21 5 22
REMARK SMILES IDX 4 23 3 24 2 25 1 26
REMARK H PARENT
REMARK Flexibility Score: inf
ROOT
ATOM      1  C   UNL     1      29.449  -2.863  -1.994  1.00  0.00     0.000 C 
ENDROOT
BRANCH   1   2
ATOM      2  C   UNL     1      30.114  -2.512  -3.333  1.00  0.00     0.000 C 
BRANCH   2   3
ATOM      3  C   UNL     1      29.965  -3.664  -4.340  1.00  0.00     0.000 C 
BRANCH   3   4
ATOM      4  C   UNL     1      29.153  -3.267  -5.584  1.00  0.00     0.000 C 
BRANCH   4   5
ATOM      5  C   UNL     1      27.746  -2.705  -5.294  1.00  0.00     0.000 C 
BRANCH   5   6
ATOM      6  C   UNL     1      26.651  -3.769  -5.099  1.00  0.00     0.000 C 
BRANCH   6   7
ATOM      7  C   UNL     1      26.470  -4.171  -3.626  1.00  0.00     0.000 C 
BRANCH   7   8
ATOM      8  C   UNL     1      26.233  -5.680  -3.451  1.00  0.00     0.000 C 
BRANCH   8   9
ATOM      9  C   UNL     1      27.242  -6.531  -4.236  1.00  0.00     0.000 C 
BRANCH   9  10
ATOM     10  C   UNL     1      26.595  -7.118  -5.500  1.00  0.00     0.006 C 
BRANCH  10  11
ATOM     11  C   UNL     1      27.385  -6.776  -6.770  1.00  0.00     0.053 C 
BRANCH  11  12
ATOM     12  C   UNL     1      28.294  -7.894  -7.180  1.00  0.00     0.041 C 
ATOM     13  O   UNL     1      28.889  -8.579  -6.308  1.00  0.00    -0.550 OA
ATOM     14  O   UNL     1      28.454  -8.203  -8.525  1.00  0.00    -0.550 OA
ENDBRANCH  11  12
ENDBRANCH  10  11
ENDBRANCH   9  10
ENDBRANCH   8   9
ENDBRANCH   7   8
ENDBRANCH   6   7
ENDBRANCH   5   6
ENDBRANCH   4   5
ENDBRANCH   3   4
ENDBRANCH   2   3
ENDBRANCH   1   2
BRANCH   1  15
ATOM     15  C   UNL     1      28.881  -1.629  -1.274  1.00  0.00     0.000 C 
BRANCH  15  16
ATOM     16  C   UNL     1      27.369  -1.464  -1.485  1.00  0.00     0.000 C 
BRANCH  16  17
ATOM     17  C   UNL     1      26.851  -0.195  -0.798  1.00  0.00     0.000 C 
BRANCH  17  18
ATOM     18  C   UNL     1      27.457  -0.044   0.605  1.00  0.00    -0.000 C 
BRANCH  18  19
ATOM     19  C   UNL     1      26.838   1.117   1.396  1.00  0.00    -0.000 C 
BRANCH  19  20
ATOM     20  C   UNL     1      27.144   1.038   2.903  1.00  0.00    -0.000 C 
BRANCH  20  21
ATOM     21  C   UNL     1      26.723  -0.311   3.518  1.00  0.00    -0.000 C 
BRANCH  21  22
ATOM     22  C   UNL     1      27.804  -0.966   4.401  1.00  0.00    -0.000 C 
BRANCH  22  23
ATOM     23  C   UNL     1      28.189  -2.397   3.972  1.00  0.00    -0.000 C 
BRANCH  23  24
ATOM     24  C   UNL     1      28.227  -2.561   2.442  1.00  0.00    -0.000 C 
BRANCH  24  25
ATOM     25  C   UNL     1      28.110  -4.029   2.004  1.00  0.00    -0.003 C 
ATOM     26  C   UNL     1      28.160  -5.002   3.182  1.00  0.00     0.004 C 
ENDBRANCH  24  25
ENDBRANCH  23  24
ENDBRANCH  22  23
ENDBRANCH  21  22
ENDBRANCH  20  21
ENDBRANCH  19  20
ENDBRANCH  18  19
ENDBRANCH  17  18
ENDBRANCH  16  17
ENDBRANCH  15  16
ENDBRANCH   1  15
TORSDOF 22
ENDMDL
MODEL 8
REMARK VINA RESULT:    -4.356      6.418      8.335
REMARK INTER + INTRA:         -11.533
REMARK INTER:                  -8.485
REMARK INTRA:                  -3.048
REMARK UNBOUND:                -1.574
REMARK SMILES CCCCCCCCCCCCCCCCCCCCCCCC(=O)[O-]
REMARK SMILES IDX 13 1 14 2 15 3 16 4 17 5 18 6 19 7 20 8 21 9 22 10 23 11
REMARK SMILES IDX 24 12 25 13 26 14 12 15 11 16 10 17 9 18 8 19 7 20 6 21 5 22
REMARK SMILES IDX 4 23 3 24 2 25 1 26
REMARK H PARENT
REMARK Flexibility Score: inf
ROOT
ATOM      1  C   UNL     1      27.607   1.000  -3.331  1.00  0.00     0.000 C 
ENDROOT
BRANCH   1   2
ATOM      2  C   UNL     1      27.140   0.575  -1.931  1.00  0.00     0.000 C 
BRANCH   2   3
ATOM      3  C   UNL     1      28.129  -0.418  -1.300  1.00  0.00     0.000 C 
BRANCH   3   4
ATOM      4  C   UNL     1      27.886  -1.869  -1.750  1.00  0.00     0.000 C 
BRANCH   4   5
ATOM      5  C   UNL     1      28.912  -2.895  -1.229  1.00  0.00     0.000 C 
BRANCH   5   6
ATOM      6  C   UNL     1      29.585  -2.520   0.104  1.00  0.00     0.000 C 
BRANCH   6   7
ATOM      7  C   UNL     1      28.894  -3.161   1.318  1.00  0.00     0.000 C 
BRANCH   7   8
ATOM      8  C   UNL     1      28.219  -2.124   2.230  1.00  0.00     0.000 C 
BRANCH   8   9
ATOM      9  C   UNL     1      29.141  -0.941   2.562  1.00  0.00     0.000 C 
BRANCH   9  10
ATOM     10  C   UNL     1      28.394   0.393   2.418  1.00  0.00     0.006 C 
BRANCH  10  11
ATOM     11  C   UNL     1      26.875   0.228   2.556  1.00  0.00     0.053 C 
BRANCH  11  12
ATOM     12  C   UNL     1      26.398   0.584   3.930  1.00  0.00     0.041 C 
ATOM     13  O   UNL     1      27.223   0.911   4.823  1.00  0.00    -0.550 OA
ATOM     14  O   UNL     1      25.038   0.590   4.215  1.00  0.00    -0.550 OA
ENDBRANCH  11  12
ENDBRANCH  10  11
ENDBRANCH   9  10
ENDBRANCH   8   9
ENDBRANCH   7   8
ENDBRANCH   6   7
ENDBRANCH   5   6
ENDBRANCH   4   5
ENDBRANCH   3   4
ENDBRANCH   2   3
ENDBRANCH   1   2
BRANCH   1  15
ATOM     15  C   UNL     1      26.779   0.353  -4.453  1.00  0.00     0.000 C 
BRANCH  15  16
ATOM     16  C   UNL     1      27.615   0.051  -5.706  1.00  0.00     0.000 C 
BRANCH  16  17
ATOM     17  C   UNL     1      28.970  -0.560  -5.331  1.00  0.00     0.000 C 
BRANCH  17  18
ATOM     18  C   UNL     1      29.125  -1.963  -5.935  1.00  0.00    -0.000 C 
BRANCH  18  19
ATOM     19  C   UNL     1      29.676  -2.984  -4.929  1.00  0.00    -0.000 C 
BRANCH  19  20
ATOM     20  C   UNL     1      28.835  -4.272  -4.870  1.00  0.00    -0.000 C 
BRANCH  20  21
ATOM     21  C   UNL     1      27.323  -3.984  -4.789  1.00  0.00    -0.000 C 
BRANCH  21  22
ATOM     22  C   UNL     1      26.433  -5.226  -4.995  1.00  0.00    -0.000 C 
BRANCH  22  23
ATOM     23  C   UNL     1      26.581  -5.888  -6.380  1.00  0.00    -0.000 C 
BRANCH  23  24
ATOM     24  C   UNL     1      26.774  -7.412  -6.284  1.00  0.00    -0.000 C 
BRANCH  24  25
ATOM     25  C   UNL     1      28.242  -7.832  -6.451  1.00  0.00    -0.003 C 
ATOM     26  C   UNL     1      28.981  -7.939  -5.117  1.00  0.00     0.004 C 
ENDBRANCH  24  25
ENDBRANCH  23  24
ENDBRANCH  22  23
ENDBRANCH  21  22
ENDBRANCH  20  21
ENDBRANCH  19  20
ENDBRANCH  18  19
ENDBRANCH  17  18
ENDBRANCH  16  17
ENDBRANCH  15  16
ENDBRANCH   1  15
TORSDOF 22
ENDMDL
MODEL 9
REMARK VINA RESULT:    -4.312      3.928      9.575
REMARK INTER + INTRA:         -11.432
REMARK INTER:                  -9.817
REMARK INTRA:                  -1.615
REMARK UNBOUND:                -1.574
REMARK SMILES CCCCCCCCCCCCCCCCCCCCCCCC(=O)[O-]
REMARK SMILES IDX 13 1 14 2 15 3 16 4 17 5 18 6 19 7 20 8 21 9 22 10 23 11
REMARK SMILES IDX 24 12 25 13 26 14 12 15 11 16 10 17 9 18 8 19 7 20 6 21 5 22
REMARK SMILES IDX 4 23 3 24 2 25 1 26
REMARK H PARENT
REMARK Flexibility Score: inf
ROOT
ATOM      1  C   UNL     1      22.678   0.969  -4.555  1.00  0.00     0.000 C 
ENDROOT
BRANCH   1   2
ATOM      2  C   UNL     1      23.942   1.125  -5.413  1.00  0.00     0.000 C 
BRANCH   2   3
ATOM      3  C   UNL     1      25.205   1.125  -4.538  1.00  0.00     0.000 C 
BRANCH   3   4
ATOM      4  C   UNL     1      26.314   0.214  -5.091  1.00  0.00     0.000 C 
BRANCH   4   5
ATOM      5  C   UNL     1      27.625   0.214  -4.280  1.00  0.00     0.000 C 
BRANCH   5   6
ATOM      6  C   UNL     1      27.552  -0.519  -2.928  1.00  0.00     0.000 C 
BRANCH   6   7
ATOM      7  C   UNL     1      27.789  -2.032  -3.061  1.00  0.00     0.000 C 
BRANCH   7   8
ATOM      8  C   UNL     1      27.747  -2.511  -4.522  1.00  0.00     0.000 C 
BRANCH   8   9
ATOM      9  C   UNL     1      26.695  -3.605  -4.754  1.00  0.00     0.000 C 
BRANCH   9  10
ATOM     10  C   UNL     1      27.170  -4.603  -5.822  1.00  0.00     0.006 C 
BRANCH  10  11
ATOM     11  C   UNL     1      26.870  -6.057  -5.435  1.00  0.00     0.053 C 
BRANCH  11  12
ATOM     12  C   UNL     1      27.530  -7.028  -6.363  1.00  0.00     0.041 C 
ATOM     13  O   UNL     1      27.331  -6.955  -7.604  1.00  0.00    -0.550 OA
ATOM     14  O   UNL     1      28.395  -7.993  -5.861  1.00  0.00    -0.550 OA
ENDBRANCH  11  12
ENDBRANCH  10  11
ENDBRANCH   9  10
ENDBRANCH   8   9
ENDBRANCH   7   8
ENDBRANCH   6   7
ENDBRANCH   5   6
ENDBRANCH   4   5
ENDBRANCH   3   4
ENDBRANCH   2   3
ENDBRANCH   1   2
BRANCH   1  15
ATOM     15  C   UNL     1      21.533   0.272  -5.308  1.00  0.00     0.000 C 
BRANCH  15  16
ATOM     16  C   UNL     1      20.207   1.041  -5.209  1.00  0.00     0.000 C 
BRANCH  16  17
ATOM     17  C   UNL     1      19.507   1.111  -6.572  1.00  0.00     0.000 C 
BRANCH  17  18
ATOM     18  C   UNL     1      17.990   0.932  -6.420  1.00  0.00    -0.000 C 
BRANCH  18  19
ATOM     19  C   UNL     1      17.530  -0.503  -6.719  1.00  0.00    -0.000 C 
BRANCH  19  20
ATOM     20  C   UNL     1      16.207  -0.860  -6.018  1.00  0.00    -0.000 C 
BRANCH  20  21
ATOM     21  C   UNL     1      15.967  -0.018  -4.750  1.00  0.00    -0.000 C 
BRANCH  21  22
ATOM     22  C   UNL     1      16.273  -0.760  -3.434  1.00  0.00    -0.000 C 
BRANCH  22  23
ATOM     23  C   UNL     1      17.190  -1.990  -3.599  1.00  0.00    -0.000 C 
BRANCH  23  24
ATOM     24  C   UNL     1      18.673  -1.652  -3.365  1.00  0.00    -0.000 C 
BRANCH  24  25
ATOM     25  C   UNL     1      19.620  -2.675  -4.012  1.00  0.00    -0.003 C 
ATOM     26  C   UNL     1      19.404  -2.809  -5.519  1.00  0.00     0.004 C 
ENDBRANCH  24  25
ENDBRANCH  23  24
ENDBRANCH  22  23
ENDBRANCH  21  22
ENDBRANCH  20  21
ENDBRANCH  19  20
ENDBRANCH  18  19
ENDBRANCH  17  18
ENDBRANCH  16  17
ENDBRANCH  15  16
ENDBRANCH   1  15
TORSDOF 22
ENDMDL
