MODEL 1
REMARK VINA RESULT:    -6.184      0.000      0.000
REMARK INTER + INTRA:         -10.943
REMARK INTER:                  -9.438
REMARK INTRA:                  -1.505
REMARK UNBOUND:                -1.505
REMARK SMILES OC[C@@H]1O[C@](CO)(O[C@H]2O[C@H](CO)[C@H](O)[C@H](O)[C@H]2O)[C@@H](O)[C@H]1O
REMARK SMILES IDX 8 1 9 2 11 3 14 4 10 5 16 6 18 7 12 8 13 9 15 11 17 13 19 15
REMARK SMILES IDX 5 17 20 18 4 19 22 20 3 21 6 22 7 23 21 25 23 27 2 29 1 30
REMARK H PARENT 13 10 15 12 17 14 19 16 7 24 21 26 23 28 1 31
REMARK Flexibility Score: inf
ROOT
ATOM      1  O   UNL     1     160.236 154.986 230.668  1.00  0.00    -0.313 OA
ENDROOT
BRANCH   1   2
ATOM      2  C   UNL     1     161.095 154.083 231.362  1.00  0.00     0.285 C 
ATOM      3  C   UNL     1     159.725 152.111 231.617  1.00  0.00     0.178 C 
ATOM      4  C   UNL     1     159.701 152.120 230.061  1.00  0.00     0.177 C 
ATOM      5  O   UNL     1     160.396 153.208 232.240  1.00  0.00    -0.341 OA
ATOM      6  C   UNL     1     161.091 152.400 229.442  1.00  0.00     0.179 C 
ATOM      7  C   UNL     1     161.954 153.306 230.349  1.00  0.00     0.202 C 
BRANCH   3   8
ATOM      8  C   UNL     1     160.238 150.792 232.226  1.00  0.00     0.191 C 
BRANCH   8   9
ATOM      9  O   UNL     1     159.330 149.750 232.013  1.00  0.00    -0.394 OA
ATOM     10  H   UNL     1     158.799 150.005 231.212  1.00  0.00     0.210 HD
ENDBRANCH   8   9
ENDBRANCH   3   8
BRANCH   4  11
ATOM     11  O   UNL     1     159.156 150.919 229.574  1.00  0.00    -0.387 OA
ATOM     12  H   UNL     1     159.004 151.044 228.601  1.00  0.00     0.211 HD
ENDBRANCH   4  11
BRANCH   6  13
ATOM     13  O   UNL     1     161.783 151.200 229.196  1.00  0.00    -0.387 OA
ATOM     14  H   UNL     1     161.230 150.667 228.565  1.00  0.00     0.211 HD
ENDBRANCH   6  13
BRANCH   7  15
ATOM     15  O   UNL     1     162.693 154.214 229.572  1.00  0.00    -0.385 OA
ATOM     16  H   UNL     1     162.239 155.094 229.652  1.00  0.00     0.211 HD
ENDBRANCH   7  15
ENDBRANCH   1   2
BRANCH   1  17
ATOM     17  C   UNL     1     160.468 156.382 230.867  1.00  0.00     0.224 C 
ATOM     18  C   UNL     1     159.582 157.301 229.992  1.00  0.00     0.208 C 
ATOM     19  O   UNL     1     161.812 156.713 230.594  1.00  0.00    -0.337 OA
ATOM     20  C   UNL     1     160.422 158.552 229.855  1.00  0.00     0.180 C 
ATOM     21  C   UNL     1     161.852 158.047 230.122  1.00  0.00     0.179 C 
BRANCH  17  22
ATOM     22  C   UNL     1     160.242 156.636 232.377  1.00  0.00     0.225 C 
BRANCH  22  23
ATOM     23  O   UNL     1     159.037 156.058 232.800  1.00  0.00    -0.391 OA
ATOM     24  H   UNL     1     159.232 155.100 232.976  1.00  0.00     0.210 HD
ENDBRANCH  22  23
ENDBRANCH  17  22
BRANCH  18  25
ATOM     25  O   UNL     1     158.324 157.555 230.567  1.00  0.00    -0.385 OA
ATOM     26  H   UNL     1     158.416 157.384 231.541  1.00  0.00     0.211 HD
ENDBRANCH  18  25
BRANCH  20  27
ATOM     27  O   UNL     1     160.048 159.512 230.811  1.00  0.00    -0.387 OA
ATOM     28  H   UNL     1     160.885 159.806 231.257  1.00  0.00     0.211 HD
ENDBRANCH  20  27
BRANCH  21  29
ATOM     29  C   UNL     1     162.719 158.106 228.858  1.00  0.00     0.191 C 
BRANCH  29  30
ATOM     30  O   UNL     1     163.217 156.834 228.547  1.00  0.00    -0.394 OA
ATOM     31  H   UNL     1     164.119 156.970 228.153  1.00  0.00     0.210 HD
ENDBRANCH  29  30
ENDBRANCH  21  29
ENDBRANCH   1  17
TORSDOF 13
ENDMDL
MODEL 2
REMARK VINA RESULT:    -5.971      6.233     11.079
REMARK INTER + INTRA:         -10.618
REMARK INTER:                  -9.222
REMARK INTRA:                  -1.397
REMARK UNBOUND:                -1.505
REMARK SMILES OC[C@@H]1O[C@](CO)(O[C@H]2O[C@H](CO)[C@H](O)[C@H](O)[C@H]2O)[C@@H](O)[C@H]1O
REMARK SMILES IDX 8 1 9 2 11 3 14 4 10 5 16 6 18 7 12 8 13 9 15 11 17 13 19 15
REMARK SMILES IDX 5 17 20 18 4 19 22 20 3 21 6 22 7 23 21 25 23 27 2 29 1 30
REMARK H PARENT 13 10 15 12 17 14 19 16 7 24 21 26 23 28 1 31
REMARK Flexibility Score: inf
ROOT
ATOM      1  O   UNL     1     158.025 163.454 230.952  1.00  0.00    -0.313 OA
ENDROOT
BRANCH   1   2
ATOM      2  C   UNL     1     157.038 164.260 231.594  1.00  0.00     0.285 C 
ATOM      3  C   UNL     1     158.208 166.330 232.010  1.00  0.00     0.178 C 
ATOM      4  C   UNL     1     158.359 166.373 230.462  1.00  0.00     0.177 C 
ATOM      5  O   UNL     1     157.585 165.162 232.548  1.00  0.00    -0.341 OA
ATOM      6  C   UNL     1     157.053 165.996 229.722  1.00  0.00     0.179 C 
ATOM      7  C   UNL     1     156.200 164.993 230.532  1.00  0.00     0.202 C 
BRANCH   3   8
ATOM      8  C   UNL     1     157.536 167.581 232.607  1.00  0.00     0.191 C 
BRANCH   8   9
ATOM      9  O   UNL     1     157.532 167.535 234.004  1.00  0.00    -0.394 OA
ATOM     10  H   UNL     1     156.767 168.097 234.299  1.00  0.00     0.210 HD
ENDBRANCH   8   9
ENDBRANCH   3   8
BRANCH   4  11
ATOM     11  O   UNL     1     158.837 167.629 230.052  1.00  0.00    -0.387 OA
ATOM     12  H   UNL     1     159.815 167.534 229.907  1.00  0.00     0.211 HD
ENDBRANCH   4  11
BRANCH   6  13
ATOM     13  O   UNL     1     156.284 167.142 229.449  1.00  0.00    -0.387 OA
ATOM     14  H   UNL     1     156.915 167.902 229.346  1.00  0.00     0.211 HD
ENDBRANCH   6  13
BRANCH   7  15
ATOM     15  O   UNL     1     155.608 164.051 229.674  1.00  0.00    -0.385 OA
ATOM     16  H   UNL     1     155.749 163.159 230.088  1.00  0.00     0.211 HD
ENDBRANCH   7  15
ENDBRANCH   1   2
BRANCH   1  17
ATOM     17  C   UNL     1     157.945 162.042 231.161  1.00  0.00     0.224 C 
ATOM     18  C   UNL     1     158.891 161.214 230.260  1.00  0.00     0.208 C 
ATOM     19  O   UNL     1     156.634 161.574 230.933  1.00  0.00    -0.337 OA
ATOM     20  C   UNL     1     158.181 159.883 230.152  1.00  0.00     0.180 C 
ATOM     21  C   UNL     1     156.715 160.241 230.465  1.00  0.00     0.179 C 
BRANCH  17  22
ATOM     22  C   UNL     1     158.244 161.821 232.663  1.00  0.00     0.225 C 
BRANCH  22  23
ATOM     23  O   UNL     1     159.365 162.564 233.059  1.00  0.00    -0.391 OA
ATOM     24  H   UNL     1     160.154 161.981 232.909  1.00  0.00     0.210 HD
ENDBRANCH  22  23
ENDBRANCH  17  22
BRANCH  18  25
ATOM     25  O   UNL     1     160.187 161.094 230.794  1.00  0.00    -0.385 OA
ATOM     26  H   UNL     1     160.758 161.744 230.305  1.00  0.00     0.211 HD
ENDBRANCH  18  25
BRANCH  20  27
ATOM     27  O   UNL     1     158.681 158.972 231.098  1.00  0.00    -0.387 OA
ATOM     28  H   UNL     1     158.116 158.159 231.033  1.00  0.00     0.211 HD
ENDBRANCH  20  27
BRANCH  21  29
ATOM     29  C   UNL     1     155.819 160.086 229.230  1.00  0.00     0.191 C 
BRANCH  29  30
ATOM     30  O   UNL     1     155.200 161.303 228.920  1.00  0.00    -0.394 OA
ATOM     31  H   UNL     1     154.926 161.711 229.783  1.00  0.00     0.210 HD
ENDBRANCH  29  30
ENDBRANCH  21  29
ENDBRANCH   1  17
TORSDOF 13
ENDMDL
MODEL 3
REMARK VINA RESULT:    -5.731     15.550     17.669
REMARK INTER + INTRA:         -10.251
REMARK INTER:                  -8.742
REMARK INTRA:                  -1.509
REMARK UNBOUND:                -1.505
REMARK SMILES OC[C@@H]1O[C@](CO)(O[C@H]2O[C@H](CO)[C@H](O)[C@H](O)[C@H]2O)[C@@H](O)[C@H]1O
REMARK SMILES IDX 8 1 9 2 11 3 14 4 10 5 16 6 18 7 12 8 13 9 15 11 17 13 19 15
REMARK SMILES IDX 5 17 20 18 4 19 22 20 3 21 6 22 7 23 21 25 23 27 2 29 1 30
REMARK H PARENT 13 10 15 12 17 14 19 16 7 24 21 26 23 28 1 31
REMARK Flexibility Score: inf
ROOT
ATOM      1  O   UNL     1     154.236 162.552 216.489  1.00  0.00    -0.313 OA
ENDROOT
BRANCH   1   2
ATOM      2  C   UNL     1     153.545 161.408 215.990  1.00  0.00     0.285 C 
ATOM      3  C   UNL     1     151.872 161.000 217.683  1.00  0.00     0.178 C 
ATOM      4  C   UNL     1     151.378 162.428 217.315  1.00  0.00     0.177 C 
ATOM      5  O   UNL     1     153.057 160.556 217.020  1.00  0.00    -0.341 OA
ATOM      6  C   UNL     1     151.336 162.673 215.787  1.00  0.00     0.179 C 
ATOM      7  C   UNL     1     152.419 161.859 215.043  1.00  0.00     0.202 C 
BRANCH   3   8
ATOM      8  C   UNL     1     150.787 159.913 217.561  1.00  0.00     0.191 C 
BRANCH   8   9
ATOM      9  O   UNL     1     151.350 158.633 217.591  1.00  0.00    -0.394 OA
ATOM     10  H   UNL     1     150.823 158.083 216.952  1.00  0.00     0.210 HD
ENDBRANCH   8   9
ENDBRANCH   3   8
BRANCH   4  11
ATOM     11  O   UNL     1     150.130 162.682 217.909  1.00  0.00    -0.387 OA
ATOM     12  H   UNL     1     150.230 163.507 218.452  1.00  0.00     0.211 HD
ENDBRANCH   4  11
BRANCH   6  13
ATOM     13  O   UNL     1     150.072 162.349 215.262  1.00  0.00    -0.387 OA
ATOM     14  H   UNL     1     149.555 161.912 215.989  1.00  0.00     0.211 HD
ENDBRANCH   6  13
BRANCH   7  15
ATOM     15  O   UNL     1     152.967 162.618 213.995  1.00  0.00    -0.385 OA
ATOM     16  H   UNL     1     152.236 162.770 213.340  1.00  0.00     0.211 HD
ENDBRANCH   7  15
ENDBRANCH   1   2
BRANCH   1  17
ATOM     17  C   UNL     1     155.648 162.603 216.267  1.00  0.00     0.224 C 
ATOM     18  C   UNL     1     156.163 161.574 215.232  1.00  0.00     0.208 C 
ATOM     19  O   UNL     1     156.355 162.380 217.467  1.00  0.00    -0.337 OA
ATOM     20  C   UNL     1     157.596 161.348 215.663  1.00  0.00     0.180 C 
ATOM     21  C   UNL     1     157.587 161.761 217.147  1.00  0.00     0.179 C 
BRANCH  17  22
ATOM     22  C   UNL     1     155.953 164.057 215.831  1.00  0.00     0.225 C 
BRANCH  22  23
ATOM     23  O   UNL     1     154.938 164.546 214.996  1.00  0.00    -0.391 OA
ATOM     24  H   UNL     1     155.205 164.315 214.068  1.00  0.00     0.210 HD
ENDBRANCH  22  23
ENDBRANCH  17  22
BRANCH  18  25
ATOM     25  O   UNL     1     156.063 162.035 213.907  1.00  0.00    -0.385 OA
ATOM     26  H   UNL     1     156.854 161.681 213.422  1.00  0.00     0.211 HD
ENDBRANCH  18  25
BRANCH  20  27
ATOM     27  O   UNL     1     158.473 162.162 214.926  1.00  0.00    -0.387 OA
ATOM     28  H   UNL     1     159.005 162.675 215.589  1.00  0.00     0.211 HD
ENDBRANCH  20  27
BRANCH  21  29
ATOM     29  C   UNL     1     157.799 160.556 218.072  1.00  0.00     0.191 C 
BRANCH  29  30
ATOM     30  O   UNL     1     156.798 160.509 219.050  1.00  0.00    -0.394 OA
ATOM     31  H   UNL     1     156.300 159.661 218.907  1.00  0.00     0.210 HD
ENDBRANCH  29  30
ENDBRANCH  21  29
ENDBRANCH   1  17
TORSDOF 13
ENDMDL
MODEL 4
REMARK VINA RESULT:    -5.729      1.984      2.666
REMARK INTER + INTRA:         -10.248
REMARK INTER:                  -8.742
REMARK INTRA:                  -1.506
REMARK UNBOUND:                -1.505
REMARK SMILES OC[C@@H]1O[C@](CO)(O[C@H]2O[C@H](CO)[C@H](O)[C@H](O)[C@H]2O)[C@@H](O)[C@H]1O
REMARK SMILES IDX 8 1 9 2 11 3 14 4 10 5 16 6 18 7 12 8 13 9 15 11 17 13 19 15
REMARK SMILES IDX 5 17 20 18 4 19 22 20 3 21 6 22 7 23 21 25 23 27 2 29 1 30
REMARK H PARENT 13 10 15 12 17 14 19 16 7 24 21 26 23 28 1 31
REMARK Flexibility Score: inf
ROOT
ATOM      1  O   UNL     1     158.745 155.256 231.242  1.00  0.00    -0.313 OA
ENDROOT
BRANCH   1   2
ATOM      2  C   UNL     1     159.977 155.067 231.935  1.00  0.00     0.285 C 
ATOM      3  C   UNL     1     160.030 152.683 232.316  1.00  0.00     0.178 C 
ATOM      4  C   UNL     1     159.991 152.593 230.763  1.00  0.00     0.177 C 
ATOM      5  O   UNL     1     159.934 153.996 232.871  1.00  0.00    -0.341 OA
ATOM      6  C   UNL     1     160.944 153.603 230.080  1.00  0.00     0.179 C 
ATOM      7  C   UNL     1     161.119 154.889 230.919  1.00  0.00     0.202 C 
BRANCH   3   8
ATOM      8  C   UNL     1     161.225 151.950 232.954  1.00  0.00     0.191 C 
BRANCH   8   9
ATOM      9  O   UNL     1     160.875 150.653 233.341  1.00  0.00    -0.394 OA
ATOM     10  H   UNL     1     160.474 150.223 232.539  1.00  0.00     0.210 HD
ENDBRANCH   8   9
ENDBRANCH   3   8
BRANCH   4  11
ATOM     11  O   UNL     1     160.250 151.277 230.342  1.00  0.00    -0.387 OA
ATOM     12  H   UNL     1     160.825 151.339 229.536  1.00  0.00     0.211 HD
ENDBRANCH   4  11
BRANCH   6  13
ATOM     13  O   UNL     1     162.207 153.025 229.853  1.00  0.00    -0.387 OA
ATOM     14  H   UNL     1     162.360 152.361 230.576  1.00  0.00     0.211 HD
ENDBRANCH   6  13
BRANCH   7  15
ATOM     15  O   UNL     1     161.176 156.015 230.081  1.00  0.00    -0.385 OA
ATOM     16  H   UNL     1     160.247 156.358 230.000  1.00  0.00     0.211 HD
ENDBRANCH   7  15
ENDBRANCH   1   2
BRANCH   1  17
ATOM     17  C   UNL     1     158.048 156.481 231.481  1.00  0.00     0.224 C 
ATOM     18  C   UNL     1     156.767 156.657 230.632  1.00  0.00     0.208 C 
ATOM     19  O   UNL     1     158.879 157.591 231.221  1.00  0.00    -0.337 OA
ATOM     20  C   UNL     1     156.629 158.161 230.532  1.00  0.00     0.180 C 
ATOM     21  C   UNL     1     158.063 158.663 230.788  1.00  0.00     0.179 C 
BRANCH  17  22
ATOM     22  C   UNL     1     157.738 156.499 232.997  1.00  0.00     0.225 C 
BRANCH  22  23
ATOM     23  O   UNL     1     157.097 155.315 233.385  1.00  0.00    -0.391 OA
ATOM     24  H   UNL     1     156.822 154.858 232.547  1.00  0.00     0.210 HD
ENDBRANCH  22  23
ENDBRANCH  17  22
BRANCH  18  25
ATOM     25  O   UNL     1     155.640 156.047 231.211  1.00  0.00    -0.385 OA
ATOM     26  H   UNL     1     155.637 155.103 230.902  1.00  0.00     0.211 HD
ENDBRANCH  18  25
BRANCH  20  27
ATOM     27  O   UNL     1     155.751 158.647 231.516  1.00  0.00    -0.387 OA
ATOM     28  H   UNL     1     154.832 158.450 231.195  1.00  0.00     0.211 HD
ENDBRANCH  20  27
BRANCH  21  29
ATOM     29  C   UNL     1     158.677 159.285 229.528  1.00  0.00     0.191 C 
BRANCH  29  30
ATOM     30  O   UNL     1     159.469 158.346 228.855  1.00  0.00    -0.394 OA
ATOM     31  H   UNL     1     159.609 158.697 227.937  1.00  0.00     0.210 HD
ENDBRANCH  29  30
ENDBRANCH  21  29
ENDBRANCH   1  17
TORSDOF 13
ENDMDL
MODEL 5
REMARK VINA RESULT:    -5.712      6.362      9.369
REMARK INTER + INTRA:         -10.223
REMARK INTER:                  -8.757
REMARK INTRA:                  -1.466
REMARK UNBOUND:                -1.505
REMARK SMILES OC[C@@H]1O[C@](CO)(O[C@H]2O[C@H](CO)[C@H](O)[C@H](O)[C@H]2O)[C@@H](O)[C@H]1O
REMARK SMILES IDX 8 1 9 2 11 3 14 4 10 5 16 6 18 7 12 8 13 9 15 11 17 13 19 15
REMARK SMILES IDX 5 17 20 18 4 19 22 20 3 21 6 22 7 23 21 25 23 27 2 29 1 30
REMARK H PARENT 13 10 15 12 17 14 19 16 7 24 21 26 23 28 1 31
REMARK Flexibility Score: inf
ROOT
ATOM      1  O   UNL     1     158.723 162.923 231.999  1.00  0.00    -0.313 OA
ENDROOT
BRANCH   1   2
ATOM      2  C   UNL     1     160.104 163.073 231.675  1.00  0.00     0.285 C 
ATOM      3  C   UNL     1     161.221 162.065 233.564  1.00  0.00     0.178 C 
ATOM      4  C   UNL     1     160.456 160.781 233.129  1.00  0.00     0.177 C 
ATOM      5  O   UNL     1     160.932 163.250 232.819  1.00  0.00    -0.341 OA
ATOM      6  C   UNL     1     160.492 160.551 231.599  1.00  0.00     0.179 C 
ATOM      7  C   UNL     1     160.565 161.882 230.817  1.00  0.00     0.202 C 
BRANCH   3   8
ATOM      8  C   UNL     1     162.749 161.882 233.650  1.00  0.00     0.191 C 
BRANCH   8   9
ATOM      9  O   UNL     1     163.372 162.275 232.461  1.00  0.00    -0.394 OA
ATOM     10  H   UNL     1     163.970 163.032 232.698  1.00  0.00     0.210 HD
ENDBRANCH   8   9
ENDBRANCH   3   8
BRANCH   4  11
ATOM     11  O   UNL     1     160.942 159.663 233.828  1.00  0.00    -0.387 OA
ATOM     12  H   UNL     1     161.687 159.981 234.401  1.00  0.00     0.211 HD
ENDBRANCH   4  11
BRANCH   6  13
ATOM     13  O   UNL     1     161.587 159.743 231.239  1.00  0.00    -0.387 OA
ATOM     14  H   UNL     1     161.907 160.060 230.353  1.00  0.00     0.211 HD
ENDBRANCH   6  13
BRANCH   7  15
ATOM     15  O   UNL     1     159.776 161.811 229.657  1.00  0.00    -0.385 OA
ATOM     16  H   UNL     1     159.690 162.739 229.313  1.00  0.00     0.211 HD
ENDBRANCH   7  15
ENDBRANCH   1   2
BRANCH   1  17
ATOM     17  C   UNL     1     157.847 163.982 231.605  1.00  0.00     0.224 C 
ATOM     18  C   UNL     1     158.510 165.049 230.703  1.00  0.00     0.208 C 
ATOM     19  O   UNL     1     157.327 164.651 232.732  1.00  0.00    -0.337 OA
ATOM     20  C   UNL     1     157.696 166.292 230.991  1.00  0.00     0.180 C 
ATOM     21  C   UNL     1     157.088 166.000 232.375  1.00  0.00     0.179 C 
BRANCH  17  22
ATOM     22  C   UNL     1     156.651 163.298 230.900  1.00  0.00     0.225 C 
BRANCH  22  23
ATOM     23  O   UNL     1     157.070 162.143 230.224  1.00  0.00    -0.391 OA
ATOM     24  H   UNL     1     157.055 162.365 229.256  1.00  0.00     0.210 HD
ENDBRANCH  22  23
ENDBRANCH  17  22
BRANCH  18  25
ATOM     25  O   UNL     1     158.497 164.698 229.341  1.00  0.00    -0.385 OA
ATOM     26  H   UNL     1     157.570 164.408 229.131  1.00  0.00     0.211 HD
ENDBRANCH  18  25
BRANCH  20  27
ATOM     27  O   UNL     1     156.685 166.460 230.030  1.00  0.00    -0.387 OA
ATOM     28  H   UNL     1     156.064 167.145 230.391  1.00  0.00     0.211 HD
ENDBRANCH  20  27
BRANCH  21  29
ATOM     29  C   UNL     1     157.673 166.917 233.456  1.00  0.00     0.191 C 
BRANCH  29  30
ATOM     30  O   UNL     1     158.331 168.005 232.870  1.00  0.00    -0.394 OA
ATOM     31  H   UNL     1     157.950 168.111 231.958  1.00  0.00     0.210 HD
ENDBRANCH  29  30
ENDBRANCH  21  29
ENDBRANCH   1  17
TORSDOF 13
ENDMDL
MODEL 6
REMARK VINA RESULT:    -5.687      2.432      6.047
REMARK INTER + INTRA:         -10.185
REMARK INTER:                  -8.694
REMARK INTRA:                  -1.491
REMARK UNBOUND:                -1.505
REMARK SMILES OC[C@@H]1O[C@](CO)(O[C@H]2O[C@H](CO)[C@H](O)[C@H](O)[C@H]2O)[C@@H](O)[C@H]1O
REMARK SMILES IDX 8 1 9 2 11 3 14 4 10 5 16 6 18 7 12 8 13 9 15 11 17 13 19 15
REMARK SMILES IDX 5 17 20 18 4 19 22 20 3 21 6 22 7 23 21 25 23 27 2 29 1 30
REMARK H PARENT 13 10 15 12 17 14 19 16 7 24 21 26 23 28 1 31
REMARK Flexibility Score: inf
ROOT
ATOM      1  O   UNL     1     159.241 155.410 232.020  1.00  0.00    -0.313 OA
ENDROOT
BRANCH   1   2
ATOM      2  C   UNL     1     157.891 155.222 231.598  1.00  0.00     0.285 C 
ATOM      3  C   UNL     1     156.616 156.275 233.358  1.00  0.00     0.178 C 
ATOM      4  C   UNL     1     157.391 157.557 232.935  1.00  0.00     0.177 C 
ATOM      5  O   UNL     1     156.981 155.070 232.681  1.00  0.00    -0.341 OA
ATOM      6  C   UNL     1     157.468 157.732 231.400  1.00  0.00     0.179 C 
ATOM      7  C   UNL     1     157.477 156.372 230.664  1.00  0.00     0.202 C 
BRANCH   3   8
ATOM      8  C   UNL     1     155.084 156.430 233.321  1.00  0.00     0.191 C 
BRANCH   8   9
ATOM      9  O   UNL     1     154.499 155.470 232.489  1.00  0.00    -0.394 OA
ATOM     10  H   UNL     1     153.519 155.525 232.649  1.00  0.00     0.210 HD
ENDBRANCH   8   9
ENDBRANCH   3   8
BRANCH   4  11
ATOM     11  O   UNL     1     156.835 158.690 233.553  1.00  0.00    -0.387 OA
ATOM     12  H   UNL     1     155.938 158.426 233.889  1.00  0.00     0.211 HD
ENDBRANCH   4  11
BRANCH   6  13
ATOM     13  O   UNL     1     156.391 158.504 230.928  1.00  0.00    -0.387 OA
ATOM     14  H   UNL     1     155.987 158.956 231.716  1.00  0.00     0.211 HD
ENDBRANCH   6  13
BRANCH   7  15
ATOM     15  O   UNL     1     158.352 156.417 229.565  1.00  0.00    -0.385 OA
ATOM     16  H   UNL     1     159.271 156.487 229.934  1.00  0.00     0.211 HD
ENDBRANCH   7  15
ENDBRANCH   1   2
BRANCH   1  17
ATOM     17  C   UNL     1     160.178 154.389 231.667  1.00  0.00     0.224 C 
ATOM     18  C   UNL     1     159.614 153.319 230.702  1.00  0.00     0.208 C 
ATOM     19  O   UNL     1     160.642 153.714 232.816  1.00  0.00    -0.337 OA
ATOM     20  C   UNL     1     160.449 152.099 231.023  1.00  0.00     0.180 C 
ATOM     21  C   UNL     1     160.951 152.382 232.451  1.00  0.00     0.179 C 
BRANCH  17  22
ATOM     22  C   UNL     1     161.394 155.127 231.059  1.00  0.00     0.225 C 
BRANCH  22  23
ATOM     23  O   UNL     1     160.983 156.016 230.056  1.00  0.00    -0.391 OA
ATOM     24  H   UNL     1     161.804 156.281 229.564  1.00  0.00     0.210 HD
ENDBRANCH  22  23
ENDBRANCH  17  22
BRANCH  18  25
ATOM     25  O   UNL     1     159.709 153.699 229.351  1.00  0.00    -0.385 OA
ATOM     26  H   UNL     1     160.612 153.426 229.041  1.00  0.00     0.211 HD
ENDBRANCH  18  25
BRANCH  20  27
ATOM     27  O   UNL     1     161.529 151.984 230.130  1.00  0.00    -0.387 OA
ATOM     28  H   UNL     1     161.823 151.037 230.165  1.00  0.00     0.211 HD
ENDBRANCH  20  27
BRANCH  21  29
ATOM     29  C   UNL     1     160.326 151.423 233.472  1.00  0.00     0.191 C 
BRANCH  29  30
ATOM     30  O   UNL     1     159.766 150.316 232.823  1.00  0.00    -0.394 OA
ATOM     31  H   UNL     1     160.042 150.374 231.870  1.00  0.00     0.210 HD
ENDBRANCH  29  30
ENDBRANCH  21  29
ENDBRANCH   1  17
TORSDOF 13
ENDMDL
MODEL 7
REMARK VINA RESULT:    -5.678     13.274     15.681
REMARK INTER + INTRA:         -10.170
REMARK INTER:                  -8.918
REMARK INTRA:                  -1.252
REMARK UNBOUND:                -1.505
REMARK SMILES OC[C@@H]1O[C@](CO)(O[C@H]2O[C@H](CO)[C@H](O)[C@H](O)[C@H]2O)[C@@H](O)[C@H]1O
REMARK SMILES IDX 8 1 9 2 11 3 14 4 10 5 16 6 18 7 12 8 13 9 15 11 17 13 19 15
REMARK SMILES IDX 5 17 20 18 4 19 22 20 3 21 6 22 7 23 21 25 23 27 2 29 1 30
REMARK H PARENT 13 10 15 12 17 14 19 16 7 24 21 26 23 28 1 31
REMARK Flexibility Score: inf
ROOT
ATOM      1  O   UNL     1     163.294 156.813 215.822  1.00  0.00    -0.313 OA
ENDROOT
BRANCH   1   2
ATOM      2  C   UNL     1     162.299 156.027 216.475  1.00  0.00     0.285 C 
ATOM      3  C   UNL     1     160.704 157.678 217.225  1.00  0.00     0.178 C 
ATOM      4  C   UNL     1     160.566 158.002 215.709  1.00  0.00     0.177 C 
ATOM      5  O   UNL     1     161.686 156.698 217.570  1.00  0.00    -0.341 OA
ATOM      6  C   UNL     1     160.478 156.732 214.830  1.00  0.00     0.179 C 
ATOM      7  C   UNL     1     161.261 155.549 215.446  1.00  0.00     0.202 C 
BRANCH   3   8
ATOM      8  C   UNL     1     159.372 157.322 217.912  1.00  0.00     0.191 C 
BRANCH   8   9
ATOM      9  O   UNL     1     159.365 155.991 218.340  1.00  0.00    -0.394 OA
ATOM     10  H   UNL     1     158.951 155.465 217.605  1.00  0.00     0.210 HD
ENDBRANCH   8   9
ENDBRANCH   3   8
BRANCH   4  11
ATOM     11  O   UNL     1     159.470 158.855 215.490  1.00  0.00    -0.387 OA
ATOM     12  H   UNL     1     159.753 159.521 214.811  1.00  0.00     0.211 HD
ENDBRANCH   4  11
BRANCH   6  13
ATOM     13  O   UNL     1     159.139 156.348 214.636  1.00  0.00    -0.387 OA
ATOM     14  H   UNL     1     158.597 157.180 214.598  1.00  0.00     0.211 HD
ENDBRANCH   6  13
BRANCH   7  15
ATOM     15  O   UNL     1     161.908 154.814 214.438  1.00  0.00    -0.385 OA
ATOM     16  H   UNL     1     162.157 155.462 213.728  1.00  0.00     0.211 HD
ENDBRANCH   7  15
ENDBRANCH   1   2
BRANCH   1  17
ATOM     17  C   UNL     1     164.636 156.322 215.860  1.00  0.00     0.224 C 
ATOM     18  C   UNL     1     165.265 156.089 214.466  1.00  0.00     0.208 C 
ATOM     19  O   UNL     1     164.704 155.099 216.560  1.00  0.00    -0.337 OA
ATOM     20  C   UNL     1     166.288 155.006 214.731  1.00  0.00     0.180 C 
ATOM     21  C   UNL     1     165.766 154.337 216.016  1.00  0.00     0.179 C 
BRANCH  17  22
ATOM     22  C   UNL     1     165.439 157.356 216.686  1.00  0.00     0.225 C 
BRANCH  22  23
ATOM     23  O   UNL     1     165.411 157.029 218.049  1.00  0.00    -0.391 OA
ATOM     24  H   UNL     1     165.245 157.878 218.536  1.00  0.00     0.210 HD
ENDBRANCH  22  23
ENDBRANCH  17  22
BRANCH  18  25
ATOM     25  O   UNL     1     165.839 157.254 213.924  1.00  0.00    -0.385 OA
ATOM     26  H   UNL     1     165.657 157.233 212.948  1.00  0.00     0.211 HD
ENDBRANCH  18  25
BRANCH  20  27
ATOM     27  O   UNL     1     167.561 155.562 214.942  1.00  0.00    -0.387 OA
ATOM     28  H   UNL     1     168.201 155.004 214.430  1.00  0.00     0.211 HD
ENDBRANCH  20  27
BRANCH  21  29
ATOM     29  C   UNL     1     165.275 152.908 215.752  1.00  0.00     0.191 C 
BRANCH  29  30
ATOM     30  O   UNL     1     163.932 152.919 215.354  1.00  0.00    -0.394 OA
ATOM     31  H   UNL     1     163.388 152.877 216.184  1.00  0.00     0.210 HD
ENDBRANCH  29  30
ENDBRANCH  21  29
ENDBRANCH   1  17
TORSDOF 13
ENDMDL
MODEL 8
REMARK VINA RESULT:    -5.666      2.435      4.119
REMARK INTER + INTRA:         -10.152
REMARK INTER:                  -8.681
REMARK INTRA:                  -1.471
REMARK UNBOUND:                -1.505
REMARK SMILES OC[C@@H]1O[C@](CO)(O[C@H]2O[C@H](CO)[C@H](O)[C@H](O)[C@H]2O)[C@@H](O)[C@H]1O
REMARK SMILES IDX 8 1 9 2 11 3 14 4 10 5 16 6 18 7 12 8 13 9 15 11 17 13 19 15
REMARK SMILES IDX 5 17 20 18 4 19 22 20 3 21 6 22 7 23 21 25 23 27 2 29 1 30
REMARK H PARENT 13 10 15 12 17 14 19 16 7 24 21 26 23 28 1 31
REMARK Flexibility Score: inf
ROOT
ATOM      1  O   UNL     1     158.828 155.321 230.934  1.00  0.00    -0.313 OA
ENDROOT
BRANCH   1   2
ATOM      2  C   UNL     1     159.831 154.912 231.863  1.00  0.00     0.285 C 
ATOM      3  C   UNL     1     160.045 152.546 231.429  1.00  0.00     0.178 C 
ATOM      4  C   UNL     1     160.452 153.006 229.999  1.00  0.00     0.177 C 
ATOM      5  O   UNL     1     159.650 153.581 232.331  1.00  0.00    -0.341 OA
ATOM      6  C   UNL     1     161.438 154.199 230.011  1.00  0.00     0.179 C 
ATOM      7  C   UNL     1     161.223 155.112 231.240  1.00  0.00     0.202 C 
BRANCH   3   8
ATOM      8  C   UNL     1     161.090 151.647 232.117  1.00  0.00     0.191 C 
BRANCH   8   9
ATOM      9  O   UNL     1     160.993 150.326 231.669  1.00  0.00    -0.394 OA
ATOM     10  H   UNL     1     160.716 150.376 230.716  1.00  0.00     0.210 HD
ENDBRANCH   8   9
ENDBRANCH   3   8
BRANCH   4  11
ATOM     11  O   UNL     1     160.967 151.923 229.265  1.00  0.00    -0.387 OA
ATOM     12  H   UNL     1     160.214 151.546 228.739  1.00  0.00     0.211 HD
ENDBRANCH   4  11
BRANCH   6  13
ATOM     13  O   UNL     1     162.771 153.749 229.997  1.00  0.00    -0.387 OA
ATOM     14  H   UNL     1     163.105 153.793 230.932  1.00  0.00     0.211 HD
ENDBRANCH   6  13
BRANCH   7  15
ATOM     15  O   UNL     1     161.384 156.461 230.881  1.00  0.00    -0.385 OA
ATOM     16  H   UNL     1     161.212 156.519 229.905  1.00  0.00     0.211 HD
ENDBRANCH   7  15
ENDBRANCH   1   2
BRANCH   1  17
ATOM     17  C   UNL     1     157.901 156.315 231.377  1.00  0.00     0.224 C 
ATOM     18  C   UNL     1     158.239 156.924 232.758  1.00  0.00     0.208 C 
ATOM     19  O   UNL     1     156.597 155.785 231.461  1.00  0.00    -0.337 OA
ATOM     20  C   UNL     1     156.886 157.356 233.280  1.00  0.00     0.180 C 
ATOM     21  C   UNL     1     155.905 156.471 232.488  1.00  0.00     0.179 C 
BRANCH  17  22
ATOM     22  C   UNL     1     157.876 157.392 230.266  1.00  0.00     0.225 C 
BRANCH  22  23
ATOM     23  O   UNL     1     159.074 157.380 229.538  1.00  0.00    -0.391 OA
ATOM     24  H   UNL     1     159.808 157.404 230.207  1.00  0.00     0.210 HD
ENDBRANCH  22  23
ENDBRANCH  17  22
BRANCH  18  25
ATOM     25  O   UNL     1     159.153 157.990 232.676  1.00  0.00    -0.385 OA
ATOM     26  H   UNL     1     159.974 157.630 232.247  1.00  0.00     0.211 HD
ENDBRANCH  18  25
BRANCH  20  27
ATOM     27  O   UNL     1     156.658 158.716 233.008  1.00  0.00    -0.387 OA
ATOM     28  H   UNL     1     156.742 159.194 233.874  1.00  0.00     0.211 HD
ENDBRANCH  20  27
BRANCH  21  29
ATOM     29  C   UNL     1     155.207 155.449 233.393  1.00  0.00     0.191 C 
BRANCH  29  30
ATOM     30  O   UNL     1     154.047 154.963 232.778  1.00  0.00    -0.394 OA
ATOM     31  H   UNL     1     153.663 155.717 232.258  1.00  0.00     0.210 HD
ENDBRANCH  29  30
ENDBRANCH  21  29
ENDBRANCH   1  17
TORSDOF 13
ENDMDL
MODEL 9
REMARK VINA RESULT:    -5.605     12.925     15.505
REMARK INTER + INTRA:         -10.060
REMARK INTER:                  -8.617
REMARK INTRA:                  -1.442
REMARK UNBOUND:                -1.505
REMARK SMILES OC[C@@H]1O[C@](CO)(O[C@H]2O[C@H](CO)[C@H](O)[C@H](O)[C@H]2O)[C@@H](O)[C@H]1O
REMARK SMILES IDX 8 1 9 2 11 3 14 4 10 5 16 6 18 7 12 8 13 9 15 11 17 13 19 15
REMARK SMILES IDX 5 17 20 18 4 19 22 20 3 21 6 22 7 23 21 25 23 27 2 29 1 30
REMARK H PARENT 13 10 15 12 17 14 19 16 7 24 21 26 23 28 1 31
REMARK Flexibility Score: inf
ROOT
ATOM      1  O   UNL     1     163.708 155.567 216.508  1.00  0.00    -0.313 OA
ENDROOT
BRANCH   1   2
ATOM      2  C   UNL     1     164.450 156.627 215.908  1.00  0.00     0.285 C 
ATOM      3  C   UNL     1     166.204 157.044 217.514  1.00  0.00     0.178 C 
ATOM      4  C   UNL     1     166.597 155.565 217.232  1.00  0.00     0.177 C 
ATOM      5  O   UNL     1     165.025 157.516 216.859  1.00  0.00    -0.341 OA
ATOM      6  C   UNL     1     166.569 155.214 215.725  1.00  0.00     0.179 C 
ATOM      7  C   UNL     1     165.512 156.042 214.960  1.00  0.00     0.202 C 
BRANCH   3   8
ATOM      8  C   UNL     1     167.348 158.049 217.282  1.00  0.00     0.191 C 
BRANCH   8   9
ATOM      9  O   UNL     1     167.033 159.304 217.811  1.00  0.00    -0.394 OA
ATOM     10  H   UNL     1     166.156 159.559 217.419  1.00  0.00     0.210 HD
ENDBRANCH   8   9
ENDBRANCH   3   8
BRANCH   4  11
ATOM     11  O   UNL     1     167.848 155.274 217.804  1.00  0.00    -0.387 OA
ATOM     12  H   UNL     1     168.432 154.948 217.070  1.00  0.00     0.211 HD
ENDBRANCH   4  11
BRANCH   6  13
ATOM     13  O   UNL     1     167.830 155.420 215.139  1.00  0.00    -0.387 OA
ATOM     14  H   UNL     1     167.742 156.189 214.515  1.00  0.00     0.211 HD
ENDBRANCH   6  13
BRANCH   7  15
ATOM     15  O   UNL     1     164.881 155.250 213.987  1.00  0.00    -0.385 OA
ATOM     16  H   UNL     1     165.178 154.315 214.143  1.00  0.00     0.211 HD
ENDBRANCH   7  15
ENDBRANCH   1   2
BRANCH   1  17
ATOM     17  C   UNL     1     162.299 155.544 216.266  1.00  0.00     0.224 C 
ATOM     18  C   UNL     1     161.829 156.536 215.176  1.00  0.00     0.208 C 
ATOM     19  O   UNL     1     161.582 155.845 217.443  1.00  0.00    -0.337 OA
ATOM     20  C   UNL     1     160.397 156.824 215.573  1.00  0.00     0.180 C 
ATOM     21  C   UNL     1     160.373 156.482 217.075  1.00  0.00     0.179 C 
BRANCH  17  22
ATOM     22  C   UNL     1     161.959 154.081 215.896  1.00  0.00     0.225 C 
BRANCH  22  23
ATOM     23  O   UNL     1     162.913 153.560 215.011  1.00  0.00    -0.391 OA
ATOM     24  H   UNL     1     163.755 153.470 215.530  1.00  0.00     0.210 HD
ENDBRANCH  22  23
ENDBRANCH  17  22
BRANCH  18  25
ATOM     25  O   UNL     1     161.934 156.009 213.876  1.00  0.00    -0.385 OA
ATOM     26  H   UNL     1     161.868 156.778 213.251  1.00  0.00     0.211 HD
ENDBRANCH  18  25
BRANCH  20  27
ATOM     27  O   UNL     1     159.507 155.999 214.863  1.00  0.00    -0.387 OA
ATOM     28  H   UNL     1     159.939 155.804 213.991  1.00  0.00     0.211 HD
ENDBRANCH  20  27
BRANCH  21  29
ATOM     29  C   UNL     1     160.183 157.736 217.938  1.00  0.00     0.191 C 
BRANCH  29  30
ATOM     30  O   UNL     1     160.937 157.639 219.113  1.00  0.00    -0.394 OA
ATOM     31  H   UNL     1     160.418 158.100 219.824  1.00  0.00     0.210 HD
ENDBRANCH  29  30
ENDBRANCH  21  29
ENDBRANCH   1  17
TORSDOF 13
ENDMDL
