MODEL 1
REMARK VINA RESULT:    -3.635      0.000      0.000
REMARK INTER + INTRA:          -4.580
REMARK INTER:                  -4.273
REMARK INTRA:                  -0.308
REMARK UNBOUND:                -0.308
REMARK SMILES O=c1cc(-c2ccc(O)c(O)c2)oc2cc(O)cc(O)c12
REMARK SMILES IDX 4 1 3 2 2 3 1 4 21 5 19 6 18 7 16 8 15 9 14 10 13 11 5 12
REMARK SMILES IDX 6 13 7 14 8 15 12 16 10 17 9 18 11 20 20 22 17 24
REMARK H PARENT 9 19 11 21 20 23 17 25
REMARK Flexibility Score: inf
ROOT
ATOM      1  C   UNL     1      19.957  -1.637  11.488  1.00  0.00     0.138 A 
ATOM      2  C   UNL     1      19.393  -2.488  12.449  1.00  0.00     0.100 A 
ATOM      3  C   UNL     1      19.441  -2.135  13.798  1.00  0.00     0.197 A 
ATOM      4  O   UNL     1      18.879  -2.892  14.630  1.00  0.00    -0.289 OA
ATOM      5  C   UNL     1      20.091  -0.939  14.190  1.00  0.00     0.107 A 
ATOM      6  C   UNL     1      20.232  -0.494  15.539  1.00  0.00     0.134 A 
ATOM      7  C   UNL     1      20.808   0.757  15.796  1.00  0.00     0.093 A 
ATOM      8  C   UNL     1      21.300   1.551  14.757  1.00  0.00     0.123 A 
ATOM      9  C   UNL     1      21.212   1.103  13.442  1.00  0.00     0.094 A 
ATOM     10  C   UNL     1      20.612  -0.124  13.149  1.00  0.00     0.146 A 
ATOM     11  O   UNL     1      20.532  -0.504  11.880  1.00  0.00    -0.456 OA
ENDROOT
BRANCH   1  12
ATOM     12  C   UNL     1      19.936  -1.965  10.041  1.00  0.00     0.021 A 
ATOM     13  C   UNL     1      18.920  -2.794   9.536  1.00  0.00     0.016 A 
ATOM     14  C   UNL     1      18.881  -3.125   8.179  1.00  0.00     0.051 A 
ATOM     15  C   UNL     1      19.859  -2.643   7.305  1.00  0.00     0.157 A 
ATOM     16  C   UNL     1      20.927  -1.492   9.158  1.00  0.00     0.062 A 
ATOM     17  C   UNL     1      20.890  -1.826   7.797  1.00  0.00     0.158 A 
BRANCH  15  18
ATOM     18  O   UNL     1      19.793  -2.988   5.956  1.00  0.00    -0.504 OA
ATOM     19  H   UNL     1      20.623  -3.091   5.385  1.00  0.00     0.293 HD
ENDBRANCH  15  18
BRANCH  17  20
ATOM     20  O   UNL     1      21.875  -1.351   6.932  1.00  0.00    -0.504 OA
ATOM     21  H   UNL     1      22.701  -0.876   7.277  1.00  0.00     0.293 HD
ENDBRANCH  17  20
ENDBRANCH   1  12
BRANCH   6  22
ATOM     22  O   UNL     1      19.849  -1.242  16.656  1.00  0.00    -0.507 OA
ATOM     23  H   UNL     1      20.256  -2.123  16.932  1.00  0.00     0.293 HD
ENDBRANCH   6  22
BRANCH   8  24
ATOM     24  O   UNL     1      21.886   2.788  15.025  1.00  0.00    -0.508 OA
ATOM     25  H   UNL     1      22.097   3.445  14.284  1.00  0.00     0.293 HD
ENDBRANCH   8  24
TORSDOF 5
ENDMDL
MODEL 2
REMARK VINA RESULT:    -3.041      6.993     10.653
REMARK INTER + INTRA:          -3.882
REMARK INTER:                  -3.564
REMARK INTRA:                  -0.317
REMARK UNBOUND:                -0.308
REMARK SMILES O=c1cc(-c2ccc(O)c(O)c2)oc2cc(O)cc(O)c12
REMARK SMILES IDX 4 1 3 2 2 3 1 4 21 5 19 6 18 7 16 8 15 9 14 10 13 11 5 12
REMARK SMILES IDX 6 13 7 14 8 15 12 16 10 17 9 18 11 20 20 22 17 24
REMARK H PARENT 9 19 11 21 20 23 17 25
REMARK Flexibility Score: inf
ROOT
ATOM      1  C   UNL     1      24.060  -1.743   2.590  1.00  0.00     0.138 A 
ATOM      2  C   UNL     1      23.125  -1.613   1.553  1.00  0.00     0.100 A 
ATOM      3  C   UNL     1      21.771  -1.828   1.813  1.00  0.00     0.197 A 
ATOM      4  O   UNL     1      20.952  -1.650   0.875  1.00  0.00    -0.289 OA
ATOM      5  C   UNL     1      21.355  -2.212   3.111  1.00  0.00     0.107 A 
ATOM      6  C   UNL     1      20.006  -2.491   3.484  1.00  0.00     0.134 A 
ATOM      7  C   UNL     1      19.703  -2.764   4.824  1.00  0.00     0.093 A 
ATOM      8  C   UNL     1      20.709  -2.826   5.792  1.00  0.00     0.123 A 
ATOM      9  C   UNL     1      22.034  -2.605   5.428  1.00  0.00     0.094 A 
ATOM     10  C   UNL     1      22.365  -2.295   4.107  1.00  0.00     0.146 A 
ATOM     11  O   UNL     1      23.639  -2.073   3.807  1.00  0.00    -0.456 OA
ENDROOT
BRANCH   1  12
ATOM     12  C   UNL     1      25.512  -1.529   2.370  1.00  0.00     0.021 A 
ATOM     13  C   UNL     1      25.958  -1.054   1.123  1.00  0.00     0.016 A 
ATOM     14  C   UNL     1      27.319  -0.851   0.887  1.00  0.00     0.051 A 
ATOM     15  C   UNL     1      28.260  -1.126   1.883  1.00  0.00     0.157 A 
ATOM     16  C   UNL     1      26.465  -1.818   3.366  1.00  0.00     0.062 A 
ATOM     17  C   UNL     1      27.832  -1.616   3.128  1.00  0.00     0.158 A 
BRANCH  15  18
ATOM     18  O   UNL     1      29.611  -0.911   1.617  1.00  0.00    -0.504 OA
ATOM     19  H   UNL     1      30.140  -0.177   2.073  1.00  0.00     0.293 HD
ENDBRANCH  15  18
BRANCH  17  20
ATOM     20  O   UNL     1      28.766  -1.903   4.122  1.00  0.00    -0.504 OA
ATOM     21  H   UNL     1      29.346  -1.180   4.531  1.00  0.00     0.293 HD
ENDBRANCH  17  20
ENDBRANCH   1  12
BRANCH   6  22
ATOM     22  O   UNL     1      18.936  -2.536   2.584  1.00  0.00    -0.507 OA
ATOM     23  H   UNL     1      18.444  -3.372   2.311  1.00  0.00     0.293 HD
ENDBRANCH   6  22
BRANCH   8  24
ATOM     24  O   UNL     1      20.399  -3.115   7.120  1.00  0.00    -0.508 OA
ATOM     25  H   UNL     1      19.841  -3.921   7.371  1.00  0.00     0.293 HD
ENDBRANCH   8  24
TORSDOF 5
ENDMDL
MODEL 3
REMARK VINA RESULT:    -2.367     12.076     14.300
REMARK INTER + INTRA:          -3.090
REMARK INTER:                  -2.772
REMARK INTRA:                  -0.318
REMARK UNBOUND:                -0.308
REMARK SMILES O=c1cc(-c2ccc(O)c(O)c2)oc2cc(O)cc(O)c12
REMARK SMILES IDX 4 1 3 2 2 3 1 4 21 5 19 6 18 7 16 8 15 9 14 10 13 11 5 12
REMARK SMILES IDX 6 13 7 14 8 15 12 16 10 17 9 18 11 20 20 22 17 24
REMARK H PARENT 9 19 11 21 20 23 17 25
REMARK Flexibility Score: inf
ROOT
ATOM      1  C   UNL     1      27.407   2.001   0.984  1.00  0.00     0.138 A 
ATOM      2  C   UNL     1      28.589   1.248   1.006  1.00  0.00     0.100 A 
ATOM      3  C   UNL     1      28.520  -0.145   1.044  1.00  0.00     0.197 A 
ATOM      4  O   UNL     1      29.597  -0.794   1.007  1.00  0.00    -0.289 OA
ATOM      5  C   UNL     1      27.258  -0.786   1.098  1.00  0.00     0.107 A 
ATOM      6  C   UNL     1      27.066  -2.198   1.174  1.00  0.00     0.134 A 
ATOM      7  C   UNL     1      25.767  -2.722   1.120  1.00  0.00     0.093 A 
ATOM      8  C   UNL     1      24.654  -1.881   1.054  1.00  0.00     0.123 A 
ATOM      9  C   UNL     1      24.829  -0.500   1.030  1.00  0.00     0.094 A 
ATOM     10  C   UNL     1      26.112   0.052   1.046  1.00  0.00     0.146 A 
ATOM     11  O   UNL     1      26.235   1.374   1.003  1.00  0.00    -0.456 OA
ENDROOT
BRANCH   1  12
ATOM     12  C   UNL     1      27.422   3.485   0.947  1.00  0.00     0.021 A 
ATOM     13  C   UNL     1      28.654   4.163   0.964  1.00  0.00     0.016 A 
ATOM     14  C   UNL     1      28.697   5.559   0.937  1.00  0.00     0.051 A 
ATOM     15  C   UNL     1      27.514   6.303   0.904  1.00  0.00     0.157 A 
ATOM     16  C   UNL     1      26.233   4.240   0.927  1.00  0.00     0.062 A 
ATOM     17  C   UNL     1      26.276   5.641   0.903  1.00  0.00     0.158 A 
BRANCH  15  18
ATOM     18  O   UNL     1      27.589   7.695   0.875  1.00  0.00    -0.504 OA
ATOM     19  H   UNL     1      27.032   8.251   0.238  1.00  0.00     0.293 HD
ENDBRANCH  15  18
BRANCH  17  20
ATOM     20  O   UNL     1      25.092   6.378   0.881  1.00  0.00    -0.504 OA
ATOM     21  H   UNL     1      24.755   6.867   1.702  1.00  0.00     0.293 HD
ENDBRANCH  17  20
ENDBRANCH   1  12
BRANCH   6  22
ATOM     22  O   UNL     1      28.102  -3.125   1.323  1.00  0.00    -0.507 OA
ATOM     23  H   UNL     1      29.033  -3.019   0.950  1.00  0.00     0.293 HD
ENDBRANCH   6  22
BRANCH   8  24
ATOM     24  O   UNL     1      23.364  -2.410   1.018  1.00  0.00    -0.508 OA
ATOM     25  H   UNL     1      22.800  -2.490   1.855  1.00  0.00     0.293 HD
ENDBRANCH   8  24
TORSDOF 5
ENDMDL
MODEL 4
REMARK VINA RESULT:    -2.282     13.443     14.457
REMARK INTER + INTRA:          -2.990
REMARK INTER:                  -2.694
REMARK INTRA:                  -0.297
REMARK UNBOUND:                -0.308
REMARK SMILES O=c1cc(-c2ccc(O)c(O)c2)oc2cc(O)cc(O)c12
REMARK SMILES IDX 4 1 3 2 2 3 1 4 21 5 19 6 18 7 16 8 15 9 14 10 13 11 5 12
REMARK SMILES IDX 6 13 7 14 8 15 12 16 10 17 9 18 11 20 20 22 17 24
REMARK H PARENT 9 19 11 21 20 23 17 25
REMARK Flexibility Score: inf
ROOT
ATOM      1  C   UNL     1      27.902   2.466   0.949  1.00  0.00     0.138 A 
ATOM      2  C   UNL     1      28.897   3.452   1.025  1.00  0.00     0.100 A 
ATOM      3  C   UNL     1      28.534   4.799   1.044  1.00  0.00     0.197 A 
ATOM      4  O   UNL     1      29.445   5.657   1.168  1.00  0.00    -0.289 OA
ATOM      5  C   UNL     1      27.168   5.162   0.951  1.00  0.00     0.107 A 
ATOM      6  C   UNL     1      26.682   6.503   0.928  1.00  0.00     0.134 A 
ATOM      7  C   UNL     1      25.301   6.737   0.934  1.00  0.00     0.093 A 
ATOM      8  C   UNL     1      24.390   5.678   0.903  1.00  0.00     0.123 A 
ATOM      9  C   UNL     1      24.856   4.366   0.876  1.00  0.00     0.094 A 
ATOM     10  C   UNL     1      26.226   4.099   0.904  1.00  0.00     0.146 A 
ATOM     11  O   UNL     1      26.626   2.832   0.895  1.00  0.00    -0.456 OA
ENDROOT
BRANCH   1  12
ATOM     12  C   UNL     1      28.233   1.019   0.922  1.00  0.00     0.021 A 
ATOM     13  C   UNL     1      27.192   0.074   0.922  1.00  0.00     0.016 A 
ATOM     14  C   UNL     1      27.475  -1.294   0.904  1.00  0.00     0.051 A 
ATOM     15  C   UNL     1      28.798  -1.743   0.896  1.00  0.00     0.157 A 
ATOM     16  C   UNL     1      29.565   0.561   0.927  1.00  0.00     0.062 A 
ATOM     17  C   UNL     1      29.849  -0.812   0.911  1.00  0.00     0.158 A 
BRANCH  15  18
ATOM     18  O   UNL     1      29.049  -3.114   0.875  1.00  0.00    -0.504 OA
ATOM     19  H   UNL     1      29.982  -3.493   0.985  1.00  0.00     0.293 HD
ENDBRANCH  15  18
BRANCH  17  20
ATOM     20  O   UNL     1      31.171  -1.253   0.913  1.00  0.00    -0.504 OA
ATOM     21  H   UNL     1      31.419  -2.191   0.620  1.00  0.00     0.293 HD
ENDBRANCH  17  20
ENDBRANCH   1  12
BRANCH   6  22
ATOM     22  O   UNL     1      27.502   7.634   0.875  1.00  0.00    -0.507 OA
ATOM     23  H   UNL     1      27.178   8.580   0.743  1.00  0.00     0.293 HD
ENDBRANCH   6  22
BRANCH   8  24
ATOM     24  O   UNL     1      23.018   5.921   0.893  1.00  0.00    -0.508 OA
ATOM     25  H   UNL     1      22.429   5.670   1.678  1.00  0.00     0.293 HD
ENDBRANCH   8  24
TORSDOF 5
ENDMDL
MODEL 5
REMARK VINA RESULT:    -2.059     11.986     14.558
REMARK INTER + INTRA:          -2.728
REMARK INTER:                  -2.431
REMARK INTRA:                  -0.297
REMARK UNBOUND:                -0.308
REMARK SMILES O=c1cc(-c2ccc(O)c(O)c2)oc2cc(O)cc(O)c12
REMARK SMILES IDX 4 1 3 2 2 3 1 4 21 5 19 6 18 7 16 8 15 9 14 10 13 11 5 12
REMARK SMILES IDX 6 13 7 14 8 15 12 16 10 17 9 18 11 20 20 22 17 24
REMARK H PARENT 9 19 11 21 20 23 17 25
REMARK Flexibility Score: inf
ROOT
ATOM      1  C   UNL     1      27.758   2.378   0.993  1.00  0.00     0.138 A 
ATOM      2  C   UNL     1      28.822   1.464   0.977  1.00  0.00     0.100 A 
ATOM      3  C   UNL     1      28.556   0.095   1.001  1.00  0.00     0.197 A 
ATOM      4  O   UNL     1      29.529  -0.699   0.930  1.00  0.00    -0.289 OA
ATOM      5  C   UNL     1      27.218  -0.362   1.078  1.00  0.00     0.107 A 
ATOM      6  C   UNL     1      26.829  -1.733   1.143  1.00  0.00     0.134 A 
ATOM      7  C   UNL     1      25.468  -2.066   1.115  1.00  0.00     0.093 A 
ATOM      8  C   UNL     1      24.484  -1.075   1.086  1.00  0.00     0.123 A 
ATOM      9  C   UNL     1      24.854   0.267   1.073  1.00  0.00     0.094 A 
ATOM     10  C   UNL     1      26.202   0.632   1.064  1.00  0.00     0.146 A 
ATOM     11  O   UNL     1      26.510   1.923   1.033  1.00  0.00    -0.456 OA
ENDROOT
BRANCH   1  12
ATOM     12  C   UNL     1      27.984   3.845   0.972  1.00  0.00     0.021 A 
ATOM     13  C   UNL     1      26.878   4.712   0.916  1.00  0.00     0.016 A 
ATOM     14  C   UNL     1      27.062   6.097   0.888  1.00  0.00     0.051 A 
ATOM     15  C   UNL     1      28.350   6.640   0.904  1.00  0.00     0.157 A 
ATOM     16  C   UNL     1      29.280   4.397   0.974  1.00  0.00     0.062 A 
ATOM     17  C   UNL     1      29.465   5.787   0.944  1.00  0.00     0.158 A 
BRANCH  15  18
ATOM     18  O   UNL     1      28.501   8.025   0.877  1.00  0.00    -0.504 OA
ATOM     19  H   UNL     1      29.395   8.466   0.693  1.00  0.00     0.293 HD
ENDBRANCH  15  18
BRANCH  17  20
ATOM     20  O   UNL     1      30.752   6.323   0.949  1.00  0.00    -0.504 OA
ATOM     21  H   UNL     1      31.125   6.818   0.147  1.00  0.00     0.293 HD
ENDBRANCH  17  20
ENDBRANCH   1  12
BRANCH   6  22
ATOM     22  O   UNL     1      27.726  -2.799   1.257  1.00  0.00    -0.507 OA
ATOM     23  H   UNL     1      28.727  -2.729   1.148  1.00  0.00     0.293 HD
ENDBRANCH   6  22
BRANCH   8  24
ATOM     24  O   UNL     1      23.132  -1.416   1.075  1.00  0.00    -0.508 OA
ATOM     25  H   UNL     1      22.793  -2.253   1.533  1.00  0.00     0.293 HD
ENDBRANCH   8  24
TORSDOF 5
ENDMDL
MODEL 6
REMARK VINA RESULT:    -1.964     12.034     13.759
REMARK INTER + INTRA:          -2.617
REMARK INTER:                  -2.299
REMARK INTRA:                  -0.318
REMARK UNBOUND:                -0.308
REMARK SMILES O=c1cc(-c2ccc(O)c(O)c2)oc2cc(O)cc(O)c12
REMARK SMILES IDX 4 1 3 2 2 3 1 4 21 5 19 6 18 7 16 8 15 9 14 10 13 11 5 12
REMARK SMILES IDX 6 13 7 14 8 15 12 16 10 17 9 18 11 20 20 22 17 24
REMARK H PARENT 9 19 11 21 20 23 17 25
REMARK Flexibility Score: inf
ROOT
ATOM      1  C   UNL     1      25.842   2.334   0.903  1.00  0.00     0.138 A 
ATOM      2  C   UNL     1      24.925   3.395   0.909  1.00  0.00     0.100 A 
ATOM      3  C   UNL     1      25.391   4.710   0.926  1.00  0.00     0.197 A 
ATOM      4  O   UNL     1      24.545   5.639   0.875  1.00  0.00    -0.289 OA
ATOM      5  C   UNL     1      26.784   4.963   0.972  1.00  0.00     0.107 A 
ATOM      6  C   UNL     1      27.373   6.262   1.026  1.00  0.00     0.134 A 
ATOM      7  C   UNL     1      28.766   6.390   0.967  1.00  0.00     0.093 A 
ATOM      8  C   UNL     1      29.592   5.264   0.917  1.00  0.00     0.123 A 
ATOM      9  C   UNL     1      29.028   3.992   0.914  1.00  0.00     0.094 A 
ATOM     10  C   UNL     1      27.641   3.831   0.937  1.00  0.00     0.146 A 
ATOM     11  O   UNL     1      27.144   2.599   0.914  1.00  0.00    -0.456 OA
ENDROOT
BRANCH   1  12
ATOM     12  C   UNL     1      25.402   0.916   0.889  1.00  0.00     0.021 A 
ATOM     13  C   UNL     1      24.027   0.620   0.889  1.00  0.00     0.016 A 
ATOM     14  C   UNL     1      23.586  -0.705   0.884  1.00  0.00     0.051 A 
ATOM     15  C   UNL     1      24.505  -1.757   0.889  1.00  0.00     0.157 A 
ATOM     16  C   UNL     1      26.325  -0.148   0.908  1.00  0.00     0.062 A 
ATOM     17  C   UNL     1      25.882  -1.478   0.905  1.00  0.00     0.158 A 
BRANCH  15  18
ATOM     18  O   UNL     1      24.035  -3.069   0.882  1.00  0.00    -0.504 OA
ATOM     19  H   UNL     1      23.690  -3.513   0.038  1.00  0.00     0.293 HD
ENDBRANCH  15  18
BRANCH  17  20
ATOM     20  O   UNL     1      26.804  -2.524   0.922  1.00  0.00    -0.504 OA
ATOM     21  H   UNL     1      26.583  -3.421   1.337  1.00  0.00     0.293 HD
ENDBRANCH  17  20
ENDBRANCH   1  12
BRANCH   6  22
ATOM     22  O   UNL     1      26.645   7.449   1.158  1.00  0.00    -0.507 OA
ATOM     23  H   UNL     1      26.488   7.938   2.026  1.00  0.00     0.293 HD
ENDBRANCH   6  22
BRANCH   8  24
ATOM     24  O   UNL     1      30.979   5.402   0.875  1.00  0.00    -0.508 OA
ATOM     25  H   UNL     1      31.419   6.309   0.785  1.00  0.00     0.293 HD
ENDBRANCH   8  24
TORSDOF 5
ENDMDL
MODEL 7
REMARK VINA RESULT:    -1.489      1.169      2.676
REMARK INTER + INTRA:          -2.058
REMARK INTER:                  -1.771
REMARK INTRA:                  -0.287
REMARK UNBOUND:                -0.308
REMARK SMILES O=c1cc(-c2ccc(O)c(O)c2)oc2cc(O)cc(O)c12
REMARK SMILES IDX 4 1 3 2 2 3 1 4 21 5 19 6 18 7 16 8 15 9 14 10 13 11 5 12
REMARK SMILES IDX 6 13 7 14 8 15 12 16 10 17 9 18 11 20 20 22 17 24
REMARK H PARENT 9 19 11 21 20 23 17 25
REMARK Flexibility Score: inf
ROOT
ATOM      1  C   UNL     1      20.212  -1.092  10.958  1.00  0.00     0.138 A 
ATOM      2  C   UNL     1      20.752   0.171  11.238  1.00  0.00     0.100 A 
ATOM      3  C   UNL     1      20.851   0.602  12.562  1.00  0.00     0.197 A 
ATOM      4  O   UNL     1      21.390   1.716  12.784  1.00  0.00    -0.289 OA
ATOM      5  C   UNL     1      20.372  -0.223  13.609  1.00  0.00     0.107 A 
ATOM      6  C   UNL     1      20.389   0.126  14.992  1.00  0.00     0.134 A 
ATOM      7  C   UNL     1      19.979  -0.814  15.946  1.00  0.00     0.093 A 
ATOM      8  C   UNL     1      19.497  -2.068  15.561  1.00  0.00     0.123 A 
ATOM      9  C   UNL     1      19.429  -2.399  14.211  1.00  0.00     0.094 A 
ATOM     10  C   UNL     1      19.863  -1.497  13.237  1.00  0.00     0.146 A 
ATOM     11  O   UNL     1      19.799  -1.860  11.961  1.00  0.00    -0.456 OA
ENDROOT
BRANCH   1  12
ATOM     12  C   UNL     1      20.080  -1.599   9.569  1.00  0.00     0.021 A 
ATOM     13  C   UNL     1      19.019  -2.464   9.248  1.00  0.00     0.016 A 
ATOM     14  C   UNL     1      18.876  -2.961   7.950  1.00  0.00     0.051 A 
ATOM     15  C   UNL     1      19.793  -2.615   6.954  1.00  0.00     0.157 A 
ATOM     16  C   UNL     1      21.009  -1.264   8.565  1.00  0.00     0.062 A 
ATOM     17  C   UNL     1      20.867  -1.765   7.263  1.00  0.00     0.158 A 
BRANCH  15  18
ATOM     18  O   UNL     1      19.622  -3.125   5.669  1.00  0.00    -0.504 OA
ATOM     19  H   UNL     1      18.716  -3.416   5.320  1.00  0.00     0.293 HD
ENDBRANCH  15  18
BRANCH  17  20
ATOM     20  O   UNL     1      21.792  -1.424   6.277  1.00  0.00    -0.504 OA
ATOM     21  H   UNL     1      21.670  -1.710   5.312  1.00  0.00     0.293 HD
ENDBRANCH  17  20
ENDBRANCH   1  12
BRANCH   6  22
ATOM     22  O   UNL     1      20.775   1.378  15.481  1.00  0.00    -0.507 OA
ATOM     23  H   UNL     1      21.306   1.532  16.324  1.00  0.00     0.293 HD
ENDBRANCH   6  22
BRANCH   8  24
ATOM     24  O   UNL     1      19.076  -2.991  16.518  1.00  0.00    -0.508 OA
ATOM     25  H   UNL     1      18.101  -3.076  16.779  1.00  0.00     0.293 HD
ENDBRANCH   8  24
TORSDOF 5
ENDMDL
MODEL 8
REMARK VINA RESULT:    -1.101     12.462     14.240
REMARK INTER + INTRA:          -1.602
REMARK INTER:                  -1.285
REMARK INTRA:                  -0.318
REMARK UNBOUND:                -0.308
REMARK SMILES O=c1cc(-c2ccc(O)c(O)c2)oc2cc(O)cc(O)c12
REMARK SMILES IDX 4 1 3 2 2 3 1 4 21 5 19 6 18 7 16 8 15 9 14 10 13 11 5 12
REMARK SMILES IDX 6 13 7 14 8 15 12 16 10 17 9 18 11 20 20 22 17 24
REMARK H PARENT 9 19 11 21 20 23 17 25
REMARK Flexibility Score: inf
ROOT
ATOM      1  C   UNL     1      25.887   3.730   0.910  1.00  0.00     0.138 A 
ATOM      2  C   UNL     1      27.289   3.723   0.915  1.00  0.00     0.100 A 
ATOM      3  C   UNL     1      27.973   2.508   0.931  1.00  0.00     0.197 A 
ATOM      4  O   UNL     1      29.230   2.534   0.880  1.00  0.00    -0.289 OA
ATOM      5  C   UNL     1      27.249   1.292   0.978  1.00  0.00     0.107 A 
ATOM      6  C   UNL     1      27.840  -0.006   1.031  1.00  0.00     0.134 A 
ATOM      7  C   UNL     1      27.020  -1.140   0.973  1.00  0.00     0.093 A 
ATOM      8  C   UNL     1      25.628  -1.022   0.924  1.00  0.00     0.123 A 
ATOM      9  C   UNL     1      25.041   0.240   0.922  1.00  0.00     0.094 A 
ATOM     10  C   UNL     1      25.832   1.391   0.943  1.00  0.00     0.146 A 
ATOM     11  O   UNL     1      25.230   2.575   0.921  1.00  0.00    -0.456 OA
ENDROOT
BRANCH   1  12
ATOM     12  C   UNL     1      25.108   4.994   0.897  1.00  0.00     0.021 A 
ATOM     13  C   UNL     1      25.789   6.224   0.924  1.00  0.00     0.016 A 
ATOM     14  C   UNL     1      25.081   7.428   0.920  1.00  0.00     0.051 A 
ATOM     15  C   UNL     1      23.683   7.428   0.899  1.00  0.00     0.157 A 
ATOM     16  C   UNL     1      23.700   4.999   0.889  1.00  0.00     0.062 A 
ATOM     17  C   UNL     1      22.988   6.207   0.887  1.00  0.00     0.158 A 
BRANCH  15  18
ATOM     18  O   UNL     1      23.005   8.645   0.893  1.00  0.00    -0.504 OA
ATOM     19  H   UNL     1      21.996   8.700   0.973  1.00  0.00     0.293 HD
ENDBRANCH  15  18
BRANCH  17  20
ATOM     20  O   UNL     1      21.594   6.199   0.878  1.00  0.00    -0.504 OA
ATOM     21  H   UNL     1      21.069   5.409   0.522  1.00  0.00     0.293 HD
ENDBRANCH  17  20
ENDBRANCH   1  12
BRANCH   6  22
ATOM     22  O   UNL     1      29.212  -0.239   1.162  1.00  0.00    -0.507 OA
ATOM     23  H   UNL     1      29.709  -1.019   0.759  1.00  0.00     0.293 HD
ENDBRANCH   6  22
BRANCH   8  24
ATOM     24  O   UNL     1      24.820  -2.157   0.883  1.00  0.00    -0.508 OA
ATOM     25  H   UNL     1      23.813  -2.088   0.804  1.00  0.00     0.293 HD
ENDBRANCH   8  24
TORSDOF 5
ENDMDL
