MODEL 1
REMARK VINA RESULT:    -3.813      0.000      0.000
REMARK INTER + INTRA:          -4.832
REMARK INTER:                  -4.705
REMARK INTRA:                  -0.127
REMARK UNBOUND:                -0.127
REMARK SMILES CCCCCC(=O)[O-]
REMARK SMILES IDX 4 1 5 2 6 3 7 4 8 5 3 6 2 7 1 8
REMARK H PARENT
REMARK Flexibility Score: inf
ROOT
ATOM      1  C   UNL     1       3.485  45.970  10.882  1.00  0.00     0.006 C 
ENDROOT
BRANCH   1   2
ATOM      2  C   UNL     1       4.180  45.982   9.512  1.00  0.00     0.053 C 
BRANCH   2   3
ATOM      3  C   UNL     1       4.937  47.254   9.282  1.00  0.00     0.041 C 
ATOM      4  O   UNL     1       6.018  47.467   9.891  1.00  0.00    -0.550 OA
ATOM      5  O   UNL     1       4.463  48.192   8.373  1.00  0.00    -0.550 OA
ENDBRANCH   2   3
ENDBRANCH   1   2
BRANCH   1   6
ATOM      6  C   UNL     1       4.134  44.970  11.853  1.00  0.00     0.000 C 
BRANCH   6   7
ATOM      7  C   UNL     1       3.123  43.967  12.428  1.00  0.00    -0.003 C 
ATOM      8  C   UNL     1       1.996  43.634  11.449  1.00  0.00     0.004 C 
ENDBRANCH   6   7
ENDBRANCH   1   6
TORSDOF 4
ENDMDL
MODEL 2
REMARK VINA RESULT:    -3.809      1.481      1.812
REMARK INTER + INTRA:          -4.828
REMARK INTER:                  -4.610
REMARK INTRA:                  -0.217
REMARK UNBOUND:                -0.127
REMARK SMILES CCCCCC(=O)[O-]
REMARK SMILES IDX 4 1 5 2 6 3 7 4 8 5 3 6 2 7 1 8
REMARK H PARENT
REMARK Flexibility Score: inf
ROOT
ATOM      1  C   UNL     1       3.292  45.415  11.308  1.00  0.00     0.006 C 
ENDROOT
BRANCH   1   2
ATOM      2  C   UNL     1       4.627  46.123  11.031  1.00  0.00     0.053 C 
BRANCH   2   3
ATOM      3  C   UNL     1       4.636  46.790   9.689  1.00  0.00     0.041 C 
ATOM      4  O   UNL     1       3.609  46.762   8.961  1.00  0.00    -0.550 OA
ATOM      5  O   UNL     1       5.769  47.467   9.255  1.00  0.00    -0.550 OA
ENDBRANCH   2   3
ENDBRANCH   1   2
BRANCH   1   6
ATOM      6  C   UNL     1       3.486  43.934  11.671  1.00  0.00     0.000 C 
BRANCH   6   7
ATOM      7  C   UNL     1       3.972  43.094  10.481  1.00  0.00    -0.003 C 
ATOM      8  C   UNL     1       2.966  43.058   9.330  1.00  0.00     0.004 C 
ENDBRANCH   6   7
ENDBRANCH   1   6
TORSDOF 4
ENDMDL
MODEL 3
REMARK VINA RESULT:    -3.700      2.981      4.436
REMARK INTER + INTRA:          -4.693
REMARK INTER:                  -4.546
REMARK INTRA:                  -0.148
REMARK UNBOUND:                -0.127
REMARK SMILES CCCCCC(=O)[O-]
REMARK SMILES IDX 4 1 5 2 6 3 7 4 8 5 3 6 2 7 1 8
REMARK H PARENT
REMARK Flexibility Score: inf
ROOT
ATOM      1  C   UNL     1       4.437  45.040  11.738  1.00  0.00     0.006 C 
ENDROOT
BRANCH   1   2
ATOM      2  C   UNL     1       3.334  44.203  12.401  1.00  0.00     0.053 C 
BRANCH   2   3
ATOM      3  C   UNL     1       2.314  43.737  11.408  1.00  0.00     0.041 C 
ATOM      4  O   UNL     1       2.616  42.862  10.554  1.00  0.00    -0.550 OA
ATOM      5  O   UNL     1       1.023  44.248  11.442  1.00  0.00    -0.550 OA
ENDBRANCH   2   3
ENDBRANCH   1   2
BRANCH   1   6
ATOM      6  C   UNL     1       3.867  46.229  10.946  1.00  0.00     0.000 C 
BRANCH   6   7
ATOM      7  C   UNL     1       4.437  46.315   9.522  1.00  0.00    -0.003 C 
ATOM      8  C   UNL     1       5.515  47.389   9.378  1.00  0.00     0.004 C 
ENDBRANCH   6   7
ENDBRANCH   1   6
TORSDOF 4
ENDMDL
MODEL 4
REMARK VINA RESULT:    -3.671     16.133     16.939
REMARK INTER + INTRA:          -4.656
REMARK INTER:                  -4.617
REMARK INTRA:                  -0.040
REMARK UNBOUND:                -0.127
REMARK SMILES CCCCCC(=O)[O-]
REMARK SMILES IDX 4 1 5 2 6 3 7 4 8 5 3 6 2 7 1 8
REMARK H PARENT
REMARK Flexibility Score: inf
ROOT
ATOM      1  C   UNL     1      15.352  32.946  13.802  1.00  0.00     0.006 C 
ENDROOT
BRANCH   1   2
ATOM      2  C   UNL     1      15.357  34.472  13.629  1.00  0.00     0.053 C 
BRANCH   2   3
ATOM      3  C   UNL     1      13.969  35.028  13.539  1.00  0.00     0.041 C 
ATOM      4  O   UNL     1      13.076  34.633  14.335  1.00  0.00    -0.550 OA
ATOM      5  O   UNL     1      13.668  36.003  12.596  1.00  0.00    -0.550 OA
ENDBRANCH   2   3
ENDBRANCH   1   2
BRANCH   1   6
ATOM      6  C   UNL     1      14.550  32.240  12.696  1.00  0.00     0.000 C 
BRANCH   6   7
ATOM      7  C   UNL     1      15.238  30.961  12.195  1.00  0.00    -0.003 C 
ATOM      8  C   UNL     1      16.710  30.882  12.600  1.00  0.00     0.004 C 
ENDBRANCH   6   7
ENDBRANCH   1   6
TORSDOF 4
ENDMDL
MODEL 5
REMARK VINA RESULT:    -3.659      2.627      4.389
REMARK INTER + INTRA:          -4.642
REMARK INTER:                  -4.501
REMARK INTRA:                  -0.141
REMARK UNBOUND:                -0.127
REMARK SMILES CCCCCC(=O)[O-]
REMARK SMILES IDX 4 1 5 2 6 3 7 4 8 5 3 6 2 7 1 8
REMARK H PARENT
REMARK Flexibility Score: inf
ROOT
ATOM      1  C   UNL     1       4.910  46.649  10.663  1.00  0.00     0.006 C 
ENDROOT
BRANCH   1   2
ATOM      2  C   UNL     1       3.531  46.029  10.931  1.00  0.00     0.053 C 
BRANCH   2   3
ATOM      3  C   UNL     1       3.633  44.579  11.296  1.00  0.00     0.041 C 
ATOM      4  O   UNL     1       4.126  43.755  10.481  1.00  0.00    -0.550 OA
ATOM      5  O   UNL     1       3.210  44.143  12.545  1.00  0.00    -0.550 OA
ENDBRANCH   2   3
ENDBRANCH   1   2
BRANCH   1   6
ATOM      6  C   UNL     1       5.023  47.221   9.240  1.00  0.00     0.000 C 
BRANCH   6   7
ATOM      7  C   UNL     1       3.652  47.530   8.620  1.00  0.00    -0.003 C 
ATOM      8  C   UNL     1       3.719  48.609   7.539  1.00  0.00     0.004 C 
ENDBRANCH   6   7
ENDBRANCH   1   6
TORSDOF 4
ENDMDL
MODEL 6
REMARK VINA RESULT:    -3.615     16.151     16.978
REMARK INTER + INTRA:          -4.588
REMARK INTER:                  -4.466
REMARK INTRA:                  -0.122
REMARK UNBOUND:                -0.127
REMARK SMILES CCCCCC(=O)[O-]
REMARK SMILES IDX 4 1 5 2 6 3 7 4 8 5 3 6 2 7 1 8
REMARK H PARENT
REMARK Flexibility Score: inf
ROOT
ATOM      1  C   UNL     1      13.755  32.692  12.346  1.00  0.00     0.006 C 
ENDROOT
BRANCH   1   2
ATOM      2  C   UNL     1      13.484  33.629  13.532  1.00  0.00     0.053 C 
BRANCH   2   3
ATOM      3  C   UNL     1      14.294  34.887  13.445  1.00  0.00     0.041 C 
ATOM      4  O   UNL     1      15.467  34.916  13.901  1.00  0.00    -0.550 OA
ATOM      5  O   UNL     1      13.764  36.017  12.835  1.00  0.00    -0.550 OA
ENDBRANCH   2   3
ENDBRANCH   1   2
BRANCH   1   6
ATOM      6  C   UNL     1      14.352  31.347  12.793  1.00  0.00     0.000 C 
BRANCH   6   7
ATOM      7  C   UNL     1      15.761  31.497  13.386  1.00  0.00    -0.003 C 
ATOM      8  C   UNL     1      16.845  30.876  12.504  1.00  0.00     0.004 C 
ENDBRANCH   6   7
ENDBRANCH   1   6
TORSDOF 4
ENDMDL
MODEL 7
REMARK VINA RESULT:    -3.589      1.450      1.949
REMARK INTER + INTRA:          -4.556
REMARK INTER:                  -4.330
REMARK INTRA:                  -0.226
REMARK UNBOUND:                -0.127
REMARK SMILES CCCCCC(=O)[O-]
REMARK SMILES IDX 4 1 5 2 6 3 7 4 8 5 3 6 2 7 1 8
REMARK H PARENT
REMARK Flexibility Score: inf
ROOT
ATOM      1  C   UNL     1       1.720  45.122   9.899  1.00  0.00     0.006 C 
ENDROOT
BRANCH   1   2
ATOM      2  C   UNL     1       2.271  46.555   9.922  1.00  0.00     0.053 C 
BRANCH   2   3
ATOM      3  C   UNL     1       3.563  46.668   9.172  1.00  0.00     0.041 C 
ATOM      4  O   UNL     1       4.443  45.776   9.290  1.00  0.00    -0.550 OA
ATOM      5  O   UNL     1       3.783  47.744   8.320  1.00  0.00    -0.550 OA
ENDBRANCH   2   3
ENDBRANCH   1   2
BRANCH   1   6
ATOM      6  C   UNL     1       1.490  44.566  11.315  1.00  0.00     0.000 C 
BRANCH   6   7
ATOM      7  C   UNL     1       2.580  43.572  11.741  1.00  0.00    -0.003 C 
ATOM      8  C   UNL     1       3.756  44.247  12.448  1.00  0.00     0.004 C 
ENDBRANCH   6   7
ENDBRANCH   1   6
TORSDOF 4
ENDMDL
MODEL 8
REMARK VINA RESULT:    -3.513      1.532      2.260
REMARK INTER + INTRA:          -4.462
REMARK INTER:                  -4.354
REMARK INTRA:                  -0.109
REMARK UNBOUND:                -0.127
REMARK SMILES CCCCCC(=O)[O-]
REMARK SMILES IDX 4 1 5 2 6 3 7 4 8 5 3 6 2 7 1 8
REMARK H PARENT
REMARK Flexibility Score: inf
ROOT
ATOM      1  C   UNL     1       4.778  46.989   9.565  1.00  0.00     0.006 C 
ENDROOT
BRANCH   1   2
ATOM      2  C   UNL     1       3.375  46.965   8.940  1.00  0.00     0.053 C 
BRANCH   2   3
ATOM      3  C   UNL     1       3.162  48.116   8.006  1.00  0.00     0.041 C 
ATOM      4  O   UNL     1       4.145  48.787   7.592  1.00  0.00    -0.550 OA
ATOM      5  O   UNL     1       1.881  48.431   7.568  1.00  0.00    -0.550 OA
ENDBRANCH   2   3
ENDBRANCH   1   2
BRANCH   1   6
ATOM      6  C   UNL     1       4.822  46.259  10.918  1.00  0.00     0.000 C 
BRANCH   6   7
ATOM      7  C   UNL     1       3.496  45.564  11.256  1.00  0.00    -0.003 C 
ATOM      8  C   UNL     1       3.667  44.399  12.232  1.00  0.00     0.004 C 
ENDBRANCH   6   7
ENDBRANCH   1   6
TORSDOF 4
ENDMDL
MODEL 9
REMARK VINA RESULT:    -3.493      2.787      4.133
REMARK INTER + INTRA:          -4.437
REMARK INTER:                  -4.176
REMARK INTRA:                  -0.262
REMARK UNBOUND:                -0.127
REMARK SMILES CCCCCC(=O)[O-]
REMARK SMILES IDX 4 1 5 2 6 3 7 4 8 5 3 6 2 7 1 8
REMARK H PARENT
REMARK Flexibility Score: inf
ROOT
ATOM      1  C   UNL     1       1.779  44.906  10.007  1.00  0.00     0.006 C 
ENDROOT
BRANCH   1   2
ATOM      2  C   UNL     1       1.960  43.979  11.217  1.00  0.00     0.053 C 
BRANCH   2   3
ATOM      3  C   UNL     1       3.405  43.684  11.482  1.00  0.00     0.041 C 
ATOM      4  O   UNL     1       3.939  44.058  12.560  1.00  0.00    -0.550 OA
ATOM      5  O   UNL     1       4.154  42.973  10.553  1.00  0.00    -0.550 OA
ENDBRANCH   2   3
ENDBRANCH   1   2
BRANCH   1   6
ATOM      6  C   UNL     1       2.365  46.306  10.256  1.00  0.00     0.000 C 
BRANCH   6   7
ATOM      7  C   UNL     1       3.509  46.646   9.289  1.00  0.00    -0.003 C 
ATOM      8  C   UNL     1       4.858  46.789   9.993  1.00  0.00     0.004 C 
ENDBRANCH   6   7
ENDBRANCH   1   6
TORSDOF 4
ENDMDL
