MODEL 1
REMARK VINA RESULT:    -4.409      0.000      0.000
REMARK INTER + INTRA:          -6.451
REMARK INTER:                  -5.955
REMARK INTRA:                  -0.495
REMARK UNBOUND:                -0.495
REMARK SMILES O=C[C@H](O)[C@H](O)[C@H](O)CO
REMARK SMILES IDX 7 1 9 2 10 3 5 5 3 6 2 7 1 8 4 9 6 11 8 13
REMARK H PARENT 10 4 4 10 6 12 8 14
REMARK Flexibility Score: inf
ROOT
ATOM      1  C   UNL     1       0.824 -45.784 -15.498  1.00  0.00     0.171 C 
ENDROOT
BRANCH   1   2
ATOM      2  C   UNL     1       0.307 -46.459 -14.213  1.00  0.00     0.190 C 
BRANCH   2   3
ATOM      3  O   UNL     1      -0.473 -45.569 -13.463  1.00  0.00    -0.394 OA
ATOM      4  H   UNL     1      -1.095 -46.130 -12.931  1.00  0.00     0.210 HD
ENDBRANCH   2   3
ENDBRANCH   1   2
BRANCH   1   5
ATOM      5  C   UNL     1       0.218 -44.375 -15.747  1.00  0.00     0.181 C 
BRANCH   5   6
ATOM      6  C   UNL     1      -0.083 -44.041 -17.227  1.00  0.00     0.209 C 
BRANCH   6   7
ATOM      7  C   UNL     1       0.551 -42.743 -17.652  1.00  0.00     0.258 C 
ATOM      8  O   UNL     1       1.690 -42.724 -18.089  1.00  0.00    -0.300 OA
ENDBRANCH   6   7
BRANCH   6   9
ATOM      9  O   UNL     1      -1.474 -43.945 -17.394  1.00  0.00    -0.383 OA
ATOM     10  H   UNL     1      -1.731 -43.014 -17.161  1.00  0.00     0.211 HD
ENDBRANCH   6   9
ENDBRANCH   5   6
BRANCH   5  11
ATOM     11  O   UNL     1       1.073 -43.394 -15.214  1.00  0.00    -0.387 OA
ATOM     12  H   UNL     1       0.504 -42.757 -14.708  1.00  0.00     0.211 HD
ENDBRANCH   5  11
ENDBRANCH   1   5
BRANCH   1  13
ATOM     13  O   UNL     1       0.620 -46.615 -16.614  1.00  0.00    -0.388 OA
ATOM     14  H   UNL     1      -0.355 -46.801 -16.659  1.00  0.00     0.211 HD
ENDBRANCH   1  13
TORSDOF 8
ENDMDL
MODEL 2
REMARK VINA RESULT:    -4.392      1.184      1.506
REMARK INTER + INTRA:          -6.428
REMARK INTER:                  -5.961
REMARK INTRA:                  -0.466
REMARK UNBOUND:                -0.495
REMARK SMILES O=C[C@H](O)[C@H](O)[C@H](O)CO
REMARK SMILES IDX 7 1 9 2 10 3 5 5 3 6 2 7 1 8 4 9 6 11 8 13
REMARK H PARENT 10 4 4 10 6 12 8 14
REMARK Flexibility Score: inf
ROOT
ATOM      1  C   UNL     1       0.265 -45.513 -14.681  1.00  0.00     0.171 C 
ENDROOT
BRANCH   1   2
ATOM      2  C   UNL     1       1.696 -45.995 -14.374  1.00  0.00     0.190 C 
BRANCH   2   3
ATOM      3  O   UNL     1       2.067 -45.653 -13.066  1.00  0.00    -0.394 OA
ATOM      4  H   UNL     1       2.474 -46.469 -12.673  1.00  0.00     0.210 HD
ENDBRANCH   2   3
ENDBRANCH   1   2
BRANCH   1   5
ATOM      5  C   UNL     1       0.211 -44.105 -15.336  1.00  0.00     0.181 C 
BRANCH   5   6
ATOM      6  C   UNL     1       0.018 -44.102 -16.871  1.00  0.00     0.209 C 
BRANCH   6   7
ATOM      7  C   UNL     1       0.733 -42.949 -17.527  1.00  0.00     0.258 C 
ATOM      8  O   UNL     1       1.832 -43.110 -18.033  1.00  0.00    -0.300 OA
ENDBRANCH   6   7
BRANCH   6   9
ATOM      9  O   UNL     1      -1.353 -44.007 -17.154  1.00  0.00    -0.383 OA
ATOM     10  H   UNL     1      -1.566 -43.040 -17.240  1.00  0.00     0.211 HD
ENDBRANCH   6   9
ENDBRANCH   5   6
BRANCH   5  11
ATOM     11  O   UNL     1       1.377 -43.390 -15.013  1.00  0.00    -0.387 OA
ATOM     12  H   UNL     1       1.248 -42.461 -15.340  1.00  0.00     0.211 HD
ENDBRANCH   5  11
ENDBRANCH   1   5
BRANCH   1  13
ATOM     13  O   UNL     1      -0.532 -45.551 -13.524  1.00  0.00    -0.388 OA
ATOM     14  H   UNL     1      -0.415 -44.678 -13.065  1.00  0.00     0.211 HD
ENDBRANCH   1  13
TORSDOF 8
ENDMDL
MODEL 3
REMARK VINA RESULT:    -4.263      1.258      2.305
REMARK INTER + INTRA:          -6.253
REMARK INTER:                  -5.958
REMARK INTRA:                  -0.295
REMARK UNBOUND:                -0.495
REMARK SMILES O=C[C@H](O)[C@H](O)[C@H](O)CO
REMARK SMILES IDX 7 1 9 2 10 3 5 5 3 6 2 7 1 8 4 9 6 11 8 13
REMARK H PARENT 10 4 4 10 6 12 8 14
REMARK Flexibility Score: inf
ROOT
ATOM      1  C   UNL     1       0.401 -44.166 -15.305  1.00  0.00     0.171 C 
ENDROOT
BRANCH   1   2
ATOM      2  C   UNL     1       0.369 -45.563 -14.658  1.00  0.00     0.190 C 
BRANCH   2   3
ATOM      3  O   UNL     1      -0.474 -45.575 -13.539  1.00  0.00    -0.394 OA
ATOM      4  H   UNL     1      -0.386 -46.478 -13.137  1.00  0.00     0.210 HD
ENDBRANCH   2   3
ENDBRANCH   1   2
BRANCH   1   5
ATOM      5  C   UNL     1       0.515 -44.201 -16.855  1.00  0.00     0.181 C 
BRANCH   5   6
ATOM      6  C   UNL     1      -0.019 -42.944 -17.582  1.00  0.00     0.209 C 
BRANCH   6   7
ATOM      7  C   UNL     1      -0.913 -43.300 -18.741  1.00  0.00     0.258 C 
ATOM      8  O   UNL     1      -0.462 -43.880 -19.716  1.00  0.00    -0.300 OA
ENDBRANCH   6   7
BRANCH   6   9
ATOM      9  O   UNL     1       1.072 -42.201 -18.060  1.00  0.00    -0.383 OA
ATOM     10  H   UNL     1       1.076 -41.340 -17.565  1.00  0.00     0.211 HD
ENDBRANCH   6   9
ENDBRANCH   5   6
BRANCH   5  11
ATOM     11  O   UNL     1      -0.145 -45.339 -17.350  1.00  0.00    -0.387 OA
ATOM     12  H   UNL     1      -0.008 -45.349 -18.333  1.00  0.00     0.211 HD
ENDBRANCH   5  11
ENDBRANCH   1   5
BRANCH   1  13
ATOM     13  O   UNL     1       1.429 -43.384 -14.752  1.00  0.00    -0.388 OA
ATOM     14  H   UNL     1       1.342 -43.451 -13.764  1.00  0.00     0.211 HD
ENDBRANCH   1  13
TORSDOF 8
ENDMDL
MODEL 4
REMARK VINA RESULT:    -4.223     12.169     13.607
REMARK INTER + INTRA:          -6.199
REMARK INTER:                  -5.537
REMARK INTRA:                  -0.662
REMARK UNBOUND:                -0.495
REMARK SMILES O=C[C@H](O)[C@H](O)[C@H](O)CO
REMARK SMILES IDX 7 1 9 2 10 3 5 5 3 6 2 7 1 8 4 9 6 11 8 13
REMARK H PARENT 10 4 4 10 6 12 8 14
REMARK Flexibility Score: inf
ROOT
ATOM      1  C   UNL     1     -13.227 -39.747 -17.604  1.00  0.00     0.171 C 
ENDROOT
BRANCH   1   2
ATOM      2  C   UNL     1     -14.414 -38.880 -17.144  1.00  0.00     0.190 C 
BRANCH   2   3
ATOM      3  O   UNL     1     -14.373 -38.674 -15.759  1.00  0.00    -0.394 OA
ATOM      4  H   UNL     1     -13.930 -37.796 -15.624  1.00  0.00     0.210 HD
ENDBRANCH   2   3
ENDBRANCH   1   2
BRANCH   1   5
ATOM      5  C   UNL     1     -12.191 -40.028 -16.481  1.00  0.00     0.181 C 
BRANCH   5   6
ATOM      6  C   UNL     1     -10.732 -40.212 -16.963  1.00  0.00     0.209 C 
BRANCH   6   7
ATOM      7  C   UNL     1      -9.835 -40.719 -15.864  1.00  0.00     0.258 C 
ATOM      8  O   UNL     1      -9.833 -41.901 -15.562  1.00  0.00    -0.300 OA
ENDBRANCH   6   7
BRANCH   6   9
ATOM      9  O   UNL     1     -10.246 -38.975 -17.414  1.00  0.00    -0.383 OA
ATOM     10  H   UNL     1     -10.963 -38.306 -17.256  1.00  0.00     0.211 HD
ENDBRANCH   6   9
ENDBRANCH   5   6
BRANCH   5  11
ATOM     11  O   UNL     1     -12.585 -41.162 -15.749  1.00  0.00    -0.387 OA
ATOM     12  H   UNL     1     -12.485 -41.945 -16.351  1.00  0.00     0.211 HD
ENDBRANCH   5  11
ENDBRANCH   1   5
BRANCH   1  13
ATOM     13  O   UNL     1     -12.599 -39.177 -18.725  1.00  0.00    -0.388 OA
ATOM     14  H   UNL     1     -11.659 -39.498 -18.723  1.00  0.00     0.211 HD
ENDBRANCH   1  13
TORSDOF 8
ENDMDL
MODEL 5
REMARK VINA RESULT:    -4.168      1.920      4.121
REMARK INTER + INTRA:          -6.126
REMARK INTER:                  -5.673
REMARK INTRA:                  -0.453
REMARK UNBOUND:                -0.495
REMARK SMILES O=C[C@H](O)[C@H](O)[C@H](O)CO
REMARK SMILES IDX 7 1 9 2 10 3 5 5 3 6 2 7 1 8 4 9 6 11 8 13
REMARK H PARENT 10 4 4 10 6 12 8 14
REMARK Flexibility Score: inf
ROOT
ATOM      1  C   UNL     1      -0.915 -44.212 -18.967  1.00  0.00     0.171 C 
ENDROOT
BRANCH   1   2
ATOM      2  C   UNL     1      -1.696 -43.158 -19.775  1.00  0.00     0.190 C 
BRANCH   2   3
ATOM      3  O   UNL     1      -3.064 -43.462 -19.798  1.00  0.00    -0.394 OA
ATOM      4  H   UNL     1      -3.229 -44.053 -19.018  1.00  0.00     0.210 HD
ENDBRANCH   2   3
ENDBRANCH   1   2
BRANCH   1   5
ATOM      5  C   UNL     1      -0.282 -43.652 -17.663  1.00  0.00     0.181 C 
BRANCH   5   6
ATOM      6  C   UNL     1       1.163 -44.126 -17.377  1.00  0.00     0.209 C 
BRANCH   6   7
ATOM      7  C   UNL     1       1.423 -44.283 -15.902  1.00  0.00     0.258 C 
ATOM      8  O   UNL     1       1.242 -43.349 -15.138  1.00  0.00    -0.300 OA
ENDBRANCH   6   7
BRANCH   6   9
ATOM      9  O   UNL     1       2.060 -43.182 -17.901  1.00  0.00    -0.383 OA
ATOM     10  H   UNL     1       1.539 -42.354 -18.078  1.00  0.00     0.211 HD
ENDBRANCH   6   9
ENDBRANCH   5   6
BRANCH   5  11
ATOM     11  O   UNL     1      -1.101 -43.971 -16.566  1.00  0.00    -0.387 OA
ATOM     12  H   UNL     1      -1.571 -44.815 -16.790  1.00  0.00     0.211 HD
ENDBRANCH   5  11
ENDBRANCH   1   5
BRANCH   1  13
ATOM     13  O   UNL     1       0.062 -44.829 -19.766  1.00  0.00    -0.388 OA
ATOM     14  H   UNL     1      -0.378 -45.597 -20.218  1.00  0.00     0.211 HD
ENDBRANCH   1  13
TORSDOF 8
ENDMDL
MODEL 6
REMARK VINA RESULT:    -4.117     11.835     13.271
REMARK INTER + INTRA:          -6.056
REMARK INTER:                  -5.527
REMARK INTRA:                  -0.529
REMARK UNBOUND:                -0.495
REMARK SMILES O=C[C@H](O)[C@H](O)[C@H](O)CO
REMARK SMILES IDX 7 1 9 2 10 3 5 5 3 6 2 7 1 8 4 9 6 11 8 13
REMARK H PARENT 10 4 4 10 6 12 8 14
REMARK Flexibility Score: inf
ROOT
ATOM      1  C   UNL     1     -13.128 -39.720 -16.774  1.00  0.00     0.171 C 
ENDROOT
BRANCH   1   2
ATOM      2  C   UNL     1     -14.089 -40.811 -17.284  1.00  0.00     0.190 C 
BRANCH   2   3
ATOM      3  O   UNL     1     -13.438 -41.670 -18.178  1.00  0.00    -0.394 OA
ATOM      4  H   UNL     1     -12.522 -41.305 -18.294  1.00  0.00     0.210 HD
ENDBRANCH   2   3
ENDBRANCH   1   2
BRANCH   1   5
ATOM      5  C   UNL     1     -11.899 -40.284 -16.009  1.00  0.00     0.181 C 
BRANCH   5   6
ATOM      6  C   UNL     1     -10.573 -40.287 -16.806  1.00  0.00     0.209 C 
BRANCH   6   7
ATOM      7  C   UNL     1      -9.393 -40.631 -15.936  1.00  0.00     0.258 C 
ATOM      8  O   UNL     1      -9.244 -41.767 -15.515  1.00  0.00    -0.300 OA
ENDBRANCH   6   7
BRANCH   6   9
ATOM      9  O   UNL     1     -10.375 -39.012 -17.359  1.00  0.00    -0.383 OA
ATOM     10  H   UNL     1     -10.205 -38.391 -16.602  1.00  0.00     0.211 HD
ENDBRANCH   6   9
ENDBRANCH   5   6
BRANCH   5  11
ATOM     11  O   UNL     1     -12.177 -41.588 -15.565  1.00  0.00    -0.387 OA
ATOM     12  H   UNL     1     -12.608 -41.507 -14.675  1.00  0.00     0.211 HD
ENDBRANCH   5  11
ENDBRANCH   1   5
BRANCH   1  13
ATOM     13  O   UNL     1     -13.814 -38.781 -15.985  1.00  0.00    -0.388 OA
ATOM     14  H   UNL     1     -13.171 -38.455 -15.302  1.00  0.00     0.211 HD
ENDBRANCH   1  13
TORSDOF 8
ENDMDL
MODEL 7
REMARK VINA RESULT:    -4.027     14.466     15.757
REMARK INTER + INTRA:          -5.935
REMARK INTER:                  -5.207
REMARK INTRA:                  -0.728
REMARK UNBOUND:                -0.495
REMARK SMILES O=C[C@H](O)[C@H](O)[C@H](O)CO
REMARK SMILES IDX 7 1 9 2 10 3 5 5 3 6 2 7 1 8 4 9 6 11 8 13
REMARK H PARENT 10 4 4 10 6 12 8 14
REMARK Flexibility Score: inf
ROOT
ATOM      1  C   UNL     1     -15.691 -38.844 -16.545  1.00  0.00     0.171 C 
ENDROOT
BRANCH   1   2
ATOM      2  C   UNL     1     -16.732 -39.962 -16.343  1.00  0.00     0.190 C 
BRANCH   2   3
ATOM      3  O   UNL     1     -16.353 -40.811 -15.294  1.00  0.00    -0.394 OA
ATOM      4  H   UNL     1     -16.403 -41.734 -15.655  1.00  0.00     0.210 HD
ENDBRANCH   2   3
ENDBRANCH   1   2
BRANCH   1   5
ATOM      5  C   UNL     1     -14.558 -39.222 -17.539  1.00  0.00     0.181 C 
BRANCH   5   6
ATOM      6  C   UNL     1     -13.210 -39.608 -16.885  1.00  0.00     0.209 C 
BRANCH   6   7
ATOM      7  C   UNL     1     -12.143 -39.883 -17.911  1.00  0.00     0.258 C 
ATOM      8  O   UNL     1     -11.533 -38.964 -18.431  1.00  0.00    -0.300 OA
ENDBRANCH   6   7
BRANCH   6   9
ATOM      9  O   UNL     1     -13.401 -40.760 -16.105  1.00  0.00    -0.383 OA
ATOM     10  H   UNL     1     -12.513 -41.194 -16.007  1.00  0.00     0.211 HD
ENDBRANCH   6   9
ENDBRANCH   5   6
BRANCH   5  11
ATOM     11  O   UNL     1     -14.350 -38.165 -18.442  1.00  0.00    -0.387 OA
ATOM     12  H   UNL     1     -14.956 -38.317 -19.213  1.00  0.00     0.211 HD
ENDBRANCH   5  11
ENDBRANCH   1   5
BRANCH   1  13
ATOM     13  O   UNL     1     -15.152 -38.437 -15.313  1.00  0.00    -0.388 OA
ATOM     14  H   UNL     1     -15.604 -37.586 -15.069  1.00  0.00     0.211 HD
ENDBRANCH   1  13
TORSDOF 8
ENDMDL
MODEL 8
REMARK VINA RESULT:    -3.962      0.975      4.168
REMARK INTER + INTRA:          -5.847
REMARK INTER:                  -5.437
REMARK INTRA:                  -0.410
REMARK UNBOUND:                -0.495
REMARK SMILES O=C[C@H](O)[C@H](O)[C@H](O)CO
REMARK SMILES IDX 7 1 9 2 10 3 5 5 3 6 2 7 1 8 4 9 6 11 8 13
REMARK H PARENT 10 4 4 10 6 12 8 14
REMARK Flexibility Score: inf
ROOT
ATOM      1  C   UNL     1       0.155 -43.719 -16.635  1.00  0.00     0.171 C 
ENDROOT
BRANCH   1   2
ATOM      2  C   UNL     1       0.430 -43.071 -18.005  1.00  0.00     0.190 C 
BRANCH   2   3
ATOM      3  O   UNL     1       1.753 -42.618 -18.087  1.00  0.00    -0.394 OA
ATOM      4  H   UNL     1       2.117 -42.981 -18.936  1.00  0.00     0.210 HD
ENDBRANCH   2   3
ENDBRANCH   1   2
BRANCH   1   5
ATOM      5  C   UNL     1       0.813 -45.116 -16.466  1.00  0.00     0.181 C 
BRANCH   5   6
ATOM      6  C   UNL     1       1.478 -45.369 -15.092  1.00  0.00     0.209 C 
BRANCH   6   7
ATOM      7  C   UNL     1       0.596 -46.177 -14.178  1.00  0.00     0.258 C 
ATOM      8  O   UNL     1      -0.292 -45.638 -13.537  1.00  0.00    -0.300 OA
ENDBRANCH   6   7
BRANCH   6   9
ATOM      9  O   UNL     1       1.748 -44.131 -14.488  1.00  0.00    -0.383 OA
ATOM     10  H   UNL     1       2.001 -43.502 -15.214  1.00  0.00     0.211 HD
ENDBRANCH   6   9
ENDBRANCH   5   6
BRANCH   5  11
ATOM     11  O   UNL     1       1.760 -45.318 -17.485  1.00  0.00    -0.387 OA
ATOM     12  H   UNL     1       2.470 -44.635 -17.361  1.00  0.00     0.211 HD
ENDBRANCH   5  11
ENDBRANCH   1   5
BRANCH   1  13
ATOM     13  O   UNL     1      -1.226 -43.788 -16.384  1.00  0.00    -0.388 OA
ATOM     14  H   UNL     1      -1.469 -42.963 -15.887  1.00  0.00     0.211 HD
ENDBRANCH   1  13
TORSDOF 8
ENDMDL
MODEL 9
REMARK VINA RESULT:    -3.901     13.911     15.174
REMARK INTER + INTRA:          -5.765
REMARK INTER:                  -5.264
REMARK INTRA:                  -0.501
REMARK UNBOUND:                -0.495
REMARK SMILES O=C[C@H](O)[C@H](O)[C@H](O)CO
REMARK SMILES IDX 7 1 9 2 10 3 5 5 3 6 2 7 1 8 4 9 6 11 8 13
REMARK H PARENT 10 4 4 10 6 12 8 14
REMARK Flexibility Score: inf
ROOT
ATOM      1  C   UNL     1     -14.946 -39.089 -16.529  1.00  0.00     0.171 C 
ENDROOT
BRANCH   1   2
ATOM      2  C   UNL     1     -15.914 -40.285 -16.614  1.00  0.00     0.190 C 
BRANCH   2   3
ATOM      3  O   UNL     1     -16.239 -40.754 -15.334  1.00  0.00    -0.394 OA
ATOM      4  H   UNL     1     -15.873 -40.089 -14.695  1.00  0.00     0.210 HD
ENDBRANCH   2   3
ENDBRANCH   1   2
BRANCH   1   5
ATOM      5  C   UNL     1     -13.453 -39.486 -16.690  1.00  0.00     0.181 C 
BRANCH   5   6
ATOM      6  C   UNL     1     -12.933 -39.512 -18.147  1.00  0.00     0.209 C 
BRANCH   6   7
ATOM      7  C   UNL     1     -11.447 -39.278 -18.220  1.00  0.00     0.258 C 
ATOM      8  O   UNL     1     -10.694 -39.833 -17.436  1.00  0.00    -0.300 OA
ENDBRANCH   6   7
BRANCH   6   9
ATOM      9  O   UNL     1     -13.589 -38.510 -18.878  1.00  0.00    -0.383 OA
ATOM     10  H   UNL     1     -13.521 -38.759 -19.838  1.00  0.00     0.211 HD
ENDBRANCH   6   9
ENDBRANCH   5   6
BRANCH   5  11
ATOM     11  O   UNL     1     -13.231 -40.741 -16.096  1.00  0.00    -0.387 OA
ATOM     12  H   UNL     1     -12.848 -41.331 -16.796  1.00  0.00     0.211 HD
ENDBRANCH   5  11
ENDBRANCH   1   5
BRANCH   1  13
ATOM     13  O   UNL     1     -15.142 -38.374 -15.335  1.00  0.00    -0.388 OA
ATOM     14  H   UNL     1     -15.236 -39.046 -14.609  1.00  0.00     0.211 HD
ENDBRANCH   1  13
TORSDOF 8
ENDMDL
