MODEL 1
REMARK VINA RESULT:    -3.256      0.000      0.000
REMARK INTER + INTRA:          -3.686
REMARK INTER:                  -3.636
REMARK INTRA:                  -0.050
REMARK UNBOUND:                -0.050
REMARK SMILES CCCC(=O)[O-]
REMARK SMILES IDX 3 1 4 2 5 3 6 4 2 5 1 6
REMARK H PARENT
REMARK Flexibility Score: inf
ROOT
ATOM      1  C   UNL     1      27.418  34.305  30.953  1.00  0.00     0.052 C 
ENDROOT
BRANCH   1   2
ATOM      2  C   UNL     1      25.973  33.947  30.790  1.00  0.00     0.041 C 
ATOM      3  O   UNL     1      25.414  33.176  31.614  1.00  0.00    -0.550 OA
ATOM      4  O   UNL     1      25.252  34.437  29.708  1.00  0.00    -0.550 OA
ENDBRANCH   1   2
BRANCH   1   5
ATOM      5  C   UNL     1      27.717  34.842  32.357  1.00  0.00     0.003 C 
ATOM      6  C   UNL     1      26.925  36.110  32.677  1.00  0.00     0.004 C 
ENDBRANCH   1   5
TORSDOF 2
ENDMDL
MODEL 2
REMARK VINA RESULT:    -3.111      1.618      1.774
REMARK INTER + INTRA:          -3.524
REMARK INTER:                  -3.497
REMARK INTRA:                  -0.027
REMARK UNBOUND:                -0.050
REMARK SMILES CCCC(=O)[O-]
REMARK SMILES IDX 3 1 4 2 5 3 6 4 2 5 1 6
REMARK H PARENT
REMARK Flexibility Score: inf
ROOT
ATOM      1  C   UNL     1      26.754  35.534  32.151  1.00  0.00     0.052 C 
ENDROOT
BRANCH   1   2
ATOM      2  C   UNL     1      26.712  34.576  31.000  1.00  0.00     0.041 C 
ATOM      3  O   UNL     1      27.742  33.927  30.678  1.00  0.00    -0.550 OA
ATOM      4  O   UNL     1      25.545  34.426  30.262  1.00  0.00    -0.550 OA
ENDBRANCH   1   2
BRANCH   1   5
ATOM      5  C   UNL     1      27.417  34.912  33.386  1.00  0.00     0.003 C 
ATOM      6  C   UNL     1      26.395  34.447  34.423  1.00  0.00     0.004 C 
ENDBRANCH   1   5
TORSDOF 2
ENDMDL
MODEL 3
REMARK VINA RESULT:    -3.040      2.478      3.281
REMARK INTER + INTRA:          -3.445
REMARK INTER:                  -3.428
REMARK INTRA:                  -0.017
REMARK UNBOUND:                -0.050
REMARK SMILES CCCC(=O)[O-]
REMARK SMILES IDX 3 1 4 2 5 3 6 4 2 5 1 6
REMARK H PARENT
REMARK Flexibility Score: inf
ROOT
ATOM      1  C   UNL     1      27.113  35.434  32.293  1.00  0.00     0.052 C 
ENDROOT
BRANCH   1   2
ATOM      2  C   UNL     1      27.210  34.764  33.629  1.00  0.00     0.041 C 
ATOM      3  O   UNL     1      26.251  34.831  34.442  1.00  0.00    -0.550 OA
ATOM      4  O   UNL     1      28.373  34.096  33.990  1.00  0.00    -0.550 OA
ENDBRANCH   1   2
BRANCH   1   5
ATOM      5  C   UNL     1      27.160  34.421  31.143  1.00  0.00     0.003 C 
ATOM      6  C   UNL     1      25.845  34.359  30.366  1.00  0.00     0.004 C 
ENDBRANCH   1   5
TORSDOF 2
ENDMDL
MODEL 4
REMARK VINA RESULT:    -2.834      2.564      3.414
REMARK INTER + INTRA:          -3.215
REMARK INTER:                  -3.172
REMARK INTRA:                  -0.043
REMARK UNBOUND:                -0.050
REMARK SMILES CCCC(=O)[O-]
REMARK SMILES IDX 3 1 4 2 5 3 6 4 2 5 1 6
REMARK H PARENT
REMARK Flexibility Score: inf
ROOT
ATOM      1  C   UNL     1      27.228  34.417  33.990  1.00  0.00     0.052 C 
ENDROOT
BRANCH   1   2
ATOM      2  C   UNL     1      25.959  33.932  34.621  1.00  0.00     0.041 C 
ATOM      3  O   UNL     1      25.399  32.887  34.196  1.00  0.00    -0.550 OA
ATOM      4  O   UNL     1      25.376  34.653  35.656  1.00  0.00    -0.550 OA
ENDBRANCH   1   2
BRANCH   1   5
ATOM      5  C   UNL     1      26.975  35.580  33.024  1.00  0.00     0.003 C 
ATOM      6  C   UNL     1      26.655  35.102  31.607  1.00  0.00     0.004 C 
ENDBRANCH   1   5
TORSDOF 2
ENDMDL
MODEL 5
REMARK VINA RESULT:    -2.820      2.307      3.081
REMARK INTER + INTRA:          -3.199
REMARK INTER:                  -3.158
REMARK INTRA:                  -0.041
REMARK UNBOUND:                -0.050
REMARK SMILES CCCC(=O)[O-]
REMARK SMILES IDX 3 1 4 2 5 3 6 4 2 5 1 6
REMARK H PARENT
REMARK Flexibility Score: inf
ROOT
ATOM      1  C   UNL     1      26.399  34.019  32.130  1.00  0.00     0.052 C 
ENDROOT
BRANCH   1   2
ATOM      2  C   UNL     1      27.298  35.162  32.490  1.00  0.00     0.041 C 
ATOM      3  O   UNL     1      28.537  34.977  32.623  1.00  0.00    -0.550 OA
ATOM      4  O   UNL     1      26.764  36.425  32.712  1.00  0.00    -0.550 OA
ENDBRANCH   1   2
BRANCH   1   5
ATOM      5  C   UNL     1      26.394  33.751  30.621  1.00  0.00     0.003 C 
ATOM      6  C   UNL     1      25.263  34.487  29.903  1.00  0.00     0.004 C 
ENDBRANCH   1   5
TORSDOF 2
ENDMDL
MODEL 6
REMARK VINA RESULT:    -2.799      2.507      3.380
REMARK INTER + INTRA:          -3.176
REMARK INTER:                  -3.113
REMARK INTRA:                  -0.063
REMARK UNBOUND:                -0.050
REMARK SMILES CCCC(=O)[O-]
REMARK SMILES IDX 3 1 4 2 5 3 6 4 2 5 1 6
REMARK H PARENT
REMARK Flexibility Score: inf
ROOT
ATOM      1  C   UNL     1      26.666  35.325  33.622  1.00  0.00     0.052 C 
ENDROOT
BRANCH   1   2
ATOM      2  C   UNL     1      26.924  34.003  34.279  1.00  0.00     0.041 C 
ATOM      3  O   UNL     1      28.103  33.646  34.541  1.00  0.00    -0.550 OA
ATOM      4  O   UNL     1      25.866  33.152  34.569  1.00  0.00    -0.550 OA
ENDBRANCH   1   2
BRANCH   1   5
ATOM      5  C   UNL     1      27.347  35.423  32.252  1.00  0.00     0.003 C 
ATOM      6  C   UNL     1      26.613  34.621  31.178  1.00  0.00     0.004 C 
ENDBRANCH   1   5
TORSDOF 2
ENDMDL
MODEL 7
REMARK VINA RESULT:    -2.695      2.595      2.998
REMARK INTER + INTRA:          -3.060
REMARK INTER:                  -3.025
REMARK INTRA:                  -0.035
REMARK UNBOUND:                -0.050
REMARK SMILES CCCC(=O)[O-]
REMARK SMILES IDX 3 1 4 2 5 3 6 4 2 5 1 6
REMARK H PARENT
REMARK Flexibility Score: inf
ROOT
ATOM      1  C   UNL     1      27.550  34.363  33.667  1.00  0.00     0.052 C 
ENDROOT
BRANCH   1   2
ATOM      2  C   UNL     1      27.261  35.110  32.401  1.00  0.00     0.041 C 
ATOM      3  O   UNL     1      26.647  36.209  32.441  1.00  0.00    -0.550 OA
ATOM      4  O   UNL     1      27.640  34.577  31.176  1.00  0.00    -0.550 OA
ENDBRANCH   1   2
BRANCH   1   5
ATOM      5  C   UNL     1      26.340  34.347  34.608  1.00  0.00     0.003 C 
ATOM      6  C   UNL     1      25.511  33.070  34.469  1.00  0.00     0.004 C 
ENDBRANCH   1   5
TORSDOF 2
ENDMDL
MODEL 8
REMARK VINA RESULT:    -2.639      2.722      3.105
REMARK INTER + INTRA:          -2.997
REMARK INTER:                  -2.981
REMARK INTRA:                  -0.017
REMARK UNBOUND:                -0.050
REMARK SMILES CCCC(=O)[O-]
REMARK SMILES IDX 3 1 4 2 5 3 6 4 2 5 1 6
REMARK H PARENT
REMARK Flexibility Score: inf
ROOT
ATOM      1  C   UNL     1      27.398  34.076  33.554  1.00  0.00     0.052 C 
ENDROOT
BRANCH   1   2
ATOM      2  C   UNL     1      27.289  35.053  32.423  1.00  0.00     0.041 C 
ATOM      3  O   UNL     1      27.659  34.725  31.264  1.00  0.00    -0.550 OA
ATOM      4  O   UNL     1      26.813  36.337  32.655  1.00  0.00    -0.550 OA
ENDBRANCH   1   2
BRANCH   1   5
ATOM      5  C   UNL     1      26.291  34.284  34.593  1.00  0.00     0.003 C 
ATOM      6  C   UNL     1      25.362  33.074  34.704  1.00  0.00     0.004 C 
ENDBRANCH   1   5
TORSDOF 2
ENDMDL
MODEL 9
REMARK VINA RESULT:    -2.169      3.923      4.683
REMARK INTER + INTRA:          -2.473
REMARK INTER:                  -2.415
REMARK INTRA:                  -0.057
REMARK UNBOUND:                -0.050
REMARK SMILES CCCC(=O)[O-]
REMARK SMILES IDX 3 1 4 2 5 3 6 4 2 5 1 6
REMARK H PARENT
REMARK Flexibility Score: inf
ROOT
ATOM      1  C   UNL     1      27.508  34.100  34.006  1.00  0.00     0.052 C 
ENDROOT
BRANCH   1   2
ATOM      2  C   UNL     1      28.485  33.249  34.757  1.00  0.00     0.041 C 
ATOM      3  O   UNL     1      29.214  32.427  34.141  1.00  0.00    -0.550 OA
ATOM      4  O   UNL     1      28.566  33.338  36.141  1.00  0.00    -0.550 OA
ENDBRANCH   1   2
BRANCH   1   5
ATOM      5  C   UNL     1      26.178  34.238  34.756  1.00  0.00     0.003 C 
ATOM      6  C   UNL     1      25.312  32.983  34.641  1.00  0.00     0.004 C 
ENDBRANCH   1   5
TORSDOF 2
ENDMDL
