MODEL 1
REMARK VINA RESULT:    -3.734      0.000      0.000
REMARK INTER + INTRA:          -4.430
REMARK INTER:                  -4.279
REMARK INTRA:                  -0.151
REMARK UNBOUND:                -0.151
REMARK SMILES CC=Cc1ccc(O)c(OC)c1
REMARK SMILES IDX 4 1 12 2 9 3 7 4 6 5 5 6 3 7 1 8 2 9 10 10 11 11 8 12
REMARK H PARENT 8 13
REMARK Flexibility Score: inf
ROOT
ATOM      1  C   UNL     1     167.415 166.535 165.943  1.00  0.00    -0.022 A 
ATOM      2  C   UNL     1     167.667 166.643 167.321  1.00  0.00     0.058 A 
ATOM      3  C   UNL     1     168.976 166.842 167.803  1.00  0.00     0.161 A 
ATOM      4  C   UNL     1     170.038 166.922 166.893  1.00  0.00     0.157 A 
ATOM      5  C   UNL     1     169.796 166.800 165.520  1.00  0.00     0.051 A 
ATOM      6  C   UNL     1     168.498 166.603 165.046  1.00  0.00     0.012 A 
ENDROOT
BRANCH   1   7
ATOM      7  C   UNL     1     166.018 166.316 165.491  1.00  0.00     0.003 C 
ATOM      8  C   UNL     1     164.048 164.971 164.875  1.00  0.00     0.035 C 
ATOM      9  C   UNL     1     165.459 165.108 165.351  1.00  0.00    -0.030 C 
ENDBRANCH   1   7
BRANCH   3  10
ATOM     10  O   UNL     1     169.259 166.964 169.172  1.00  0.00    -0.493 OA
ATOM     11  C   UNL     1     168.331 166.687 170.217  1.00  0.00     0.278 C 
ENDBRANCH   3  10
BRANCH   4  12
ATOM     12  O   UNL     1     171.335 167.120 167.364  1.00  0.00    -0.504 OA
ATOM     13  H   UNL     1     171.757 166.492 168.037  1.00  0.00     0.293 HD
ENDBRANCH   4  12
TORSDOF 3
ENDMDL
MODEL 2
REMARK VINA RESULT:    -3.664      3.716      5.276
REMARK INTER + INTRA:          -4.350
REMARK INTER:                  -4.196
REMARK INTRA:                  -0.154
REMARK UNBOUND:                -0.151
REMARK SMILES CC=Cc1ccc(O)c(OC)c1
REMARK SMILES IDX 4 1 12 2 9 3 7 4 6 5 5 6 3 7 1 8 2 9 10 10 11 11 8 12
REMARK H PARENT 8 13
REMARK Flexibility Score: inf
ROOT
ATOM      1  C   UNL     1     165.619 164.893 168.491  1.00  0.00    -0.022 A 
ATOM      2  C   UNL     1     164.981 164.435 167.327  1.00  0.00     0.058 A 
ATOM      3  C   UNL     1     165.095 165.141 166.113  1.00  0.00     0.161 A 
ATOM      4  C   UNL     1     165.850 166.322 166.074  1.00  0.00     0.157 A 
ATOM      5  C   UNL     1     166.476 166.792 167.234  1.00  0.00     0.051 A 
ATOM      6  C   UNL     1     166.360 166.089 168.435  1.00  0.00     0.012 A 
ENDROOT
BRANCH   1   7
ATOM      7  C   UNL     1     165.456 164.115 169.744  1.00  0.00     0.003 C 
ATOM      8  C   UNL     1     165.308 162.067 171.106  1.00  0.00     0.035 C 
ATOM      9  C   UNL     1     165.497 162.779 169.805  1.00  0.00    -0.030 C 
ENDBRANCH   1   7
BRANCH   3  10
ATOM     10  O   UNL     1     164.478 164.704 164.931  1.00  0.00    -0.493 OA
ATOM     11  C   UNL     1     163.241 164.000 164.878  1.00  0.00     0.278 C 
ENDBRANCH   3  10
BRANCH   4  12
ATOM     12  O   UNL     1     165.968 167.025 164.877  1.00  0.00    -0.504 OA
ATOM     13  H   UNL     1     166.296 166.577 164.029  1.00  0.00     0.293 HD
ENDBRANCH   4  12
TORSDOF 3
ENDMDL
MODEL 3
REMARK VINA RESULT:    -3.649      3.183      5.248
REMARK INTER + INTRA:          -4.333
REMARK INTER:                  -4.182
REMARK INTRA:                  -0.151
REMARK UNBOUND:                -0.151
REMARK SMILES CC=Cc1ccc(O)c(OC)c1
REMARK SMILES IDX 4 1 12 2 9 3 7 4 6 5 5 6 3 7 1 8 2 9 10 10 11 11 8 12
REMARK H PARENT 8 13
REMARK Flexibility Score: inf
ROOT
ATOM      1  C   UNL     1     165.706 166.431 168.604  1.00  0.00    -0.022 A 
ATOM      2  C   UNL     1     166.310 166.830 167.400  1.00  0.00     0.058 A 
ATOM      3  C   UNL     1     166.130 166.084 166.219  1.00  0.00     0.161 A 
ATOM      4  C   UNL     1     165.345 164.923 166.252  1.00  0.00     0.157 A 
ATOM      5  C   UNL     1     164.753 164.511 167.452  1.00  0.00     0.051 A 
ATOM      6  C   UNL     1     164.934 165.254 168.620  1.00  0.00     0.012 A 
ENDROOT
BRANCH   1   7
ATOM      7  C   UNL     1     165.938 167.249 169.821  1.00  0.00     0.003 C 
ATOM      8  C   UNL     1     165.952 169.316 171.161  1.00  0.00     0.035 C 
ATOM      9  C   UNL     1     165.675 168.559 169.902  1.00  0.00    -0.030 C 
ENDBRANCH   1   7
BRANCH   3  10
ATOM     10  O   UNL     1     166.711 166.462 164.998  1.00  0.00    -0.493 OA
ATOM     11  C   UNL     1     167.917 167.209 164.875  1.00  0.00     0.278 C 
ENDBRANCH   3  10
BRANCH   4  12
ATOM     12  O   UNL     1     165.162 164.181 165.087  1.00  0.00    -0.504 OA
ATOM     13  H   UNL     1     165.720 163.359 164.888  1.00  0.00     0.293 HD
ENDBRANCH   4  12
TORSDOF 3
ENDMDL
MODEL 4
REMARK VINA RESULT:    -3.602      6.198      9.001
REMARK INTER + INTRA:          -4.279
REMARK INTER:                  -4.123
REMARK INTRA:                  -0.155
REMARK UNBOUND:                -0.151
REMARK SMILES CC=Cc1ccc(O)c(OC)c1
REMARK SMILES IDX 4 1 12 2 9 3 7 4 6 5 5 6 3 7 1 8 2 9 10 10 11 11 8 12
REMARK H PARENT 8 13
REMARK Flexibility Score: inf
ROOT
ATOM      1  C   UNL     1     161.289 164.312 165.972  1.00  0.00    -0.022 A 
ATOM      2  C   UNL     1     160.825 163.841 167.211  1.00  0.00     0.058 A 
ATOM      3  C   UNL     1     159.455 163.889 167.536  1.00  0.00     0.161 A 
ATOM      4  C   UNL     1     158.548 164.422 166.610  1.00  0.00     0.157 A 
ATOM      5  C   UNL     1     159.006 164.907 165.380  1.00  0.00     0.051 A 
ATOM      6  C   UNL     1     160.364 164.858 165.062  1.00  0.00     0.012 A 
ENDROOT
BRANCH   1   7
ATOM      7  C   UNL     1     162.745 164.247 165.687  1.00  0.00     0.003 C 
ATOM      8  C   UNL     1     165.142 164.440 166.220  1.00  0.00     0.035 C 
ATOM      9  C   UNL     1     163.695 164.512 166.591  1.00  0.00    -0.030 C 
ENDBRANCH   1   7
BRANCH   3  10
ATOM     10  O   UNL     1     158.958 163.417 168.761  1.00  0.00    -0.493 OA
ATOM     11  C   UNL     1     159.468 162.284 169.456  1.00  0.00     0.278 C 
ENDBRANCH   3  10
BRANCH   4  12
ATOM     12  O   UNL     1     157.191 164.471 166.924  1.00  0.00    -0.504 OA
ATOM     13  H   UNL     1     156.785 165.268 167.399  1.00  0.00     0.293 HD
ENDBRANCH   4  12
TORSDOF 3
ENDMDL
MODEL 5
REMARK VINA RESULT:    -3.501     10.126     10.677
REMARK INTER + INTRA:          -4.163
REMARK INTER:                  -3.991
REMARK INTRA:                  -0.171
REMARK UNBOUND:                -0.151
REMARK SMILES CC=Cc1ccc(O)c(OC)c1
REMARK SMILES IDX 4 1 12 2 9 3 7 4 6 5 5 6 3 7 1 8 2 9 10 10 11 11 8 12
REMARK H PARENT 8 13
REMARK Flexibility Score: inf
ROOT
ATOM      1  C   UNL     1     160.806 175.411 167.491  1.00  0.00    -0.022 A 
ATOM      2  C   UNL     1     161.289 174.563 168.500  1.00  0.00     0.058 A 
ATOM      3  C   UNL     1     162.632 174.136 168.505  1.00  0.00     0.161 A 
ATOM      4  C   UNL     1     163.490 174.558 167.481  1.00  0.00     0.157 A 
ATOM      5  C   UNL     1     163.011 175.391 166.463  1.00  0.00     0.051 A 
ATOM      6  C   UNL     1     161.680 175.812 166.462  1.00  0.00     0.012 A 
ENDROOT
BRANCH   1   7
ATOM      7  C   UNL     1     159.380 175.821 167.530  1.00  0.00     0.003 C 
ATOM      8  C   UNL     1     156.960 175.483 167.842  1.00  0.00     0.035 C 
ATOM      9  C   UNL     1     158.373 174.996 167.840  1.00  0.00    -0.030 C 
ENDBRANCH   1   7
BRANCH   3  10
ATOM     10  O   UNL     1     163.149 173.297 169.505  1.00  0.00    -0.493 OA
ATOM     11  C   UNL     1     162.884 171.901 169.603  1.00  0.00     0.278 C 
ENDBRANCH   3  10
BRANCH   4  12
ATOM     12  O   UNL     1     164.820 174.141 167.480  1.00  0.00    -0.504 OA
ATOM     13  H   UNL     1     165.070 173.164 167.578  1.00  0.00     0.293 HD
ENDBRANCH   4  12
TORSDOF 3
ENDMDL
MODEL 6
REMARK VINA RESULT:    -3.475      2.243      3.884
REMARK INTER + INTRA:          -4.134
REMARK INTER:                  -3.973
REMARK INTRA:                  -0.161
REMARK UNBOUND:                -0.151
REMARK SMILES CC=Cc1ccc(O)c(OC)c1
REMARK SMILES IDX 4 1 12 2 9 3 7 4 6 5 5 6 3 7 1 8 2 9 10 10 11 11 8 12
REMARK H PARENT 8 13
REMARK Flexibility Score: inf
ROOT
ATOM      1  C   UNL     1     164.654 165.088 167.031  1.00  0.00    -0.022 A 
ATOM      2  C   UNL     1     165.611 165.789 166.278  1.00  0.00     0.058 A 
ATOM      3  C   UNL     1     166.737 166.365 166.898  1.00  0.00     0.161 A 
ATOM      4  C   UNL     1     166.895 166.243 168.285  1.00  0.00     0.157 A 
ATOM      5  C   UNL     1     165.938 165.560 169.043  1.00  0.00     0.051 A 
ATOM      6  C   UNL     1     164.823 164.990 168.425  1.00  0.00     0.012 A 
ENDROOT
BRANCH   1   7
ATOM      7  C   UNL     1     163.481 164.510 166.327  1.00  0.00     0.003 C 
ATOM      8  C   UNL     1     161.106 163.922 166.044  1.00  0.00     0.035 C 
ATOM      9  C   UNL     1     162.232 164.541 166.807  1.00  0.00    -0.030 C 
ENDBRANCH   1   7
BRANCH   3  10
ATOM     10  O   UNL     1     167.716 167.062 166.173  1.00  0.00    -0.493 OA
ATOM     11  C   UNL     1     167.519 167.616 164.876  1.00  0.00     0.278 C 
ENDBRANCH   3  10
BRANCH   4  12
ATOM     12  O   UNL     1     168.008 166.810 168.904  1.00  0.00    -0.504 OA
ATOM     13  H   UNL     1     167.954 167.202 169.837  1.00  0.00     0.293 HD
ENDBRANCH   4  12
TORSDOF 3
ENDMDL
MODEL 7
REMARK VINA RESULT:    -3.472      2.435      3.610
REMARK INTER + INTRA:          -4.130
REMARK INTER:                  -3.978
REMARK INTRA:                  -0.152
REMARK UNBOUND:                -0.151
REMARK SMILES CC=Cc1ccc(O)c(OC)c1
REMARK SMILES IDX 4 1 12 2 9 3 7 4 6 5 5 6 3 7 1 8 2 9 10 10 11 11 8 12
REMARK H PARENT 8 13
REMARK Flexibility Score: inf
ROOT
ATOM      1  C   UNL     1     164.111 164.861 166.045  1.00  0.00    -0.022 A 
ATOM      2  C   UNL     1     164.683 165.158 167.293  1.00  0.00     0.058 A 
ATOM      3  C   UNL     1     165.937 165.793 167.381  1.00  0.00     0.161 A 
ATOM      4  C   UNL     1     166.624 166.122 166.205  1.00  0.00     0.157 A 
ATOM      5  C   UNL     1     166.067 165.816 164.958  1.00  0.00     0.051 A 
ATOM      6  C   UNL     1     164.823 165.187 164.875  1.00  0.00     0.012 A 
ENDROOT
BRANCH   1   7
ATOM      7  C   UNL     1     162.791 164.182 166.012  1.00  0.00     0.003 C 
ATOM      8  C   UNL     1     160.475 163.751 166.732  1.00  0.00     0.035 C 
ATOM      9  C   UNL     1     161.769 164.494 166.818  1.00  0.00    -0.030 C 
ENDBRANCH   1   7
BRANCH   3  10
ATOM     10  O   UNL     1     166.531 166.112 168.612  1.00  0.00    -0.493 OA
ATOM     11  C   UNL     1     165.813 166.340 169.820  1.00  0.00     0.278 C 
ENDBRANCH   3  10
BRANCH   4  12
ATOM     12  O   UNL     1     167.865 166.752 166.284  1.00  0.00    -0.504 OA
ATOM     13  H   UNL     1     168.596 166.408 166.896  1.00  0.00     0.293 HD
ENDBRANCH   4  12
TORSDOF 3
ENDMDL
MODEL 8
REMARK VINA RESULT:    -3.460      3.281      4.456
REMARK INTER + INTRA:          -4.116
REMARK INTER:                  -3.935
REMARK INTRA:                  -0.181
REMARK UNBOUND:                -0.151
REMARK SMILES CC=Cc1ccc(O)c(OC)c1
REMARK SMILES IDX 4 1 12 2 9 3 7 4 6 5 5 6 3 7 1 8 2 9 10 10 11 11 8 12
REMARK H PARENT 8 13
REMARK Flexibility Score: inf
ROOT
ATOM      1  C   UNL     1     165.824 166.158 167.595  1.00  0.00    -0.022 A 
ATOM      2  C   UNL     1     166.023 166.157 168.985  1.00  0.00     0.058 A 
ATOM      3  C   UNL     1     165.783 164.998 169.750  1.00  0.00     0.161 A 
ATOM      4  C   UNL     1     165.331 163.836 169.111  1.00  0.00     0.157 A 
ATOM      5  C   UNL     1     165.115 163.834 167.728  1.00  0.00     0.051 A 
ATOM      6  C   UNL     1     165.354 164.985 166.974  1.00  0.00     0.012 A 
ENDROOT
BRANCH   1   7
ATOM      7  C   UNL     1     166.082 167.410 166.841  1.00  0.00     0.003 C 
ATOM      8  C   UNL     1     166.737 168.749 164.880  1.00  0.00     0.035 C 
ATOM      9  C   UNL     1     166.483 167.445 165.565  1.00  0.00    -0.030 C 
ENDBRANCH   1   7
BRANCH   3  10
ATOM     10  O   UNL     1     165.983 164.961 171.138  1.00  0.00    -0.493 OA
ATOM     11  C   UNL     1     167.257 164.879 171.769  1.00  0.00     0.278 C 
ENDBRANCH   3  10
BRANCH   4  12
ATOM     12  O   UNL     1     165.093 162.685 169.861  1.00  0.00    -0.504 OA
ATOM     13  H   UNL     1     164.535 161.921 169.497  1.00  0.00     0.293 HD
ENDBRANCH   4  12
TORSDOF 3
ENDMDL
MODEL 9
REMARK VINA RESULT:    -3.414      3.224      4.013
REMARK INTER + INTRA:          -4.063
REMARK INTER:                  -3.897
REMARK INTRA:                  -0.166
REMARK UNBOUND:                -0.151
REMARK SMILES CC=Cc1ccc(O)c(OC)c1
REMARK SMILES IDX 4 1 12 2 9 3 7 4 6 5 5 6 3 7 1 8 2 9 10 10 11 11 8 12
REMARK H PARENT 8 13
REMARK Flexibility Score: inf
ROOT
ATOM      1  C   UNL     1     165.379 164.912 167.617  1.00  0.00    -0.022 A 
ATOM      2  C   UNL     1     165.110 164.924 168.996  1.00  0.00     0.058 A 
ATOM      3  C   UNL     1     165.327 166.085 169.765  1.00  0.00     0.161 A 
ATOM      4  C   UNL     1     165.828 167.237 169.144  1.00  0.00     0.157 A 
ATOM      5  C   UNL     1     166.113 167.227 167.773  1.00  0.00     0.051 A 
ATOM      6  C   UNL     1     165.896 166.075 167.015  1.00  0.00     0.012 A 
ENDROOT
BRANCH   1   7
ATOM      7  C   UNL     1     165.142 163.659 166.858  1.00  0.00     0.003 C 
ATOM      8  C   UNL     1     164.559 162.319 164.875  1.00  0.00     0.035 C 
ATOM      9  C   UNL     1     164.796 163.623 165.565  1.00  0.00    -0.030 C 
ENDBRANCH   1   7
BRANCH   3  10
ATOM     10  O   UNL     1     165.059 166.132 171.142  1.00  0.00    -0.493 OA
ATOM     11  C   UNL     1     163.940 165.511 171.768  1.00  0.00     0.278 C 
ENDBRANCH   3  10
BRANCH   4  12
ATOM     12  O   UNL     1     166.044 168.388 169.898  1.00  0.00    -0.504 OA
ATOM     13  H   UNL     1     166.928 168.883 169.869  1.00  0.00     0.293 HD
ENDBRANCH   4  12
TORSDOF 3
ENDMDL
