MODEL 1
REMARK VINA RESULT:    -6.277      0.000      0.000
REMARK INTER + INTRA:          -8.564
REMARK INTER:                  -7.928
REMARK INTRA:                  -0.636
REMARK UNBOUND:                -0.636
REMARK SMILES O=C(C=Cc1ccc(O)cc1)c1ccc(O)cc1O
REMARK SMILES IDX 4 1 3 2 5 3 6 4 7 5 8 6 11 7 10 8 9 9 2 11 1 12 12 13 18 14
REMARK SMILES IDX 13 15 17 16 14 17 15 18 19 19 16 21
REMARK H PARENT 9 10 19 20 16 22
REMARK Flexibility Score: inf
ROOT
ATOM      1  C   UNL     1      25.855 -11.030   8.610  1.00  0.00     0.012 C 
ATOM      2  C   UNL     1      27.110 -10.616   8.838  1.00  0.00     0.053 C 
ENDROOT
BRANCH   1   3
ATOM      3  C   UNL     1      25.440 -11.766   7.390  1.00  0.00    -0.025 A 
ATOM      4  C   UNL     1      24.086 -11.991   7.064  1.00  0.00     0.012 A 
ATOM      5  C   UNL     1      23.746 -12.680   5.897  1.00  0.00     0.047 A 
ATOM      6  C   UNL     1      24.743 -13.146   5.036  1.00  0.00     0.115 A 
ATOM      7  C   UNL     1      26.434 -12.225   6.509  1.00  0.00     0.012 A 
ATOM      8  C   UNL     1      26.089 -12.915   5.344  1.00  0.00     0.047 A 
BRANCH   6   9
ATOM      9  O   UNL     1      24.387 -13.833   3.877  1.00  0.00    -0.508 OA
ATOM     10  H   UNL     1      23.648 -14.527   3.880  1.00  0.00     0.293 HD
ENDBRANCH   6   9
ENDBRANCH   1   3
BRANCH   2  11
ATOM     11  C   UNL     1      27.484  -9.870  10.059  1.00  0.00     0.189 C 
ATOM     12  O   UNL     1      27.571 -10.469  11.167  1.00  0.00    -0.289 OA
BRANCH  11  13
ATOM     13  C   UNL     1      27.791  -8.425   9.987  1.00  0.00     0.064 A 
ATOM     14  C   UNL     1      27.039  -7.463  10.707  1.00  0.00     0.130 A 
ATOM     15  C   UNL     1      28.885  -7.996   9.215  1.00  0.00     0.020 A 
ATOM     16  C   UNL     1      27.415  -6.115  10.665  1.00  0.00     0.093 A 
ATOM     17  C   UNL     1      29.240  -6.646   9.170  1.00  0.00     0.047 A 
ATOM     18  C   UNL     1      28.511  -5.704   9.897  1.00  0.00     0.119 A 
BRANCH  14  19
ATOM     19  O   UNL     1      25.904  -7.804  11.447  1.00  0.00    -0.507 OA
ATOM     20  H   UNL     1      25.355  -7.128  11.963  1.00  0.00     0.293 HD
ENDBRANCH  14  19
BRANCH  18  21
ATOM     21  O   UNL     1      28.881  -4.361   9.849  1.00  0.00    -0.508 OA
ATOM     22  H   UNL     1      29.509  -4.009   9.137  1.00  0.00     0.293 HD
ENDBRANCH  18  21
ENDBRANCH  11  13
ENDBRANCH   2  11
TORSDOF 6
ENDMDL
MODEL 2
REMARK VINA RESULT:    -6.270      0.131      1.118
REMARK INTER + INTRA:          -8.556
REMARK INTER:                  -7.902
REMARK INTRA:                  -0.654
REMARK UNBOUND:                -0.636
REMARK SMILES O=C(C=Cc1ccc(O)cc1)c1ccc(O)cc1O
REMARK SMILES IDX 4 1 3 2 5 3 6 4 7 5 8 6 11 7 10 8 9 9 2 11 1 12 12 13 18 14
REMARK SMILES IDX 13 15 17 16 14 17 15 18 19 19 16 21
REMARK H PARENT 9 10 19 20 16 22
REMARK Flexibility Score: inf
ROOT
ATOM      1  C   UNL     1      25.870 -10.902   8.530  1.00  0.00     0.012 C 
ATOM      2  C   UNL     1      27.126 -10.744   8.971  1.00  0.00     0.053 C 
ENDROOT
BRANCH   1   3
ATOM      3  C   UNL     1      25.517 -11.666   7.308  1.00  0.00    -0.025 A 
ATOM      4  C   UNL     1      26.491 -12.240   6.464  1.00  0.00     0.012 A 
ATOM      5  C   UNL     1      26.107 -12.961   5.330  1.00  0.00     0.047 A 
ATOM      6  C   UNL     1      24.753 -13.130   5.025  1.00  0.00     0.115 A 
ATOM      7  C   UNL     1      24.159 -11.856   7.001  1.00  0.00     0.012 A 
ATOM      8  C   UNL     1      23.779 -12.576   5.865  1.00  0.00     0.047 A 
BRANCH   6   9
ATOM      9  O   UNL     1      24.388 -13.850   3.890  1.00  0.00    -0.508 OA
ATOM     10  H   UNL     1      24.510 -13.468   2.960  1.00  0.00     0.293 HD
ENDBRANCH   6   9
ENDBRANCH   1   3
BRANCH   2  11
ATOM     11  C   UNL     1      27.441  -9.963  10.187  1.00  0.00     0.189 C 
ATOM     12  O   UNL     1      27.482 -10.530  11.313  1.00  0.00    -0.289 OA
BRANCH  11  13
ATOM     13  C   UNL     1      27.744  -8.517  10.088  1.00  0.00     0.064 A 
ATOM     14  C   UNL     1      26.972  -7.543  10.769  1.00  0.00     0.130 A 
ATOM     15  C   UNL     1      28.853  -8.101   9.329  1.00  0.00     0.020 A 
ATOM     16  C   UNL     1      27.344  -6.195  10.704  1.00  0.00     0.093 A 
ATOM     17  C   UNL     1      29.202  -6.751   9.260  1.00  0.00     0.047 A 
ATOM     18  C   UNL     1      28.454  -5.796   9.950  1.00  0.00     0.119 A 
BRANCH  14  19
ATOM     19  O   UNL     1      25.823  -7.872  11.492  1.00  0.00    -0.507 OA
ATOM     20  H   UNL     1      24.941  -7.388  11.381  1.00  0.00     0.293 HD
ENDBRANCH  14  19
BRANCH  18  21
ATOM     21  O   UNL     1      28.819  -4.453   9.879  1.00  0.00    -0.508 OA
ATOM     22  H   UNL     1      28.272  -3.730  10.331  1.00  0.00     0.293 HD
ENDBRANCH  18  21
ENDBRANCH  11  13
ENDBRANCH   2  11
TORSDOF 6
ENDMDL
MODEL 3
REMARK VINA RESULT:    -6.178      1.409      1.750
REMARK INTER + INTRA:          -8.440
REMARK INTER:                  -7.801
REMARK INTRA:                  -0.639
REMARK UNBOUND:                -0.636
REMARK SMILES O=C(C=Cc1ccc(O)cc1)c1ccc(O)cc1O
REMARK SMILES IDX 4 1 3 2 5 3 6 4 7 5 8 6 11 7 10 8 9 9 2 11 1 12 12 13 18 14
REMARK SMILES IDX 13 15 17 16 14 17 15 18 19 19 16 21
REMARK H PARENT 9 10 19 20 16 22
REMARK Flexibility Score: inf
ROOT
ATOM      1  C   UNL     1      26.747 -11.423   8.394  1.00  0.00     0.012 C 
ATOM      2  C   UNL     1      27.692 -10.826   9.136  1.00  0.00     0.053 C 
ENDROOT
BRANCH   1   3
ATOM      3  C   UNL     1      27.042 -12.350   7.274  1.00  0.00    -0.025 A 
ATOM      4  C   UNL     1      26.375 -12.278   6.034  1.00  0.00     0.012 A 
ATOM      5  C   UNL     1      26.697 -13.168   5.005  1.00  0.00     0.047 A 
ATOM      6  C   UNL     1      27.692 -14.132   5.192  1.00  0.00     0.115 A 
ATOM      7  C   UNL     1      28.052 -13.313   7.445  1.00  0.00     0.012 A 
ATOM      8  C   UNL     1      28.370 -14.201   6.414  1.00  0.00     0.047 A 
BRANCH   6   9
ATOM      9  O   UNL     1      28.000 -15.012   4.156  1.00  0.00    -0.508 OA
ATOM     10  H   UNL     1      28.140 -14.684   3.208  1.00  0.00     0.293 HD
ENDBRANCH   6   9
ENDBRANCH   1   3
BRANCH   2  11
ATOM     11  C   UNL     1      27.360  -9.895  10.235  1.00  0.00     0.189 C 
ATOM     12  O   UNL     1      26.810 -10.325  11.286  1.00  0.00    -0.289 OA
BRANCH  11  13
ATOM     13  C   UNL     1      27.699  -8.459  10.126  1.00  0.00     0.064 A 
ATOM     14  C   UNL     1      26.956  -7.461  10.804  1.00  0.00     0.130 A 
ATOM     15  C   UNL     1      28.815  -8.076   9.360  1.00  0.00     0.020 A 
ATOM     16  C   UNL     1      27.361  -6.123  10.728  1.00  0.00     0.093 A 
ATOM     17  C   UNL     1      29.199  -6.736   9.281  1.00  0.00     0.047 A 
ATOM     18  C   UNL     1      28.478  -5.757   9.968  1.00  0.00     0.119 A 
BRANCH  14  19
ATOM     19  O   UNL     1      25.801  -7.756  11.533  1.00  0.00    -0.507 OA
ATOM     20  H   UNL     1      25.564  -8.689  11.843  1.00  0.00     0.293 HD
ENDBRANCH  14  19
BRANCH  18  21
ATOM     21  O   UNL     1      28.877  -4.425   9.887  1.00  0.00    -0.508 OA
ATOM     22  H   UNL     1      29.049  -3.871  10.718  1.00  0.00     0.293 HD
ENDBRANCH  18  21
ENDBRANCH  11  13
ENDBRANCH   2  11
TORSDOF 6
ENDMDL
MODEL 4
REMARK VINA RESULT:    -6.120      1.540      7.091
REMARK INTER + INTRA:          -8.366
REMARK INTER:                  -7.797
REMARK INTRA:                  -0.569
REMARK UNBOUND:                -0.636
REMARK SMILES O=C(C=Cc1ccc(O)cc1)c1ccc(O)cc1O
REMARK SMILES IDX 4 1 3 2 5 3 6 4 7 5 8 6 11 7 10 8 9 9 2 11 1 12 12 13 18 14
REMARK SMILES IDX 13 15 17 16 14 17 15 18 19 19 16 21
REMARK H PARENT 9 10 19 20 16 22
REMARK Flexibility Score: inf
ROOT
ATOM      1  C   UNL     1      27.764  -9.292   9.170  1.00  0.00     0.012 C 
ATOM      2  C   UNL     1      26.800 -10.005   9.770  1.00  0.00     0.053 C 
ENDROOT
BRANCH   1   3
ATOM      3  C   UNL     1      28.051  -7.870   9.478  1.00  0.00    -0.025 A 
ATOM      4  C   UNL     1      27.552  -7.228  10.631  1.00  0.00     0.012 A 
ATOM      5  C   UNL     1      27.860  -5.888  10.883  1.00  0.00     0.047 A 
ATOM      6  C   UNL     1      28.674  -5.173  10.000  1.00  0.00     0.115 A 
ATOM      7  C   UNL     1      28.881  -7.146   8.605  1.00  0.00     0.012 A 
ATOM      8  C   UNL     1      29.186  -5.806   8.860  1.00  0.00     0.047 A 
BRANCH   6   9
ATOM      9  O   UNL     1      28.971  -3.838  10.265  1.00  0.00    -0.508 OA
ATOM     10  H   UNL     1      29.584  -3.574  11.027  1.00  0.00     0.293 HD
ENDBRANCH   6   9
ENDBRANCH   1   3
BRANCH   2  11
ATOM     11  C   UNL     1      26.533 -11.418   9.426  1.00  0.00     0.189 C 
ATOM     12  O   UNL     1      26.444 -12.287  10.337  1.00  0.00    -0.289 OA
BRANCH  11  13
ATOM     13  C   UNL     1      26.335 -11.819   8.016  1.00  0.00     0.064 A 
ATOM     14  C   UNL     1      25.125 -11.557   7.326  1.00  0.00     0.130 A 
ATOM     15  C   UNL     1      27.392 -12.441   7.327  1.00  0.00     0.020 A 
ATOM     16  C   UNL     1      25.014 -11.890   5.971  1.00  0.00     0.093 A 
ATOM     17  C   UNL     1      27.262 -12.781   5.979  1.00  0.00     0.047 A 
ATOM     18  C   UNL     1      26.077 -12.502   5.296  1.00  0.00     0.119 A 
BRANCH  14  19
ATOM     19  O   UNL     1      24.011 -10.999   7.958  1.00  0.00    -0.507 OA
ATOM     20  H   UNL     1      23.462 -10.251   7.554  1.00  0.00     0.293 HD
ENDBRANCH  14  19
BRANCH  18  21
ATOM     21  O   UNL     1      25.963 -12.840   3.949  1.00  0.00    -0.508 OA
ATOM     22  H   UNL     1      26.634 -13.449   3.497  1.00  0.00     0.293 HD
ENDBRANCH  18  21
ENDBRANCH  11  13
ENDBRANCH   2  11
TORSDOF 6
ENDMDL
MODEL 5
REMARK VINA RESULT:    -6.110      1.528      7.306
REMARK INTER + INTRA:          -8.353
REMARK INTER:                  -7.661
REMARK INTRA:                  -0.692
REMARK UNBOUND:                -0.636
REMARK SMILES O=C(C=Cc1ccc(O)cc1)c1ccc(O)cc1O
REMARK SMILES IDX 4 1 3 2 5 3 6 4 7 5 8 6 11 7 10 8 9 9 2 11 1 12 12 13 18 14
REMARK SMILES IDX 13 15 17 16 14 17 15 18 19 19 16 21
REMARK H PARENT 9 10 19 20 16 22
REMARK Flexibility Score: inf
ROOT
ATOM      1  C   UNL     1      27.910  -9.251   9.117  1.00  0.00     0.012 C 
ATOM      2  C   UNL     1      26.881  -9.959   9.604  1.00  0.00     0.053 C 
ENDROOT
BRANCH   1   3
ATOM      3  C   UNL     1      28.154  -7.824   9.439  1.00  0.00    -0.025 A 
ATOM      4  C   UNL     1      27.674  -7.220  10.621  1.00  0.00     0.012 A 
ATOM      5  C   UNL     1      27.940  -5.874  10.885  1.00  0.00     0.047 A 
ATOM      6  C   UNL     1      28.694  -5.114   9.986  1.00  0.00     0.115 A 
ATOM      7  C   UNL     1      28.924  -7.054   8.550  1.00  0.00     0.012 A 
ATOM      8  C   UNL     1      29.186  -5.708   8.818  1.00  0.00     0.047 A 
BRANCH   6   9
ATOM      9  O   UNL     1      28.948  -3.772  10.264  1.00  0.00    -0.508 OA
ATOM     10  H   UNL     1      29.858  -3.360  10.092  1.00  0.00     0.293 HD
ENDBRANCH   6   9
ENDBRANCH   1   3
BRANCH   2  11
ATOM     11  C   UNL     1      26.662 -11.378   9.249  1.00  0.00     0.189 C 
ATOM     12  O   UNL     1      26.610 -12.258  10.151  1.00  0.00    -0.289 OA
BRANCH  11  13
ATOM     13  C   UNL     1      26.468 -11.772   7.835  1.00  0.00     0.064 A 
ATOM     14  C   UNL     1      27.401 -12.591   7.152  1.00  0.00     0.130 A 
ATOM     15  C   UNL     1      25.304 -11.356   7.163  1.00  0.00     0.020 A 
ATOM     16  C   UNL     1      27.136 -12.998   5.839  1.00  0.00     0.093 A 
ATOM     17  C   UNL     1      25.060 -11.757   5.848  1.00  0.00     0.047 A 
ATOM     18  C   UNL     1      25.970 -12.582   5.184  1.00  0.00     0.119 A 
BRANCH  14  19
ATOM     19  O   UNL     1      28.607 -12.993   7.732  1.00  0.00    -0.507 OA
ATOM     20  H   UNL     1      28.772 -12.984   8.730  1.00  0.00     0.293 HD
ENDBRANCH  14  19
BRANCH  18  21
ATOM     21  O   UNL     1      25.710 -12.981   3.875  1.00  0.00    -0.508 OA
ATOM     22  H   UNL     1      24.886 -13.520   3.639  1.00  0.00     0.293 HD
ENDBRANCH  18  21
ENDBRANCH  11  13
ENDBRANCH   2  11
TORSDOF 6
ENDMDL
MODEL 6
REMARK VINA RESULT:    -6.040      2.478      7.233
REMARK INTER + INTRA:          -8.264
REMARK INTER:                  -7.700
REMARK INTRA:                  -0.565
REMARK UNBOUND:                -0.636
REMARK SMILES O=C(C=Cc1ccc(O)cc1)c1ccc(O)cc1O
REMARK SMILES IDX 4 1 3 2 5 3 6 4 7 5 8 6 11 7 10 8 9 9 2 11 1 12 12 13 18 14
REMARK SMILES IDX 13 15 17 16 14 17 15 18 19 19 16 21
REMARK H PARENT 9 10 19 20 16 22
REMARK Flexibility Score: inf
ROOT
ATOM      1  C   UNL     1      27.754  -9.883   9.627  1.00  0.00     0.012 C 
ATOM      2  C   UNL     1      26.618 -10.392   9.129  1.00  0.00     0.053 C 
ENDROOT
BRANCH   1   3
ATOM      3  C   UNL     1      28.004  -8.429   9.789  1.00  0.00    -0.025 A 
ATOM      4  C   UNL     1      27.193  -7.606  10.599  1.00  0.00     0.012 A 
ATOM      5  C   UNL     1      27.477  -6.244  10.729  1.00  0.00     0.047 A 
ATOM      6  C   UNL     1      28.573  -5.685  10.066  1.00  0.00     0.115 A 
ATOM      7  C   UNL     1      29.113  -7.860   9.140  1.00  0.00     0.012 A 
ATOM      8  C   UNL     1      29.392  -6.497   9.272  1.00  0.00     0.047 A 
BRANCH   6   9
ATOM      9  O   UNL     1      28.841  -4.324  10.205  1.00  0.00    -0.508 OA
ATOM     10  H   UNL     1      28.188  -3.621   9.880  1.00  0.00     0.293 HD
ENDBRANCH   6   9
ENDBRANCH   1   3
BRANCH   2  11
ATOM     11  C   UNL     1      26.411 -11.847   8.968  1.00  0.00     0.189 C 
ATOM     12  O   UNL     1      25.378 -12.397   9.442  1.00  0.00    -0.289 OA
BRANCH  11  13
ATOM     13  C   UNL     1      27.394 -12.664   8.223  1.00  0.00     0.064 A 
ATOM     14  C   UNL     1      27.454 -12.656   6.808  1.00  0.00     0.130 A 
ATOM     15  C   UNL     1      28.322 -13.440   8.941  1.00  0.00     0.020 A 
ATOM     16  C   UNL     1      28.451 -13.388   6.151  1.00  0.00     0.093 A 
ATOM     17  C   UNL     1      29.301 -14.179   8.273  1.00  0.00     0.047 A 
ATOM     18  C   UNL     1      29.372 -14.151   6.879  1.00  0.00     0.119 A 
BRANCH  14  19
ATOM     19  O   UNL     1      26.531 -11.959   6.025  1.00  0.00    -0.507 OA
ATOM     20  H   UNL     1      26.692 -11.724   5.054  1.00  0.00     0.293 HD
ENDBRANCH  14  19
BRANCH  18  21
ATOM     21  O   UNL     1      30.359 -14.886   6.226  1.00  0.00    -0.508 OA
ATOM     22  H   UNL     1      30.150 -15.447   5.409  1.00  0.00     0.293 HD
ENDBRANCH  18  21
ENDBRANCH  11  13
ENDBRANCH   2  11
TORSDOF 6
ENDMDL
MODEL 7
REMARK VINA RESULT:    -6.011      2.878      7.279
REMARK INTER + INTRA:          -8.228
REMARK INTER:                  -7.574
REMARK INTRA:                  -0.654
REMARK UNBOUND:                -0.636
REMARK SMILES O=C(C=Cc1ccc(O)cc1)c1ccc(O)cc1O
REMARK SMILES IDX 4 1 3 2 5 3 6 4 7 5 8 6 11 7 10 8 9 9 2 11 1 12 12 13 18 14
REMARK SMILES IDX 13 15 17 16 14 17 15 18 19 19 16 21
REMARK H PARENT 9 10 19 20 16 22
REMARK Flexibility Score: inf
ROOT
ATOM      1  C   UNL     1      27.610  -9.638   9.286  1.00  0.00     0.012 C 
ATOM      2  C   UNL     1      26.541 -10.281   9.779  1.00  0.00     0.053 C 
ENDROOT
BRANCH   1   3
ATOM      3  C   UNL     1      27.916  -8.214   9.565  1.00  0.00    -0.025 A 
ATOM      4  C   UNL     1      27.306  -7.499  10.618  1.00  0.00     0.012 A 
ATOM      5  C   UNL     1      27.636  -6.161  10.848  1.00  0.00     0.047 A 
ATOM      6  C   UNL     1      28.583  -5.519  10.044  1.00  0.00     0.115 A 
ATOM      7  C   UNL     1      28.878  -7.563   8.774  1.00  0.00     0.012 A 
ATOM      8  C   UNL     1      29.204  -6.224   9.007  1.00  0.00     0.047 A 
BRANCH   6   9
ATOM      9  O   UNL     1      28.900  -4.184  10.286  1.00  0.00    -0.508 OA
ATOM     10  H   UNL     1      29.251  -3.582   9.551  1.00  0.00     0.293 HD
ENDBRANCH   6   9
ENDBRANCH   1   3
BRANCH   2  11
ATOM     11  C   UNL     1      26.261 -11.699   9.466  1.00  0.00     0.189 C 
ATOM     12  O   UNL     1      25.179 -12.022   8.904  1.00  0.00    -0.289 OA
BRANCH  11  13
ATOM     13  C   UNL     1      27.260 -12.745   9.780  1.00  0.00     0.064 A 
ATOM     14  C   UNL     1      28.127 -13.271   8.791  1.00  0.00     0.130 A 
ATOM     15  C   UNL     1      27.379 -13.201  11.105  1.00  0.00     0.020 A 
ATOM     16  C   UNL     1      29.105 -14.206   9.153  1.00  0.00     0.093 A 
ATOM     17  C   UNL     1      28.349 -14.144  11.449  1.00  0.00     0.047 A 
ATOM     18  C   UNL     1      29.217 -14.645  10.477  1.00  0.00     0.119 A 
BRANCH  14  19
ATOM     19  O   UNL     1      28.029 -12.914   7.444  1.00  0.00    -0.507 OA
ATOM     20  H   UNL     1      28.372 -12.035   7.078  1.00  0.00     0.293 HD
ENDBRANCH  14  19
BRANCH  18  21
ATOM     21  O   UNL     1      30.185 -15.581  10.836  1.00  0.00    -0.508 OA
ATOM     22  H   UNL     1      30.049 -16.214  11.615  1.00  0.00     0.293 HD
ENDBRANCH  18  21
ENDBRANCH  11  13
ENDBRANCH   2  11
TORSDOF 6
ENDMDL
MODEL 8
REMARK VINA RESULT:    -5.754      2.730      7.135
REMARK INTER + INTRA:          -7.904
REMARK INTER:                  -7.333
REMARK INTRA:                  -0.571
REMARK UNBOUND:                -0.636
REMARK SMILES O=C(C=Cc1ccc(O)cc1)c1ccc(O)cc1O
REMARK SMILES IDX 4 1 3 2 5 3 6 4 7 5 8 6 11 7 10 8 9 9 2 11 1 12 12 13 18 14
REMARK SMILES IDX 13 15 17 16 14 17 15 18 19 19 16 21
REMARK H PARENT 9 10 19 20 16 22
REMARK Flexibility Score: inf
ROOT
ATOM      1  C   UNL     1      27.756  -9.700   9.577  1.00  0.00     0.012 C 
ATOM      2  C   UNL     1      26.514 -10.195   9.466  1.00  0.00     0.053 C 
ENDROOT
BRANCH   1   3
ATOM      3  C   UNL     1      28.061  -8.250   9.651  1.00  0.00    -0.025 A 
ATOM      4  C   UNL     1      28.936  -7.612   8.746  1.00  0.00     0.012 A 
ATOM      5  C   UNL     1      29.182  -6.240   8.851  1.00  0.00     0.047 A 
ATOM      6  C   UNL     1      28.556  -5.484   9.846  1.00  0.00     0.115 A 
ATOM      7  C   UNL     1      27.425  -7.478  10.637  1.00  0.00     0.012 A 
ATOM      8  C   UNL     1      27.675  -6.106  10.739  1.00  0.00     0.047 A 
BRANCH   6   9
ATOM      9  O   UNL     1      28.814  -4.118   9.937  1.00  0.00    -0.508 OA
ATOM     10  H   UNL     1      29.724  -3.736   9.708  1.00  0.00     0.293 HD
ENDBRANCH   6   9
ENDBRANCH   1   3
BRANCH   2  11
ATOM     11  C   UNL     1      26.249 -11.647   9.380  1.00  0.00     0.189 C 
ATOM     12  O   UNL     1      25.162 -12.066   8.894  1.00  0.00    -0.289 OA
BRANCH  11  13
ATOM     13  C   UNL     1      27.269 -12.621   9.830  1.00  0.00     0.064 A 
ATOM     14  C   UNL     1      27.447 -12.939  11.199  1.00  0.00     0.130 A 
ATOM     15  C   UNL     1      28.056 -13.280   8.868  1.00  0.00     0.020 A 
ATOM     16  C   UNL     1      28.374 -13.921  11.568  1.00  0.00     0.093 A 
ATOM     17  C   UNL     1      28.988 -14.246   9.252  1.00  0.00     0.047 A 
ATOM     18  C   UNL     1      29.146 -14.574  10.600  1.00  0.00     0.119 A 
BRANCH  14  19
ATOM     19  O   UNL     1      26.746 -12.284  12.215  1.00  0.00    -0.507 OA
ATOM     20  H   UNL     1      27.183 -11.954  13.066  1.00  0.00     0.293 HD
ENDBRANCH  14  19
BRANCH  18  21
ATOM     21  O   UNL     1      30.073 -15.546  10.968  1.00  0.00    -0.508 OA
ATOM     22  H   UNL     1      29.921 -16.527  10.769  1.00  0.00     0.293 HD
ENDBRANCH  18  21
ENDBRANCH  11  13
ENDBRANCH   2  11
TORSDOF 6
ENDMDL
MODEL 9
REMARK VINA RESULT:    -5.500      3.422      5.509
REMARK INTER + INTRA:          -7.582
REMARK INTER:                  -7.100
REMARK INTRA:                  -0.483
REMARK UNBOUND:                -0.636
REMARK SMILES O=C(C=Cc1ccc(O)cc1)c1ccc(O)cc1O
REMARK SMILES IDX 4 1 3 2 5 3 6 4 7 5 8 6 11 7 10 8 9 9 2 11 1 12 12 13 18 14
REMARK SMILES IDX 13 15 17 16 14 17 15 18 19 19 16 21
REMARK H PARENT 9 10 19 20 16 22
REMARK Flexibility Score: inf
ROOT
ATOM      1  C   UNL     1      26.726 -11.485  11.619  1.00  0.00     0.012 C 
ATOM      2  C   UNL     1      27.651 -10.853  10.882  1.00  0.00     0.053 C 
ENDROOT
BRANCH   1   3
ATOM      3  C   UNL     1      27.051 -12.428  12.718  1.00  0.00    -0.025 A 
ATOM      4  C   UNL     1      26.157 -13.432  13.145  1.00  0.00     0.012 A 
ATOM      5  C   UNL     1      26.515 -14.304  14.177  1.00  0.00     0.047 A 
ATOM      6  C   UNL     1      27.767 -14.197  14.790  1.00  0.00     0.115 A 
ATOM      7  C   UNL     1      28.313 -12.339  13.330  1.00  0.00     0.012 A 
ATOM      8  C   UNL     1      28.666 -13.213  14.362  1.00  0.00     0.047 A 
BRANCH   6   9
ATOM      9  O   UNL     1      28.107 -15.073  15.818  1.00  0.00    -0.508 OA
ATOM     10  H   UNL     1      27.629 -15.052  16.711  1.00  0.00     0.293 HD
ENDBRANCH   6   9
ENDBRANCH   1   3
BRANCH   2  11
ATOM     11  C   UNL     1      27.289  -9.931   9.784  1.00  0.00     0.189 C 
ATOM     12  O   UNL     1      26.649 -10.356   8.784  1.00  0.00    -0.289 OA
BRANCH  11  13
ATOM     13  C   UNL     1      27.645  -8.497   9.865  1.00  0.00     0.064 A 
ATOM     14  C   UNL     1      26.976  -7.609  10.744  1.00  0.00     0.130 A 
ATOM     15  C   UNL     1      28.704  -8.010   9.077  1.00  0.00     0.020 A 
ATOM     16  C   UNL     1      27.400  -6.277  10.837  1.00  0.00     0.093 A 
ATOM     17  C   UNL     1      29.105  -6.676   9.170  1.00  0.00     0.047 A 
ATOM     18  C   UNL     1      28.459  -5.808  10.053  1.00  0.00     0.119 A 
BRANCH  14  19
ATOM     19  O   UNL     1      25.878  -8.003  11.512  1.00  0.00    -0.507 OA
ATOM     20  H   UNL     1      25.959  -8.340  12.462  1.00  0.00     0.293 HD
ENDBRANCH  14  19
BRANCH  18  21
ATOM     21  O   UNL     1      28.875  -4.481  10.140  1.00  0.00    -0.508 OA
ATOM     22  H   UNL     1      29.813  -4.238  10.435  1.00  0.00     0.293 HD
ENDBRANCH  18  21
ENDBRANCH  11  13
ENDBRANCH   2  11
TORSDOF 6
ENDMDL
