MODEL 1
REMARK VINA RESULT:    -1.393      0.000      0.000
REMARK INTER + INTRA:          -1.996
REMARK INTER:                  -2.044
REMARK INTRA:                   0.048
REMARK UNBOUND:                 0.048
REMARK SMILES O=C([O-])CCCCCCCC(=O)[O-]
REMARK SMILES IDX 7 1 6 2 5 3 4 4 2 5 1 6 3 7 8 8 9 9 10 10 11 11 12 12 13 13
REMARK H PARENT
REMARK Flexibility Score: inf
ROOT
ATOM      1  C   UNL     1      33.024  23.001  29.266  1.00  0.00     0.000 C 
ENDROOT
BRANCH   1   2
ATOM      2  C   UNL     1      33.477  23.069  27.799  1.00  0.00     0.000 C 
BRANCH   2   3
ATOM      3  C   UNL     1      34.575  24.123  27.562  1.00  0.00     0.006 C 
BRANCH   3   4
ATOM      4  C   UNL     1      35.847  23.578  26.893  1.00  0.00     0.053 C 
BRANCH   4   5
ATOM      5  C   UNL     1      36.531  22.552  27.742  1.00  0.00     0.041 C 
ATOM      6  O   UNL     1      36.600  21.354  27.356  1.00  0.00    -0.550 OA
ATOM      7  O   UNL     1      37.122  22.923  28.943  1.00  0.00    -0.550 OA
ENDBRANCH   4   5
ENDBRANCH   3   4
ENDBRANCH   2   3
ENDBRANCH   1   2
BRANCH   1   8
ATOM      8  C   UNL     1      31.659  23.679  29.452  1.00  0.00     0.000 C 
BRANCH   8   9
ATOM      9  C   UNL     1      30.881  23.838  28.134  1.00  0.00     0.006 C 
BRANCH   9  10
ATOM     10  C   UNL     1      29.648  22.923  28.022  1.00  0.00     0.053 C 
BRANCH  10  11
ATOM     11  C   UNL     1      29.984  21.567  27.479  1.00  0.00     0.041 C 
ATOM     12  O   UNL     1      31.166  21.137  27.537  1.00  0.00    -0.550 OA
ATOM     13  O   UNL     1      29.000  20.789  26.880  1.00  0.00    -0.550 OA
ENDBRANCH  10  11
ENDBRANCH   9  10
ENDBRANCH   8   9
ENDBRANCH   1   8
TORSDOF 8
ENDMDL
MODEL 2
REMARK VINA RESULT:    -1.005      2.604      5.830
REMARK INTER + INTRA:          -1.427
REMARK INTER:                  -0.958
REMARK INTRA:                  -0.469
REMARK UNBOUND:                 0.048
REMARK SMILES O=C([O-])CCCCCCCC(=O)[O-]
REMARK SMILES IDX 7 1 6 2 5 3 4 4 2 5 1 6 3 7 8 8 9 9 10 10 11 11 12 12 13 13
REMARK H PARENT
REMARK Flexibility Score: inf
ROOT
ATOM      1  C   UNL     1      31.837  23.674  27.168  1.00  0.00     0.000 C 
ENDROOT
BRANCH   1   2
ATOM      2  C   UNL     1      31.743  22.456  28.100  1.00  0.00     0.000 C 
BRANCH   2   3
ATOM      3  C   UNL     1      30.620  22.590  29.146  1.00  0.00     0.006 C 
BRANCH   3   4
ATOM      4  C   UNL     1      30.469  24.001  29.738  1.00  0.00     0.053 C 
BRANCH   4   5
ATOM      5  C   UNL     1      30.756  24.027  31.207  1.00  0.00     0.041 C 
ATOM      6  O   UNL     1      31.942  24.125  31.620  1.00  0.00    -0.550 OA
ATOM      7  O   UNL     1      29.711  23.976  32.122  1.00  0.00    -0.550 OA
ENDBRANCH   4   5
ENDBRANCH   3   4
ENDBRANCH   2   3
ENDBRANCH   1   2
BRANCH   1   8
ATOM      8  C   UNL     1      33.301  24.032  26.876  1.00  0.00     0.000 C 
BRANCH   8   9
ATOM      9  C   UNL     1      34.300  23.209  27.708  1.00  0.00     0.006 C 
BRANCH   9  10
ATOM     10  C   UNL     1      35.110  24.044  28.716  1.00  0.00     0.053 C 
BRANCH  10  11
ATOM     11  C   UNL     1      36.346  23.338  29.188  1.00  0.00     0.041 C 
ATOM     12  O   UNL     1      36.991  23.781  30.174  1.00  0.00    -0.550 OA
ATOM     13  O   UNL     1      36.804  22.209  28.519  1.00  0.00    -0.550 OA
ENDBRANCH  10  11
ENDBRANCH   9  10
ENDBRANCH   8   9
ENDBRANCH   1   8
TORSDOF 8
ENDMDL
MODEL 3
REMARK VINA RESULT:     1.286      2.441      2.995
REMARK INTER + INTRA:           1.935
REMARK INTER:                  -0.700
REMARK INTRA:                   2.636
REMARK UNBOUND:                 0.048
REMARK SMILES O=C([O-])CCCCCCCC(=O)[O-]
REMARK SMILES IDX 7 1 6 2 5 3 4 4 2 5 1 6 3 7 8 8 9 9 10 10 11 11 12 12 13 13
REMARK H PARENT
REMARK Flexibility Score: inf
ROOT
ATOM      1  C   UNL     1      32.072  22.364  28.787  1.00  0.00     0.000 C 
ENDROOT
BRANCH   1   2
ATOM      2  C   UNL     1      32.453  21.874  27.381  1.00  0.00     0.000 C 
BRANCH   2   3
ATOM      3  C   UNL     1      33.780  22.475  26.879  1.00  0.00     0.006 C 
BRANCH   3   4
ATOM      4  C   UNL     1      34.330  23.616  27.749  1.00  0.00     0.053 C 
BRANCH   4   5
ATOM      5  C   UNL     1      35.680  23.295  28.309  1.00  0.00     0.041 C 
ATOM      6  O   UNL     1      36.107  23.903  29.326  1.00  0.00    -0.550 OA
ATOM      7  O   UNL     1      36.456  22.299  27.727  1.00  0.00    -0.550 OA
ENDBRANCH   4   5
ENDBRANCH   3   4
ENDBRANCH   2   3
ENDBRANCH   1   2
BRANCH   1   8
ATOM      8  C   UNL     1      31.706  23.855  28.770  1.00  0.00     0.000 C 
BRANCH   8   9
ATOM      9  C   UNL     1      30.187  24.101  28.738  1.00  0.00     0.006 C 
BRANCH   9  10
ATOM     10  C   UNL     1      29.491  23.894  30.096  1.00  0.00     0.053 C 
BRANCH  10  11
ATOM     11  C   UNL     1      30.446  23.968  31.249  1.00  0.00     0.041 C 
ATOM     12  O   UNL     1      31.685  23.859  31.054  1.00  0.00    -0.550 OA
ATOM     13  O   UNL     1      29.967  24.125  32.544  1.00  0.00    -0.550 OA
ENDBRANCH  10  11
ENDBRANCH   9  10
ENDBRANCH   8   9
ENDBRANCH   1   8
TORSDOF 8
ENDMDL
