MODEL 1
REMARK VINA RESULT:    -6.729      0.000      0.000
REMARK INTER + INTRA:         -11.149
REMARK INTER:                 -10.269
REMARK INTRA:                  -0.880
REMARK UNBOUND:                -0.880
REMARK SMILES COc1cc(C=CC(=O)CC(=O)C=Cc2ccc(O)c(OC)c2)ccc1O
REMARK SMILES IDX 10 1 8 2 9 3 7 4 6 5 5 6 3 7 26 8 4 9 25 10 24 11 2 12 1 13
REMARK SMILES IDX 27 14 11 16 12 17 13 18 14 19 15 20 23 21 16 22 20 23 17 24
REMARK SMILES IDX 18 25 21 26 22 27 19 28
REMARK H PARENT 27 15 19 29
REMARK Flexibility Score: inf
ROOT
ATOM      1  C   UNL     1      -8.513  37.418   5.753  1.00  0.00     0.160 C 
ENDROOT
BRANCH   1   2
ATOM      2  C   UNL     1      -9.088  38.721   6.217  1.00  0.00     0.163 C 
ATOM      3  O   UNL     1      -8.600  39.276   7.239  1.00  0.00    -0.294 OA
BRANCH   2   4
ATOM      4  C   UNL     1     -10.287  39.275   5.547  1.00  0.00     0.048 C 
ATOM      5  C   UNL     1     -11.538  39.241   6.033  1.00  0.00     0.012 C 
BRANCH   5   6
ATOM      6  C   UNL     1     -11.923  38.798   7.390  1.00  0.00    -0.022 A 
ATOM      7  C   UNL     1     -12.597  37.046   8.956  1.00  0.00     0.161 A 
ATOM      8  C   UNL     1     -12.538  37.975  10.004  1.00  0.00     0.157 A 
ATOM      9  C   UNL     1     -12.273  37.460   7.649  1.00  0.00     0.058 A 
ATOM     10  C   UNL     1     -12.158  39.300   9.751  1.00  0.00     0.051 A 
ATOM     11  C   UNL     1     -11.841  39.705   8.454  1.00  0.00     0.012 A 
BRANCH   7  12
ATOM     12  O   UNL     1     -12.979  35.727   9.250  1.00  0.00    -0.493 OA
ATOM     13  C   UNL     1     -12.425  34.570   8.629  1.00  0.00     0.278 C 
ENDBRANCH   7  12
BRANCH   8  14
ATOM     14  O   UNL     1     -12.857  37.572  11.301  1.00  0.00    -0.504 OA
ATOM     15  H   UNL     1     -12.139  37.300  11.963  1.00  0.00     0.293 HD
ENDBRANCH   8  14
ENDBRANCH   5   6
ENDBRANCH   2   4
ENDBRANCH   1   2
BRANCH   1  16
ATOM     16  C   UNL     1      -9.298  36.285   6.337  1.00  0.00     0.163 C 
ATOM     17  O   UNL     1      -9.307  36.121   7.587  1.00  0.00    -0.294 OA
BRANCH  16  18
ATOM     18  C   UNL     1     -10.052  35.371   5.451  1.00  0.00     0.048 C 
ATOM     19  C   UNL     1      -9.698  34.107   5.177  1.00  0.00     0.012 C 
BRANCH  19  20
ATOM     20  C   UNL     1      -8.403  33.490   5.539  1.00  0.00    -0.022 A 
ATOM     21  C   UNL     1      -8.352  32.117   5.821  1.00  0.00     0.058 A 
ATOM     22  C   UNL     1      -7.210  34.234   5.513  1.00  0.00     0.012 A 
ATOM     23  C   UNL     1      -7.125  31.494   6.124  1.00  0.00     0.161 A 
ATOM     24  C   UNL     1      -5.991  33.620   5.806  1.00  0.00     0.051 A 
ATOM     25  C   UNL     1      -5.945  32.254   6.114  1.00  0.00     0.157 A 
BRANCH  23  26
ATOM     26  O   UNL     1      -7.035  30.129   6.438  1.00  0.00    -0.493 OA
ATOM     27  C   UNL     1      -7.089  29.076   5.478  1.00  0.00     0.278 C 
ENDBRANCH  23  26
BRANCH  25  28
ATOM     28  O   UNL     1      -4.728  31.643   6.410  1.00  0.00    -0.504 OA
ATOM     29  H   UNL     1      -4.271  31.777   7.306  1.00  0.00     0.293 HD
ENDBRANCH  25  28
ENDBRANCH  19  20
ENDBRANCH  16  18
ENDBRANCH   1  16
TORSDOF 10
ENDMDL
MODEL 2
REMARK VINA RESULT:    -6.587      1.712      2.272
REMARK INTER + INTRA:         -10.932
REMARK INTER:                 -10.306
REMARK INTRA:                  -0.627
REMARK UNBOUND:                -0.880
REMARK SMILES COc1cc(C=CC(=O)CC(=O)C=Cc2ccc(O)c(OC)c2)ccc1O
REMARK SMILES IDX 10 1 8 2 9 3 7 4 6 5 5 6 3 7 26 8 4 9 25 10 24 11 2 12 1 13
REMARK SMILES IDX 27 14 11 16 12 17 13 18 14 19 15 20 23 21 16 22 20 23 17 24
REMARK SMILES IDX 18 25 21 26 22 27 19 28
REMARK H PARENT 27 15 19 29
REMARK Flexibility Score: inf
ROOT
ATOM      1  C   UNL     1      -8.238  35.455   5.675  1.00  0.00     0.160 C 
ENDROOT
BRANCH   1   2
ATOM      2  C   UNL     1      -9.296  36.499   5.490  1.00  0.00     0.163 C 
ATOM      3  O   UNL     1     -10.443  36.148   5.098  1.00  0.00    -0.294 OA
BRANCH   2   4
ATOM      4  C   UNL     1      -8.952  37.930   5.653  1.00  0.00     0.048 C 
ATOM      5  C   UNL     1      -9.463  38.755   6.581  1.00  0.00     0.012 C 
BRANCH   5   6
ATOM      6  C   UNL     1     -10.330  38.351   7.708  1.00  0.00    -0.022 A 
ATOM      7  C   UNL     1     -10.956  36.769   9.462  1.00  0.00     0.161 A 
ATOM      8  C   UNL     1     -11.927  37.672   9.916  1.00  0.00     0.157 A 
ATOM      9  C   UNL     1     -10.146  37.120   8.364  1.00  0.00     0.058 A 
ATOM     10  C   UNL     1     -12.088  38.912   9.282  1.00  0.00     0.051 A 
ATOM     11  C   UNL     1     -11.286  39.253   8.192  1.00  0.00     0.012 A 
BRANCH   7  12
ATOM     12  O   UNL     1     -10.823  35.538  10.126  1.00  0.00    -0.493 OA
ATOM     13  C   UNL     1     -11.461  34.331   9.721  1.00  0.00     0.278 C 
ENDBRANCH   7  12
BRANCH   8  14
ATOM     14  O   UNL     1     -12.732  37.331  11.004  1.00  0.00    -0.504 OA
ATOM     15  H   UNL     1     -13.655  37.732  11.127  1.00  0.00     0.293 HD
ENDBRANCH   8  14
ENDBRANCH   5   6
ENDBRANCH   2   4
ENDBRANCH   1   2
BRANCH   1  16
ATOM     16  C   UNL     1      -8.849  34.093   5.561  1.00  0.00     0.163 C 
ATOM     17  O   UNL     1      -8.903  33.533   4.432  1.00  0.00    -0.294 OA
BRANCH  16  18
ATOM     18  C   UNL     1      -9.382  33.417   6.764  1.00  0.00     0.048 C 
ATOM     19  C   UNL     1      -8.795  32.384   7.384  1.00  0.00     0.012 C 
BRANCH  19  20
ATOM     20  C   UNL     1      -7.642  31.621   6.856  1.00  0.00    -0.022 A 
ATOM     21  C   UNL     1      -7.874  30.467   6.094  1.00  0.00     0.058 A 
ATOM     22  C   UNL     1      -6.325  32.085   7.024  1.00  0.00     0.012 A 
ATOM     23  C   UNL     1      -6.796  29.748   5.539  1.00  0.00     0.161 A 
ATOM     24  C   UNL     1      -5.255  31.380   6.471  1.00  0.00     0.051 A 
ATOM     25  C   UNL     1      -5.486  30.211   5.733  1.00  0.00     0.157 A 
BRANCH  23  26
ATOM     26  O   UNL     1      -6.984  28.573   4.793  1.00  0.00    -0.493 OA
ATOM     27  C   UNL     1      -7.469  28.540   3.453  1.00  0.00     0.278 C 
ENDBRANCH  23  26
BRANCH  25  28
ATOM     28  O   UNL     1      -4.416  29.505   5.185  1.00  0.00    -0.504 OA
ATOM     29  H   UNL     1      -4.248  28.532   5.416  1.00  0.00     0.293 HD
ENDBRANCH  25  28
ENDBRANCH  19  20
ENDBRANCH  16  18
ENDBRANCH   1  16
TORSDOF 10
ENDMDL
MODEL 3
REMARK VINA RESULT:    -6.564      1.520      3.393
REMARK INTER + INTRA:         -10.897
REMARK INTER:                  -9.989
REMARK INTRA:                  -0.909
REMARK UNBOUND:                -0.880
REMARK SMILES COc1cc(C=CC(=O)CC(=O)C=Cc2ccc(O)c(OC)c2)ccc1O
REMARK SMILES IDX 10 1 8 2 9 3 7 4 6 5 5 6 3 7 26 8 4 9 25 10 24 11 2 12 1 13
REMARK SMILES IDX 27 14 11 16 12 17 13 18 14 19 15 20 23 21 16 22 20 23 17 24
REMARK SMILES IDX 18 25 21 26 22 27 19 28
REMARK H PARENT 27 15 19 29
REMARK Flexibility Score: inf
ROOT
ATOM      1  C   UNL     1     -10.570  33.830   7.710  1.00  0.00     0.160 C 
ENDROOT
BRANCH   1   2
ATOM      2  C   UNL     1     -11.799  34.577   8.126  1.00  0.00     0.163 C 
ATOM      3  O   UNL     1     -12.728  34.744   7.289  1.00  0.00    -0.294 OA
BRANCH   2   4
ATOM      4  C   UNL     1     -11.857  35.208   9.464  1.00  0.00     0.048 C 
ATOM      5  C   UNL     1     -11.800  36.528   9.709  1.00  0.00     0.012 C 
BRANCH   5   6
ATOM      6  C   UNL     1     -11.839  37.594   8.687  1.00  0.00    -0.022 A 
ATOM      7  C   UNL     1     -10.773  38.894   6.911  1.00  0.00     0.161 A 
ATOM      8  C   UNL     1     -11.989  39.552   6.678  1.00  0.00     0.157 A 
ATOM      9  C   UNL     1     -10.707  37.902   7.909  1.00  0.00     0.058 A 
ATOM     10  C   UNL     1     -13.125  39.223   7.430  1.00  0.00     0.051 A 
ATOM     11  C   UNL     1     -13.052  38.242   8.420  1.00  0.00     0.012 A 
BRANCH   7  12
ATOM     12  O   UNL     1      -9.659  39.249   6.134  1.00  0.00    -0.493 OA
ATOM     13  C   UNL     1      -8.316  38.886   6.438  1.00  0.00     0.278 C 
ENDBRANCH   7  12
BRANCH   8  14
ATOM     14  O   UNL     1     -12.062  40.535   5.691  1.00  0.00    -0.504 OA
ATOM     15  H   UNL     1     -12.950  40.823   5.294  1.00  0.00     0.293 HD
ENDBRANCH   8  14
ENDBRANCH   5   6
ENDBRANCH   2   4
ENDBRANCH   1   2
BRANCH   1  16
ATOM     16  C   UNL     1      -9.720  34.702   6.840  1.00  0.00     0.163 C 
ATOM     17  O   UNL     1      -9.005  35.595   7.371  1.00  0.00    -0.294 OA
BRANCH  16  18
ATOM     18  C   UNL     1      -9.725  34.514   5.373  1.00  0.00     0.048 C 
ATOM     19  C   UNL     1      -8.970  33.624   4.713  1.00  0.00     0.012 C 
BRANCH  19  20
ATOM     20  C   UNL     1      -7.870  32.836   5.311  1.00  0.00    -0.022 A 
ATOM     21  C   UNL     1      -7.973  31.438   5.359  1.00  0.00     0.058 A 
ATOM     22  C   UNL     1      -6.683  33.455   5.743  1.00  0.00     0.012 A 
ATOM     23  C   UNL     1      -6.920  30.660   5.880  1.00  0.00     0.161 A 
ATOM     24  C   UNL     1      -5.634  32.689   6.253  1.00  0.00     0.051 A 
ATOM     25  C   UNL     1      -5.751  31.294   6.326  1.00  0.00     0.157 A 
BRANCH  23  26
ATOM     26  O   UNL     1      -6.996  29.261   5.970  1.00  0.00    -0.493 OA
ATOM     27  C   UNL     1      -6.979  28.380   4.850  1.00  0.00     0.278 C 
ENDBRANCH  23  26
BRANCH  25  28
ATOM     28  O   UNL     1      -4.704  30.530   6.840  1.00  0.00    -0.504 OA
ATOM     29  H   UNL     1      -3.923  30.242   6.262  1.00  0.00     0.293 HD
ENDBRANCH  25  28
ENDBRANCH  19  20
ENDBRANCH  16  18
ENDBRANCH   1  16
TORSDOF 10
ENDMDL
MODEL 4
REMARK VINA RESULT:    -6.454     13.542     16.173
REMARK INTER + INTRA:         -10.730
REMARK INTER:                  -8.353
REMARK INTRA:                  -2.376
REMARK UNBOUND:                -0.880
REMARK SMILES COc1cc(C=CC(=O)CC(=O)C=Cc2ccc(O)c(OC)c2)ccc1O
REMARK SMILES IDX 10 1 8 2 9 3 7 4 6 5 5 6 3 7 26 8 4 9 25 10 24 11 2 12 1 13
REMARK SMILES IDX 27 14 11 16 12 17 13 18 14 19 15 20 23 21 16 22 20 23 17 24
REMARK SMILES IDX 18 25 21 26 22 27 19 28
REMARK H PARENT 27 15 19 29
REMARK Flexibility Score: inf
ROOT
ATOM      1  C   UNL     1       1.616  44.238   3.878  1.00  0.00     0.160 C 
ENDROOT
BRANCH   1   2
ATOM      2  C   UNL     1       0.847  43.178   3.151  1.00  0.00     0.163 C 
ATOM      3  O   UNL     1      -0.376  43.019   3.415  1.00  0.00    -0.294 OA
BRANCH   2   4
ATOM      4  C   UNL     1       1.554  42.260   2.229  1.00  0.00     0.048 C 
ATOM      5  C   UNL     1       1.247  42.062   0.937  1.00  0.00     0.012 C 
BRANCH   5   6
ATOM      6  C   UNL     1       0.261  42.841   0.158  1.00  0.00    -0.022 A 
ATOM      7  C   UNL     1      -0.302  44.692  -1.335  1.00  0.00     0.161 A 
ATOM      8  C   UNL     1      -1.623  44.226  -1.399  1.00  0.00     0.157 A 
ATOM      9  C   UNL     1       0.643  43.985  -0.565  1.00  0.00     0.058 A 
ATOM     10  C   UNL     1      -1.995  43.067  -0.704  1.00  0.00     0.051 A 
ATOM     11  C   UNL     1      -1.056  42.373   0.060  1.00  0.00     0.012 A 
BRANCH   7  12
ATOM     12  O   UNL     1       0.033  45.855  -2.048  1.00  0.00    -0.493 OA
ATOM     13  C   UNL     1       0.459  47.074  -1.447  1.00  0.00     0.278 C 
ENDBRANCH   7  12
BRANCH   8  14
ATOM     14  O   UNL     1      -2.563  44.921  -2.159  1.00  0.00    -0.504 OA
ATOM     15  H   UNL     1      -3.448  45.220  -1.764  1.00  0.00     0.293 HD
ENDBRANCH   8  14
ENDBRANCH   5   6
ENDBRANCH   2   4
ENDBRANCH   1   2
BRANCH   1  16
ATOM     16  C   UNL     1       1.897  45.381   2.953  1.00  0.00     0.163 C 
ATOM     17  O   UNL     1       1.042  45.691   2.079  1.00  0.00    -0.294 OA
BRANCH  16  18
ATOM     18  C   UNL     1       3.164  46.134   3.068  1.00  0.00     0.048 C 
ATOM     19  C   UNL     1       4.234  45.956   2.280  1.00  0.00     0.012 C 
BRANCH  19  20
ATOM     20  C   UNL     1       4.401  44.849   1.313  1.00  0.00    -0.022 A 
ATOM     21  C   UNL     1       4.878  43.610   1.764  1.00  0.00     0.058 A 
ATOM     22  C   UNL     1       4.000  44.988  -0.027  1.00  0.00     0.012 A 
ATOM     23  C   UNL     1       5.003  42.524   0.873  1.00  0.00     0.161 A 
ATOM     24  C   UNL     1       4.115  43.914  -0.912  1.00  0.00     0.051 A 
ATOM     25  C   UNL     1       4.618  42.684  -0.466  1.00  0.00     0.157 A 
BRANCH  23  26
ATOM     26  O   UNL     1       5.501  41.276   1.279  1.00  0.00    -0.493 OA
ATOM     27  C   UNL     1       4.807  40.370   2.134  1.00  0.00     0.278 C 
ENDBRANCH  23  26
BRANCH  25  28
ATOM     28  O   UNL     1       4.737  41.614  -1.351  1.00  0.00    -0.504 OA
ATOM     29  H   UNL     1       4.712  40.653  -1.028  1.00  0.00     0.293 HD
ENDBRANCH  25  28
ENDBRANCH  19  20
ENDBRANCH  16  18
ENDBRANCH   1  16
TORSDOF 10
ENDMDL
MODEL 5
REMARK VINA RESULT:    -6.401      1.502      7.940
REMARK INTER + INTRA:         -10.648
REMARK INTER:                 -10.046
REMARK INTRA:                  -0.603
REMARK UNBOUND:                -0.880
REMARK SMILES COc1cc(C=CC(=O)CC(=O)C=Cc2ccc(O)c(OC)c2)ccc1O
REMARK SMILES IDX 10 1 8 2 9 3 7 4 6 5 5 6 3 7 26 8 4 9 25 10 24 11 2 12 1 13
REMARK SMILES IDX 27 14 11 16 12 17 13 18 14 19 15 20 23 21 16 22 20 23 17 24
REMARK SMILES IDX 18 25 21 26 22 27 19 28
REMARK H PARENT 27 15 19 29
REMARK Flexibility Score: inf
ROOT
ATOM      1  C   UNL     1     -10.481  33.837   7.762  1.00  0.00     0.160 C 
ENDROOT
BRANCH   1   2
ATOM      2  C   UNL     1      -9.665  34.653   6.807  1.00  0.00     0.163 C 
ATOM      3  O   UNL     1      -9.018  35.643   7.244  1.00  0.00    -0.294 OA
BRANCH   2   4
ATOM      4  C   UNL     1      -9.723  34.361   5.356  1.00  0.00     0.048 C 
ATOM      5  C   UNL     1      -8.860  33.584   4.681  1.00  0.00     0.012 C 
BRANCH   5   6
ATOM      6  C   UNL     1      -7.801  32.749   5.285  1.00  0.00    -0.022 A 
ATOM      7  C   UNL     1      -6.845  30.564   5.820  1.00  0.00     0.161 A 
ATOM      8  C   UNL     1      -5.710  31.199   6.344  1.00  0.00     0.157 A 
ATOM      9  C   UNL     1      -7.884  31.345   5.276  1.00  0.00     0.058 A 
ATOM     10  C   UNL     1      -5.614  32.597   6.323  1.00  0.00     0.051 A 
ATOM     11  C   UNL     1      -6.647  33.366   5.787  1.00  0.00     0.012 A 
BRANCH   7  12
ATOM     12  O   UNL     1      -6.904  29.161   5.855  1.00  0.00    -0.493 OA
ATOM     13  C   UNL     1      -6.186  28.302   4.973  1.00  0.00     0.278 C 
ENDBRANCH   7  12
BRANCH   8  14
ATOM     14  O   UNL     1      -4.678  30.432   6.883  1.00  0.00    -0.504 OA
ATOM     15  H   UNL     1      -4.078  29.864   6.296  1.00  0.00     0.293 HD
ENDBRANCH   8  14
ENDBRANCH   5   6
ENDBRANCH   2   4
ENDBRANCH   1   2
BRANCH   1  16
ATOM     16  C   UNL     1     -11.617  34.660   8.284  1.00  0.00     0.163 C 
ATOM     17  O   UNL     1     -12.659  34.787   7.586  1.00  0.00    -0.294 OA
BRANCH  16  18
ATOM     18  C   UNL     1     -11.511  35.314   9.606  1.00  0.00     0.048 C 
ATOM     19  C   UNL     1     -11.676  36.627   9.826  1.00  0.00     0.012 C 
BRANCH  19  20
ATOM     20  C   UNL     1     -11.782  37.657   8.770  1.00  0.00    -0.022 A 
ATOM     21  C   UNL     1     -10.669  37.928   7.960  1.00  0.00     0.058 A 
ATOM     22  C   UNL     1     -13.004  38.300   8.501  1.00  0.00     0.012 A 
ATOM     23  C   UNL     1     -10.756  38.871   6.916  1.00  0.00     0.161 A 
ATOM     24  C   UNL     1     -13.097  39.230   7.464  1.00  0.00     0.051 A 
ATOM     25  C   UNL     1     -11.976  39.519   6.674  1.00  0.00     0.157 A 
BRANCH  23  26
ATOM     26  O   UNL     1      -9.658  39.189   6.102  1.00  0.00    -0.493 OA
ATOM     27  C   UNL     1      -8.303  38.882   6.420  1.00  0.00     0.278 C 
ENDBRANCH  23  26
BRANCH  25  28
ATOM     28  O   UNL     1     -12.069  40.451   5.641  1.00  0.00    -0.504 OA
ATOM     29  H   UNL     1     -11.577  41.336   5.679  1.00  0.00     0.293 HD
ENDBRANCH  25  28
ENDBRANCH  19  20
ENDBRANCH  16  18
ENDBRANCH   1  16
TORSDOF 10
ENDMDL
MODEL 6
REMARK VINA RESULT:    -6.358      1.736      7.935
REMARK INTER + INTRA:         -10.583
REMARK INTER:                  -9.990
REMARK INTRA:                  -0.593
REMARK UNBOUND:                -0.880
REMARK SMILES COc1cc(C=CC(=O)CC(=O)C=Cc2ccc(O)c(OC)c2)ccc1O
REMARK SMILES IDX 10 1 8 2 9 3 7 4 6 5 5 6 3 7 26 8 4 9 25 10 24 11 2 12 1 13
REMARK SMILES IDX 27 14 11 16 12 17 13 18 14 19 15 20 23 21 16 22 20 23 17 24
REMARK SMILES IDX 18 25 21 26 22 27 19 28
REMARK H PARENT 27 15 19 29
REMARK Flexibility Score: inf
ROOT
ATOM      1  C   UNL     1      -8.066  35.401   5.499  1.00  0.00     0.160 C 
ENDROOT
BRANCH   1   2
ATOM      2  C   UNL     1      -8.711  34.050   5.448  1.00  0.00     0.163 C 
ATOM      3  O   UNL     1      -8.914  33.509   4.327  1.00  0.00    -0.294 OA
BRANCH   2   4
ATOM      4  C   UNL     1      -9.207  33.426   6.696  1.00  0.00     0.048 C 
ATOM      5  C   UNL     1      -8.759  32.276   7.226  1.00  0.00     0.012 C 
BRANCH   5   6
ATOM      6  C   UNL     1      -7.584  31.513   6.755  1.00  0.00    -0.022 A 
ATOM      7  C   UNL     1      -6.601  29.654   5.509  1.00  0.00     0.161 A 
ATOM      8  C   UNL     1      -5.322  30.156   5.788  1.00  0.00     0.157 A 
ATOM      9  C   UNL     1      -7.733  30.347   5.983  1.00  0.00     0.058 A 
ATOM     10  C   UNL     1      -5.175  31.336   6.530  1.00  0.00     0.051 A 
ATOM     11  C   UNL     1      -6.299  32.016   7.000  1.00  0.00     0.012 A 
BRANCH   7  12
ATOM     12  O   UNL     1      -6.708  28.471   4.760  1.00  0.00    -0.493 OA
ATOM     13  C   UNL     1      -7.864  28.085   4.023  1.00  0.00     0.278 C 
ENDBRANCH   7  12
BRANCH   8  14
ATOM     14  O   UNL     1      -4.197  29.476   5.321  1.00  0.00    -0.504 OA
ATOM     15  H   UNL     1      -4.253  28.512   5.010  1.00  0.00     0.293 HD
ENDBRANCH   8  14
ENDBRANCH   5   6
ENDBRANCH   2   4
ENDBRANCH   1   2
BRANCH   1  16
ATOM     16  C   UNL     1      -9.117  36.464   5.436  1.00  0.00     0.163 C 
ATOM     17  O   UNL     1     -10.304  36.143   5.154  1.00  0.00    -0.294 OA
BRANCH  16  18
ATOM     18  C   UNL     1      -8.761  37.875   5.702  1.00  0.00     0.048 C 
ATOM     19  C   UNL     1      -9.161  38.575   6.773  1.00  0.00     0.012 C 
BRANCH  19  20
ATOM     20  C   UNL     1     -10.181  38.129   7.747  1.00  0.00    -0.022 A 
ATOM     21  C   UNL     1     -10.015  36.898   8.399  1.00  0.00     0.058 A 
ATOM     22  C   UNL     1     -11.261  38.957   8.101  1.00  0.00     0.012 A 
ATOM     23  C   UNL     1     -10.947  36.469   9.366  1.00  0.00     0.161 A 
ATOM     24  C   UNL     1     -12.183  38.540   9.062  1.00  0.00     0.051 A 
ATOM     25  C   UNL     1     -12.031  37.298   9.693  1.00  0.00     0.157 A 
BRANCH  23  26
ATOM     26  O   UNL     1     -10.831  35.233  10.021  1.00  0.00    -0.493 OA
ATOM     27  C   UNL     1     -11.415  34.018   9.558  1.00  0.00     0.278 C 
ENDBRANCH  23  26
BRANCH  25  28
ATOM     28  O   UNL     1     -12.955  36.881  10.650  1.00  0.00    -0.504 OA
ATOM     29  H   UNL     1     -12.766  36.966  11.643  1.00  0.00     0.293 HD
ENDBRANCH  25  28
ENDBRANCH  19  20
ENDBRANCH  16  18
ENDBRANCH   1  16
TORSDOF 10
ENDMDL
MODEL 7
REMARK VINA RESULT:    -6.315     13.605     16.848
REMARK INTER + INTRA:         -10.517
REMARK INTER:                  -8.329
REMARK INTRA:                  -2.187
REMARK UNBOUND:                -0.880
REMARK SMILES COc1cc(C=CC(=O)CC(=O)C=Cc2ccc(O)c(OC)c2)ccc1O
REMARK SMILES IDX 10 1 8 2 9 3 7 4 6 5 5 6 3 7 26 8 4 9 25 10 24 11 2 12 1 13
REMARK SMILES IDX 27 14 11 16 12 17 13 18 14 19 15 20 23 21 16 22 20 23 17 24
REMARK SMILES IDX 18 25 21 26 22 27 19 28
REMARK H PARENT 27 15 19 29
REMARK Flexibility Score: inf
ROOT
ATOM      1  C   UNL     1       1.784  44.369   3.836  1.00  0.00     0.160 C 
ENDROOT
BRANCH   1   2
ATOM      2  C   UNL     1       2.078  45.493   2.890  1.00  0.00     0.163 C 
ATOM      3  O   UNL     1       1.237  45.776   1.994  1.00  0.00    -0.294 OA
BRANCH   2   4
ATOM      4  C   UNL     1       3.393  46.172   2.943  1.00  0.00     0.048 C 
ATOM      5  C   UNL     1       4.506  45.768   2.310  1.00  0.00     0.012 C 
BRANCH   5   6
ATOM      6  C   UNL     1       4.583  44.676   1.317  1.00  0.00    -0.022 A 
ATOM      7  C   UNL     1       4.941  42.326   0.747  1.00  0.00     0.161 A 
ATOM      8  C   UNL     1       4.607  42.609  -0.586  1.00  0.00     0.157 A 
ATOM      9  C   UNL     1       4.912  43.363   1.700  1.00  0.00     0.058 A 
ATOM     10  C   UNL     1       4.248  43.911  -0.961  1.00  0.00     0.051 A 
ATOM     11  C   UNL     1       4.225  44.934  -0.013  1.00  0.00     0.012 A 
BRANCH   7  12
ATOM     12  O   UNL     1       5.292  41.009   1.084  1.00  0.00    -0.493 OA
ATOM     13  C   UNL     1       5.115  40.434   2.376  1.00  0.00     0.278 C 
ENDBRANCH   7  12
BRANCH   8  14
ATOM     14  O   UNL     1       4.633  41.587  -1.534  1.00  0.00    -0.504 OA
ATOM     15  H   UNL     1       5.340  40.860  -1.511  1.00  0.00     0.293 HD
ENDBRANCH   8  14
ENDBRANCH   5   6
ENDBRANCH   2   4
ENDBRANCH   1   2
BRANCH   1  16
ATOM     16  C   UNL     1       0.928  43.348   3.155  1.00  0.00     0.163 C 
ATOM     17  O   UNL     1      -0.323  43.387   3.314  1.00  0.00    -0.294 OA
BRANCH  16  18
ATOM     18  C   UNL     1       1.548  42.309   2.306  1.00  0.00     0.048 C 
ATOM     19  C   UNL     1       1.341  42.174   0.988  1.00  0.00     0.012 C 
BRANCH  19  20
ATOM     20  C   UNL     1       0.312  42.899   0.212  1.00  0.00    -0.022 A 
ATOM     21  C   UNL     1       0.662  44.080  -0.458  1.00  0.00     0.058 A 
ATOM     22  C   UNL     1      -0.984  42.376   0.055  1.00  0.00     0.012 A 
ATOM     23  C   UNL     1      -0.286  44.766  -1.244  1.00  0.00     0.161 A 
ATOM     24  C   UNL     1      -1.926  43.048  -0.726  1.00  0.00     0.051 A 
ATOM     25  C   UNL     1      -1.581  44.243  -1.373  1.00  0.00     0.157 A 
BRANCH  23  26
ATOM     26  O   UNL     1       0.018  45.965  -1.908  1.00  0.00    -0.493 OA
ATOM     27  C   UNL     1       0.670  47.079  -1.302  1.00  0.00     0.278 C 
ENDBRANCH  23  26
BRANCH  25  28
ATOM     28  O   UNL     1      -2.524  44.915  -2.150  1.00  0.00    -0.504 OA
ATOM     29  H   UNL     1      -2.708  45.904  -2.022  1.00  0.00     0.293 HD
ENDBRANCH  25  28
ENDBRANCH  19  20
ENDBRANCH  16  18
ENDBRANCH   1  16
TORSDOF 10
ENDMDL
MODEL 8
REMARK VINA RESULT:    -6.002     14.095     16.324
REMARK INTER + INTRA:         -10.040
REMARK INTER:                  -8.069
REMARK INTRA:                  -1.971
REMARK UNBOUND:                -0.880
REMARK SMILES COc1cc(C=CC(=O)CC(=O)C=Cc2ccc(O)c(OC)c2)ccc1O
REMARK SMILES IDX 10 1 8 2 9 3 7 4 6 5 5 6 3 7 26 8 4 9 25 10 24 11 2 12 1 13
REMARK SMILES IDX 27 14 11 16 12 17 13 18 14 19 15 20 23 21 16 22 20 23 17 24
REMARK SMILES IDX 18 25 21 26 22 27 19 28
REMARK H PARENT 27 15 19 29
REMARK Flexibility Score: inf
ROOT
ATOM      1  C   UNL     1       4.136  45.277   2.430  1.00  0.00     0.160 C 
ENDROOT
BRANCH   1   2
ATOM      2  C   UNL     1       2.771  45.879   2.560  1.00  0.00     0.163 C 
ATOM      3  O   UNL     1       2.457  46.851   1.821  1.00  0.00    -0.294 OA
BRANCH   2   4
ATOM      4  C   UNL     1       1.859  45.408   3.628  1.00  0.00     0.048 C 
ATOM      5  C   UNL     1       0.800  44.601   3.450  1.00  0.00     0.012 C 
BRANCH   5   6
ATOM      6  C   UNL     1       0.451  43.904   2.195  1.00  0.00    -0.022 A 
ATOM      7  C   UNL     1      -0.296  43.938  -0.132  1.00  0.00     0.161 A 
ATOM      8  C   UNL     1      -0.095  42.552  -0.207  1.00  0.00     0.157 A 
ATOM      9  C   UNL     1      -0.006  44.613   1.069  1.00  0.00     0.058 A 
ATOM     10  C   UNL     1       0.392  41.850   0.905  1.00  0.00     0.051 A 
ATOM     11  C   UNL     1       0.674  42.525   2.094  1.00  0.00     0.012 A 
BRANCH   7  12
ATOM     12  O   UNL     1      -0.781  44.606  -1.268  1.00  0.00    -0.493 OA
ATOM     13  C   UNL     1       0.031  45.337  -2.182  1.00  0.00     0.278 C 
ENDBRANCH   7  12
BRANCH   8  14
ATOM     14  O   UNL     1      -0.379  41.877  -1.394  1.00  0.00    -0.504 OA
ATOM     15  H   UNL     1      -0.841  42.340  -2.169  1.00  0.00     0.293 HD
ENDBRANCH   8  14
ENDBRANCH   5   6
ENDBRANCH   2   4
ENDBRANCH   1   2
BRANCH   1  16
ATOM     16  C   UNL     1       4.542  45.256   0.990  1.00  0.00     0.163 C 
ATOM     17  O   UNL     1       5.679  45.694   0.663  1.00  0.00    -0.294 OA
BRANCH  16  18
ATOM     18  C   UNL     1       3.616  44.725  -0.033  1.00  0.00     0.048 C 
ATOM     19  C   UNL     1       3.414  43.422  -0.280  1.00  0.00     0.012 C 
BRANCH  19  20
ATOM     20  C   UNL     1       4.226  42.318   0.274  1.00  0.00    -0.022 A 
ATOM     21  C   UNL     1       5.212  41.721  -0.526  1.00  0.00     0.058 A 
ATOM     22  C   UNL     1       4.094  41.920   1.616  1.00  0.00     0.012 A 
ATOM     23  C   UNL     1       6.032  40.699  -0.008  1.00  0.00     0.161 A 
ATOM     24  C   UNL     1       4.908  40.912   2.136  1.00  0.00     0.051 A 
ATOM     25  C   UNL     1       5.874  40.298   1.327  1.00  0.00     0.157 A 
BRANCH  23  26
ATOM     26  O   UNL     1       7.012  40.059  -0.784  1.00  0.00    -0.493 OA
ATOM     27  C   UNL     1       6.740  39.038  -1.742  1.00  0.00     0.278 C 
ENDBRANCH  23  26
BRANCH  25  28
ATOM     28  O   UNL     1       6.683  39.289   1.846  1.00  0.00    -0.504 OA
ATOM     29  H   UNL     1       7.682  39.269   1.674  1.00  0.00     0.293 HD
ENDBRANCH  25  28
ENDBRANCH  19  20
ENDBRANCH  16  18
ENDBRANCH   1  16
TORSDOF 10
ENDMDL
MODEL 9
REMARK VINA RESULT:    -5.957     13.878     16.882
REMARK INTER + INTRA:          -9.971
REMARK INTER:                  -7.973
REMARK INTRA:                  -1.998
REMARK UNBOUND:                -0.880
REMARK SMILES COc1cc(C=CC(=O)CC(=O)C=Cc2ccc(O)c(OC)c2)ccc1O
REMARK SMILES IDX 10 1 8 2 9 3 7 4 6 5 5 6 3 7 26 8 4 9 25 10 24 11 2 12 1 13
REMARK SMILES IDX 27 14 11 16 12 17 13 18 14 19 15 20 23 21 16 22 20 23 17 24
REMARK SMILES IDX 18 25 21 26 22 27 19 28
REMARK H PARENT 27 15 19 29
REMARK Flexibility Score: inf
ROOT
ATOM      1  C   UNL     1       2.449  45.609   3.496  1.00  0.00     0.160 C 
ENDROOT
BRANCH   1   2
ATOM      2  C   UNL     1       2.893  45.972   2.112  1.00  0.00     0.163 C 
ATOM      3  O   UNL     1       2.185  45.620   1.129  1.00  0.00    -0.294 OA
BRANCH   2   4
ATOM      4  C   UNL     1       4.204  46.629   1.911  1.00  0.00     0.048 C 
ATOM      5  C   UNL     1       5.320  46.027   1.468  1.00  0.00     0.012 C 
BRANCH   5   6
ATOM      6  C   UNL     1       5.402  44.647   0.944  1.00  0.00    -0.022 A 
ATOM      7  C   UNL     1       5.689  42.244   1.286  1.00  0.00     0.161 A 
ATOM      8  C   UNL     1       5.439  42.030  -0.077  1.00  0.00     0.157 A 
ATOM      9  C   UNL     1       5.654  43.557   1.796  1.00  0.00     0.058 A 
ATOM     10  C   UNL     1       5.156  43.114  -0.920  1.00  0.00     0.051 A 
ATOM     11  C   UNL     1       5.126  44.413  -0.409  1.00  0.00     0.012 A 
BRANCH   7  12
ATOM     12  O   UNL     1       5.965  41.133   2.098  1.00  0.00    -0.493 OA
ATOM     13  C   UNL     1       4.982  40.401   2.825  1.00  0.00     0.278 C 
ENDBRANCH   7  12
BRANCH   8  14
ATOM     14  O   UNL     1       5.471  40.733  -0.589  1.00  0.00    -0.504 OA
ATOM     15  H   UNL     1       4.728  40.070  -0.398  1.00  0.00     0.293 HD
ENDBRANCH   8  14
ENDBRANCH   5   6
ENDBRANCH   2   4
ENDBRANCH   1   2
BRANCH   1  16
ATOM     16  C   UNL     1       0.962  45.754   3.602  1.00  0.00     0.163 C 
ATOM     17  O   UNL     1       0.408  46.784   3.132  1.00  0.00    -0.294 OA
BRANCH  16  18
ATOM     18  C   UNL     1       0.160  44.695   4.253  1.00  0.00     0.048 C 
ATOM     19  C   UNL     1      -0.020  43.461   3.762  1.00  0.00     0.012 C 
BRANCH  19  20
ATOM     20  C   UNL     1       0.374  43.022   2.405  1.00  0.00    -0.022 A 
ATOM     21  C   UNL     1      -0.438  43.358   1.312  1.00  0.00     0.058 A 
ATOM     22  C   UNL     1       1.593  42.358   2.181  1.00  0.00     0.012 A 
ATOM     23  C   UNL     1      -0.063  42.993   0.003  1.00  0.00     0.161 A 
ATOM     24  C   UNL     1       1.972  42.000   0.886  1.00  0.00     0.051 A 
ATOM     25  C   UNL     1       1.147  42.312  -0.203  1.00  0.00     0.157 A 
BRANCH  23  26
ATOM     26  O   UNL     1      -0.860  43.287  -1.114  1.00  0.00    -0.493 OA
ATOM     27  C   UNL     1      -0.884  44.549  -1.777  1.00  0.00     0.278 C 
ENDBRANCH  23  26
BRANCH  25  28
ATOM     28  O   UNL     1       1.524  41.951  -1.495  1.00  0.00    -0.504 OA
ATOM     29  H   UNL     1       1.269  41.053  -1.890  1.00  0.00     0.293 HD
ENDBRANCH  25  28
ENDBRANCH  19  20
ENDBRANCH  16  18
ENDBRANCH   1  16
TORSDOF 10
ENDMDL
