MODEL 1
REMARK VINA RESULT:    -3.096      0.000      0.000
REMARK INTER + INTRA:          -4.910
REMARK INTER:                  -4.543
REMARK INTRA:                  -0.367
REMARK UNBOUND:                -0.367
REMARK SMILES O=C([O-])CCCCCCCC(=O)[O-]
REMARK SMILES IDX 7 1 6 2 5 3 4 4 2 5 1 6 3 7 8 8 9 9 10 10 11 11 12 12 13 13
REMARK H PARENT
REMARK Flexibility Score: inf
ROOT
ATOM      1  C   UNL     1       5.513  -1.177  -6.602  1.00  0.00     0.000 C 
ENDROOT
BRANCH   1   2
ATOM      2  C   UNL     1       5.102  -1.739  -5.233  1.00  0.00     0.000 C 
BRANCH   2   3
ATOM      3  C   UNL     1       6.232  -2.533  -4.557  1.00  0.00     0.006 C 
BRANCH   3   4
ATOM      4  C   UNL     1       7.597  -2.295  -5.215  1.00  0.00     0.053 C 
BRANCH   4   5
ATOM      5  C   UNL     1       8.700  -2.594  -4.250  1.00  0.00     0.041 C 
ATOM      6  O   UNL     1       8.810  -1.928  -3.187  1.00  0.00    -0.550 OA
ATOM      7  O   UNL     1       9.638  -3.576  -4.547  1.00  0.00    -0.550 OA
ENDBRANCH   4   5
ENDBRANCH   3   4
ENDBRANCH   2   3
ENDBRANCH   1   2
BRANCH   1   8
ATOM      8  C   UNL     1       5.296   0.339  -6.660  1.00  0.00     0.000 C 
BRANCH   8   9
ATOM      9  C   UNL     1       4.244   0.785  -5.633  1.00  0.00     0.006 C 
BRANCH   9  10
ATOM     10  C   UNL     1       3.788   2.232  -5.859  1.00  0.00     0.053 C 
BRANCH  10  11
ATOM     11  C   UNL     1       2.869   2.701  -4.772  1.00  0.00     0.041 C 
ATOM     12  O   UNL     1       2.212   3.766  -4.911  1.00  0.00    -0.550 OA
ATOM     13  O   UNL     1       2.715   1.942  -3.618  1.00  0.00    -0.550 OA
ENDBRANCH  10  11
ENDBRANCH   9  10
ENDBRANCH   8   9
ENDBRANCH   1   8
TORSDOF 8
ENDMDL
MODEL 2
REMARK VINA RESULT:    -3.069      8.216     10.338
REMARK INTER + INTRA:          -4.870
REMARK INTER:                  -4.532
REMARK INTRA:                  -0.339
REMARK UNBOUND:                -0.367
REMARK SMILES O=C([O-])CCCCCCCC(=O)[O-]
REMARK SMILES IDX 7 1 6 2 5 3 4 4 2 5 1 6 3 7 8 8 9 9 10 10 11 11 12 12 13 13
REMARK H PARENT
REMARK Flexibility Score: inf
ROOT
ATOM      1  C   UNL     1       4.210   5.965   1.836  1.00  0.00     0.000 C 
ENDROOT
BRANCH   1   2
ATOM      2  C   UNL     1       3.352   5.309   2.928  1.00  0.00     0.000 C 
BRANCH   2   3
ATOM      3  C   UNL     1       3.672   3.818   3.118  1.00  0.00     0.006 C 
BRANCH   3   4
ATOM      4  C   UNL     1       2.608   3.085   3.945  1.00  0.00     0.053 C 
BRANCH   4   5
ATOM      5  C   UNL     1       3.014   3.030   5.384  1.00  0.00     0.041 C 
ATOM      6  O   UNL     1       2.269   3.521   6.272  1.00  0.00    -0.550 OA
ATOM      7  O   UNL     1       4.239   2.478   5.741  1.00  0.00    -0.550 OA
ENDBRANCH   4   5
ENDBRANCH   3   4
ENDBRANCH   2   3
ENDBRANCH   1   2
BRANCH   1   8
ATOM      8  C   UNL     1       5.571   5.271   1.718  1.00  0.00     0.000 C 
BRANCH   8   9
ATOM      9  C   UNL     1       6.036   5.214   0.255  1.00  0.00     0.006 C 
BRANCH   9  10
ATOM     10  C   UNL     1       7.435   5.815   0.066  1.00  0.00     0.053 C 
BRANCH  10  11
ATOM     11  C   UNL     1       8.511   4.790   0.260  1.00  0.00     0.041 C 
ATOM     12  O   UNL     1       8.787   3.977  -0.659  1.00  0.00    -0.550 OA
ATOM     13  O   UNL     1       9.231   4.758   1.449  1.00  0.00    -0.550 OA
ENDBRANCH  10  11
ENDBRANCH   9  10
ENDBRANCH   8   9
ENDBRANCH   1   8
TORSDOF 8
ENDMDL
MODEL 3
REMARK VINA RESULT:    -3.057      8.142      9.870
REMARK INTER + INTRA:          -4.853
REMARK INTER:                  -4.529
REMARK INTRA:                  -0.324
REMARK UNBOUND:                -0.367
REMARK SMILES O=C([O-])CCCCCCCC(=O)[O-]
REMARK SMILES IDX 7 1 6 2 5 3 4 4 2 5 1 6 3 7 8 8 9 9 10 10 11 11 12 12 13 13
REMARK H PARENT
REMARK Flexibility Score: inf
ROOT
ATOM      1  C   UNL     1       4.938   5.243   2.343  1.00  0.00     0.000 C 
ENDROOT
BRANCH   1   2
ATOM      2  C   UNL     1       4.743   6.342   1.288  1.00  0.00     0.000 C 
BRANCH   2   3
ATOM      3  C   UNL     1       5.797   6.283   0.171  1.00  0.00     0.006 C 
BRANCH   3   4
ATOM      4  C   UNL     1       6.466   4.907   0.061  1.00  0.00     0.053 C 
BRANCH   4   5
ATOM      5  C   UNL     1       7.955   5.044   0.120  1.00  0.00     0.041 C 
ATOM      6  O   UNL     1       8.693   4.157  -0.382  1.00  0.00    -0.550 OA
ATOM      7  O   UNL     1       8.528   6.129   0.773  1.00  0.00    -0.550 OA
ENDBRANCH   4   5
ENDBRANCH   3   4
ENDBRANCH   2   3
ENDBRANCH   1   2
BRANCH   1   8
ATOM      8  C   UNL     1       3.604   4.868   2.998  1.00  0.00     0.000 C 
BRANCH   8   9
ATOM      9  C   UNL     1       3.634   3.424   3.523  1.00  0.00     0.006 C 
BRANCH   9  10
ATOM     10  C   UNL     1       2.226   2.865   3.765  1.00  0.00     0.053 C 
BRANCH  10  11
ATOM     11  C   UNL     1       2.052   2.391   5.175  1.00  0.00     0.041 C 
ATOM     12  O   UNL     1       2.277   3.168   6.139  1.00  0.00    -0.550 OA
ATOM     13  O   UNL     1       1.607   1.097   5.423  1.00  0.00    -0.550 OA
ENDBRANCH  10  11
ENDBRANCH   9  10
ENDBRANCH   8   9
ENDBRANCH   1   8
TORSDOF 8
ENDMDL
MODEL 4
REMARK VINA RESULT:    -3.022      8.721     10.725
REMARK INTER + INTRA:          -4.802
REMARK INTER:                  -4.640
REMARK INTRA:                  -0.163
REMARK UNBOUND:                -0.367
REMARK SMILES O=C([O-])CCCCCCCC(=O)[O-]
REMARK SMILES IDX 7 1 6 2 5 3 4 4 2 5 1 6 3 7 8 8 9 9 10 10 11 11 12 12 13 13
REMARK H PARENT
REMARK Flexibility Score: inf
ROOT
ATOM      1  C   UNL     1       4.126   4.281   3.369  1.00  0.00     0.000 C 
ENDROOT
BRANCH   1   2
ATOM      2  C   UNL     1       3.047   3.190   3.298  1.00  0.00     0.000 C 
BRANCH   2   3
ATOM      3  C   UNL     1       2.111   3.203   4.517  1.00  0.00     0.006 C 
BRANCH   3   4
ATOM      4  C   UNL     1       2.518   2.179   5.585  1.00  0.00     0.053 C 
BRANCH   4   5
ATOM      5  C   UNL     1       1.333   1.371   6.011  1.00  0.00     0.041 C 
ATOM      6  O   UNL     1       0.749   1.625   7.097  1.00  0.00    -0.550 OA
ATOM      7  O   UNL     1       0.903   0.303   5.231  1.00  0.00    -0.550 OA
ENDBRANCH   4   5
ENDBRANCH   3   4
ENDBRANCH   2   3
ENDBRANCH   1   2
BRANCH   1   8
ATOM      8  C   UNL     1       4.297   4.973   2.012  1.00  0.00     0.000 C 
BRANCH   8   9
ATOM      9  C   UNL     1       5.702   5.578   1.875  1.00  0.00     0.006 C 
BRANCH   9  10
ATOM     10  C   UNL     1       6.297   5.356   0.479  1.00  0.00     0.053 C 
BRANCH  10  11
ATOM     11  C   UNL     1       7.762   5.050   0.541  1.00  0.00     0.041 C 
ATOM     12  O   UNL     1       8.493   5.613   1.398  1.00  0.00    -0.550 OA
ATOM     13  O   UNL     1       8.313   4.115  -0.327  1.00  0.00    -0.550 OA
ENDBRANCH  10  11
ENDBRANCH   9  10
ENDBRANCH   8   9
ENDBRANCH   1   8
TORSDOF 8
ENDMDL
MODEL 5
REMARK VINA RESULT:    -2.949      8.888      9.923
REMARK INTER + INTRA:          -4.695
REMARK INTER:                  -4.420
REMARK INTRA:                  -0.275
REMARK UNBOUND:                -0.367
REMARK SMILES O=C([O-])CCCCCCCC(=O)[O-]
REMARK SMILES IDX 7 1 6 2 5 3 4 4 2 5 1 6 3 7 8 8 9 9 10 10 11 11 12 12 13 13
REMARK H PARENT
REMARK Flexibility Score: inf
ROOT
ATOM      1  C   UNL     1       5.427   5.602   2.026  1.00  0.00     0.000 C 
ENDROOT
BRANCH   1   2
ATOM      2  C   UNL     1       6.022   5.181   0.674  1.00  0.00     0.000 C 
BRANCH   2   3
ATOM      3  C   UNL     1       7.557   5.261   0.653  1.00  0.00     0.006 C 
BRANCH   3   4
ATOM      4  C   UNL     1       8.139   5.787   1.971  1.00  0.00     0.053 C 
BRANCH   4   5
ATOM      5  C   UNL     1       9.584   5.415   2.087  1.00  0.00     0.041 C 
ATOM      6  O   UNL     1      10.418   6.245   2.536  1.00  0.00    -0.550 OA
ATOM      7  O   UNL     1      10.018   4.168   1.655  1.00  0.00    -0.550 OA
ENDBRANCH   4   5
ENDBRANCH   3   4
ENDBRANCH   2   3
ENDBRANCH   1   2
BRANCH   1   8
ATOM      8  C   UNL     1       4.032   4.997   2.224  1.00  0.00     0.000 C 
BRANCH   8   9
ATOM      9  C   UNL     1       3.997   4.087   3.461  1.00  0.00     0.006 C 
BRANCH   9  10
ATOM     10  C   UNL     1       2.829   3.093   3.419  1.00  0.00     0.053 C 
BRANCH  10  11
ATOM     11  C   UNL     1       2.256   2.850   4.781  1.00  0.00     0.041 C 
ATOM     12  O   UNL     1       2.196   3.786   5.621  1.00  0.00    -0.550 OA
ATOM     13  O   UNL     1       1.756   1.596   5.110  1.00  0.00    -0.550 OA
ENDBRANCH  10  11
ENDBRANCH   9  10
ENDBRANCH   8   9
ENDBRANCH   1   8
TORSDOF 8
ENDMDL
MODEL 6
REMARK VINA RESULT:    -2.948      2.320      2.818
REMARK INTER + INTRA:          -4.693
REMARK INTER:                  -4.204
REMARK INTRA:                  -0.489
REMARK UNBOUND:                -0.367
REMARK SMILES O=C([O-])CCCCCCCC(=O)[O-]
REMARK SMILES IDX 7 1 6 2 5 3 4 4 2 5 1 6 3 7 8 8 9 9 10 10 11 11 12 12 13 13
REMARK H PARENT
REMARK Flexibility Score: inf
ROOT
ATOM      1  C   UNL     1       6.051  -0.792  -6.462  1.00  0.00     0.000 C 
ENDROOT
BRANCH   1   2
ATOM      2  C   UNL     1       7.276  -1.560  -5.943  1.00  0.00     0.000 C 
BRANCH   2   3
ATOM      3  C   UNL     1       6.902  -2.656  -4.933  1.00  0.00     0.006 C 
BRANCH   3   4
ATOM      4  C   UNL     1       5.429  -2.594  -4.511  1.00  0.00     0.053 C 
BRANCH   4   5
ATOM      5  C   UNL     1       4.784  -3.935  -4.669  1.00  0.00     0.041 C 
ATOM      6  O   UNL     1       5.021  -4.854  -3.842  1.00  0.00    -0.550 OA
ATOM      7  O   UNL     1       3.958  -4.185  -5.758  1.00  0.00    -0.550 OA
ENDBRANCH   4   5
ENDBRANCH   3   4
ENDBRANCH   2   3
ENDBRANCH   1   2
BRANCH   1   8
ATOM      8  C   UNL     1       6.351   0.707  -6.575  1.00  0.00     0.000 C 
BRANCH   8   9
ATOM      9  C   UNL     1       5.073   1.540  -6.394  1.00  0.00     0.006 C 
BRANCH   9  10
ATOM     10  C   UNL     1       4.045   0.840  -5.494  1.00  0.00     0.053 C 
BRANCH  10  11
ATOM     11  C   UNL     1       3.084   1.815  -4.887  1.00  0.00     0.041 C 
ATOM     12  O   UNL     1       2.921   1.854  -3.639  1.00  0.00    -0.550 OA
ATOM     13  O   UNL     1       2.391   2.705  -5.700  1.00  0.00    -0.550 OA
ENDBRANCH  10  11
ENDBRANCH   9  10
ENDBRANCH   8   9
ENDBRANCH   1   8
TORSDOF 8
ENDMDL
MODEL 7
REMARK VINA RESULT:    -2.942      8.422     11.138
REMARK INTER + INTRA:          -4.684
REMARK INTER:                  -4.356
REMARK INTRA:                  -0.328
REMARK UNBOUND:                -0.367
REMARK SMILES O=C([O-])CCCCCCCC(=O)[O-]
REMARK SMILES IDX 7 1 6 2 5 3 4 4 2 5 1 6 3 7 8 8 9 9 10 10 11 11 12 12 13 13
REMARK H PARENT
REMARK Flexibility Score: inf
ROOT
ATOM      1  C   UNL     1       4.165   4.553   3.362  1.00  0.00     0.000 C 
ENDROOT
BRANCH   1   2
ATOM      2  C   UNL     1       3.472   3.183   3.336  1.00  0.00     0.000 C 
BRANCH   2   3
ATOM      3  C   UNL     1       2.124   3.187   4.073  1.00  0.00     0.006 C 
BRANCH   3   4
ATOM      4  C   UNL     1       1.982   4.370   5.039  1.00  0.00     0.053 C 
BRANCH   4   5
ATOM      5  C   UNL     1       0.704   5.104   4.782  1.00  0.00     0.041 C 
ATOM      6  O   UNL     1       0.471   5.593   3.645  1.00  0.00    -0.550 OA
ATOM      7  O   UNL     1      -0.210   5.291   5.812  1.00  0.00    -0.550 OA
ENDBRANCH   4   5
ENDBRANCH   3   4
ENDBRANCH   2   3
ENDBRANCH   1   2
BRANCH   1   8
ATOM      8  C   UNL     1       4.286   5.134   1.949  1.00  0.00     0.000 C 
BRANCH   8   9
ATOM      9  C   UNL     1       5.715   5.630   1.677  1.00  0.00     0.006 C 
BRANCH   9  10
ATOM     10  C   UNL     1       6.276   5.089   0.355  1.00  0.00     0.053 C 
BRANCH  10  11
ATOM     11  C   UNL     1       7.767   4.953   0.399  1.00  0.00     0.041 C 
ATOM     12  O   UNL     1       8.442   5.619   1.227  1.00  0.00    -0.550 OA
ATOM     13  O   UNL     1       8.408   4.061  -0.454  1.00  0.00    -0.550 OA
ENDBRANCH  10  11
ENDBRANCH   9  10
ENDBRANCH   8   9
ENDBRANCH   1   8
TORSDOF 8
ENDMDL
MODEL 8
REMARK VINA RESULT:    -2.930      1.192      1.854
REMARK INTER + INTRA:          -4.666
REMARK INTER:                  -4.317
REMARK INTRA:                  -0.350
REMARK UNBOUND:                -0.367
REMARK SMILES O=C([O-])CCCCCCCC(=O)[O-]
REMARK SMILES IDX 7 1 6 2 5 3 4 4 2 5 1 6 3 7 8 8 9 9 10 10 11 11 12 12 13 13
REMARK H PARENT
REMARK Flexibility Score: inf
ROOT
ATOM      1  C   UNL     1       6.581   0.056  -6.837  1.00  0.00     0.000 C 
ENDROOT
BRANCH   1   2
ATOM      2  C   UNL     1       8.001   0.556  -6.534  1.00  0.00     0.000 C 
BRANCH   2   3
ATOM      3  C   UNL     1       8.758  -0.366  -5.563  1.00  0.00     0.006 C 
BRANCH   3   4
ATOM      4  C   UNL     1       8.106  -1.748  -5.431  1.00  0.00     0.053 C 
BRANCH   4   5
ATOM      5  C   UNL     1       8.701  -2.497  -4.281  1.00  0.00     0.041 C 
ATOM      6  O   UNL     1       8.863  -1.929  -3.169  1.00  0.00    -0.550 OA
ATOM      7  O   UNL     1       9.123  -3.811  -4.451  1.00  0.00    -0.550 OA
ENDBRANCH   4   5
ENDBRANCH   3   4
ENDBRANCH   2   3
ENDBRANCH   1   2
BRANCH   1   8
ATOM      8  C   UNL     1       5.532   1.080  -6.388  1.00  0.00     0.000 C 
BRANCH   8   9
ATOM      9  C   UNL     1       4.310   0.382  -5.771  1.00  0.00     0.006 C 
BRANCH   9  10
ATOM     10  C   UNL     1       3.016   1.176  -5.989  1.00  0.00     0.053 C 
BRANCH  10  11
ATOM     11  C   UNL     1       2.782   2.170  -4.892  1.00  0.00     0.041 C 
ATOM     12  O   UNL     1       2.988   1.851  -3.692  1.00  0.00    -0.550 OA
ATOM     13  O   UNL     1       2.369   3.461  -5.202  1.00  0.00    -0.550 OA
ENDBRANCH  10  11
ENDBRANCH   9  10
ENDBRANCH   8   9
ENDBRANCH   1   8
TORSDOF 8
ENDMDL
MODEL 9
REMARK VINA RESULT:    -2.900      2.354      6.087
REMARK INTER + INTRA:          -4.622
REMARK INTER:                  -4.135
REMARK INTRA:                  -0.487
REMARK UNBOUND:                -0.367
REMARK SMILES O=C([O-])CCCCCCCC(=O)[O-]
REMARK SMILES IDX 7 1 6 2 5 3 4 4 2 5 1 6 3 7 8 8 9 9 10 10 11 11 12 12 13 13
REMARK H PARENT
REMARK Flexibility Score: inf
ROOT
ATOM      1  C   UNL     1       6.309  -1.188  -6.479  1.00  0.00     0.000 C 
ENDROOT
BRANCH   1   2
ATOM      2  C   UNL     1       6.323   0.348  -6.497  1.00  0.00     0.000 C 
BRANCH   2   3
ATOM      3  C   UNL     1       4.911   0.952  -6.565  1.00  0.00     0.006 C 
BRANCH   3   4
ATOM      4  C   UNL     1       4.034   0.538  -5.376  1.00  0.00     0.053 C 
BRANCH   4   5
ATOM      5  C   UNL     1       3.149   1.672  -4.961  1.00  0.00     0.041 C 
ATOM      6  O   UNL     1       2.924   1.887  -3.742  1.00  0.00    -0.550 OA
ATOM      7  O   UNL     1       2.532   2.461  -5.925  1.00  0.00    -0.550 OA
ENDBRANCH   4   5
ENDBRANCH   3   4
ENDBRANCH   2   3
ENDBRANCH   1   2
BRANCH   1   8
ATOM      8  C   UNL     1       7.391  -1.735  -5.541  1.00  0.00     0.000 C 
BRANCH   8   9
ATOM      9  C   UNL     1       6.804  -2.762  -4.561  1.00  0.00     0.006 C 
BRANCH   9  10
ATOM     10  C   UNL     1       5.273  -2.828  -4.637  1.00  0.00     0.053 C 
BRANCH  10  11
ATOM     11  C   UNL     1       4.772  -4.236  -4.527  1.00  0.00     0.041 C 
ATOM     12  O   UNL     1       5.287  -5.030  -3.698  1.00  0.00    -0.550 OA
ATOM     13  O   UNL     1       3.711  -4.659  -5.320  1.00  0.00    -0.550 OA
ENDBRANCH  10  11
ENDBRANCH   9  10
ENDBRANCH   8   9
ENDBRANCH   1   8
TORSDOF 8
ENDMDL
