MODEL 1
REMARK VINA RESULT:    -2.829      0.000      0.000
REMARK INTER + INTRA:          -2.829
REMARK INTER:                  -2.829
REMARK INTRA:                   0.000
REMARK UNBOUND:                 0.000
REMARK SMILES CC(=O)[O-]
REMARK SMILES IDX 1 1 2 2 3 3 4 4
REMARK H PARENT
REMARK Flexibility Score: inf
ROOT
ATOM      1  C   UNL     1      27.119  -7.140  -6.106  1.00  0.00     0.063 C 
ATOM      2  C   UNL     1      28.190  -7.965  -6.734  1.00  0.00     0.038 C 
ATOM      3  O   UNL     1      28.317  -7.990  -7.986  1.00  0.00    -0.550 OA
ATOM      4  O   UNL     1      29.084  -8.669  -5.936  1.00  0.00    -0.550 OA
ENDROOT
TORSDOF 0
ENDMDL
MODEL 2
REMARK VINA RESULT:    -2.819      1.459      1.763
REMARK INTER + INTRA:          -2.819
REMARK INTER:                  -2.819
REMARK INTRA:                   0.000
REMARK UNBOUND:                 0.000
REMARK SMILES CC(=O)[O-]
REMARK SMILES IDX 1 1 2 2 3 3 4 4
REMARK H PARENT
REMARK Flexibility Score: inf
ROOT
ATOM      1  C   UNL     1      29.074  -8.238  -5.453  1.00  0.00     0.063 C 
ATOM      2  C   UNL     1      28.109  -7.832  -6.514  1.00  0.00     0.038 C 
ATOM      3  O   UNL     1      28.376  -8.043  -7.726  1.00  0.00    -0.550 OA
ATOM      4  O   UNL     1      26.888  -7.267  -6.166  1.00  0.00    -0.550 OA
ENDROOT
TORSDOF 0
ENDMDL
MODEL 3
REMARK VINA RESULT:    -2.798     13.801     14.236
REMARK INTER + INTRA:          -2.798
REMARK INTER:                  -2.798
REMARK INTRA:                   0.000
REMARK UNBOUND:                 0.000
REMARK SMILES CC(=O)[O-]
REMARK SMILES IDX 1 1 2 2 3 3 4 4
REMARK H PARENT
REMARK Flexibility Score: inf
ROOT
ATOM      1  C   UNL     1      17.451  -0.893  -4.643  1.00  0.00     0.063 C 
ATOM      2  C   UNL     1      16.267  -0.826  -3.739  1.00  0.00     0.038 C 
ATOM      3  O   UNL     1      15.122  -0.607  -4.213  1.00  0.00    -0.550 OA
ATOM      4  O   UNL     1      16.417  -1.058  -2.378  1.00  0.00    -0.550 OA
ENDROOT
TORSDOF 0
ENDMDL
MODEL 4
REMARK VINA RESULT:    -2.792     13.510     13.976
REMARK INTER + INTRA:          -2.792
REMARK INTER:                  -2.792
REMARK INTRA:                   0.000
REMARK UNBOUND:                 0.000
REMARK SMILES CC(=O)[O-]
REMARK SMILES IDX 1 1 2 2 3 3 4 4
REMARK H PARENT
REMARK Flexibility Score: inf
ROOT
ATOM      1  C   UNL     1      15.674  -0.424  -4.457  1.00  0.00     0.063 C 
ATOM      2  C   UNL     1      16.534  -1.113  -3.453  1.00  0.00     0.038 C 
ATOM      3  O   UNL     1      16.295  -0.986  -2.224  1.00  0.00    -0.550 OA
ATOM      4  O   UNL     1      17.569  -1.938  -3.873  1.00  0.00    -0.550 OA
ENDROOT
TORSDOF 0
ENDMDL
MODEL 5
REMARK VINA RESULT:    -2.782      1.519      2.057
REMARK INTER + INTRA:          -2.782
REMARK INTER:                  -2.782
REMARK INTRA:                   0.000
REMARK UNBOUND:                 0.000
REMARK SMILES CC(=O)[O-]
REMARK SMILES IDX 1 1 2 2 3 3 4 4
REMARK H PARENT
REMARK Flexibility Score: inf
ROOT
ATOM      1  C   UNL     1      29.265  -8.327  -5.329  1.00  0.00     0.063 C 
ATOM      2  C   UNL     1      28.236  -7.829  -6.286  1.00  0.00     0.038 C 
ATOM      3  O   UNL     1      27.258  -7.155  -5.869  1.00  0.00    -0.550 OA
ATOM      4  O   UNL     1      28.380  -8.064  -7.648  1.00  0.00    -0.550 OA
ENDROOT
TORSDOF 0
ENDMDL
MODEL 6
REMARK VINA RESULT:    -2.646      1.246      1.589
REMARK INTER + INTRA:          -2.646
REMARK INTER:                  -2.646
REMARK INTRA:                   0.000
REMARK UNBOUND:                 0.000
REMARK SMILES CC(=O)[O-]
REMARK SMILES IDX 1 1 2 2 3 3 4 4
REMARK H PARENT
REMARK Flexibility Score: inf
ROOT
ATOM      1  C   UNL     1      26.970  -7.370  -6.815  1.00  0.00     0.063 C 
ATOM      2  C   UNL     1      28.287  -7.486  -6.127  1.00  0.00     0.038 C 
ATOM      3  O   UNL     1      28.721  -6.533  -5.428  1.00  0.00    -0.550 OA
ATOM      4  O   UNL     1      29.016  -8.665  -6.214  1.00  0.00    -0.550 OA
ENDROOT
TORSDOF 0
ENDMDL
MODEL 7
REMARK VINA RESULT:    -2.266     11.426     11.804
REMARK INTER + INTRA:          -2.266
REMARK INTER:                  -2.266
REMARK INTRA:                   0.000
REMARK UNBOUND:                 0.000
REMARK SMILES CC(=O)[O-]
REMARK SMILES IDX 1 1 2 2 3 3 4 4
REMARK H PARENT
REMARK Flexibility Score: inf
ROOT
ATOM      1  C   UNL     1      19.478  -2.693  -4.241  1.00  0.00     0.063 C 
ATOM      2  C   UNL     1      18.958  -1.540  -3.450  1.00  0.00     0.038 C 
ATOM      3  O   UNL     1      19.173  -0.362  -3.836  1.00  0.00    -0.550 OA
ATOM      4  O   UNL     1      18.191  -1.765  -2.314  1.00  0.00    -0.550 OA
ENDROOT
TORSDOF 0
ENDMDL
MODEL 8
REMARK VINA RESULT:    -2.258     10.208     10.717
REMARK INTER + INTRA:          -2.258
REMARK INTER:                  -2.258
REMARK INTRA:                   0.000
REMARK UNBOUND:                 0.000
REMARK SMILES CC(=O)[O-]
REMARK SMILES IDX 1 1 2 2 3 3 4 4
REMARK H PARENT
REMARK Flexibility Score: inf
ROOT
ATOM      1  C   UNL     1      30.125 -16.462  -0.453  1.00  0.00     0.063 C 
ATOM      2  C   UNL     1      28.635 -16.410  -0.456  1.00  0.00     0.038 C 
ATOM      3  O   UNL     1      28.041 -15.301  -0.440  1.00  0.00    -0.550 OA
ATOM      4  O   UNL     1      27.898 -17.586  -0.530  1.00  0.00    -0.550 OA
ENDROOT
TORSDOF 0
ENDMDL
MODEL 9
REMARK VINA RESULT:    -2.175      2.113      2.343
REMARK INTER + INTRA:          -2.175
REMARK INTER:                  -2.175
REMARK INTRA:                   0.000
REMARK UNBOUND:                 0.000
REMARK SMILES CC(=O)[O-]
REMARK SMILES IDX 1 1 2 2 3 3 4 4
REMARK H PARENT
REMARK Flexibility Score: inf
ROOT
ATOM      1  C   UNL     1      26.508  -6.381  -4.204  1.00  0.00     0.063 C 
ATOM      2  C   UNL     1      27.002  -6.537  -5.602  1.00  0.00     0.038 C 
ATOM      3  O   UNL     1      26.353  -6.043  -6.561  1.00  0.00    -0.550 OA
ATOM      4  O   UNL     1      28.206  -7.185  -5.846  1.00  0.00    -0.550 OA
ENDROOT
TORSDOF 0
ENDMDL
