MODEL 1
REMARK VINA RESULT:    -8.516      0.000      0.000
REMARK INTER + INTRA:          -9.457
REMARK INTER:                 -10.010
REMARK INTRA:                   0.553
REMARK UNBOUND:                 0.553
REMARK SMILES O=c1c(O)c(-c2ccc(O)c(O)c2)oc2cc(O)ccc12
REMARK SMILES IDX 5 1 3 2 2 3 1 4 21 5 15 6 14 7 16 8 17 9 19 10 20 11 6 12
REMARK SMILES IDX 7 13 8 14 9 15 13 16 11 17 10 18 12 20 4 22 18 24
REMARK H PARENT 10 19 12 21 4 23 18 25
REMARK Flexibility Score: inf
ROOT
ATOM      1  C   UNL     1      18.170  22.236  40.125  1.00  0.00     0.180 A 
ATOM      2  C   UNL     1      18.116  21.059  40.903  1.00  0.00     0.208 A 
ATOM      3  C   UNL     1      19.171  20.138  40.809  1.00  0.00     0.235 A 
ATOM      4  O   UNL     1      19.150  19.083  41.502  1.00  0.00    -0.285 OA
ATOM      5  C   UNL     1      20.238  20.396  39.934  1.00  0.00     0.069 A 
ATOM      6  C   UNL     1      20.206  21.584  39.172  1.00  0.00     0.142 A 
ATOM      7  O   UNL     1      19.193  22.435  39.297  1.00  0.00    -0.452 OA
ATOM      8  C   UNL     1      21.246  21.873  38.283  1.00  0.00     0.094 A 
ATOM      9  C   UNL     1      22.322  20.989  38.143  1.00  0.00     0.119 A 
ATOM     10  C   UNL     1      22.357  19.809  38.899  1.00  0.00     0.047 A 
ATOM     11  C   UNL     1      21.322  19.511  39.790  1.00  0.00     0.020 A 
ENDROOT
BRANCH   1  12
ATOM     12  C   UNL     1      17.107  23.264  40.182  1.00  0.00     0.025 A 
ATOM     13  C   UNL     1      17.121  24.380  39.327  1.00  0.00     0.016 A 
ATOM     14  C   UNL     1      16.094  25.325  39.382  1.00  0.00     0.051 A 
ATOM     15  C   UNL     1      15.032  25.164  40.278  1.00  0.00     0.157 A 
ATOM     16  C   UNL     1      16.028  23.094  41.065  1.00  0.00     0.062 A 
ATOM     17  C   UNL     1      14.995  24.042  41.121  1.00  0.00     0.158 A 
BRANCH  15  18
ATOM     18  O   UNL     1      14.022  26.125  40.310  1.00  0.00    -0.504 OA
ATOM     19  H   UNL     1      13.390  26.267  39.531  1.00  0.00     0.293 HD
ENDBRANCH  15  18
BRANCH  17  20
ATOM     20  O   UNL     1      13.936  23.871  42.011  1.00  0.00    -0.504 OA
ATOM     21  H   UNL     1      13.486  24.661  42.459  1.00  0.00     0.293 HD
ENDBRANCH  17  20
ENDBRANCH   1  12
BRANCH   2  22
ATOM     22  O   UNL     1      17.017  20.806  41.727  1.00  0.00    -0.502 OA
ATOM     23  H   UNL     1      17.060  20.907  42.734  1.00  0.00     0.293 HD
ENDBRANCH   2  22
BRANCH   9  24
ATOM     24  O   UNL     1      23.348  21.293  37.252  1.00  0.00    -0.508 OA
ATOM     25  H   UNL     1      23.435  22.214  36.840  1.00  0.00     0.293 HD
ENDBRANCH   9  24
TORSDOF 5
ENDMDL
MODEL 2
REMARK VINA RESULT:    -8.152      2.464      7.668
REMARK INTER + INTRA:          -9.029
REMARK INTER:                  -8.762
REMARK INTRA:                  -0.267
REMARK UNBOUND:                 0.553
REMARK SMILES O=c1c(O)c(-c2ccc(O)c(O)c2)oc2cc(O)ccc12
REMARK SMILES IDX 5 1 3 2 2 3 1 4 21 5 15 6 14 7 16 8 17 9 19 10 20 11 6 12
REMARK SMILES IDX 7 13 8 14 9 15 13 16 11 17 10 18 12 20 4 22 18 24
REMARK H PARENT 10 19 12 21 4 23 18 25
REMARK Flexibility Score: inf
ROOT
ATOM      1  C   UNL     1      15.923  23.099  41.366  1.00  0.00     0.180 A 
ATOM      2  C   UNL     1      15.371  24.224  40.718  1.00  0.00     0.208 A 
ATOM      3  C   UNL     1      14.312  24.908  41.336  1.00  0.00     0.235 A 
ATOM      4  O   UNL     1      13.807  25.923  40.781  1.00  0.00    -0.285 OA
ATOM      5  C   UNL     1      13.817  24.448  42.566  1.00  0.00     0.069 A 
ATOM      6  C   UNL     1      14.407  23.301  43.138  1.00  0.00     0.142 A 
ATOM      7  O   UNL     1      15.415  22.687  42.525  1.00  0.00    -0.452 OA
ATOM      8  C   UNL     1      13.936  22.805  44.358  1.00  0.00     0.094 A 
ATOM      9  C   UNL     1      12.880  23.442  45.018  1.00  0.00     0.119 A 
ATOM     10  C   UNL     1      12.292  24.582  44.453  1.00  0.00     0.047 A 
ATOM     11  C   UNL     1      12.755  25.085  43.234  1.00  0.00     0.020 A 
ENDROOT
BRANCH   1  12
ATOM     12  C   UNL     1      17.053  22.336  40.788  1.00  0.00     0.025 A 
ATOM     13  C   UNL     1      18.364  22.841  40.810  1.00  0.00     0.016 A 
ATOM     14  C   UNL     1      19.418  22.092  40.280  1.00  0.00     0.051 A 
ATOM     15  C   UNL     1      19.183  20.826  39.736  1.00  0.00     0.157 A 
ATOM     16  C   UNL     1      16.823  21.055  40.261  1.00  0.00     0.062 A 
ATOM     17  C   UNL     1      17.880  20.301  39.729  1.00  0.00     0.158 A 
BRANCH  15  18
ATOM     18  O   UNL     1      20.255  20.103  39.214  1.00  0.00    -0.504 OA
ATOM     19  H   UNL     1      20.340  19.907  38.224  1.00  0.00     0.293 HD
ENDBRANCH  15  18
BRANCH  17  20
ATOM     20  O   UNL     1      17.639  19.037  39.195  1.00  0.00    -0.504 OA
ATOM     21  H   UNL     1      18.344  18.310  39.213  1.00  0.00     0.293 HD
ENDBRANCH  17  20
ENDBRANCH   1  12
BRANCH   2  22
ATOM     22  O   UNL     1      15.851  24.629  39.470  1.00  0.00    -0.502 OA
ATOM     23  H   UNL     1      16.733  25.116  39.361  1.00  0.00     0.293 HD
ENDBRANCH   2  22
BRANCH   9  24
ATOM     24  O   UNL     1      12.424  22.936  46.232  1.00  0.00    -0.508 OA
ATOM     25  H   UNL     1      11.452  22.684  46.369  1.00  0.00     0.293 HD
ENDBRANCH   9  24
TORSDOF 5
ENDMDL
MODEL 3
REMARK VINA RESULT:    -8.145      2.078      7.638
REMARK INTER + INTRA:          -9.021
REMARK INTER:                  -8.994
REMARK INTRA:                  -0.027
REMARK UNBOUND:                 0.553
REMARK SMILES O=c1c(O)c(-c2ccc(O)c(O)c2)oc2cc(O)ccc12
REMARK SMILES IDX 5 1 3 2 2 3 1 4 21 5 15 6 14 7 16 8 17 9 19 10 20 11 6 12
REMARK SMILES IDX 7 13 8 14 9 15 13 16 11 17 10 18 12 20 4 22 18 24
REMARK H PARENT 10 19 12 21 4 23 18 25
REMARK Flexibility Score: inf
ROOT
ATOM      1  C   UNL     1      16.340  22.849  41.153  1.00  0.00     0.180 A 
ATOM      2  C   UNL     1      15.993  23.885  40.259  1.00  0.00     0.208 A 
ATOM      3  C   UNL     1      14.950  24.757  40.607  1.00  0.00     0.235 A 
ATOM      4  O   UNL     1      14.628  25.697  39.829  1.00  0.00    -0.285 OA
ATOM      5  C   UNL     1      14.266  24.567  41.818  1.00  0.00     0.069 A 
ATOM      6  C   UNL     1      14.656  23.493  42.646  1.00  0.00     0.142 A 
ATOM      7  O   UNL     1      15.656  22.694  42.285  1.00  0.00    -0.452 OA
ATOM      8  C   UNL     1      13.993  23.265  43.856  1.00  0.00     0.094 A 
ATOM      9  C   UNL     1      12.942  24.098  44.253  1.00  0.00     0.119 A 
ATOM     10  C   UNL     1      12.552  25.166  43.434  1.00  0.00     0.047 A 
ATOM     11  C   UNL     1      13.208  25.402  42.222  1.00  0.00     0.020 A 
ENDROOT
BRANCH   1  12
ATOM     12  C   UNL     1      17.440  21.900  40.867  1.00  0.00     0.025 A 
ATOM     13  C   UNL     1      17.221  20.512  40.839  1.00  0.00     0.016 A 
ATOM     14  C   UNL     1      18.269  19.637  40.542  1.00  0.00     0.051 A 
ATOM     15  C   UNL     1      19.545  20.133  40.256  1.00  0.00     0.157 A 
ATOM     16  C   UNL     1      18.717  22.396  40.558  1.00  0.00     0.062 A 
ATOM     17  C   UNL     1      19.771  21.520  40.260  1.00  0.00     0.158 A 
BRANCH  15  18
ATOM     18  O   UNL     1      20.571  19.235  39.965  1.00  0.00    -0.504 OA
ATOM     19  H   UNL     1      20.797  18.460  40.578  1.00  0.00     0.293 HD
ENDBRANCH  15  18
BRANCH  17  20
ATOM     20  O   UNL     1      21.038  22.021  39.968  1.00  0.00    -0.504 OA
ATOM     21  H   UNL     1      21.491  22.700  40.569  1.00  0.00     0.293 HD
ENDBRANCH  17  20
ENDBRANCH   1  12
BRANCH   2  22
ATOM     22  O   UNL     1      16.659  24.019  39.038  1.00  0.00    -0.502 OA
ATOM     23  H   UNL     1      16.275  23.665  38.170  1.00  0.00     0.293 HD
ENDBRANCH   2  22
BRANCH   9  24
ATOM     24  O   UNL     1      12.293  23.856  45.462  1.00  0.00    -0.508 OA
ATOM     25  H   UNL     1      12.687  23.235  46.158  1.00  0.00     0.293 HD
ENDBRANCH   9  24
TORSDOF 5
ENDMDL
MODEL 4
REMARK VINA RESULT:    -7.848      1.502      7.262
REMARK INTER + INTRA:          -8.672
REMARK INTER:                  -9.215
REMARK INTRA:                   0.543
REMARK UNBOUND:                 0.553
REMARK SMILES O=c1c(O)c(-c2ccc(O)c(O)c2)oc2cc(O)ccc12
REMARK SMILES IDX 5 1 3 2 2 3 1 4 21 5 15 6 14 7 16 8 17 9 19 10 20 11 6 12
REMARK SMILES IDX 7 13 8 14 9 15 13 16 11 17 10 18 12 20 4 22 18 24
REMARK H PARENT 10 19 12 21 4 23 18 25
REMARK Flexibility Score: inf
ROOT
ATOM      1  C   UNL     1      18.925  22.962  39.409  1.00  0.00     0.180 A 
ATOM      2  C   UNL     1      19.033  24.131  38.626  1.00  0.00     0.208 A 
ATOM      3  C   UNL     1      17.986  25.067  38.660  1.00  0.00     0.235 A 
ATOM      4  O   UNL     1      18.064  26.125  37.977  1.00  0.00    -0.285 OA
ATOM      5  C   UNL     1      16.856  24.810  39.452  1.00  0.00     0.069 A 
ATOM      6  C   UNL     1      16.814  23.606  40.187  1.00  0.00     0.142 A 
ATOM      7  O   UNL     1      17.829  22.750  40.134  1.00  0.00    -0.452 OA
ATOM      8  C   UNL     1      15.700  23.309  40.980  1.00  0.00     0.094 A 
ATOM      9  C   UNL     1      14.625  24.202  41.051  1.00  0.00     0.119 A 
ATOM     10  C   UNL     1      14.665  25.399  40.322  1.00  0.00     0.047 A 
ATOM     11  C   UNL     1      15.772  25.704  39.526  1.00  0.00     0.020 A 
ENDROOT
BRANCH   1  12
ATOM     12  C   UNL     1      19.993  21.937  39.440  1.00  0.00     0.025 A 
ATOM     13  C   UNL     1      19.887  20.795  40.252  1.00  0.00     0.016 A 
ATOM     14  C   UNL     1      20.896  19.829  40.247  1.00  0.00     0.051 A 
ATOM     15  C   UNL     1      22.017  19.981  39.424  1.00  0.00     0.157 A 
ATOM     16  C   UNL     1      21.109  22.076  38.599  1.00  0.00     0.062 A 
ATOM     17  C   UNL     1      22.123  21.107  38.592  1.00  0.00     0.158 A 
BRANCH  15  18
ATOM     18  O   UNL     1      23.008  19.000  39.442  1.00  0.00    -0.504 OA
ATOM     19  H   UNL     1      22.877  18.112  39.911  1.00  0.00     0.293 HD
ENDBRANCH  15  18
BRANCH  17  20
ATOM     20  O   UNL     1      23.233  21.262  37.764  1.00  0.00    -0.504 OA
ATOM     21  H   UNL     1      23.944  20.543  37.688  1.00  0.00     0.293 HD
ENDBRANCH  17  20
ENDBRANCH   1  12
BRANCH   2  22
ATOM     22  O   UNL     1      20.147  24.336  37.809  1.00  0.00    -0.502 OA
ATOM     23  H   UNL     1      20.968  24.837  38.129  1.00  0.00     0.293 HD
ENDBRANCH   2  22
BRANCH   9  24
ATOM     24  O   UNL     1      13.525  23.890  41.845  1.00  0.00    -0.508 OA
ATOM     25  H   UNL     1      13.458  24.211  42.804  1.00  0.00     0.293 HD
ENDBRANCH   9  24
TORSDOF 5
ENDMDL
MODEL 5
REMARK VINA RESULT:    -7.764      1.784      7.285
REMARK INTER + INTRA:          -8.573
REMARK INTER:                  -8.527
REMARK INTRA:                  -0.046
REMARK UNBOUND:                 0.553
REMARK SMILES O=c1c(O)c(-c2ccc(O)c(O)c2)oc2cc(O)ccc12
REMARK SMILES IDX 5 1 3 2 2 3 1 4 21 5 15 6 14 7 16 8 17 9 19 10 20 11 6 12
REMARK SMILES IDX 7 13 8 14 9 15 13 16 11 17 10 18 12 20 4 22 18 24
REMARK H PARENT 10 19 12 21 4 23 18 25
REMARK Flexibility Score: inf
ROOT
ATOM      1  C   UNL     1      17.075  22.725  40.716  1.00  0.00     0.180 A 
ATOM      2  C   UNL     1      16.652  23.728  39.818  1.00  0.00     0.208 A 
ATOM      3  C   UNL     1      15.529  24.502  40.150  1.00  0.00     0.235 A 
ATOM      4  O   UNL     1      15.137  25.412  39.369  1.00  0.00    -0.285 OA
ATOM      5  C   UNL     1      14.845  24.249  41.350  1.00  0.00     0.069 A 
ATOM      6  C   UNL     1      15.317  23.212  42.183  1.00  0.00     0.142 A 
ATOM      7  O   UNL     1      16.390  22.508  41.837  1.00  0.00    -0.452 OA
ATOM      8  C   UNL     1      14.658  22.923  43.382  1.00  0.00     0.094 A 
ATOM      9  C   UNL     1      13.530  23.658  43.763  1.00  0.00     0.119 A 
ATOM     10  C   UNL     1      13.059  24.689  42.938  1.00  0.00     0.047 A 
ATOM     11  C   UNL     1      13.711  24.985  41.738  1.00  0.00     0.020 A 
ENDROOT
BRANCH   1  12
ATOM     12  C   UNL     1      18.260  21.880  40.447  1.00  0.00     0.025 A 
ATOM     13  C   UNL     1      19.506  22.446  40.128  1.00  0.00     0.016 A 
ATOM     14  C   UNL     1      20.616  21.628  39.902  1.00  0.00     0.051 A 
ATOM     15  C   UNL     1      20.504  20.238  40.005  1.00  0.00     0.157 A 
ATOM     16  C   UNL     1      18.156  20.484  40.571  1.00  0.00     0.062 A 
ATOM     17  C   UNL     1      19.269  19.662  40.345  1.00  0.00     0.158 A 
BRANCH  15  18
ATOM     18  O   UNL     1      21.629  19.448  39.772  1.00  0.00    -0.504 OA
ATOM     19  H   UNL     1      21.863  18.659  40.362  1.00  0.00     0.293 HD
ENDBRANCH  15  18
BRANCH  17  20
ATOM     20  O   UNL     1      19.151  18.277  40.456  1.00  0.00    -0.504 OA
ATOM     21  H   UNL     1      19.209  17.673  39.645  1.00  0.00     0.293 HD
ENDBRANCH  17  20
ENDBRANCH   1  12
BRANCH   2  22
ATOM     22  O   UNL     1      17.322  23.924  38.609  1.00  0.00    -0.502 OA
ATOM     23  H   UNL     1      17.491  23.170  37.954  1.00  0.00     0.293 HD
ENDBRANCH   2  22
BRANCH   9  24
ATOM     24  O   UNL     1      12.886  23.356  44.960  1.00  0.00    -0.508 OA
ATOM     25  H   UNL     1      12.492  24.082  45.547  1.00  0.00     0.293 HD
ENDBRANCH   9  24
TORSDOF 5
ENDMDL
MODEL 6
REMARK VINA RESULT:    -7.576      2.865      5.407
REMARK INTER + INTRA:          -8.352
REMARK INTER:                  -8.822
REMARK INTRA:                   0.470
REMARK UNBOUND:                 0.553
REMARK SMILES O=c1c(O)c(-c2ccc(O)c(O)c2)oc2cc(O)ccc12
REMARK SMILES IDX 5 1 3 2 2 3 1 4 21 5 15 6 14 7 16 8 17 9 19 10 20 11 6 12
REMARK SMILES IDX 7 13 8 14 9 15 13 16 11 17 10 18 12 20 4 22 18 24
REMARK H PARENT 10 19 12 21 4 23 18 25
REMARK Flexibility Score: inf
ROOT
ATOM      1  C   UNL     1      14.644  23.875  42.131  1.00  0.00     0.180 A 
ATOM      2  C   UNL     1      14.707  24.795  41.062  1.00  0.00     0.208 A 
ATOM      3  C   UNL     1      15.642  24.577  40.038  1.00  0.00     0.235 A 
ATOM      4  O   UNL     1      15.712  25.380  39.067  1.00  0.00    -0.285 OA
ATOM      5  C   UNL     1      16.500  23.468  40.109  1.00  0.00     0.069 A 
ATOM      6  C   UNL     1      16.390  22.608  41.223  1.00  0.00     0.142 A 
ATOM      7  O   UNL     1      15.485  22.844  42.168  1.00  0.00    -0.452 OA
ATOM      8  C   UNL     1      17.232  21.498  41.335  1.00  0.00     0.094 A 
ATOM      9  C   UNL     1      18.187  21.232  40.347  1.00  0.00     0.119 A 
ATOM     10  C   UNL     1      18.298  22.084  39.239  1.00  0.00     0.047 A 
ATOM     11  C   UNL     1      17.460  23.197  39.118  1.00  0.00     0.020 A 
ENDROOT
BRANCH   1  12
ATOM     12  C   UNL     1      13.674  24.025  43.239  1.00  0.00     0.025 A 
ATOM     13  C   UNL     1      12.729  25.065  43.250  1.00  0.00     0.016 A 
ATOM     14  C   UNL     1      11.808  25.172  44.295  1.00  0.00     0.051 A 
ATOM     15  C   UNL     1      11.806  24.237  45.335  1.00  0.00     0.157 A 
ATOM     16  C   UNL     1      13.656  23.076  44.274  1.00  0.00     0.062 A 
ATOM     17  C   UNL     1      12.731  23.181  45.324  1.00  0.00     0.158 A 
BRANCH  15  18
ATOM     18  O   UNL     1      10.875  24.371  46.364  1.00  0.00    -0.504 OA
ATOM     19  H   UNL     1      10.853  23.738  47.155  1.00  0.00     0.293 HD
ENDBRANCH  15  18
BRANCH  17  20
ATOM     20  O   UNL     1      12.731  22.241  46.353  1.00  0.00    -0.504 OA
ATOM     21  H   UNL     1      12.209  21.376  46.282  1.00  0.00     0.293 HD
ENDBRANCH  17  20
ENDBRANCH   1  12
BRANCH   2  22
ATOM     22  O   UNL     1      13.875  25.917  41.044  1.00  0.00    -0.502 OA
ATOM     23  H   UNL     1      14.199  26.836  41.319  1.00  0.00     0.293 HD
ENDBRANCH   2  22
BRANCH   9  24
ATOM     24  O   UNL     1      19.017  20.122  40.475  1.00  0.00    -0.508 OA
ATOM     25  H   UNL     1      19.277  19.758  41.385  1.00  0.00     0.293 HD
ENDBRANCH   9  24
TORSDOF 5
ENDMDL
MODEL 7
REMARK VINA RESULT:    -6.929      1.764      3.416
REMARK INTER + INTRA:          -7.591
REMARK INTER:                  -7.906
REMARK INTRA:                   0.315
REMARK UNBOUND:                 0.553
REMARK SMILES O=c1c(O)c(-c2ccc(O)c(O)c2)oc2cc(O)ccc12
REMARK SMILES IDX 5 1 3 2 2 3 1 4 21 5 15 6 14 7 16 8 17 9 19 10 20 11 6 12
REMARK SMILES IDX 7 13 8 14 9 15 13 16 11 17 10 18 12 20 4 22 18 24
REMARK H PARENT 10 19 12 21 4 23 18 25
REMARK Flexibility Score: inf
ROOT
ATOM      1  C   UNL     1      16.843  23.308  40.697  1.00  0.00     0.180 A 
ATOM      2  C   UNL     1      17.325  24.218  39.732  1.00  0.00     0.208 A 
ATOM      3  C   UNL     1      18.489  23.893  39.018  1.00  0.00     0.235 A 
ATOM      4  O   UNL     1      18.934  24.686  38.142  1.00  0.00    -0.285 OA
ATOM      5  C   UNL     1      19.153  22.687  39.291  1.00  0.00     0.069 A 
ATOM      6  C   UNL     1      18.621  21.841  40.288  1.00  0.00     0.142 A 
ATOM      7  O   UNL     1      17.512  22.182  40.937  1.00  0.00    -0.452 OA
ATOM      8  C   UNL     1      19.259  20.635  40.597  1.00  0.00     0.094 A 
ATOM      9  C   UNL     1      20.425  20.260  39.921  1.00  0.00     0.119 A 
ATOM     10  C   UNL     1      20.956  21.097  38.930  1.00  0.00     0.047 A 
ATOM     11  C   UNL     1      20.326  22.305  38.615  1.00  0.00     0.020 A 
ENDROOT
BRANCH   1  12
ATOM     12  C   UNL     1      15.614  23.570  41.479  1.00  0.00     0.025 A 
ATOM     13  C   UNL     1      14.613  24.433  41.001  1.00  0.00     0.016 A 
ATOM     14  C   UNL     1      13.450  24.647  41.746  1.00  0.00     0.051 A 
ATOM     15  C   UNL     1      13.262  23.992  42.967  1.00  0.00     0.157 A 
ATOM     16  C   UNL     1      15.412  22.898  42.695  1.00  0.00     0.062 A 
ATOM     17  C   UNL     1      14.245  23.110  43.444  1.00  0.00     0.158 A 
BRANCH  15  18
ATOM     18  O   UNL     1      12.091  24.226  43.688  1.00  0.00    -0.504 OA
ATOM     19  H   UNL     1      11.371  24.856  43.354  1.00  0.00     0.293 HD
ENDBRANCH  15  18
BRANCH  17  20
ATOM     20  O   UNL     1      14.062  22.449  44.657  1.00  0.00    -0.504 OA
ATOM     21  H   UNL     1      14.066  21.438  44.717  1.00  0.00     0.293 HD
ENDBRANCH  17  20
ENDBRANCH   1  12
BRANCH   2  22
ATOM     22  O   UNL     1      16.671  25.433  39.516  1.00  0.00    -0.502 OA
ATOM     23  H   UNL     1      15.683  25.557  39.701  1.00  0.00     0.293 HD
ENDBRANCH   2  22
BRANCH   9  24
ATOM     24  O   UNL     1      21.047  19.056  40.241  1.00  0.00    -0.508 OA
ATOM     25  H   UNL     1      20.760  18.510  41.045  1.00  0.00     0.293 HD
ENDBRANCH   9  24
TORSDOF 5
ENDMDL
MODEL 8
REMARK VINA RESULT:    -6.832      1.948      2.459
REMARK INTER + INTRA:          -7.478
REMARK INTER:                  -7.225
REMARK INTRA:                  -0.253
REMARK UNBOUND:                 0.553
REMARK SMILES O=c1c(O)c(-c2ccc(O)c(O)c2)oc2cc(O)ccc12
REMARK SMILES IDX 5 1 3 2 2 3 1 4 21 5 15 6 14 7 16 8 17 9 19 10 20 11 6 12
REMARK SMILES IDX 7 13 8 14 9 15 13 16 11 17 10 18 12 20 4 22 18 24
REMARK H PARENT 10 19 12 21 4 23 18 25
REMARK Flexibility Score: inf
ROOT
ATOM      1  C   UNL     1      16.927  22.559  40.772  1.00  0.00     0.180 A 
ATOM      2  C   UNL     1      16.903  21.249  40.246  1.00  0.00     0.208 A 
ATOM      3  C   UNL     1      18.061  20.748  39.630  1.00  0.00     0.235 A 
ATOM      4  O   UNL     1      18.069  19.576  39.161  1.00  0.00    -0.285 OA
ATOM      5  C   UNL     1      19.200  21.562  39.534  1.00  0.00     0.069 A 
ATOM      6  C   UNL     1      19.136  22.868  40.064  1.00  0.00     0.142 A 
ATOM      7  O   UNL     1      18.024  23.303  40.647  1.00  0.00    -0.452 OA
ATOM      8  C   UNL     1      20.247  23.714  39.980  1.00  0.00     0.094 A 
ATOM      9  C   UNL     1      21.427  23.270  39.373  1.00  0.00     0.119 A 
ATOM     10  C   UNL     1      21.495  21.973  38.847  1.00  0.00     0.047 A 
ATOM     11  C   UNL     1      20.389  21.121  38.926  1.00  0.00     0.020 A 
ENDROOT
BRANCH   1  12
ATOM     12  C   UNL     1      15.753  23.153  41.452  1.00  0.00     0.025 A 
ATOM     13  C   UNL     1      14.927  24.087  40.804  1.00  0.00     0.016 A 
ATOM     14  C   UNL     1      13.811  24.616  41.457  1.00  0.00     0.051 A 
ATOM     15  C   UNL     1      13.495  24.211  42.758  1.00  0.00     0.157 A 
ATOM     16  C   UNL     1      15.421  22.732  42.750  1.00  0.00     0.062 A 
ATOM     17  C   UNL     1      14.301  23.262  43.408  1.00  0.00     0.158 A 
BRANCH  15  18
ATOM     18  O   UNL     1      12.376  24.757  43.384  1.00  0.00    -0.504 OA
ATOM     19  H   UNL     1      11.725  25.360  42.893  1.00  0.00     0.293 HD
ENDBRANCH  15  18
BRANCH  17  20
ATOM     20  O   UNL     1      13.988  22.848  44.701  1.00  0.00    -0.504 OA
ATOM     21  H   UNL     1      13.031  22.675  44.987  1.00  0.00     0.293 HD
ENDBRANCH  17  20
ENDBRANCH   1  12
BRANCH   2  22
ATOM     22  O   UNL     1      15.739  20.481  40.312  1.00  0.00    -0.502 OA
ATOM     23  H   UNL     1      15.757  19.484  40.488  1.00  0.00     0.293 HD
ENDBRANCH   2  22
BRANCH   9  24
ATOM     24  O   UNL     1      22.524  24.125  39.298  1.00  0.00    -0.508 OA
ATOM     25  H   UNL     1      22.524  24.933  38.687  1.00  0.00     0.293 HD
ENDBRANCH   9  24
TORSDOF 5
ENDMDL
MODEL 9
REMARK VINA RESULT:    -6.770     16.621     18.533
REMARK INTER + INTRA:          -7.405
REMARK INTER:                  -7.848
REMARK INTRA:                   0.443
REMARK UNBOUND:                 0.553
REMARK SMILES O=c1c(O)c(-c2ccc(O)c(O)c2)oc2cc(O)ccc12
REMARK SMILES IDX 5 1 3 2 2 3 1 4 21 5 15 6 14 7 16 8 17 9 19 10 20 11 6 12
REMARK SMILES IDX 7 13 8 14 9 15 13 16 11 17 10 18 12 20 4 22 18 24
REMARK H PARENT 10 19 12 21 4 23 18 25
REMARK Flexibility Score: inf
ROOT
ATOM      1  C   UNL     1      30.993   9.259  40.499  1.00  0.00     0.180 A 
ATOM      2  C   UNL     1      31.048   7.863  40.693  1.00  0.00     0.208 A 
ATOM      3  C   UNL     1      31.083   7.363  42.004  1.00  0.00     0.235 A 
ATOM      4  O   UNL     1      31.122   6.117  42.204  1.00  0.00    -0.285 OA
ATOM      5  C   UNL     1      31.081   8.258  43.085  1.00  0.00     0.069 A 
ATOM      6  C   UNL     1      31.048   9.642  42.808  1.00  0.00     0.142 A 
ATOM      7  O   UNL     1      31.008  10.075  41.552  1.00  0.00    -0.452 OA
ATOM      8  C   UNL     1      31.055  10.567  43.857  1.00  0.00     0.094 A 
ATOM      9  C   UNL     1      31.093  10.128  45.185  1.00  0.00     0.119 A 
ATOM     10  C   UNL     1      31.124   8.754  45.464  1.00  0.00     0.047 A 
ATOM     11  C   UNL     1      31.119   7.822  44.422  1.00  0.00     0.020 A 
ENDROOT
BRANCH   1  12
ATOM     12  C   UNL     1      30.936   9.863  39.149  1.00  0.00     0.025 A 
ATOM     13  C   UNL     1      30.734   9.076  38.003  1.00  0.00     0.016 A 
ATOM     14  C   UNL     1      30.660   9.671  36.741  1.00  0.00     0.051 A 
ATOM     15  C   UNL     1      30.771  11.058  36.605  1.00  0.00     0.157 A 
ATOM     16  C   UNL     1      31.026  11.258  39.012  1.00  0.00     0.062 A 
ATOM     17  C   UNL     1      30.951  11.858  37.746  1.00  0.00     0.158 A 
BRANCH  15  18
ATOM     18  O   UNL     1      30.694  11.623  35.333  1.00  0.00    -0.504 OA
ATOM     19  H   UNL     1      29.836  12.023  34.973  1.00  0.00     0.293 HD
ENDBRANCH  15  18
BRANCH  17  20
ATOM     20  O   UNL     1      31.056  13.242  37.619  1.00  0.00    -0.504 OA
ATOM     21  H   UNL     1      31.211  13.683  36.720  1.00  0.00     0.293 HD
ENDBRANCH  17  20
ENDBRANCH   1  12
BRANCH   2  22
ATOM     22  O   UNL     1      31.099   6.998  39.597  1.00  0.00    -0.502 OA
ATOM     23  H   UNL     1      30.725   6.057  39.632  1.00  0.00     0.293 HD
ENDBRANCH   2  22
BRANCH   9  24
ATOM     24  O   UNL     1      31.099  11.062  46.217  1.00  0.00    -0.508 OA
ATOM     25  H   UNL     1      31.717  10.965  47.015  1.00  0.00     0.293 HD
ENDBRANCH   9  24
TORSDOF 5
ENDMDL
