MODEL 1
REMARK VINA RESULT:    14.250      0.000      0.000
REMARK INTER + INTRA:          14.250
REMARK INTER:                  14.250
REMARK INTRA:                   0.000
REMARK UNBOUND:                 0.000
REMARK SMILES CC1=CC[C@@]2(C)CCCC(C)(C)[C@]23C[C@H]13
REMARK SMILES IDX 1 1 2 2 3 3 4 4 5 5 7 6 8 7 9 8 10 9 13 10 15 11 14 12 11 13
REMARK SMILES IDX 12 14 6 15
REMARK H PARENT
REMARK Flexibility Score: inf
ROOT
ATOM      1  C   UNL     1     136.001 134.877 161.475  1.00  0.00     0.039 C 
ATOM      2  C   UNL     1     135.773 136.296 161.911  1.00  0.00    -0.074 C 
ATOM      3  C   UNL     1     135.035 137.121 161.149  1.00  0.00    -0.027 C 
ATOM      4  C   UNL     1     134.875 138.574 161.511  1.00  0.00     0.034 C 
ATOM      5  C   UNL     1     136.200 139.154 162.073  1.00  0.00    -0.022 C 
ATOM      6  C   UNL     1     136.007 140.666 162.397  1.00  0.00     0.008 C 
ATOM      7  C   UNL     1     135.367 140.947 163.744  1.00  0.00     0.001 C 
ATOM      8  C   UNL     1     136.240 140.366 164.847  1.00  0.00     0.007 C 
ATOM      9  C   UNL     1     136.267 138.818 164.819  1.00  0.00    -0.029 C 
ATOM     10  C   UNL     1     136.636 138.297 163.354  1.00  0.00    -0.012 C 
ATOM     11  C   UNL     1     136.359 136.773 163.219  1.00  0.00     0.022 C 
ATOM     12  C   UNL     1     137.788 137.270 163.160  1.00  0.00     0.017 C 
ATOM     13  C   UNL     1     134.875 138.295 165.284  1.00  0.00     0.012 C 
ATOM     14  C   UNL     1     137.299 138.382 165.887  1.00  0.00     0.012 C 
ATOM     15  C   UNL     1     137.265 139.129 160.934  1.00  0.00     0.012 C 
ENDROOT
TORSDOF 0
ENDMDL
