MODEL 1
REMARK VINA RESULT:    -6.121      0.000      0.000
REMARK INTER + INTRA:          -6.300
REMARK INTER:                  -6.300
REMARK INTRA:                   0.000
REMARK UNBOUND:                 0.000
REMARK SMILES O=c1ccc2cc(O)ccc2o1
REMARK SMILES IDX 9 1 10 2 11 3 5 4 4 5 3 6 2 7 1 8 12 9 6 10 7 11 8 12
REMARK H PARENT 8 13
REMARK Flexibility Score: inf
ROOT
ATOM      1  C   UNL     1      12.620  11.545  14.134  1.00  0.00     0.050 A 
ATOM      2  C   UNL     1      12.077  10.707  13.155  1.00  0.00     0.052 A 
ATOM      3  C   UNL     1      10.769  10.230  13.285  1.00  0.00     0.138 A 
ATOM      4  C   UNL     1       9.998  10.598  14.409  1.00  0.00     0.021 A 
ATOM      5  C   UNL     1       8.693  10.105  14.512  1.00  0.00     0.019 A 
ATOM      6  C   UNL     1       8.195   9.272  13.511  1.00  0.00     0.094 A 
ATOM      7  C   UNL     1       9.017   8.951  12.425  1.00  0.00     0.336 A 
ATOM      8  O   UNL     1       8.585   8.202  11.511  1.00  0.00    -0.246 OA
ATOM      9  O   UNL     1      10.255   9.433  12.351  1.00  0.00    -0.423 OA
ATOM     10  C   UNL     1      10.546  11.438  15.390  1.00  0.00     0.058 A 
ATOM     11  C   UNL     1      11.859  11.912  15.251  1.00  0.00     0.116 A 
ENDROOT
BRANCH  11  12
ATOM     12  O   UNL     1      12.417  12.747  16.217  1.00  0.00    -0.508 OA
ATOM     13  H   UNL     1      13.283  13.246  16.050  1.00  0.00     0.293 HD
ENDBRANCH  11  12
TORSDOF 1
ENDMDL
MODEL 2
REMARK VINA RESULT:    -5.895      1.844      4.072
REMARK INTER + INTRA:          -6.068
REMARK INTER:                  -6.068
REMARK INTRA:                   0.000
REMARK UNBOUND:                 0.000
REMARK SMILES O=c1ccc2cc(O)ccc2o1
REMARK SMILES IDX 9 1 10 2 11 3 5 4 4 5 3 6 2 7 1 8 12 9 6 10 7 11 8 12
REMARK H PARENT 8 13
REMARK Flexibility Score: inf
ROOT
ATOM      1  C   UNL     1       8.392   9.034  13.092  1.00  0.00     0.050 A 
ATOM      2  C   UNL     1       9.733   9.085  12.698  1.00  0.00     0.052 A 
ATOM      3  C   UNL     1      10.671   9.758  13.488  1.00  0.00     0.138 A 
ATOM      4  C   UNL     1      10.259  10.384  14.685  1.00  0.00     0.021 A 
ATOM      5  C   UNL     1      11.220  11.048  15.454  1.00  0.00     0.019 A 
ATOM      6  C   UNL     1      12.545  11.073  15.021  1.00  0.00     0.094 A 
ATOM      7  C   UNL     1      12.880  10.430  13.824  1.00  0.00     0.336 A 
ATOM      8  O   UNL     1      14.071  10.441  13.418  1.00  0.00    -0.246 OA
ATOM      9  O   UNL     1      11.947   9.805  13.112  1.00  0.00    -0.423 OA
ATOM     10  C   UNL     1       8.913  10.330  15.076  1.00  0.00     0.058 A 
ATOM     11  C   UNL     1       7.979   9.654  14.278  1.00  0.00     0.116 A 
ENDROOT
BRANCH  11  12
ATOM     12  O   UNL     1       6.638   9.592  14.653  1.00  0.00    -0.508 OA
ATOM     13  H   UNL     1       6.357   9.222  15.554  1.00  0.00     0.293 HD
ENDBRANCH  11  12
TORSDOF 1
ENDMDL
MODEL 3
REMARK VINA RESULT:    -5.585      0.945      4.766
REMARK INTER + INTRA:          -5.748
REMARK INTER:                  -5.748
REMARK INTRA:                   0.000
REMARK UNBOUND:                 0.000
REMARK SMILES O=c1ccc2cc(O)ccc2o1
REMARK SMILES IDX 9 1 10 2 11 3 5 4 4 5 3 6 2 7 1 8 12 9 6 10 7 11 8 12
REMARK H PARENT 8 13
REMARK Flexibility Score: inf
ROOT
ATOM      1  C   UNL     1       7.979   9.387  13.800  1.00  0.00     0.050 A 
ATOM      2  C   UNL     1       8.654  10.218  14.700  1.00  0.00     0.052 A 
ATOM      3  C   UNL     1       9.951  10.657  14.413  1.00  0.00     0.138 A 
ATOM      4  C   UNL     1      10.576  10.258  13.212  1.00  0.00     0.021 A 
ATOM      5  C   UNL     1      11.873  10.713  12.953  1.00  0.00     0.019 A 
ATOM      6  C   UNL     1      12.506  11.540  13.879  1.00  0.00     0.094 A 
ATOM      7  C   UNL     1      11.824  11.895  15.049  1.00  0.00     0.336 A 
ATOM      8  O   UNL     1      12.378  12.641  15.897  1.00  0.00    -0.246 OA
ATOM      9  O   UNL     1      10.591  11.449  15.271  1.00  0.00    -0.423 OA
ATOM     10  C   UNL     1       9.896   9.424  12.312  1.00  0.00     0.058 A 
ATOM     11  C   UNL     1       8.596   8.988  12.607  1.00  0.00     0.116 A 
ENDROOT
BRANCH  11  12
ATOM     12  O   UNL     1       7.908   8.160  11.723  1.00  0.00    -0.508 OA
ATOM     13  H   UNL     1       7.106   8.493  11.201  1.00  0.00     0.293 HD
ENDBRANCH  11  12
TORSDOF 1
ENDMDL
MODEL 4
REMARK VINA RESULT:    -5.491      1.897      2.497
REMARK INTER + INTRA:          -5.651
REMARK INTER:                  -5.651
REMARK INTRA:                   0.000
REMARK UNBOUND:                 0.000
REMARK SMILES O=c1ccc2cc(O)ccc2o1
REMARK SMILES IDX 9 1 10 2 11 3 5 4 4 5 3 6 2 7 1 8 12 9 6 10 7 11 8 12
REMARK H PARENT 8 13
REMARK Flexibility Score: inf
ROOT
ATOM      1  C   UNL     1      12.336  11.215  15.099  1.00  0.00     0.050 A 
ATOM      2  C   UNL     1      10.977  11.146  15.420  1.00  0.00     0.052 A 
ATOM      3  C   UNL     1      10.098  10.425  14.605  1.00  0.00     0.138 A 
ATOM      4  C   UNL     1      10.588   9.767  13.456  1.00  0.00     0.021 A 
ATOM      5  C   UNL     1       9.686   9.054  12.661  1.00  0.00     0.019 A 
ATOM      6  C   UNL     1       8.339   9.013  13.021  1.00  0.00     0.094 A 
ATOM      7  C   UNL     1       7.925   9.689  14.175  1.00  0.00     0.336 A 
ATOM      8  O   UNL     1       6.715   9.664  14.517  1.00  0.00    -0.246 OA
ATOM      9  O   UNL     1       8.805  10.360  14.914  1.00  0.00    -0.423 OA
ATOM     10  C   UNL     1      11.952   9.839  13.137  1.00  0.00     0.058 A 
ATOM     11  C   UNL     1      12.827  10.565  13.960  1.00  0.00     0.116 A 
ENDROOT
BRANCH  11  12
ATOM     12  O   UNL     1      14.184  10.645  13.655  1.00  0.00    -0.508 OA
ATOM     13  H   UNL     1      14.886  10.220  14.249  1.00  0.00     0.293 HD
ENDBRANCH  11  12
TORSDOF 1
ENDMDL
MODEL 5
REMARK VINA RESULT:    -5.435      1.895      3.263
REMARK INTER + INTRA:          -5.594
REMARK INTER:                  -5.594
REMARK INTRA:                   0.000
REMARK UNBOUND:                 0.000
REMARK SMILES O=c1ccc2cc(O)ccc2o1
REMARK SMILES IDX 9 1 10 2 11 3 5 4 4 5 3 6 2 7 1 8 12 9 6 10 7 11 8 12
REMARK H PARENT 8 13
REMARK Flexibility Score: inf
ROOT
ATOM      1  C   UNL     1       9.548   8.992  15.306  1.00  0.00     0.050 A 
ATOM      2  C   UNL     1       9.775   9.073  13.928  1.00  0.00     0.052 A 
ATOM      3  C   UNL     1      10.655  10.032  13.416  1.00  0.00     0.138 A 
ATOM      4  C   UNL     1      11.313  10.919  14.296  1.00  0.00     0.021 A 
ATOM      5  C   UNL     1      12.187  11.868  13.755  1.00  0.00     0.019 A 
ATOM      6  C   UNL     1      12.381  11.911  12.375  1.00  0.00     0.094 A 
ATOM      7  C   UNL     1      11.694  10.999  11.564  1.00  0.00     0.336 A 
ATOM      8  O   UNL     1      11.857  11.022  10.317  1.00  0.00    -0.246 OA
ATOM      9  O   UNL     1      10.869  10.107  12.105  1.00  0.00    -0.423 OA
ATOM     10  C   UNL     1      11.083  10.835  15.677  1.00  0.00     0.058 A 
ATOM     11  C   UNL     1      10.199   9.870  16.182  1.00  0.00     0.116 A 
ENDROOT
BRANCH  11  12
ATOM     12  O   UNL     1       9.960   9.774  17.551  1.00  0.00    -0.508 OA
ATOM     13  H   UNL     1       9.398   9.026  17.940  1.00  0.00     0.293 HD
ENDBRANCH  11  12
TORSDOF 1
ENDMDL
MODEL 6
REMARK VINA RESULT:    -5.276      2.143      4.054
REMARK INTER + INTRA:          -5.430
REMARK INTER:                  -5.430
REMARK INTRA:                   0.000
REMARK UNBOUND:                 0.000
REMARK SMILES O=c1ccc2cc(O)ccc2o1
REMARK SMILES IDX 9 1 10 2 11 3 5 4 4 5 3 6 2 7 1 8 12 9 6 10 7 11 8 12
REMARK H PARENT 8 13
REMARK Flexibility Score: inf
ROOT
ATOM      1  C   UNL     1       9.344   9.840  15.695  1.00  0.00     0.050 A 
ATOM      2  C   UNL     1      10.721  10.012  15.524  1.00  0.00     0.052 A 
ATOM      3  C   UNL     1      11.281   9.963  14.242  1.00  0.00     0.138 A 
ATOM      4  C   UNL     1      10.449   9.740  13.123  1.00  0.00     0.021 A 
ATOM      5  C   UNL     1      11.037   9.696  11.855  1.00  0.00     0.019 A 
ATOM      6  C   UNL     1      12.415   9.872  11.733  1.00  0.00     0.094 A 
ATOM      7  C   UNL     1      13.176  10.090  12.887  1.00  0.00     0.336 A 
ATOM      8  O   UNL     1      14.420  10.253  12.797  1.00  0.00    -0.246 OA
ATOM      9  O   UNL     1      12.591  10.128  14.082  1.00  0.00    -0.423 OA
ATOM     10  C   UNL     1       9.068   9.567  13.300  1.00  0.00     0.058 A 
ATOM     11  C   UNL     1       8.516   9.617  14.588  1.00  0.00     0.116 A 
ENDROOT
BRANCH  11  12
ATOM     12  O   UNL     1       7.146   9.448  14.779  1.00  0.00    -0.508 OA
ATOM     13  H   UNL     1       6.679   8.584  14.529  1.00  0.00     0.293 HD
ENDBRANCH  11  12
TORSDOF 1
ENDMDL
MODEL 7
REMARK VINA RESULT:    -5.247      2.223      3.820
REMARK INTER + INTRA:          -5.400
REMARK INTER:                  -5.400
REMARK INTRA:                   0.000
REMARK UNBOUND:                 0.000
REMARK SMILES O=c1ccc2cc(O)ccc2o1
REMARK SMILES IDX 9 1 10 2 11 3 5 4 4 5 3 6 2 7 1 8 12 9 6 10 7 11 8 12
REMARK H PARENT 8 13
REMARK Flexibility Score: inf
ROOT
ATOM      1  C   UNL     1       9.579  10.174  14.083  1.00  0.00     0.050 A 
ATOM      2  C   UNL     1      10.440   9.719  13.079  1.00  0.00     0.052 A 
ATOM      3  C   UNL     1      11.826   9.811  13.248  1.00  0.00     0.138 A 
ATOM      4  C   UNL     1      12.352  10.365  14.435  1.00  0.00     0.021 A 
ATOM      5  C   UNL     1      13.741  10.444  14.575  1.00  0.00     0.019 A 
ATOM      6  C   UNL     1      14.560   9.977  13.547  1.00  0.00     0.094 A 
ATOM      7  C   UNL     1      13.968   9.440  12.399  1.00  0.00     0.336 A 
ATOM      8  O   UNL     1      14.690   9.013  11.461  1.00  0.00    -0.246 OA
ATOM      9  O   UNL     1      12.643   9.376  12.291  1.00  0.00    -0.423 OA
ATOM     10  C   UNL     1      11.485  10.821  15.439  1.00  0.00     0.058 A 
ATOM     11  C   UNL     1      10.097  10.725  15.262  1.00  0.00     0.116 A 
ENDROOT
BRANCH  11  12
ATOM     12  O   UNL     1       9.223  11.173  16.250  1.00  0.00    -0.508 OA
ATOM     13  H   UNL     1       9.210  10.757  17.174  1.00  0.00     0.293 HD
ENDBRANCH  11  12
TORSDOF 1
ENDMDL
MODEL 8
REMARK VINA RESULT:    -5.223      2.175      2.794
REMARK INTER + INTRA:          -5.376
REMARK INTER:                  -5.376
REMARK INTRA:                   0.000
REMARK UNBOUND:                 0.000
REMARK SMILES O=c1ccc2cc(O)ccc2o1
REMARK SMILES IDX 9 1 10 2 11 3 5 4 4 5 3 6 2 7 1 8 12 9 6 10 7 11 8 12
REMARK H PARENT 8 13
REMARK Flexibility Score: inf
ROOT
ATOM      1  C   UNL     1      12.375   9.819  11.557  1.00  0.00     0.050 A 
ATOM      2  C   UNL     1      10.983   9.781  11.694  1.00  0.00     0.052 A 
ATOM      3  C   UNL     1      10.405   9.686  12.963  1.00  0.00     0.138 A 
ATOM      4  C   UNL     1      11.231   9.628  14.107  1.00  0.00     0.021 A 
ATOM      5  C   UNL     1      10.623   9.533  15.363  1.00  0.00     0.019 A 
ATOM      6  C   UNL     1       9.232   9.498  15.450  1.00  0.00     0.094 A 
ATOM      7  C   UNL     1       8.477   9.561  14.273  1.00  0.00     0.336 A 
ATOM      8  O   UNL     1       7.221   9.532  14.331  1.00  0.00    -0.246 OA
ATOM      9  O   UNL     1       9.080   9.651  13.090  1.00  0.00    -0.423 OA
ATOM     10  C   UNL     1      12.626   9.666  13.966  1.00  0.00     0.058 A 
ATOM     11  C   UNL     1      13.198   9.761  12.688  1.00  0.00     0.116 A 
ENDROOT
BRANCH  11  12
ATOM     12  O   UNL     1      14.582   9.800  12.532  1.00  0.00    -0.508 OA
ATOM     13  H   UNL     1      15.196  10.029  13.305  1.00  0.00     0.293 HD
ENDBRANCH  11  12
TORSDOF 1
ENDMDL
MODEL 9
REMARK VINA RESULT:    -5.193      2.280      4.040
REMARK INTER + INTRA:          -5.345
REMARK INTER:                  -5.345
REMARK INTRA:                   0.000
REMARK UNBOUND:                 0.000
REMARK SMILES O=c1ccc2cc(O)ccc2o1
REMARK SMILES IDX 9 1 10 2 11 3 5 4 4 5 3 6 2 7 1 8 12 9 6 10 7 11 8 12
REMARK H PARENT 8 13
REMARK Flexibility Score: inf
ROOT
ATOM      1  C   UNL     1       9.774  11.080  15.356  1.00  0.00     0.050 A 
ATOM      2  C   UNL     1      10.737  11.899  14.757  1.00  0.00     0.052 A 
ATOM      3  C   UNL     1      11.362  11.497  13.572  1.00  0.00     0.138 A 
ATOM      4  C   UNL     1      11.017  10.262  12.982  1.00  0.00     0.021 A 
ATOM      5  C   UNL     1      11.659   9.887  11.798  1.00  0.00     0.019 A 
ATOM      6  C   UNL     1      12.613  10.736  11.237  1.00  0.00     0.094 A 
ATOM      7  C   UNL     1      12.903  11.947  11.878  1.00  0.00     0.336 A 
ATOM      8  O   UNL     1      13.760  12.727  11.388  1.00  0.00    -0.246 OA
ATOM      9  O   UNL     1      12.277  12.279  13.004  1.00  0.00    -0.423 OA
ATOM     10  C   UNL     1      10.051   9.443  13.586  1.00  0.00     0.058 A 
ATOM     11  C   UNL     1       9.430   9.854  14.775  1.00  0.00     0.116 A 
ENDROOT
BRANCH  11  12
ATOM     12  O   UNL     1       8.468   9.051  15.386  1.00  0.00    -0.508 OA
ATOM     13  H   UNL     1       7.487   9.124  15.145  1.00  0.00     0.293 HD
ENDBRANCH  11  12
TORSDOF 1
ENDMDL
