MODEL 1
REMARK VINA RESULT:    -6.113      0.000      0.000
REMARK INTER + INTRA:          -6.718
REMARK INTER:                  -7.185
REMARK INTRA:                   0.466
REMARK UNBOUND:                 0.466
REMARK SMILES O=c1c(O)c(-c2ccc(O)cc2)oc2cc(O)cc(O)c12
REMARK SMILES IDX 5 1 3 2 2 3 1 4 21 5 19 6 18 7 16 8 15 9 14 10 13 11 6 12
REMARK SMILES IDX 7 13 8 14 9 15 12 16 11 17 10 18 4 20 20 22 17 24
REMARK H PARENT 10 19 4 21 20 23 17 25
REMARK Flexibility Score: inf
ROOT
ATOM      1  C   UNL     1       0.139 -19.245  -8.167  1.00  0.00     0.180 A 
ATOM      2  C   UNL     1       1.237 -19.030  -7.317  1.00  0.00     0.208 A 
ATOM      3  C   UNL     1       1.383 -17.779  -6.696  1.00  0.00     0.238 A 
ATOM      4  O   UNL     1       2.407 -17.570  -5.995  1.00  0.00    -0.285 OA
ATOM      5  C   UNL     1       0.400 -16.778  -6.886  1.00  0.00     0.111 A 
ATOM      6  C   UNL     1       0.422 -15.490  -6.271  1.00  0.00     0.134 A 
ATOM      7  C   UNL     1      -0.548 -14.542  -6.618  1.00  0.00     0.093 A 
ATOM      8  C   UNL     1      -1.576 -14.856  -7.509  1.00  0.00     0.123 A 
ATOM      9  C   UNL     1      -1.638 -16.128  -8.072  1.00  0.00     0.094 A 
ATOM     10  C   UNL     1      -0.663 -17.083  -7.776  1.00  0.00     0.146 A 
ATOM     11  O   UNL     1      -0.750 -18.275  -8.353  1.00  0.00    -0.452 OA
ENDROOT
BRANCH   1  12
ATOM     12  C   UNL     1      -0.076 -20.531  -8.869  1.00  0.00     0.021 A 
ATOM     13  C   UNL     1       0.922 -21.522  -8.904  1.00  0.00     0.016 A 
ATOM     14  C   UNL     1       0.705 -22.718  -9.596  1.00  0.00     0.047 A 
ATOM     15  C   UNL     1      -0.504 -22.933 -10.269  1.00  0.00     0.115 A 
ATOM     16  C   UNL     1      -1.277 -20.746  -9.566  1.00  0.00     0.016 A 
ATOM     17  C   UNL     1      -1.491 -21.944 -10.254  1.00  0.00     0.047 A 
BRANCH  15  18
ATOM     18  O   UNL     1      -0.732 -24.122 -10.959  1.00  0.00    -0.508 OA
ATOM     19  H   UNL     1      -1.274 -24.141 -11.815  1.00  0.00     0.293 HD
ENDBRANCH  15  18
ENDBRANCH   1  12
BRANCH   2  20
ATOM     20  O   UNL     1       2.154 -20.057  -7.080  1.00  0.00    -0.502 OA
ATOM     21  H   UNL     1       2.801 -20.383  -7.788  1.00  0.00     0.293 HD
ENDBRANCH   2  20
BRANCH   6  22
ATOM     22  O   UNL     1       1.352 -15.101  -5.301  1.00  0.00    -0.507 OA
ATOM     23  H   UNL     1       1.795 -14.197  -5.254  1.00  0.00     0.293 HD
ENDBRANCH   6  22
BRANCH   8  24
ATOM     24  O   UNL     1      -2.548 -13.912  -7.835  1.00  0.00    -0.508 OA
ATOM     25  H   UNL     1      -3.307 -14.130  -8.470  1.00  0.00     0.293 HD
ENDBRANCH   8  24
TORSDOF 5
ENDMDL
MODEL 2
REMARK VINA RESULT:    -6.065      1.472      3.229
REMARK INTER + INTRA:          -6.662
REMARK INTER:                  -7.010
REMARK INTRA:                   0.347
REMARK UNBOUND:                 0.466
REMARK SMILES O=c1c(O)c(-c2ccc(O)cc2)oc2cc(O)cc(O)c12
REMARK SMILES IDX 5 1 3 2 2 3 1 4 21 5 19 6 18 7 16 8 15 9 14 10 13 11 6 12
REMARK SMILES IDX 7 13 8 14 9 15 12 16 11 17 10 18 4 20 20 22 17 24
REMARK H PARENT 10 19 4 21 20 23 17 25
REMARK Flexibility Score: inf
ROOT
ATOM      1  C   UNL     1      -0.687 -18.689  -8.249  1.00  0.00     0.180 A 
ATOM      2  C   UNL     1      -1.785 -18.153  -8.943  1.00  0.00     0.208 A 
ATOM      3  C   UNL     1      -2.242 -16.868  -8.606  1.00  0.00     0.238 A 
ATOM      4  O   UNL     1      -3.270 -16.426  -9.180  1.00  0.00    -0.285 OA
ATOM      5  C   UNL     1      -1.561 -16.113  -7.621  1.00  0.00     0.111 A 
ATOM      6  C   UNL     1      -1.909 -14.784  -7.232  1.00  0.00     0.134 A 
ATOM      7  C   UNL     1      -1.229 -14.176  -6.170  1.00  0.00     0.093 A 
ATOM      8  C   UNL     1      -0.173 -14.822  -5.524  1.00  0.00     0.123 A 
ATOM      9  C   UNL     1       0.210 -16.097  -5.934  1.00  0.00     0.094 A 
ATOM     10  C   UNL     1      -0.474 -16.747  -6.964  1.00  0.00     0.146 A 
ATOM     11  O   UNL     1      -0.088 -17.970  -7.306  1.00  0.00    -0.452 OA
ENDROOT
BRANCH   1  12
ATOM     12  C   UNL     1      -0.156 -20.041  -8.536  1.00  0.00     0.021 A 
ATOM     13  C   UNL     1      -0.962 -21.036  -9.118  1.00  0.00     0.016 A 
ATOM     14  C   UNL     1      -0.445 -22.314  -9.356  1.00  0.00     0.047 A 
ATOM     15  C   UNL     1       0.877 -22.616  -9.005  1.00  0.00     0.115 A 
ATOM     16  C   UNL     1       1.162 -20.360  -8.167  1.00  0.00     0.016 A 
ATOM     17  C   UNL     1       1.676 -21.637  -8.408  1.00  0.00     0.047 A 
BRANCH  15  18
ATOM     18  O   UNL     1       1.403 -23.885  -9.239  1.00  0.00    -0.508 OA
ATOM     19  H   UNL     1       1.570 -24.537  -8.481  1.00  0.00     0.293 HD
ENDBRANCH  15  18
ENDBRANCH   1  12
BRANCH   2  20
ATOM     20  O   UNL     1      -2.395 -18.883  -9.966  1.00  0.00    -0.502 OA
ATOM     21  H   UNL     1      -1.936 -19.658 -10.429  1.00  0.00     0.293 HD
ENDBRANCH   2  20
BRANCH   6  22
ATOM     22  O   UNL     1      -2.888 -14.014  -7.867  1.00  0.00    -0.507 OA
ATOM     23  H   UNL     1      -2.917 -13.815  -8.855  1.00  0.00     0.293 HD
ENDBRANCH   6  22
BRANCH   8  24
ATOM     24  O   UNL     1       0.509 -14.202  -4.480  1.00  0.00    -0.508 OA
ATOM     25  H   UNL     1       1.161 -14.712  -3.896  1.00  0.00     0.293 HD
ENDBRANCH   8  24
TORSDOF 5
ENDMDL
MODEL 3
REMARK VINA RESULT:    -6.030      1.458      3.063
REMARK INTER + INTRA:          -6.621
REMARK INTER:                  -7.091
REMARK INTRA:                   0.470
REMARK UNBOUND:                 0.466
REMARK SMILES O=c1c(O)c(-c2ccc(O)cc2)oc2cc(O)cc(O)c12
REMARK SMILES IDX 5 1 3 2 2 3 1 4 21 5 19 6 18 7 16 8 15 9 14 10 13 11 6 12
REMARK SMILES IDX 7 13 8 14 9 15 12 16 11 17 10 18 4 20 20 22 17 24
REMARK H PARENT 10 19 4 21 20 23 17 25
REMARK Flexibility Score: inf
ROOT
ATOM      1  C   UNL     1      -0.634 -18.679  -8.207  1.00  0.00     0.180 A 
ATOM      2  C   UNL     1      -1.717 -18.146  -8.927  1.00  0.00     0.208 A 
ATOM      3  C   UNL     1      -2.180 -16.859  -8.608  1.00  0.00     0.238 A 
ATOM      4  O   UNL     1      -3.195 -16.418  -9.206  1.00  0.00    -0.285 OA
ATOM      5  C   UNL     1      -1.518 -16.099  -7.613  1.00  0.00     0.111 A 
ATOM      6  C   UNL     1      -1.873 -14.767  -7.239  1.00  0.00     0.134 A 
ATOM      7  C   UNL     1      -1.215 -14.153  -6.167  1.00  0.00     0.093 A 
ATOM      8  C   UNL     1      -0.173 -14.796  -5.495  1.00  0.00     0.123 A 
ATOM      9  C   UNL     1       0.217 -16.074  -5.889  1.00  0.00     0.094 A 
ATOM     10  C   UNL     1      -0.446 -16.729  -6.929  1.00  0.00     0.146 A 
ATOM     11  O   UNL     1      -0.055 -17.955  -7.256  1.00  0.00    -0.452 OA
ENDROOT
BRANCH   1  12
ATOM     12  C   UNL     1      -0.099 -20.034  -8.474  1.00  0.00     0.021 A 
ATOM     13  C   UNL     1       1.211 -20.390  -8.107  1.00  0.00     0.016 A 
ATOM     14  C   UNL     1       1.702 -21.668  -8.394  1.00  0.00     0.047 A 
ATOM     15  C   UNL     1       0.895 -22.599  -9.061  1.00  0.00     0.115 A 
ATOM     16  C   UNL     1      -0.894 -20.967  -9.162  1.00  0.00     0.016 A 
ATOM     17  C   UNL     1      -0.401 -22.244  -9.446  1.00  0.00     0.047 A 
BRANCH  15  18
ATOM     18  O   UNL     1       1.373 -23.876  -9.350  1.00  0.00    -0.508 OA
ATOM     19  H   UNL     1       1.459 -24.584  -8.630  1.00  0.00     0.293 HD
ENDBRANCH  15  18
ENDBRANCH   1  12
BRANCH   2  20
ATOM     20  O   UNL     1      -2.306 -18.882  -9.958  1.00  0.00    -0.502 OA
ATOM     21  H   UNL     1      -1.804 -19.594 -10.474  1.00  0.00     0.293 HD
ENDBRANCH   2  20
BRANCH   6  22
ATOM     22  O   UNL     1      -2.837 -13.999  -7.899  1.00  0.00    -0.507 OA
ATOM     23  H   UNL     1      -2.697 -13.526  -8.779  1.00  0.00     0.293 HD
ENDBRANCH   6  22
BRANCH   8  24
ATOM     24  O   UNL     1       0.487 -14.170  -4.441  1.00  0.00    -0.508 OA
ATOM     25  H   UNL     1      -0.008 -13.865  -3.611  1.00  0.00     0.293 HD
ENDBRANCH   8  24
TORSDOF 5
ENDMDL
MODEL 4
REMARK VINA RESULT:    -6.028      3.702      6.641
REMARK INTER + INTRA:          -6.618
REMARK INTER:                  -6.344
REMARK INTRA:                  -0.275
REMARK UNBOUND:                 0.466
REMARK SMILES O=c1c(O)c(-c2ccc(O)cc2)oc2cc(O)cc(O)c12
REMARK SMILES IDX 5 1 3 2 2 3 1 4 21 5 19 6 18 7 16 8 15 9 14 10 13 11 6 12
REMARK SMILES IDX 7 13 8 14 9 15 12 16 11 17 10 18 4 20 20 22 17 24
REMARK H PARENT 10 19 4 21 20 23 17 25
REMARK Flexibility Score: inf
ROOT
ATOM      1  C   UNL     1       1.545 -17.233  -5.694  1.00  0.00     0.180 A 
ATOM      2  C   UNL     1       2.837 -16.718  -5.490  1.00  0.00     0.208 A 
ATOM      3  C   UNL     1       3.820 -17.549  -4.927  1.00  0.00     0.238 A 
ATOM      4  O   UNL     1       4.952 -17.060  -4.680  1.00  0.00    -0.285 OA
ATOM      5  C   UNL     1       3.515 -18.899  -4.629  1.00  0.00     0.111 A 
ATOM      6  C   UNL     1       4.445 -19.844  -4.098  1.00  0.00     0.134 A 
ATOM      7  C   UNL     1       4.002 -21.123  -3.741  1.00  0.00     0.093 A 
ATOM      8  C   UNL     1       2.679 -21.514  -3.955  1.00  0.00     0.123 A 
ATOM      9  C   UNL     1       1.777 -20.618  -4.524  1.00  0.00     0.094 A 
ATOM     10  C   UNL     1       2.178 -19.321  -4.854  1.00  0.00     0.146 A 
ATOM     11  O   UNL     1       1.280 -18.494  -5.373  1.00  0.00    -0.452 OA
ENDROOT
BRANCH   1  12
ATOM     12  C   UNL     1       0.452 -16.415  -6.268  1.00  0.00     0.021 A 
ATOM     13  C   UNL     1       0.162 -16.442  -7.644  1.00  0.00     0.016 A 
ATOM     14  C   UNL     1      -0.858 -15.641  -8.167  1.00  0.00     0.047 A 
ATOM     15  C   UNL     1      -1.591 -14.795  -7.325  1.00  0.00     0.115 A 
ATOM     16  C   UNL     1      -0.274 -15.547  -5.434  1.00  0.00     0.016 A 
ATOM     17  C   UNL     1      -1.294 -14.749  -5.960  1.00  0.00     0.047 A 
BRANCH  15  18
ATOM     18  O   UNL     1      -2.612 -13.994  -7.834  1.00  0.00    -0.508 OA
ATOM     19  H   UNL     1      -3.292 -13.554  -7.225  1.00  0.00     0.293 HD
ENDBRANCH  15  18
ENDBRANCH   1  12
BRANCH   2  20
ATOM     20  O   UNL     1       3.139 -15.407  -5.864  1.00  0.00    -0.502 OA
ATOM     21  H   UNL     1       3.228 -14.656  -5.190  1.00  0.00     0.293 HD
ENDBRANCH   2  20
BRANCH   6  22
ATOM     22  O   UNL     1       5.809 -19.588  -3.926  1.00  0.00    -0.507 OA
ATOM     23  H   UNL     1       6.222 -19.179  -3.102  1.00  0.00     0.293 HD
ENDBRANCH   6  22
BRANCH   8  24
ATOM     24  O   UNL     1       2.251 -22.795  -3.613  1.00  0.00    -0.508 OA
ATOM     25  H   UNL     1       1.588 -22.950  -2.864  1.00  0.00     0.293 HD
ENDBRANCH   8  24
TORSDOF 5
ENDMDL
MODEL 5
REMARK VINA RESULT:    -6.011      1.413      6.531
REMARK INTER + INTRA:          -6.599
REMARK INTER:                  -6.427
REMARK INTRA:                  -0.172
REMARK UNBOUND:                 0.466
REMARK SMILES O=c1c(O)c(-c2ccc(O)cc2)oc2cc(O)cc(O)c12
REMARK SMILES IDX 5 1 3 2 2 3 1 4 21 5 19 6 18 7 16 8 15 9 14 10 13 11 6 12
REMARK SMILES IDX 7 13 8 14 9 15 12 16 11 17 10 18 4 20 20 22 17 24
REMARK H PARENT 10 19 4 21 20 23 17 25
REMARK Flexibility Score: inf
ROOT
ATOM      1  C   UNL     1      -0.057 -19.108  -8.120  1.00  0.00     0.180 A 
ATOM      2  C   UNL     1       1.076 -19.471  -7.372  1.00  0.00     0.208 A 
ATOM      3  C   UNL     1       1.625 -20.752  -7.546  1.00  0.00     0.238 A 
ATOM      4  O   UNL     1       2.593 -21.096  -6.820  1.00  0.00    -0.285 OA
ATOM      5  C   UNL     1       1.071 -21.632  -8.507  1.00  0.00     0.111 A 
ATOM      6  C   UNL     1       1.574 -22.936  -8.800  1.00  0.00     0.134 A 
ATOM      7  C   UNL     1       0.879 -23.759  -9.694  1.00  0.00     0.093 A 
ATOM      8  C   UNL     1      -0.264 -23.304 -10.355  1.00  0.00     0.123 A 
ATOM      9  C   UNL     1      -0.730 -22.013 -10.118  1.00  0.00     0.094 A 
ATOM     10  C   UNL     1      -0.082 -21.181  -9.201  1.00  0.00     0.146 A 
ATOM     11  O   UNL     1      -0.575 -19.967  -8.991  1.00  0.00    -0.452 OA
ENDROOT
BRANCH   1  12
ATOM     12  C   UNL     1      -0.702 -17.782  -7.982  1.00  0.00     0.021 A 
ATOM     13  C   UNL     1      -1.990 -17.647  -7.434  1.00  0.00     0.016 A 
ATOM     14  C   UNL     1      -2.588 -16.386  -7.337  1.00  0.00     0.047 A 
ATOM     15  C   UNL     1      -1.912 -15.249  -7.798  1.00  0.00     0.115 A 
ATOM     16  C   UNL     1      -0.040 -16.638  -8.461  1.00  0.00     0.016 A 
ATOM     17  C   UNL     1      -0.640 -15.380  -8.361  1.00  0.00     0.047 A 
BRANCH  15  18
ATOM     18  O   UNL     1      -2.497 -13.988  -7.704  1.00  0.00    -0.508 OA
ATOM     19  H   UNL     1      -3.354 -13.840  -7.183  1.00  0.00     0.293 HD
ENDBRANCH  15  18
ENDBRANCH   1  12
BRANCH   2  20
ATOM     20  O   UNL     1       1.655 -18.560  -6.486  1.00  0.00    -0.502 OA
ATOM     21  H   UNL     1       1.709 -17.568  -6.683  1.00  0.00     0.293 HD
ENDBRANCH   2  20
BRANCH   6  22
ATOM     22  O   UNL     1       2.756 -23.458  -8.264  1.00  0.00    -0.507 OA
ATOM     23  H   UNL     1       3.682 -23.273  -8.618  1.00  0.00     0.293 HD
ENDBRANCH   6  22
BRANCH   8  24
ATOM     24  O   UNL     1      -0.939 -24.124 -11.256  1.00  0.00    -0.508 OA
ATOM     25  H   UNL     1      -1.919 -24.350 -11.135  1.00  0.00     0.293 HD
ENDBRANCH   8  24
TORSDOF 5
ENDMDL
MODEL 6
REMARK VINA RESULT:    -5.936      1.446      6.476
REMARK INTER + INTRA:          -6.510
REMARK INTER:                  -6.308
REMARK INTRA:                  -0.202
REMARK UNBOUND:                 0.466
REMARK SMILES O=c1c(O)c(-c2ccc(O)cc2)oc2cc(O)cc(O)c12
REMARK SMILES IDX 5 1 3 2 2 3 1 4 21 5 19 6 18 7 16 8 15 9 14 10 13 11 6 12
REMARK SMILES IDX 7 13 8 14 9 15 12 16 11 17 10 18 4 20 20 22 17 24
REMARK H PARENT 10 19 4 21 20 23 17 25
REMARK Flexibility Score: inf
ROOT
ATOM      1  C   UNL     1       0.181 -17.937  -7.428  1.00  0.00     0.180 A 
ATOM      2  C   UNL     1       1.432 -18.558  -7.279  1.00  0.00     0.208 A 
ATOM      3  C   UNL     1       1.619 -19.848  -7.801  1.00  0.00     0.238 A 
ATOM      4  O   UNL     1       2.717 -20.427  -7.599  1.00  0.00    -0.285 OA
ATOM      5  C   UNL     1       0.572 -20.478  -8.516  1.00  0.00     0.111 A 
ATOM      6  C   UNL     1       0.664 -21.765  -9.127  1.00  0.00     0.134 A 
ATOM      7  C   UNL     1      -0.472 -22.333  -9.716  1.00  0.00     0.093 A 
ATOM      8  C   UNL     1      -1.680 -21.635  -9.773  1.00  0.00     0.123 A 
ATOM      9  C   UNL     1      -1.765 -20.356  -9.229  1.00  0.00     0.094 A 
ATOM     10  C   UNL     1      -0.661 -19.778  -8.599  1.00  0.00     0.146 A 
ATOM     11  O   UNL     1      -0.794 -18.566  -8.076  1.00  0.00    -0.452 OA
ENDROOT
BRANCH   1  12
ATOM     12  C   UNL     1      -0.098 -16.584  -6.893  1.00  0.00     0.021 A 
ATOM     13  C   UNL     1      -0.189 -16.348  -5.509  1.00  0.00     0.016 A 
ATOM     14  C   UNL     1      -0.478 -15.067  -5.029  1.00  0.00     0.047 A 
ATOM     15  C   UNL     1      -0.691 -14.011  -5.924  1.00  0.00     0.115 A 
ATOM     16  C   UNL     1      -0.334 -15.523  -7.783  1.00  0.00     0.016 A 
ATOM     17  C   UNL     1      -0.621 -14.243  -7.300  1.00  0.00     0.047 A 
BRANCH  15  18
ATOM     18  O   UNL     1      -0.978 -12.730  -5.456  1.00  0.00    -0.508 OA
ATOM     19  H   UNL     1      -1.339 -12.010  -6.072  1.00  0.00     0.293 HD
ENDBRANCH  15  18
ENDBRANCH   1  12
BRANCH   2  20
ATOM     20  O   UNL     1       2.478 -17.888  -6.638  1.00  0.00    -0.502 OA
ATOM     21  H   UNL     1       2.708 -18.044  -5.664  1.00  0.00     0.293 HD
ENDBRANCH   2  20
BRANCH   6  22
ATOM     22  O   UNL     1       1.844 -22.511  -9.205  1.00  0.00    -0.507 OA
ATOM     23  H   UNL     1       2.676 -22.337  -8.662  1.00  0.00     0.293 HD
ENDBRANCH   6  22
BRANCH   8  24
ATOM     24  O   UNL     1      -2.801 -22.201 -10.377  1.00  0.00    -0.508 OA
ATOM     25  H   UNL     1      -3.712 -22.173  -9.935  1.00  0.00     0.293 HD
ENDBRANCH   8  24
TORSDOF 5
ENDMDL
MODEL 7
REMARK VINA RESULT:    -5.895      3.172      5.370
REMARK INTER + INTRA:          -6.463
REMARK INTER:                  -6.475
REMARK INTRA:                   0.012
REMARK UNBOUND:                 0.466
REMARK SMILES O=c1c(O)c(-c2ccc(O)cc2)oc2cc(O)cc(O)c12
REMARK SMILES IDX 5 1 3 2 2 3 1 4 21 5 19 6 18 7 16 8 15 9 14 10 13 11 6 12
REMARK SMILES IDX 7 13 8 14 9 15 12 16 11 17 10 18 4 20 20 22 17 24
REMARK H PARENT 10 19 4 21 20 23 17 25
REMARK Flexibility Score: inf
ROOT
ATOM      1  C   UNL     1       1.948 -17.426  -5.810  1.00  0.00     0.180 A 
ATOM      2  C   UNL     1       1.374 -17.982  -6.967  1.00  0.00     0.208 A 
ATOM      3  C   UNL     1       0.304 -17.315  -7.584  1.00  0.00     0.238 A 
ATOM      4  O   UNL     1      -0.252 -17.855  -8.574  1.00  0.00    -0.285 OA
ATOM      5  C   UNL     1      -0.142 -16.073  -7.071  1.00  0.00     0.111 A 
ATOM      6  C   UNL     1      -1.189 -15.287  -7.642  1.00  0.00     0.134 A 
ATOM      7  C   UNL     1      -1.618 -14.126  -6.987  1.00  0.00     0.093 A 
ATOM      8  C   UNL     1      -0.996 -13.688  -5.816  1.00  0.00     0.123 A 
ATOM      9  C   UNL     1       0.062 -14.418  -5.281  1.00  0.00     0.094 A 
ATOM     10  C   UNL     1       0.488 -15.601  -5.890  1.00  0.00     0.146 A 
ATOM     11  O   UNL     1       1.486 -16.276  -5.333  1.00  0.00    -0.452 OA
ENDROOT
BRANCH   1  12
ATOM     12  C   UNL     1       3.069 -18.077  -5.095  1.00  0.00     0.021 A 
ATOM     13  C   UNL     1       3.017 -19.435  -4.731  1.00  0.00     0.016 A 
ATOM     14  C   UNL     1       4.078 -20.021  -4.033  1.00  0.00     0.047 A 
ATOM     15  C   UNL     1       5.196 -19.255  -3.680  1.00  0.00     0.115 A 
ATOM     16  C   UNL     1       4.186 -17.312  -4.717  1.00  0.00     0.016 A 
ATOM     17  C   UNL     1       5.245 -17.901  -4.021  1.00  0.00     0.047 A 
BRANCH  15  18
ATOM     18  O   UNL     1       6.261 -19.829  -2.987  1.00  0.00    -0.508 OA
ATOM     19  H   UNL     1       7.104 -19.305  -2.785  1.00  0.00     0.293 HD
ENDBRANCH  15  18
ENDBRANCH   1  12
BRANCH   2  20
ATOM     20  O   UNL     1       1.880 -19.169  -7.502  1.00  0.00    -0.502 OA
ATOM     21  H   UNL     1       1.381 -20.048  -7.444  1.00  0.00     0.293 HD
ENDBRANCH   2  20
BRANCH   6  22
ATOM     22  O   UNL     1      -1.819 -15.585  -8.855  1.00  0.00    -0.507 OA
ATOM     23  H   UNL     1      -2.816 -15.663  -8.985  1.00  0.00     0.293 HD
ENDBRANCH   6  22
BRANCH   8  24
ATOM     24  O   UNL     1      -1.418 -12.523  -5.180  1.00  0.00    -0.508 OA
ATOM     25  H   UNL     1      -0.930 -12.153  -4.373  1.00  0.00     0.293 HD
ENDBRANCH   8  24
TORSDOF 5
ENDMDL
MODEL 8
REMARK VINA RESULT:    -5.874      2.191      7.602
REMARK INTER + INTRA:          -6.438
REMARK INTER:                  -6.525
REMARK INTRA:                   0.087
REMARK UNBOUND:                 0.466
REMARK SMILES O=c1c(O)c(-c2ccc(O)cc2)oc2cc(O)cc(O)c12
REMARK SMILES IDX 5 1 3 2 2 3 1 4 21 5 19 6 18 7 16 8 15 9 14 10 13 11 6 12
REMARK SMILES IDX 7 13 8 14 9 15 12 16 11 17 10 18 4 20 20 22 17 24
REMARK H PARENT 10 19 4 21 20 23 17 25
REMARK Flexibility Score: inf
ROOT
ATOM      1  C   UNL     1      -1.130 -15.544  -6.356  1.00  0.00     0.180 A 
ATOM      2  C   UNL     1      -2.024 -15.915  -7.375  1.00  0.00     0.208 A 
ATOM      3  C   UNL     1      -1.783 -17.095  -8.097  1.00  0.00     0.238 A 
ATOM      4  O   UNL     1      -2.545 -17.381  -9.056  1.00  0.00    -0.285 OA
ATOM      5  C   UNL     1      -0.685 -17.919  -7.753  1.00  0.00     0.111 A 
ATOM      6  C   UNL     1      -0.370 -19.160  -8.387  1.00  0.00     0.134 A 
ATOM      7  C   UNL     1       0.804 -19.837  -8.035  1.00  0.00     0.093 A 
ATOM      8  C   UNL     1       1.642 -19.353  -7.029  1.00  0.00     0.123 A 
ATOM      9  C   UNL     1       1.315 -18.172  -6.366  1.00  0.00     0.094 A 
ATOM     10  C   UNL     1       0.171 -17.452  -6.721  1.00  0.00     0.146 A 
ATOM     11  O   UNL     1      -0.090 -16.321  -6.078  1.00  0.00    -0.452 OA
ENDROOT
BRANCH   1  12
ATOM     12  C   UNL     1      -1.309 -14.308  -5.561  1.00  0.00     0.021 A 
ATOM     13  C   UNL     1      -0.237 -13.431  -5.319  1.00  0.00     0.016 A 
ATOM     14  C   UNL     1      -0.425 -12.282  -4.544  1.00  0.00     0.047 A 
ATOM     15  C   UNL     1      -1.681 -12.003  -3.992  1.00  0.00     0.115 A 
ATOM     16  C   UNL     1      -2.561 -14.031  -4.985  1.00  0.00     0.016 A 
ATOM     17  C   UNL     1      -2.746 -12.881  -4.212  1.00  0.00     0.047 A 
BRANCH  15  18
ATOM     18  O   UNL     1      -1.881 -10.860  -3.219  1.00  0.00    -0.508 OA
ATOM     19  H   UNL     1      -2.783 -10.651  -2.807  1.00  0.00     0.293 HD
ENDBRANCH  15  18
ENDBRANCH   1  12
BRANCH   2  20
ATOM     20  O   UNL     1      -3.146 -15.128  -7.647  1.00  0.00    -0.502 OA
ATOM     21  H   UNL     1      -4.067 -15.350  -7.288  1.00  0.00     0.293 HD
ENDBRANCH   2  20
BRANCH   6  22
ATOM     22  O   UNL     1      -1.183 -19.780  -9.341  1.00  0.00    -0.507 OA
ATOM     23  H   UNL     1      -2.161 -19.582  -9.483  1.00  0.00     0.293 HD
ENDBRANCH   6  22
BRANCH   8  24
ATOM     24  O   UNL     1       2.799 -20.042  -6.673  1.00  0.00    -0.508 OA
ATOM     25  H   UNL     1       2.835 -21.055  -6.676  1.00  0.00     0.293 HD
ENDBRANCH   8  24
TORSDOF 5
ENDMDL
MODEL 9
REMARK VINA RESULT:    -5.773      2.125      6.762
REMARK INTER + INTRA:          -6.319
REMARK INTER:                  -6.074
REMARK INTRA:                  -0.245
REMARK UNBOUND:                 0.466
REMARK SMILES O=c1c(O)c(-c2ccc(O)cc2)oc2cc(O)cc(O)c12
REMARK SMILES IDX 5 1 3 2 2 3 1 4 21 5 19 6 18 7 16 8 15 9 14 10 13 11 6 12
REMARK SMILES IDX 7 13 8 14 9 15 12 16 11 17 10 18 4 20 20 22 17 24
REMARK H PARENT 10 19 4 21 20 23 17 25
REMARK Flexibility Score: inf
ROOT
ATOM      1  C   UNL     1       0.134 -16.862  -5.628  1.00  0.00     0.180 A 
ATOM      2  C   UNL     1       1.277 -17.159  -4.867  1.00  0.00     0.208 A 
ATOM      3  C   UNL     1       2.029 -18.301  -5.186  1.00  0.00     0.238 A 
ATOM      4  O   UNL     1       3.008 -18.602  -4.455  1.00  0.00    -0.285 OA
ATOM      5  C   UNL     1       1.663 -19.100  -6.296  1.00  0.00     0.111 A 
ATOM      6  C   UNL     1       2.377 -20.254  -6.738  1.00  0.00     0.134 A 
ATOM      7  C   UNL     1       1.860 -21.028  -7.784  1.00  0.00     0.093 A 
ATOM      8  C   UNL     1       0.689 -20.655  -8.446  1.00  0.00     0.123 A 
ATOM      9  C   UNL     1       0.014 -19.500  -8.059  1.00  0.00     0.094 A 
ATOM     10  C   UNL     1       0.483 -18.728  -6.993  1.00  0.00     0.146 A 
ATOM     11  O   UNL     1      -0.204 -17.648  -6.644  1.00  0.00    -0.452 OA
ENDROOT
BRANCH   1  12
ATOM     12  C   UNL     1      -0.718 -15.684  -5.344  1.00  0.00     0.021 A 
ATOM     13  C   UNL     1      -1.965 -15.818  -4.707  1.00  0.00     0.016 A 
ATOM     14  C   UNL     1      -2.763 -14.693  -4.473  1.00  0.00     0.047 A 
ATOM     15  C   UNL     1      -2.331 -13.425  -4.884  1.00  0.00     0.115 A 
ATOM     16  C   UNL     1      -0.303 -14.411  -5.772  1.00  0.00     0.016 A 
ATOM     17  C   UNL     1      -1.102 -13.289  -5.535  1.00  0.00     0.047 A 
BRANCH  15  18
ATOM     18  O   UNL     1      -3.117 -12.298  -4.654  1.00  0.00    -0.508 OA
ATOM     19  H   UNL     1      -3.366 -11.665  -5.405  1.00  0.00     0.293 HD
ENDBRANCH  15  18
ENDBRANCH   1  12
BRANCH   2  20
ATOM     20  O   UNL     1       1.667 -16.315  -3.824  1.00  0.00    -0.502 OA
ATOM     21  H   UNL     1       2.318 -16.605  -3.104  1.00  0.00     0.293 HD
ENDBRANCH   2  20
BRANCH   6  22
ATOM     22  O   UNL     1       3.603 -20.667  -6.207  1.00  0.00    -0.507 OA
ATOM     23  H   UNL     1       4.265 -20.063  -5.744  1.00  0.00     0.293 HD
ENDBRANCH   6  22
BRANCH   8  24
ATOM     24  O   UNL     1       0.191 -21.422  -9.497  1.00  0.00    -0.508 OA
ATOM     25  H   UNL     1      -0.381 -21.013 -10.227  1.00  0.00     0.293 HD
ENDBRANCH   8  24
TORSDOF 5
ENDMDL
