MODEL 1
REMARK VINA RESULT:     2.947      0.000      0.000
REMARK INTER + INTRA:           3.488
REMARK INTER:                   3.550
REMARK INTRA:                  -0.061
REMARK UNBOUND:                -0.061
REMARK SMILES CC[C@@H](C)[C@H]([NH3+])C(=O)[O-]
REMARK SMILES IDX 3 1 4 2 5 3 6 4 7 8 8 9 9 10 2 11 1 12
REMARK H PARENT 6 5 6 6 6 7
REMARK Flexibility Score: inf
ROOT
ATOM      1  C   UNL     1       1.287  -1.263  -9.504  1.00  0.00     0.050 C 
ATOM      2  C   UNL     1       1.963  -1.455 -10.875  1.00  0.00     0.014 C 
ENDROOT
BRANCH   1   3
ATOM      3  C   UNL     1       1.735   0.088  -8.861  1.00  0.00     0.230 C 
BRANCH   3   4
ATOM      4  N   UNL     1       3.119   0.439  -9.220  1.00  0.00    -0.350 N 
ATOM      5  H   UNL     1       3.765  -0.374  -9.114  1.00  0.00     0.345 HD
ATOM      6  H   UNL     1       3.454   1.210  -8.598  1.00  0.00     0.345 HD
ATOM      7  H   UNL     1       3.157   0.782 -10.208  1.00  0.00     0.345 HD
ENDBRANCH   3   4
BRANCH   3   8
ATOM      8  C   UNL     1       1.545   0.108  -7.363  1.00  0.00     0.099 C 
ATOM      9  O   UNL     1       0.551   0.683  -6.846  1.00  0.00    -0.544 OA
ATOM     10  O   UNL     1       2.495  -0.484  -6.540  1.00  0.00    -0.544 OA
ENDBRANCH   3   8
ENDBRANCH   1   3
BRANCH   1  11
ATOM     11  C   UNL     1      -0.254  -1.402  -9.617  1.00  0.00     0.006 C 
ATOM     12  C   UNL     1      -0.683  -2.644 -10.401  1.00  0.00     0.004 C 
ENDBRANCH   1  11
TORSDOF 4
ENDMDL
MODEL 2
REMARK VINA RESULT:     3.675      5.582      6.912
REMARK INTER + INTRA:           4.365
REMARK INTER:                   4.442
REMARK INTRA:                  -0.077
REMARK UNBOUND:                -0.061
REMARK SMILES CC[C@@H](C)[C@H]([NH3+])C(=O)[O-]
REMARK SMILES IDX 3 1 4 2 5 3 6 4 7 8 8 9 9 10 2 11 1 12
REMARK H PARENT 6 5 6 6 6 7
REMARK Flexibility Score: inf
ROOT
ATOM      1  C   UNL     1      -1.456  -4.468 -10.822  1.00  0.00     0.050 C 
ATOM      2  C   UNL     1      -2.150  -4.964  -9.539  1.00  0.00     0.014 C 
ENDROOT
BRANCH   1   3
ATOM      3  C   UNL     1      -2.043  -5.195 -12.073  1.00  0.00     0.230 C 
BRANCH   3   4
ATOM      4  N   UNL     1      -1.765  -6.640 -12.054  1.00  0.00    -0.350 N 
ATOM      5  H   UNL     1      -2.288  -7.145 -12.804  1.00  0.00     0.345 HD
ATOM      6  H   UNL     1      -2.051  -7.036 -11.130  1.00  0.00     0.345 HD
ATOM      7  H   UNL     1      -0.740  -6.810 -12.175  1.00  0.00     0.345 HD
ENDBRANCH   3   4
BRANCH   3   8
ATOM      8  C   UNL     1      -1.584  -4.574 -13.372  1.00  0.00     0.099 C 
ATOM      9  O   UNL     1      -0.407  -4.744 -13.788  1.00  0.00    -0.544 OA
ATOM     10  O   UNL     1      -2.457  -3.778 -14.102  1.00  0.00    -0.544 OA
ENDBRANCH   3   8
ENDBRANCH   1   3
BRANCH   1  11
ATOM     11  C   UNL     1      -1.519  -2.922 -10.930  1.00  0.00     0.006 C 
ATOM     12  C   UNL     1      -0.366  -2.228 -10.201  1.00  0.00     0.004 C 
ENDBRANCH   1  11
TORSDOF 4
ENDMDL
MODEL 3
REMARK VINA RESULT:     3.848      1.915      2.511
REMARK INTER + INTRA:           4.575
REMARK INTER:                   4.511
REMARK INTRA:                   0.064
REMARK UNBOUND:                -0.061
REMARK SMILES CC[C@@H](C)[C@H]([NH3+])C(=O)[O-]
REMARK SMILES IDX 3 1 4 2 5 3 6 4 7 8 8 9 9 10 2 11 1 12
REMARK H PARENT 6 5 6 6 6 7
REMARK Flexibility Score: inf
ROOT
ATOM      1  C   UNL     1       2.200  -0.461  -8.456  1.00  0.00     0.050 C 
ATOM      2  C   UNL     1       2.805   0.796  -9.108  1.00  0.00     0.014 C 
ENDROOT
BRANCH   1   3
ATOM      3  C   UNL     1       1.883  -0.193  -6.950  1.00  0.00     0.230 C 
BRANCH   3   4
ATOM      4  N   UNL     1       0.964   0.943  -6.772  1.00  0.00    -0.350 N 
ATOM      5  H   UNL     1       0.588   0.988  -5.799  1.00  0.00     0.345 HD
ATOM      6  H   UNL     1       0.159   0.845  -7.433  1.00  0.00     0.345 HD
ATOM      7  H   UNL     1       1.455   1.840  -6.993  1.00  0.00     0.345 HD
ENDBRANCH   3   4
BRANCH   3   8
ATOM      8  C   UNL     1       3.131  -0.012  -6.119  1.00  0.00     0.099 C 
ATOM      9  O   UNL     1       4.238  -0.472  -6.507  1.00  0.00    -0.544 OA
ATOM     10  O   UNL     1       3.056   0.639  -4.894  1.00  0.00    -0.544 OA
ENDBRANCH   3   8
ENDBRANCH   1   3
BRANCH   1  11
ATOM     11  C   UNL     1       0.971  -0.969  -9.256  1.00  0.00     0.006 C 
ATOM     12  C   UNL     1       1.347  -1.529 -10.630  1.00  0.00     0.004 C 
ENDBRANCH   1  11
TORSDOF 4
ENDMDL
MODEL 4
REMARK VINA RESULT:     4.116      4.468      5.751
REMARK INTER + INTRA:           4.896
REMARK INTER:                   4.561
REMARK INTRA:                   0.335
REMARK UNBOUND:                -0.061
REMARK SMILES CC[C@@H](C)[C@H]([NH3+])C(=O)[O-]
REMARK SMILES IDX 3 1 4 2 5 3 6 4 7 8 8 9 9 10 2 11 1 12
REMARK H PARENT 6 5 6 6 6 7
REMARK Flexibility Score: inf
ROOT
ATOM      1  C   UNL     1      -1.973  -5.110 -12.055  1.00  0.00     0.050 C 
ATOM      2  C   UNL     1      -1.802  -6.641 -12.035  1.00  0.00     0.014 C 
ENDROOT
BRANCH   1   3
ATOM      3  C   UNL     1      -1.240  -4.466 -10.836  1.00  0.00     0.230 C 
BRANCH   3   4
ATOM      4  N   UNL     1      -1.692  -5.031  -9.556  1.00  0.00    -0.350 N 
ATOM      5  H   UNL     1      -1.639  -4.332  -8.782  1.00  0.00     0.345 HD
ATOM      6  H   UNL     1      -1.088  -5.847  -9.304  1.00  0.00     0.345 HD
ATOM      7  H   UNL     1      -2.677  -5.374  -9.643  1.00  0.00     0.345 HD
ENDBRANCH   3   4
BRANCH   3   8
ATOM      8  C   UNL     1      -1.345  -2.959 -10.827  1.00  0.00     0.099 C 
ATOM      9  O   UNL     1      -2.161  -2.365 -11.581  1.00  0.00    -0.544 OA
ATOM     10  O   UNL     1      -0.510  -2.214 -10.004  1.00  0.00    -0.544 OA
ENDBRANCH   3   8
ENDBRANCH   1   3
BRANCH   1  11
ATOM     11  C   UNL     1      -1.530  -4.515 -13.418  1.00  0.00     0.006 C 
ATOM     12  C   UNL     1      -0.165  -5.033 -13.877  1.00  0.00     0.004 C 
ENDBRANCH   1  11
TORSDOF 4
ENDMDL
MODEL 5
REMARK VINA RESULT:     4.148      5.629      6.823
REMARK INTER + INTRA:           4.935
REMARK INTER:                   4.723
REMARK INTRA:                   0.212
REMARK UNBOUND:                -0.061
REMARK SMILES CC[C@@H](C)[C@H]([NH3+])C(=O)[O-]
REMARK SMILES IDX 3 1 4 2 5 3 6 4 7 8 8 9 9 10 2 11 1 12
REMARK H PARENT 6 5 6 6 6 7
REMARK Flexibility Score: inf
ROOT
ATOM      1  C   UNL     1      -1.442  -4.277 -11.055  1.00  0.00     0.050 C 
ATOM      2  C   UNL     1      -2.616  -5.173 -10.620  1.00  0.00     0.014 C 
ENDROOT
BRANCH   1   3
ATOM      3  C   UNL     1      -1.412  -4.137 -12.611  1.00  0.00     0.230 C 
BRANCH   3   4
ATOM      4  N   UNL     1      -2.734  -3.803 -13.162  1.00  0.00    -0.350 N 
ATOM      5  H   UNL     1      -3.474  -4.453 -12.815  1.00  0.00     0.345 HD
ATOM      6  H   UNL     1      -2.702  -3.866 -14.205  1.00  0.00     0.345 HD
ATOM      7  H   UNL     1      -2.992  -2.822 -12.906  1.00  0.00     0.345 HD
ENDBRANCH   3   4
BRANCH   3   8
ATOM      8  C   UNL     1      -0.837  -5.357 -13.291  1.00  0.00     0.099 C 
ATOM      9  O   UNL     1      -1.180  -6.516 -12.935  1.00  0.00    -0.544 OA
ATOM     10  O   UNL     1       0.108  -5.204 -14.298  1.00  0.00    -0.544 OA
ENDBRANCH   3   8
ENDBRANCH   1   3
BRANCH   1  11
ATOM     11  C   UNL     1      -1.480  -2.910 -10.321  1.00  0.00     0.006 C 
ATOM     12  C   UNL     1      -0.141  -2.172 -10.368  1.00  0.00     0.004 C 
ENDBRANCH   1  11
TORSDOF 4
ENDMDL
MODEL 6
REMARK VINA RESULT:     4.280      2.269      3.976
REMARK INTER + INTRA:           5.094
REMARK INTER:                   5.065
REMARK INTRA:                   0.029
REMARK UNBOUND:                -0.061
REMARK SMILES CC[C@@H](C)[C@H]([NH3+])C(=O)[O-]
REMARK SMILES IDX 3 1 4 2 5 3 6 4 7 8 8 9 9 10 2 11 1 12
REMARK H PARENT 6 5 6 6 6 7
REMARK Flexibility Score: inf
ROOT
ATOM      1  C   UNL     1       2.038  -0.373  -7.379  1.00  0.00     0.050 C 
ATOM      2  C   UNL     1       0.980   0.659  -6.947  1.00  0.00     0.014 C 
ENDROOT
BRANCH   1   3
ATOM      3  C   UNL     1       2.379  -0.201  -8.894  1.00  0.00     0.230 C 
BRANCH   3   4
ATOM      4  N   UNL     1       2.318   1.207  -9.317  1.00  0.00    -0.350 N 
ATOM      5  H   UNL     1       3.116   1.458  -9.944  1.00  0.00     0.345 HD
ATOM      6  H   UNL     1       2.355   1.825  -8.474  1.00  0.00     0.345 HD
ATOM      7  H   UNL     1       1.418   1.393  -9.815  1.00  0.00     0.345 HD
ENDBRANCH   3   4
BRANCH   3   8
ATOM      8  C   UNL     1       1.520  -1.069  -9.783  1.00  0.00     0.099 C 
ATOM      9  O   UNL     1       0.338  -1.358  -9.456  1.00  0.00    -0.544 OA
ATOM     10  O   UNL     1       2.048  -1.585 -10.960  1.00  0.00    -0.544 OA
ENDBRANCH   3   8
ENDBRANCH   1   3
BRANCH   1  11
ATOM     11  C   UNL     1       3.289  -0.310  -6.462  1.00  0.00     0.006 C 
ATOM     12  C   UNL     1       3.040   0.471  -5.171  1.00  0.00     0.004 C 
ENDBRANCH   1  11
TORSDOF 4
ENDMDL
MODEL 7
REMARK VINA RESULT:     4.282      5.690      6.841
REMARK INTER + INTRA:           5.097
REMARK INTER:                   3.572
REMARK INTRA:                   1.525
REMARK UNBOUND:                -0.061
REMARK SMILES CC[C@@H](C)[C@H]([NH3+])C(=O)[O-]
REMARK SMILES IDX 3 1 4 2 5 3 6 4 7 8 8 9 9 10 2 11 1 12
REMARK H PARENT 6 5 6 6 6 7
REMARK Flexibility Score: inf
ROOT
ATOM      1  C   UNL     1      -1.868  -4.050 -11.854  1.00  0.00     0.050 C 
ATOM      2  C   UNL     1      -1.570  -4.375 -13.329  1.00  0.00     0.014 C 
ENDROOT
BRANCH   1   3
ATOM      3  C   UNL     1      -2.288  -5.344 -11.086  1.00  0.00     0.230 C 
BRANCH   3   4
ATOM      4  N   UNL     1      -1.993  -5.253  -9.647  1.00  0.00    -0.350 N 
ATOM      5  H   UNL     1      -2.628  -5.860  -9.082  1.00  0.00     0.345 HD
ATOM      6  H   UNL     1      -2.114  -4.264  -9.330  1.00  0.00     0.345 HD
ATOM      7  H   UNL     1      -1.001  -5.531  -9.466  1.00  0.00     0.345 HD
ENDBRANCH   3   4
BRANCH   3   8
ATOM      8  C   UNL     1      -1.684  -6.593 -11.683  1.00  0.00     0.099 C 
ATOM      9  O   UNL     1      -1.420  -6.658 -12.913  1.00  0.00    -0.544 OA
ATOM     10  O   UNL     1      -1.446  -7.698 -10.874  1.00  0.00    -0.544 OA
ENDBRANCH   3   8
ENDBRANCH   1   3
BRANCH   1  11
ATOM     11  C   UNL     1      -0.676  -3.308 -11.192  1.00  0.00     0.006 C 
ATOM     12  C   UNL     1      -1.121  -2.254 -10.178  1.00  0.00     0.004 C 
ENDBRANCH   1  11
TORSDOF 4
ENDMDL
MODEL 8
REMARK VINA RESULT:     4.562      6.033      6.722
REMARK INTER + INTRA:           5.434
REMARK INTER:                   4.409
REMARK INTRA:                   1.025
REMARK UNBOUND:                -0.061
REMARK SMILES CC[C@@H](C)[C@H]([NH3+])C(=O)[O-]
REMARK SMILES IDX 3 1 4 2 5 3 6 4 7 8 8 9 9 10 2 11 1 12
REMARK H PARENT 6 5 6 6 6 7
REMARK Flexibility Score: inf
ROOT
ATOM      1  C   UNL     1      -1.512  -4.160 -12.675  1.00  0.00     0.050 C 
ATOM      2  C   UNL     1      -2.661  -3.612 -13.542  1.00  0.00     0.014 C 
ENDROOT
BRANCH   1   3
ATOM      3  C   UNL     1      -2.038  -4.549 -11.257  1.00  0.00     0.230 C 
BRANCH   3   4
ATOM      4  N   UNL     1      -1.413  -3.746 -10.195  1.00  0.00    -0.350 N 
ATOM      5  H   UNL     1      -1.749  -4.026  -9.247  1.00  0.00     0.345 HD
ATOM      6  H   UNL     1      -1.645  -2.736 -10.342  1.00  0.00     0.345 HD
ATOM      7  H   UNL     1      -0.372  -3.846 -10.235  1.00  0.00     0.345 HD
ENDBRANCH   3   4
BRANCH   3   8
ATOM      8  C   UNL     1      -1.896  -6.026 -10.971  1.00  0.00     0.099 C 
ATOM      9  O   UNL     1      -1.934  -6.871 -11.904  1.00  0.00    -0.544 OA
ATOM     10  O   UNL     1      -1.755  -6.463  -9.660  1.00  0.00    -0.544 OA
ENDBRANCH   3   8
ENDBRANCH   1   3
BRANCH   1  11
ATOM     11  C   UNL     1      -0.776  -5.323 -13.392  1.00  0.00     0.006 C 
ATOM     12  C   UNL     1       0.223  -4.836 -14.444  1.00  0.00     0.004 C 
ENDBRANCH   1  11
TORSDOF 4
ENDMDL
MODEL 9
REMARK VINA RESULT:     4.597      5.951      7.055
REMARK INTER + INTRA:           5.477
REMARK INTER:                   5.568
REMARK INTRA:                  -0.092
REMARK UNBOUND:                -0.061
REMARK SMILES CC[C@@H](C)[C@H]([NH3+])C(=O)[O-]
REMARK SMILES IDX 3 1 4 2 5 3 6 4 7 8 8 9 9 10 2 11 1 12
REMARK H PARENT 6 5 6 6 6 7
REMARK Flexibility Score: inf
ROOT
ATOM      1  C   UNL     1      -1.624  -4.040 -12.069  1.00  0.00     0.050 C 
ATOM      2  C   UNL     1      -1.137  -3.009 -11.034  1.00  0.00     0.014 C 
ENDROOT
BRANCH   1   3
ATOM      3  C   UNL     1      -2.256  -5.274 -11.351  1.00  0.00     0.230 C 
BRANCH   3   4
ATOM      4  N   UNL     1      -2.196  -5.152  -9.886  1.00  0.00    -0.350 N 
ATOM      5  H   UNL     1      -2.220  -4.154  -9.578  1.00  0.00     0.345 HD
ATOM      6  H   UNL     1      -1.308  -5.582  -9.538  1.00  0.00     0.345 HD
ATOM      7  H   UNL     1      -2.995  -5.666  -9.449  1.00  0.00     0.345 HD
ENDBRANCH   3   4
BRANCH   3   8
ATOM      8  C   UNL     1      -1.655  -6.582 -11.808  1.00  0.00     0.099 C 
ATOM      9  O   UNL     1      -1.561  -7.560 -11.020  1.00  0.00    -0.544 OA
ATOM     10  O   UNL     1      -1.169  -6.702 -13.104  1.00  0.00    -0.544 OA
ENDBRANCH   3   8
ENDBRANCH   1   3
BRANCH   1  11
ATOM     11  C   UNL     1      -2.574  -3.386 -13.107  1.00  0.00     0.006 C 
ATOM     12  C   UNL     1      -2.261  -3.803 -14.545  1.00  0.00     0.004 C 
ENDBRANCH   1  11
TORSDOF 4
ENDMDL
