MODEL 1
REMARK VINA RESULT:    -4.051      0.000      0.000
REMARK INTER + INTRA:          -6.465
REMARK INTER:                  -5.709
REMARK INTRA:                  -0.756
REMARK UNBOUND:                -0.756
REMARK SMILES CCCCCCCCC(=O)[O-]
REMARK SMILES IDX 6 1 7 2 8 3 9 4 10 5 11 6 5 7 4 8 3 9 2 10 1 11
REMARK H PARENT
REMARK Flexibility Score: inf
ROOT
ATOM      1  C   UNL     1      59.989  27.888  12.985  1.00  0.00     0.000 C 
ENDROOT
BRANCH   1   2
ATOM      2  C   UNL     1      59.248  28.603  11.839  1.00  0.00     0.006 C 
BRANCH   2   3
ATOM      3  C   UNL     1      60.145  29.007  10.657  1.00  0.00     0.053 C 
BRANCH   3   4
ATOM      4  C   UNL     1      59.890  28.165   9.444  1.00  0.00     0.041 C 
ATOM      5  O   UNL     1      60.814  27.464   8.954  1.00  0.00    -0.550 OA
ATOM      6  O   UNL     1      58.623  28.129   8.876  1.00  0.00    -0.550 OA
ENDBRANCH   3   4
ENDBRANCH   2   3
ENDBRANCH   1   2
BRANCH   1   7
ATOM      7  C   UNL     1      61.354  28.526  13.299  1.00  0.00     0.000 C 
BRANCH   7   8
ATOM      8  C   UNL     1      61.228  29.784  14.175  1.00  0.00    -0.000 C 
BRANCH   8   9
ATOM      9  C   UNL     1      61.628  31.069  13.430  1.00  0.00    -0.000 C 
BRANCH   9  10
ATOM     10  C   UNL     1      60.432  32.000  13.180  1.00  0.00    -0.003 C 
ATOM     11  C   UNL     1      59.212  31.632  14.022  1.00  0.00     0.004 C 
ENDBRANCH   9  10
ENDBRANCH   8   9
ENDBRANCH   7   8
ENDBRANCH   1   7
TORSDOF 7
ENDMDL
MODEL 2
REMARK VINA RESULT:    -4.032      1.949      2.874
REMARK INTER + INTRA:          -6.438
REMARK INTER:                  -5.588
REMARK INTRA:                  -0.850
REMARK UNBOUND:                -0.756
REMARK SMILES CCCCCCCCC(=O)[O-]
REMARK SMILES IDX 6 1 7 2 8 3 9 4 10 5 11 6 5 7 4 8 3 9 2 10 1 11
REMARK H PARENT
REMARK Flexibility Score: inf
ROOT
ATOM      1  C   UNL     1      62.636  29.767  13.227  1.00  0.00     0.000 C 
ENDROOT
BRANCH   1   2
ATOM      2  C   UNL     1      61.768  28.642  12.634  1.00  0.00     0.006 C 
BRANCH   2   3
ATOM      3  C   UNL     1      60.498  28.327  13.441  1.00  0.00     0.053 C 
BRANCH   3   4
ATOM      4  C   UNL     1      59.265  28.367  12.590  1.00  0.00     0.041 C 
ATOM      5  O   UNL     1      58.261  27.672  12.896  1.00  0.00    -0.550 OA
ATOM      6  O   UNL     1      59.214  29.199  11.479  1.00  0.00    -0.550 OA
ENDBRANCH   3   4
ENDBRANCH   2   3
ENDBRANCH   1   2
BRANCH   1   7
ATOM      7  C   UNL     1      62.495  31.094  12.460  1.00  0.00     0.000 C 
BRANCH   7   8
ATOM      8  C   UNL     1      61.733  32.161  13.264  1.00  0.00    -0.000 C 
BRANCH   8   9
ATOM      9  C   UNL     1      60.215  32.119  13.019  1.00  0.00    -0.000 C 
BRANCH   9  10
ATOM     10  C   UNL     1      59.415  31.919  14.315  1.00  0.00    -0.003 C 
ATOM     11  C   UNL     1      60.291  31.479  15.487  1.00  0.00     0.004 C 
ENDBRANCH   9  10
ENDBRANCH   8   9
ENDBRANCH   7   8
ENDBRANCH   1   7
TORSDOF 7
ENDMDL
MODEL 3
REMARK VINA RESULT:    -4.015     12.594     14.057
REMARK INTER + INTRA:          -6.414
REMARK INTER:                  -5.575
REMARK INTRA:                  -0.839
REMARK UNBOUND:                -0.756
REMARK SMILES CCCCCCCCC(=O)[O-]
REMARK SMILES IDX 6 1 7 2 8 3 9 4 10 5 11 6 5 7 4 8 3 9 2 10 1 11
REMARK H PARENT
REMARK Flexibility Score: inf
ROOT
ATOM      1  C   UNL     1      63.112  29.364  25.006  1.00  0.00     0.000 C 
ENDROOT
BRANCH   1   2
ATOM      2  C   UNL     1      61.619  29.170  25.337  1.00  0.00     0.006 C 
BRANCH   2   3
ATOM      3  C   UNL     1      60.976  27.941  24.673  1.00  0.00     0.053 C 
BRANCH   3   4
ATOM      4  C   UNL     1      60.449  26.967  25.681  1.00  0.00     0.041 C 
ATOM      5  O   UNL     1      61.097  26.736  26.736  1.00  0.00    -0.550 OA
ATOM      6  O   UNL     1      59.228  26.340  25.471  1.00  0.00    -0.550 OA
ENDBRANCH   3   4
ENDBRANCH   2   3
ENDBRANCH   1   2
BRANCH   1   7
ATOM      7  C   UNL     1      64.032  28.496  25.883  1.00  0.00     0.000 C 
BRANCH   7   8
ATOM      8  C   UNL     1      64.946  27.581  25.052  1.00  0.00    -0.000 C 
BRANCH   8   9
ATOM      9  C   UNL     1      64.583  26.092  25.192  1.00  0.00    -0.000 C 
BRANCH   9  10
ATOM     10  C   UNL     1      63.720  25.585  24.027  1.00  0.00    -0.003 C 
ATOM     11  C   UNL     1      63.904  26.410  22.754  1.00  0.00     0.004 C 
ENDBRANCH   9  10
ENDBRANCH   8   9
ENDBRANCH   7   8
ENDBRANCH   1   7
TORSDOF 7
ENDMDL
MODEL 4
REMARK VINA RESULT:    -3.961      0.826      1.493
REMARK INTER + INTRA:          -6.338
REMARK INTER:                  -5.598
REMARK INTRA:                  -0.740
REMARK UNBOUND:                -0.756
REMARK SMILES CCCCCCCCC(=O)[O-]
REMARK SMILES IDX 6 1 7 2 8 3 9 4 10 5 11 6 5 7 4 8 3 9 2 10 1 11
REMARK H PARENT
REMARK Flexibility Score: inf
ROOT
ATOM      1  C   UNL     1      61.951  28.471  12.925  1.00  0.00     0.000 C 
ENDROOT
BRANCH   1   2
ATOM      2  C   UNL     1      61.739  28.786  11.432  1.00  0.00     0.006 C 
BRANCH   2   3
ATOM      3  C   UNL     1      60.265  28.873  11.004  1.00  0.00     0.053 C 
BRANCH   3   4
ATOM      4  C   UNL     1      60.036  28.281   9.647  1.00  0.00     0.041 C 
ATOM      5  O   UNL     1      60.907  27.535   9.127  1.00  0.00    -0.550 OA
ATOM      6  O   UNL     1      58.848  28.527   8.972  1.00  0.00    -0.550 OA
ENDBRANCH   3   4
ENDBRANCH   2   3
ENDBRANCH   1   2
BRANCH   1   7
ATOM      7  C   UNL     1      60.710  28.783  13.780  1.00  0.00     0.000 C 
BRANCH   7   8
ATOM      8  C   UNL     1      60.798  30.157  14.466  1.00  0.00    -0.000 C 
BRANCH   8   9
ATOM      9  C   UNL     1      59.751  31.153  13.938  1.00  0.00    -0.000 C 
BRANCH   9  10
ATOM     10  C   UNL     1      60.377  32.268  13.087  1.00  0.00    -0.003 C 
ATOM     11  C   UNL     1      61.904  32.263  13.138  1.00  0.00     0.004 C 
ENDBRANCH   9  10
ENDBRANCH   8   9
ENDBRANCH   7   8
ENDBRANCH   1   7
TORSDOF 7
ENDMDL
MODEL 5
REMARK VINA RESULT:    -3.957      1.970      2.661
REMARK INTER + INTRA:          -6.332
REMARK INTER:                  -5.580
REMARK INTRA:                  -0.753
REMARK UNBOUND:                -0.756
REMARK SMILES CCCCCCCCC(=O)[O-]
REMARK SMILES IDX 6 1 7 2 8 3 9 4 10 5 11 6 5 7 4 8 3 9 2 10 1 11
REMARK H PARENT
REMARK Flexibility Score: inf
ROOT
ATOM      1  C   UNL     1      59.353  28.653  11.179  1.00  0.00     0.000 C 
ENDROOT
BRANCH   1   2
ATOM      2  C   UNL     1      60.667  28.176  10.531  1.00  0.00     0.006 C 
BRANCH   2   3
ATOM      3  C   UNL     1      61.502  29.296   9.889  1.00  0.00     0.053 C 
BRANCH   3   4
ATOM      4  C   UNL     1      62.973  29.072  10.062  1.00  0.00     0.041 C 
ATOM      5  O   UNL     1      63.530  29.345  11.158  1.00  0.00    -0.550 OA
ATOM      6  O   UNL     1      63.721  28.531   9.025  1.00  0.00    -0.550 OA
ENDBRANCH   3   4
ENDBRANCH   2   3
ENDBRANCH   1   2
BRANCH   1   7
ATOM      7  C   UNL     1      59.277  28.322  12.680  1.00  0.00     0.000 C 
BRANCH   7   8
ATOM      8  C   UNL     1      60.644  28.433  13.377  1.00  0.00    -0.000 C 
BRANCH   8   9
ATOM      9  C   UNL     1      60.785  29.721  14.207  1.00  0.00    -0.000 C 
BRANCH   9  10
ATOM     10  C   UNL     1      61.282  30.909  13.368  1.00  0.00    -0.003 C 
ATOM     11  C   UNL     1      60.174  31.913  13.053  1.00  0.00     0.004 C 
ENDBRANCH   9  10
ENDBRANCH   8   9
ENDBRANCH   7   8
ENDBRANCH   1   7
TORSDOF 7
ENDMDL
MODEL 6
REMARK VINA RESULT:    -3.933     13.683     14.968
REMARK INTER + INTRA:          -6.299
REMARK INTER:                  -5.572
REMARK INTRA:                  -0.727
REMARK UNBOUND:                -0.756
REMARK SMILES CCCCCCCCC(=O)[O-]
REMARK SMILES IDX 6 1 7 2 8 3 9 4 10 5 11 6 5 7 4 8 3 9 2 10 1 11
REMARK H PARENT
REMARK Flexibility Score: inf
ROOT
ATOM      1  C   UNL     1      61.190  28.661  25.003  1.00  0.00     0.000 C 
ENDROOT
BRANCH   1   2
ATOM      2  C   UNL     1      60.384  27.560  25.720  1.00  0.00     0.006 C 
BRANCH   2   3
ATOM      3  C   UNL     1      61.068  26.985  26.971  1.00  0.00     0.053 C 
BRANCH   3   4
ATOM      4  C   UNL     1      61.425  28.053  27.959  1.00  0.00     0.041 C 
ATOM      5  O   UNL     1      62.631  28.279  28.239  1.00  0.00    -0.550 OA
ATOM      6  O   UNL     1      60.426  28.821  28.545  1.00  0.00    -0.550 OA
ENDBRANCH   3   4
ENDBRANCH   2   3
ENDBRANCH   1   2
BRANCH   1   7
ATOM      7  C   UNL     1      62.271  28.091  24.067  1.00  0.00     0.000 C 
BRANCH   7   8
ATOM      8  C   UNL     1      63.688  28.534  24.467  1.00  0.00    -0.000 C 
BRANCH   8   9
ATOM      9  C   UNL     1      64.428  27.475  25.302  1.00  0.00    -0.000 C 
BRANCH   9  10
ATOM     10  C   UNL     1      64.217  26.050  24.767  1.00  0.00    -0.003 C 
ATOM     11  C   UNL     1      65.193  25.690  23.648  1.00  0.00     0.004 C 
ENDBRANCH   9  10
ENDBRANCH   8   9
ENDBRANCH   7   8
ENDBRANCH   1   7
TORSDOF 7
ENDMDL
MODEL 7
REMARK VINA RESULT:    -3.930     13.648     15.170
REMARK INTER + INTRA:          -6.294
REMARK INTER:                  -5.520
REMARK INTRA:                  -0.774
REMARK UNBOUND:                -0.756
REMARK SMILES CCCCCCCCC(=O)[O-]
REMARK SMILES IDX 6 1 7 2 8 3 9 4 10 5 11 6 5 7 4 8 3 9 2 10 1 11
REMARK H PARENT
REMARK Flexibility Score: inf
ROOT
ATOM      1  C   UNL     1      60.630  28.102  25.146  1.00  0.00     0.000 C 
ENDROOT
BRANCH   1   2
ATOM      2  C   UNL     1      60.835  27.645  26.603  1.00  0.00     0.006 C 
BRANCH   2   3
ATOM      3  C   UNL     1      61.963  28.378  27.347  1.00  0.00     0.053 C 
BRANCH   3   4
ATOM      4  C   UNL     1      61.436  29.272  28.428  1.00  0.00     0.041 C 
ATOM      5  O   UNL     1      60.408  28.943  29.076  1.00  0.00    -0.550 OA
ATOM      6  O   UNL     1      62.100  30.452  28.740  1.00  0.00    -0.550 OA
ENDBRANCH   3   4
ENDBRANCH   2   3
ENDBRANCH   1   2
BRANCH   1   7
ATOM      7  C   UNL     1      61.791  28.971  24.628  1.00  0.00     0.000 C 
BRANCH   7   8
ATOM      8  C   UNL     1      62.684  28.222  23.625  1.00  0.00    -0.000 C 
BRANCH   8   9
ATOM      9  C   UNL     1      64.133  28.066  24.120  1.00  0.00    -0.000 C 
BRANCH   9  10
ATOM     10  C   UNL     1      64.338  26.786  24.945  1.00  0.00    -0.003 C 
ATOM     11  C   UNL     1      63.453  25.633  24.474  1.00  0.00     0.004 C 
ENDBRANCH   9  10
ENDBRANCH   8   9
ENDBRANCH   7   8
ENDBRANCH   1   7
TORSDOF 7
ENDMDL
MODEL 8
REMARK VINA RESULT:    -3.839     12.932     13.743
REMARK INTER + INTRA:          -6.167
REMARK INTER:                  -5.356
REMARK INTRA:                  -0.811
REMARK UNBOUND:                -0.756
REMARK SMILES CCCCCCCCC(=O)[O-]
REMARK SMILES IDX 6 1 7 2 8 3 9 4 10 5 11 6 5 7 4 8 3 9 2 10 1 11
REMARK H PARENT
REMARK Flexibility Score: inf
ROOT
ATOM      1  C   UNL     1      63.784  28.575  24.221  1.00  0.00     0.000 C 
ENDROOT
BRANCH   1   2
ATOM      2  C   UNL     1      64.864  27.883  25.074  1.00  0.00     0.006 C 
BRANCH   2   3
ATOM      3  C   UNL     1      64.643  26.376  25.278  1.00  0.00     0.053 C 
BRANCH   3   4
ATOM      4  C   UNL     1      64.324  25.674  23.993  1.00  0.00     0.041 C 
ATOM      5  O   UNL     1      63.187  25.163  23.817  1.00  0.00    -0.550 OA
ATOM      6  O   UNL     1      65.270  25.616  22.978  1.00  0.00    -0.550 OA
ENDBRANCH   3   4
ENDBRANCH   2   3
ENDBRANCH   1   2
BRANCH   1   7
ATOM      7  C   UNL     1      63.012  29.655  25.001  1.00  0.00     0.000 C 
BRANCH   7   8
ATOM      8  C   UNL     1      61.498  29.391  25.028  1.00  0.00    -0.000 C 
BRANCH   8   9
ATOM      9  C   UNL     1      61.138  27.949  24.631  1.00  0.00    -0.000 C 
BRANCH   9  10
ATOM     10  C   UNL     1      60.410  27.194  25.755  1.00  0.00    -0.003 C 
ATOM     11  C   UNL     1      61.328  26.855  26.928  1.00  0.00     0.004 C 
ENDBRANCH   9  10
ENDBRANCH   8   9
ENDBRANCH   7   8
ENDBRANCH   1   7
TORSDOF 7
ENDMDL
MODEL 9
REMARK VINA RESULT:    -3.802      3.012      4.705
REMARK INTER + INTRA:          -6.114
REMARK INTER:                  -5.463
REMARK INTRA:                  -0.651
REMARK UNBOUND:                -0.756
REMARK SMILES CCCCCCCCC(=O)[O-]
REMARK SMILES IDX 6 1 7 2 8 3 9 4 10 5 11 6 5 7 4 8 3 9 2 10 1 11
REMARK H PARENT
REMARK Flexibility Score: inf
ROOT
ATOM      1  C   UNL     1      61.204  28.985  13.569  1.00  0.00     0.000 C 
ENDROOT
BRANCH   1   2
ATOM      2  C   UNL     1      61.119  29.804  14.871  1.00  0.00     0.006 C 
BRANCH   2   3
ATOM      3  C   UNL     1      61.353  31.313  14.688  1.00  0.00     0.053 C 
BRANCH   3   4
ATOM      4  C   UNL     1      60.148  32.006  14.128  1.00  0.00     0.041 C 
ATOM      5  O   UNL     1      60.286  32.949  13.305  1.00  0.00    -0.550 OA
ATOM      6  O   UNL     1      58.874  31.588  14.491  1.00  0.00    -0.550 OA
ENDBRANCH   3   4
ENDBRANCH   2   3
ENDBRANCH   1   2
BRANCH   1   7
ATOM      7  C   UNL     1      60.003  28.041  13.381  1.00  0.00     0.000 C 
BRANCH   7   8
ATOM      8  C   UNL     1      59.160  28.401  12.146  1.00  0.00    -0.000 C 
BRANCH   8   9
ATOM      9  C   UNL     1      59.707  29.624  11.389  1.00  0.00    -0.000 C 
BRANCH   9  10
ATOM     10  C   UNL     1      60.013  29.315   9.915  1.00  0.00    -0.003 C 
ATOM     11  C   UNL     1      61.051  28.206   9.749  1.00  0.00     0.004 C 
ENDBRANCH   9  10
ENDBRANCH   8   9
ENDBRANCH   7   8
ENDBRANCH   1   7
TORSDOF 7
ENDMDL
