MODEL 1
REMARK VINA RESULT:    -3.136      0.000      0.000
REMARK INTER + INTRA:          -3.131
REMARK INTER:                  -3.869
REMARK INTRA:                   0.738
REMARK UNBOUND:                 0.738
REMARK SMILES CC1=CC=CC(C)(C)CC1=O
REMARK SMILES IDX 1 1 2 2 3 3 10 4 11 5 9 6 4 8 5 9 6 10 7 11 8 12
REMARK H PARENT
REMARK Flexibility Score: 80.00
ROOT
ATOM      1  C   UNL     1      29.836  42.420 143.641  1.00  0.00     0.048 C 
ATOM      2  C   UNL     1      28.455  42.699 143.096  1.00  0.00    -0.008 C 
ATOM      3  C   UNL     1      28.110  42.109 141.932  1.00  0.00     0.007 C 
ENDROOT
BRANCH   2   4
ATOM      4  C   UNL     1      27.614  43.663 143.849  1.00  0.00     0.159 C 
ATOM      5  O   UNL     1      28.152  44.365 144.750  1.00  0.00    -0.295 OA
BRANCH   4   6
ATOM      6  C   UNL     1      26.147  43.844 143.608  1.00  0.00     0.091 CG0
ATOM      7  G   UNL     1      25.817  44.301 142.170  1.00  0.00     0.000 G0
ENDBRANCH   4   6
ENDBRANCH   2   4
BRANCH   3   8
ATOM      8  C   UNL     1      26.856  42.209 141.149  1.00  0.00    -0.003 C 
ATOM      9  C   UNL     1      25.885  43.129 141.225  1.00  0.00    -0.020 C 
BRANCH   9  10
ATOM     10  C   UNL     1      25.829  44.299 142.178  1.00  0.00    -0.010 CG0
ATOM     11  C   UNL     1      24.385  44.849 142.188  1.00  0.00     0.016 C 
ATOM     12  C   UNL     1      26.764  45.427 141.683  1.00  0.00     0.016 C 
ATOM     13  G   UNL     1      26.174  43.824 143.607  1.00  0.00     0.000 G0
ENDBRANCH   9  10
ENDBRANCH   3   8
TORSDOF 0
ENDMDL
MODEL 2
REMARK VINA RESULT:    -3.100      1.564      2.314
REMARK INTER + INTRA:          -3.086
REMARK INTER:                  -3.847
REMARK INTRA:                   0.761
REMARK UNBOUND:                 0.738
REMARK SMILES CC1=CC=CC(C)(C)CC1=O
REMARK SMILES IDX 1 1 2 2 3 3 10 4 11 5 9 6 4 8 5 9 6 10 7 11 8 12
REMARK H PARENT
REMARK Flexibility Score: 80.00
ROOT
ATOM      1  C   UNL     1      29.004  43.195 144.016  1.00  0.00     0.048 C 
ATOM      2  C   UNL     1      27.867  43.575 143.098  1.00  0.00    -0.008 C 
ATOM      3  C   UNL     1      27.758  44.872 142.739  1.00  0.00     0.007 C 
ENDROOT
BRANCH   2   4
ATOM      4  C   UNL     1      26.913  42.501 142.723  1.00  0.00     0.159 C 
ATOM      5  O   UNL     1      26.968  41.399 143.335  1.00  0.00    -0.295 OA
BRANCH   4   6
ATOM      6  C   UNL     1      25.888  42.647 141.640  1.00  0.00     0.091 CG0
ATOM      7  G   UNL     1      24.893  43.800 141.894  1.00  0.00     0.000 G0
ENDBRANCH   4   6
ENDBRANCH   2   4
BRANCH   3   8
ATOM      8  C   UNL     1      26.750  45.543 141.885  1.00  0.00    -0.003 C 
ATOM      9  C   UNL     1      25.530  45.119 141.528  1.00  0.00    -0.020 C 
BRANCH   9  10
ATOM     10  C   UNL     1      24.892  43.803 141.904  1.00  0.00    -0.010 CG0
ATOM     11  C   UNL     1      23.660  43.584 140.996  1.00  0.00     0.016 C 
ATOM     12  C   UNL     1      24.400  43.855 143.369  1.00  0.00     0.016 C 
ATOM     13  G   UNL     1      25.887  42.650 141.651  1.00  0.00     0.000 G0
ENDBRANCH   9  10
ENDBRANCH   3   8
TORSDOF 0
ENDMDL
MODEL 3
REMARK VINA RESULT:    -3.097     12.353     13.552
REMARK INTER + INTRA:          -3.083
REMARK INTER:                  -3.827
REMARK INTRA:                   0.744
REMARK UNBOUND:                 0.738
REMARK SMILES CC1=CC=CC(C)(C)CC1=O
REMARK SMILES IDX 1 1 2 2 3 3 10 4 11 5 9 6 4 8 5 9 6 10 7 11 8 12
REMARK H PARENT
REMARK Flexibility Score: 80.00
ROOT
ATOM      1  C   UNL     1      28.610  31.127 136.638  1.00  0.00     0.048 C 
ATOM      2  C   UNL     1      27.699  30.817 137.802  1.00  0.00    -0.008 C 
ATOM      3  C   UNL     1      26.372  30.990 137.621  1.00  0.00     0.007 C 
ENDROOT
BRANCH   2   4
ATOM      4  C   UNL     1      28.343  30.419 139.078  1.00  0.00     0.159 C 
ATOM      5  O   UNL     1      29.592  30.558 139.197  1.00  0.00    -0.295 OA
BRANCH   4   6
ATOM      6  C   UNL     1      27.593  29.843 140.239  1.00  0.00     0.091 CG0
ATOM      7  G   UNL     1      26.514  30.795 140.799  1.00  0.00     0.000 G0
ENDBRANCH   4   6
ENDBRANCH   2   4
BRANCH   3   8
ATOM      8  C   UNL     1      25.249  30.797 138.569  1.00  0.00    -0.003 C 
ATOM      9  C   UNL     1      25.276  30.722 139.906  1.00  0.00    -0.020 C 
BRANCH   9  10
ATOM     10  C   UNL     1      26.504  30.790 140.783  1.00  0.00    -0.010 CG0
ATOM     11  C   UNL     1      26.118  30.293 142.196  1.00  0.00     0.016 C 
ATOM     12  C   UNL     1      26.981  32.256 140.909  1.00  0.00     0.016 C 
ATOM     13  G   UNL     1      27.596  29.853 140.225  1.00  0.00     0.000 G0
ENDBRANCH   9  10
ENDBRANCH   3   8
TORSDOF 0
ENDMDL
MODEL 4
REMARK VINA RESULT:    -3.083     12.579     13.742
REMARK INTER + INTRA:          -3.066
REMARK INTER:                  -3.808
REMARK INTRA:                   0.742
REMARK UNBOUND:                 0.738
REMARK SMILES CC1=CC=CC(C)(C)CC1=O
REMARK SMILES IDX 1 1 2 2 3 3 10 4 11 5 9 6 4 8 5 9 6 10 7 11 8 12
REMARK H PARENT
REMARK Flexibility Score: 80.00
ROOT
ATOM      1  C   UNL     1      24.593  29.298 139.297  1.00  0.00     0.048 C 
ATOM      2  C   UNL     1      25.665  30.314 138.981  1.00  0.00    -0.008 C 
ATOM      3  C   UNL     1      25.276  31.485 138.434  1.00  0.00     0.007 C 
ENDROOT
BRANCH   2   4
ATOM      4  C   UNL     1      27.073  29.911 139.229  1.00  0.00     0.159 C 
ATOM      5  O   UNL     1      27.320  28.705 139.506  1.00  0.00    -0.295 OA
BRANCH   4   6
ATOM      6  C   UNL     1      28.226  30.866 139.183  1.00  0.00     0.091 CG0
ATOM      7  G   UNL     1      28.368  31.584 137.824  1.00  0.00     0.000 G0
ENDBRANCH   4   6
ENDBRANCH   2   4
BRANCH   3   8
ATOM      8  C   UNL     1      26.085  32.648 137.999  1.00  0.00    -0.003 C 
ATOM      9  C   UNL     1      27.394  32.709 137.720  1.00  0.00    -0.020 C 
BRANCH   9  10
ATOM     10  C   UNL     1      28.385  31.573 137.816  1.00  0.00    -0.010 CG0
ATOM     11  C   UNL     1      29.811  32.169 137.767  1.00  0.00     0.016 C 
ATOM     12  C   UNL     1      28.223  30.627 136.604  1.00  0.00     0.016 C 
ATOM     13  G   UNL     1      28.214  30.846 139.167  1.00  0.00     0.000 G0
ENDBRANCH   9  10
ENDBRANCH   3   8
TORSDOF 0
ENDMDL
MODEL 5
REMARK VINA RESULT:    -3.067      1.790      2.568
REMARK INTER + INTRA:          -3.046
REMARK INTER:                  -3.798
REMARK INTRA:                   0.751
REMARK UNBOUND:                 0.738
REMARK SMILES CC1=CC=CC(C)(C)CC1=O
REMARK SMILES IDX 1 1 2 2 3 3 10 4 11 5 9 6 4 8 5 9 6 10 7 11 8 12
REMARK H PARENT
REMARK Flexibility Score: 80.00
ROOT
ATOM      1  C   UNL     1      28.058  44.119 143.950  1.00  0.00     0.048 C 
ATOM      2  C   UNL     1      26.759  43.784 143.255  1.00  0.00    -0.008 C 
ATOM      3  C   UNL     1      26.126  42.651 143.625  1.00  0.00     0.007 C 
ENDROOT
BRANCH   2   4
ATOM      4  C   UNL     1      26.322  44.692 142.165  1.00  0.00     0.159 C 
ATOM      5  O   UNL     1      27.128  45.566 141.743  1.00  0.00    -0.295 OA
BRANCH   4   6
ATOM      6  C   UNL     1      24.961  44.640 141.542  1.00  0.00     0.091 CG0
ATOM      7  G   UNL     1      24.631  43.268 140.915  1.00  0.00     0.000 G0
ENDBRANCH   4   6
ENDBRANCH   2   4
BRANCH   3   8
ATOM      8  C   UNL     1      24.868  42.054 143.116  1.00  0.00    -0.003 C 
ATOM      9  C   UNL     1      24.225  42.294 141.966  1.00  0.00    -0.020 C 
BRANCH   9  10
ATOM     10  C   UNL     1      24.633  43.283 140.899  1.00  0.00    -0.010 CG0
ATOM     11  C   UNL     1      23.432  43.492 139.948  1.00  0.00     0.016 C 
ATOM     12  C   UNL     1      25.804  42.710 140.068  1.00  0.00     0.016 C 
ATOM     13  G   UNL     1      24.972  44.640 141.551  1.00  0.00     0.000 G0
ENDBRANCH   9  10
ENDBRANCH   3   8
TORSDOF 0
ENDMDL
MODEL 6
REMARK VINA RESULT:    -3.028     12.037     13.053
REMARK INTER + INTRA:          -2.998
REMARK INTER:                  -3.761
REMARK INTRA:                   0.763
REMARK UNBOUND:                 0.738
REMARK SMILES CC1=CC=CC(C)(C)CC1=O
REMARK SMILES IDX 1 1 2 2 3 3 10 4 11 5 9 6 4 8 5 9 6 10 7 11 8 12
REMARK H PARENT
REMARK Flexibility Score: 80.00
ROOT
ATOM      1  C   UNL     1      30.288  33.648 136.115  1.00  0.00     0.048 C 
ATOM      2  C   UNL     1      29.652  32.554 136.940  1.00  0.00    -0.008 C 
ATOM      3  C   UNL     1      28.755  31.750 136.330  1.00  0.00     0.007 C 
ENDROOT
BRANCH   2   4
ATOM      4  C   UNL     1      30.009  32.500 138.380  1.00  0.00     0.159 C 
ATOM      5  O   UNL     1      30.653  33.461 138.883  1.00  0.00    -0.295 OA
BRANCH   4   6
ATOM      6  C   UNL     1      29.656  31.353 139.276  1.00  0.00     0.091 CG0
ATOM      7  G   UNL     1      28.135  31.112 139.389  1.00  0.00     0.000 G0
ENDBRANCH   4   6
ENDBRANCH   2   4
BRANCH   3   8
ATOM      8  C   UNL     1      27.959  30.625 136.875  1.00  0.00    -0.003 C 
ATOM      9  C   UNL     1      27.669  30.337 138.151  1.00  0.00    -0.020 C 
BRANCH   9  10
ATOM     10  C   UNL     1      28.125  31.103 139.370  1.00  0.00    -0.010 CG0
ATOM     11  C   UNL     1      27.856  30.232 140.618  1.00  0.00     0.016 C 
ATOM     12  C   UNL     1      27.304  32.406 139.513  1.00  0.00     0.016 C 
ATOM     13  G   UNL     1      29.645  31.363 139.283  1.00  0.00     0.000 G0
ENDBRANCH   9  10
ENDBRANCH   3   8
TORSDOF 0
ENDMDL
MODEL 7
REMARK VINA RESULT:    -2.961     12.544     13.782
REMARK INTER + INTRA:          -2.915
REMARK INTER:                  -3.939
REMARK INTRA:                   1.024
REMARK UNBOUND:                 0.738
REMARK SMILES CC1=CC=CC(C)(C)CC1=O
REMARK SMILES IDX 1 1 2 2 3 3 10 4 11 5 9 6 4 8 5 9 6 10 7 11 8 12
REMARK H PARENT
REMARK Flexibility Score: 80.00
ROOT
ATOM      1  C   UNL     1      27.921  30.712 136.888  1.00  0.00     0.048 C 
ATOM      2  C   UNL     1      27.773  30.449 138.368  1.00  0.00    -0.008 C 
ATOM      3  C   UNL     1      28.898  30.213 139.077  1.00  0.00     0.007 C 
ENDROOT
BRANCH   2   4
ATOM      4  C   UNL     1      26.392  30.395 138.911  1.00  0.00     0.159 C 
ATOM      5  O   UNL     1      25.445  30.844 138.207  1.00  0.00    -0.295 OA
BRANCH   4   6
ATOM      6  C   UNL     1      26.056  29.847 140.263  1.00  0.00     0.091 CG0
ATOM      7  G   UNL     1      26.779  30.579 141.415  1.00  0.00     0.000 G0
ENDBRANCH   4   6
ENDBRANCH   2   4
BRANCH   3   8
ATOM      8  C   UNL     1      29.068  29.903 140.517  1.00  0.00    -0.003 C 
ATOM      9  C   UNL     1      28.187  30.030 141.517  1.00  0.00    -0.020 C 
BRANCH   9  10
ATOM     10  C   UNL     1      26.777  30.563 141.410  1.00  0.00    -0.010 CG0
ATOM     11  C   UNL     1      26.854  32.074 141.090  1.00  0.00     0.016 C 
ATOM     12  C   UNL     1      26.047  30.400 142.763  1.00  0.00     0.016 C 
ATOM     13  G   UNL     1      26.042  29.861 140.248  1.00  0.00     0.000 G0
ENDBRANCH   9  10
ENDBRANCH   3   8
TORSDOF 0
ENDMDL
MODEL 8
REMARK VINA RESULT:    -2.960     12.099     13.127
REMARK INTER + INTRA:          -2.914
REMARK INTER:                  -3.665
REMARK INTRA:                   0.751
REMARK UNBOUND:                 0.738
REMARK SMILES CC1=CC=CC(C)(C)CC1=O
REMARK SMILES IDX 1 1 2 2 3 3 10 4 11 5 9 6 4 8 5 9 6 10 7 11 8 12
REMARK H PARENT
REMARK Flexibility Score: 80.00
ROOT
ATOM      1  C   UNL     1      29.697  29.627 140.333  1.00  0.00     0.048 C 
ATOM      2  C   UNL     1      28.380  30.062 139.735  1.00  0.00    -0.008 C 
ATOM      3  C   UNL     1      28.344  30.302 138.407  1.00  0.00     0.007 C 
ENDROOT
BRANCH   2   4
ATOM      4  C   UNL     1      27.247  30.265 140.672  1.00  0.00     0.159 C 
ATOM      5  O   UNL     1      27.480  30.283 141.912  1.00  0.00    -0.295 OA
BRANCH   4   6
ATOM      6  C   UNL     1      25.827  30.437 140.227  1.00  0.00     0.091 CG0
ATOM      7  G   UNL     1      25.617  31.670 139.321  1.00  0.00     0.000 G0
ENDBRANCH   4   6
ENDBRANCH   2   4
BRANCH   3   8
ATOM      8  C   UNL     1      27.223  30.759 137.552  1.00  0.00    -0.003 C 
ATOM      9  C   UNL     1      26.074  31.346 137.909  1.00  0.00    -0.020 C 
BRANCH   9  10
ATOM     10  C   UNL     1      25.628  31.663 139.318  1.00  0.00    -0.010 CG0
ATOM     11  C   UNL     1      24.115  31.976 139.289  1.00  0.00     0.016 C 
ATOM     12  C   UNL     1      26.365  32.921 139.833  1.00  0.00     0.016 C 
ATOM     13  G   UNL     1      25.848  30.432 140.223  1.00  0.00     0.000 G0
ENDBRANCH   9  10
ENDBRANCH   3   8
TORSDOF 0
ENDMDL
MODEL 9
REMARK VINA RESULT:    -2.941     15.459     16.730
REMARK INTER + INTRA:          -2.890
REMARK INTER:                  -3.650
REMARK INTRA:                   0.760
REMARK UNBOUND:                 0.738
REMARK SMILES CC1=CC=CC(C)(C)CC1=O
REMARK SMILES IDX 1 1 2 2 3 3 10 4 11 5 9 6 4 8 5 9 6 10 7 11 8 12
REMARK H PARENT
REMARK Flexibility Score: 80.00
ROOT
ATOM      1  C   UNL     1      40.735  32.890 133.492  1.00  0.00     0.048 C 
ATOM      2  C   UNL     1      39.296  33.140 133.876  1.00  0.00    -0.008 C 
ATOM      3  C   UNL     1      38.343  32.444 133.221  1.00  0.00     0.007 C 
ENDROOT
BRANCH   2   4
ATOM      4  C   UNL     1      39.041  34.190 134.895  1.00  0.00     0.159 C 
ATOM      5  O   UNL     1      39.989  34.951 135.233  1.00  0.00    -0.295 OA
BRANCH   4   6
ATOM      6  C   UNL     1      37.714  34.391 135.560  1.00  0.00     0.091 CG0
ATOM      7  G   UNL     1      36.573  34.694 134.565  1.00  0.00     0.000 G0
ENDBRANCH   4   6
ENDBRANCH   2   4
BRANCH   3   8
ATOM      8  C   UNL     1      36.867  32.490 133.357  1.00  0.00    -0.003 C 
ATOM      9  C   UNL     1      36.100  33.439 133.909  1.00  0.00    -0.020 C 
BRANCH   9  10
ATOM     10  C   UNL     1      36.580  34.710 134.568  1.00  0.00    -0.010 CG0
ATOM     11  C   UNL     1      35.404  35.314 135.370  1.00  0.00     0.016 C 
ATOM     12  C   UNL     1      36.998  35.738 133.490  1.00  0.00     0.016 C 
ATOM     13  G   UNL     1      37.720  34.386 135.556  1.00  0.00     0.000 G0
ENDBRANCH   9  10
ENDBRANCH   3   8
TORSDOF 0
ENDMDL
