MODEL 1
REMARK VINA RESULT:    -2.385      0.000      0.000
REMARK INTER + INTRA:          -2.731
REMARK INTER:                  -2.663
REMARK INTRA:                  -0.067
REMARK UNBOUND:                -0.067
REMARK SMILES CCCC(=O)[O-]
REMARK SMILES IDX 3 1 4 2 5 3 6 4 2 5 1 6
REMARK H PARENT
REMARK Flexibility Score: inf
ROOT
ATOM      1  C   UNL     1      58.158  16.875  48.946  1.00  0.00     0.052 C 
ENDROOT
BRANCH   1   2
ATOM      2  C   UNL     1      57.650  17.364  50.265  1.00  0.00     0.041 C 
ATOM      3  O   UNL     1      58.099  16.879  51.337  1.00  0.00    -0.550 OA
ATOM      4  O   UNL     1      56.646  18.324  50.311  1.00  0.00    -0.550 OA
ENDBRANCH   1   2
BRANCH   1   5
ATOM      5  C   UNL     1      59.607  17.321  48.731  1.00  0.00     0.003 C 
ATOM      6  C   UNL     1      59.699  18.837  48.574  1.00  0.00     0.004 C 
ENDBRANCH   1   5
TORSDOF 2
ENDMDL
MODEL 2
REMARK VINA RESULT:    -2.368      2.097      2.856
REMARK INTER + INTRA:          -2.712
REMARK INTER:                  -2.666
REMARK INTRA:                  -0.046
REMARK UNBOUND:                -0.067
REMARK SMILES CCCC(=O)[O-]
REMARK SMILES IDX 3 1 4 2 5 3 6 4 2 5 1 6
REMARK H PARENT
REMARK Flexibility Score: inf
ROOT
ATOM      1  C   UNL     1      58.307  16.877  49.051  1.00  0.00     0.052 C 
ENDROOT
BRANCH   1   2
ATOM      2  C   UNL     1      59.589  17.612  48.820  1.00  0.00     0.041 C 
ATOM      3  O   UNL     1      60.674  17.152  49.265  1.00  0.00    -0.550 OA
ATOM      4  O   UNL     1      59.581  18.831  48.153  1.00  0.00    -0.550 OA
ENDBRANCH   1   2
BRANCH   1   5
ATOM      5  C   UNL     1      57.803  17.116  50.477  1.00  0.00     0.003 C 
ATOM      6  C   UNL     1      56.865  18.318  50.536  1.00  0.00     0.004 C 
ENDBRANCH   1   5
TORSDOF 2
ENDMDL
MODEL 3
REMARK VINA RESULT:    -2.308     10.273     11.283
REMARK INTER + INTRA:          -2.645
REMARK INTER:                  -2.611
REMARK INTRA:                  -0.033
REMARK UNBOUND:                -0.067
REMARK SMILES CCCC(=O)[O-]
REMARK SMILES IDX 3 1 4 2 5 3 6 4 2 5 1 6
REMARK H PARENT
REMARK Flexibility Score: inf
ROOT
ATOM      1  C   UNL     1      58.887  29.276  49.194  1.00  0.00     0.052 C 
ENDROOT
BRANCH   1   2
ATOM      2  C   UNL     1      59.769  28.069  49.253  1.00  0.00     0.041 C 
ATOM      3  O   UNL     1      61.021  28.199  49.276  1.00  0.00    -0.550 OA
ATOM      4  O   UNL     1      59.209  26.798  49.235  1.00  0.00    -0.550 OA
ENDBRANCH   1   2
BRANCH   1   5
ATOM      5  C   UNL     1      58.192  29.498  50.540  1.00  0.00     0.003 C 
ATOM      6  C   UNL     1      56.756  28.982  50.511  1.00  0.00     0.004 C 
ENDBRANCH   1   5
TORSDOF 2
ENDMDL
MODEL 4
REMARK VINA RESULT:    -2.305     10.010     10.769
REMARK INTER + INTRA:          -2.641
REMARK INTER:                  -2.632
REMARK INTRA:                  -0.010
REMARK UNBOUND:                -0.067
REMARK SMILES CCCC(=O)[O-]
REMARK SMILES IDX 3 1 4 2 5 3 6 4 2 5 1 6
REMARK H PARENT
REMARK Flexibility Score: inf
ROOT
ATOM      1  C   UNL     1      55.166  27.988  50.339  1.00  0.00     0.052 C 
ENDROOT
BRANCH   1   2
ATOM      2  C   UNL     1      55.455  26.580  49.925  1.00  0.00     0.041 C 
ATOM      3  O   UNL     1      56.521  26.018  50.290  1.00  0.00    -0.550 OA
ATOM      4  O   UNL     1      54.569  25.902  49.097  1.00  0.00    -0.550 OA
ENDBRANCH   1   2
BRANCH   1   5
ATOM      5  C   UNL     1      53.735  28.375  49.954  1.00  0.00     0.003 C 
ATOM      6  C   UNL     1      53.418  29.806  50.380  1.00  0.00     0.004 C 
ENDBRANCH   1   5
TORSDOF 2
ENDMDL
MODEL 5
REMARK VINA RESULT:    -2.251     22.327     22.688
REMARK INTER + INTRA:          -2.581
REMARK INTER:                  -2.550
REMARK INTRA:                  -0.031
REMARK UNBOUND:                -0.067
REMARK SMILES CCCC(=O)[O-]
REMARK SMILES IDX 3 1 4 2 5 3 6 4 2 5 1 6
REMARK H PARENT
REMARK Flexibility Score: inf
ROOT
ATOM      1  C   UNL     1      73.125  31.029  62.014  1.00  0.00     0.052 C 
ENDROOT
BRANCH   1   2
ATOM      2  C   UNL     1      72.451  29.706  62.199  1.00  0.00     0.041 C 
ATOM      3  O   UNL     1      71.323  29.640  62.755  1.00  0.00    -0.550 OA
ATOM      4  O   UNL     1      73.090  28.539  61.800  1.00  0.00    -0.550 OA
ENDBRANCH   1   2
BRANCH   1   5
ATOM      5  C   UNL     1      72.973  31.510  60.569  1.00  0.00     0.003 C 
ATOM      6  C   UNL     1      72.000  32.682  60.477  1.00  0.00     0.004 C 
ENDBRANCH   1   5
TORSDOF 2
ENDMDL
MODEL 6
REMARK VINA RESULT:    -2.243      1.958      2.443
REMARK INTER + INTRA:          -2.573
REMARK INTER:                  -2.562
REMARK INTRA:                  -0.011
REMARK UNBOUND:                -0.067
REMARK SMILES CCCC(=O)[O-]
REMARK SMILES IDX 3 1 4 2 5 3 6 4 2 5 1 6
REMARK H PARENT
REMARK Flexibility Score: inf
ROOT
ATOM      1  C   UNL     1      59.196  19.233  49.580  1.00  0.00     0.052 C 
ENDROOT
BRANCH   1   2
ATOM      2  C   UNL     1      58.756  17.831  49.298  1.00  0.00     0.041 C 
ATOM      3  O   UNL     1      58.084  17.194  50.151  1.00  0.00    -0.550 OA
ATOM      4  O   UNL     1      59.129  17.211  48.112  1.00  0.00    -0.550 OA
ENDBRANCH   1   2
BRANCH   1   5
ATOM      5  C   UNL     1      59.902  19.828  48.358  1.00  0.00     0.003 C 
ATOM      6  C   UNL     1      60.592  21.144  48.707  1.00  0.00     0.004 C 
ENDBRANCH   1   5
TORSDOF 2
ENDMDL
MODEL 7
REMARK VINA RESULT:    -2.242     22.082     22.755
REMARK INTER + INTRA:          -2.571
REMARK INTER:                  -2.519
REMARK INTRA:                  -0.053
REMARK UNBOUND:                -0.067
REMARK SMILES CCCC(=O)[O-]
REMARK SMILES IDX 3 1 4 2 5 3 6 4 2 5 1 6
REMARK H PARENT
REMARK Flexibility Score: inf
ROOT
ATOM      1  C   UNL     1      73.124  30.723  62.085  1.00  0.00     0.052 C 
ENDROOT
BRANCH   1   2
ATOM      2  C   UNL     1      72.761  31.442  60.825  1.00  0.00     0.041 C 
ATOM      3  O   UNL     1      72.089  32.506  60.873  1.00  0.00    -0.550 OA
ATOM      4  O   UNL     1      73.125  30.913  59.593  1.00  0.00    -0.550 OA
ENDBRANCH   1   2
BRANCH   1   5
ATOM      5  C   UNL     1      72.318  29.428  62.213  1.00  0.00     0.003 C 
ATOM      6  C   UNL     1      70.900  29.708  62.705  1.00  0.00     0.004 C 
ENDBRANCH   1   5
TORSDOF 2
ENDMDL
MODEL 8
REMARK VINA RESULT:    -2.228     10.683     11.471
REMARK INTER + INTRA:          -2.556
REMARK INTER:                  -2.533
REMARK INTRA:                  -0.023
REMARK UNBOUND:                -0.067
REMARK SMILES CCCC(=O)[O-]
REMARK SMILES IDX 3 1 4 2 5 3 6 4 2 5 1 6
REMARK H PARENT
REMARK Flexibility Score: inf
ROOT
ATOM      1  C   UNL     1      57.867  27.966  50.203  1.00  0.00     0.052 C 
ENDROOT
BRANCH   1   2
ATOM      2  C   UNL     1      58.916  28.644  49.379  1.00  0.00     0.041 C 
ATOM      3  O   UNL     1      59.969  28.030  49.063  1.00  0.00    -0.550 OA
ATOM      4  O   UNL     1      58.752  29.970  48.999  1.00  0.00    -0.550 OA
ENDBRANCH   1   2
BRANCH   1   5
ATOM      5  C   UNL     1      56.791  28.969  50.630  1.00  0.00     0.003 C 
ATOM      6  C   UNL     1      55.392  28.384  50.454  1.00  0.00     0.004 C 
ENDBRANCH   1   5
TORSDOF 2
ENDMDL
MODEL 9
REMARK VINA RESULT:    -1.510      1.272      1.831
REMARK INTER + INTRA:          -1.753
REMARK INTER:                  -1.694
REMARK INTRA:                  -0.059
REMARK UNBOUND:                -0.067
REMARK SMILES CCCC(=O)[O-]
REMARK SMILES IDX 3 1 4 2 5 3 6 4 2 5 1 6
REMARK H PARENT
REMARK Flexibility Score: inf
ROOT
ATOM      1  C   UNL     1      58.061  17.181  50.513  1.00  0.00     0.052 C 
ENDROOT
BRANCH   1   2
ATOM      2  C   UNL     1      57.302  18.446  50.757  1.00  0.00     0.041 C 
ATOM      3  O   UNL     1      56.106  18.551  50.376  1.00  0.00    -0.550 OA
ATOM      4  O   UNL     1      57.929  19.527  51.364  1.00  0.00    -0.550 OA
ENDBRANCH   1   2
BRANCH   1   5
ATOM      5  C   UNL     1      58.124  16.875  49.014  1.00  0.00     0.003 C 
ATOM      6  C   UNL     1      59.253  17.649  48.340  1.00  0.00     0.004 C 
ENDBRANCH   1   5
TORSDOF 2
ENDMDL
