MODEL 1
REMARK VINA RESULT:    -7.419      0.000      0.000
REMARK INTER + INTRA:         -14.266
REMARK INTER:                 -12.190
REMARK INTRA:                  -2.076
REMARK UNBOUND:                -2.076
REMARK SMILES C[C@@H]1O[C@@H](OC[C@@H]2O[C@@H](Oc3c(-c4ccc(O)c(O)c4)oc4cc(O)cc(O)c4c3=O)[C@H](O)[C@H](O)[C@H]2O)[C@H](O)[C@@H](O)[C@H]1O
REMARK SMILES IDX 7 1 36 2 34 3 32 4 9 5 8 6 6 7 5 8 4 9 1 10 2 11 42 12 3 13
REMARK SMILES IDX 40 14 38 15 43 16 41 18 39 20 37 22 35 24 10 26 11 27 12 28
REMARK SMILES IDX 30 29 21 30 29 31 31 32 22 33 27 34 23 35 26 36 24 37 13 38
REMARK SMILES IDX 20 39 14 40 18 41 15 42 16 43 19 44 17 46 28 48 25 50 33 52
REMARK H PARENT 43 17 41 19 39 21 37 23 35 25 19 45 17 47 28 49 25 51 33 53
REMARK Flexibility Score: inf
ROOT
ATOM      1  C   UNL     1       0.257  -4.814  -5.629  1.00  0.00     0.180 C 
ATOM      2  C   UNL     1       0.315  -4.886  -7.181  1.00  0.00     0.177 C 
ATOM      3  C   UNL     1      -0.040  -6.325  -7.558  1.00  0.00     0.180 C 
ATOM      4  C   UNL     1      -1.523  -6.521  -7.240  1.00  0.00     0.214 C 
ATOM      5  C   UNL     1      -2.030  -5.776  -5.970  1.00  0.00     0.339 C 
ATOM      6  O   UNL     1      -0.951  -5.375  -5.091  1.00  0.00    -0.332 OA
ENDROOT
BRANCH   1   7
ATOM      7  C   UNL     1       1.602  -5.458  -4.996  1.00  0.00     0.198 C 
BRANCH   7   8
ATOM      8  O   UNL     1       2.693  -5.452  -5.912  1.00  0.00    -0.347 OA
BRANCH   8   9
ATOM      9  C   UNL     1       3.996  -5.131  -5.367  1.00  0.00     0.281 C 
ATOM     10  C   UNL     1       6.097  -5.736  -8.292  1.00  0.00     0.041 C 
ATOM     11  C   UNL     1       4.864  -5.913  -7.405  1.00  0.00     0.150 C 
ATOM     12  C   UNL     1       4.744  -7.380  -6.867  1.00  0.00     0.174 C 
ATOM     13  O   UNL     1       4.939  -4.915  -6.391  1.00  0.00    -0.344 OA
ATOM     14  C   UNL     1       5.068  -7.521  -5.359  1.00  0.00     0.179 C 
ATOM     15  C   UNL     1       4.532  -6.315  -4.506  1.00  0.00     0.202 C 
BRANCH  12  16
ATOM     16  O   UNL     1       3.459  -7.889  -7.138  1.00  0.00    -0.388 OA
ATOM     17  H   UNL     1       2.843  -7.103  -7.134  1.00  0.00     0.211 HD
ENDBRANCH  12  16
BRANCH  14  18
ATOM     18  O   UNL     1       4.506  -8.724  -4.898  1.00  0.00    -0.387 OA
ATOM     19  H   UNL     1       5.028  -8.997  -4.103  1.00  0.00     0.211 HD
ENDBRANCH  14  18
BRANCH  15  20
ATOM     20  O   UNL     1       5.543  -5.870  -3.631  1.00  0.00    -0.385 OA
ATOM     21  H   UNL     1       6.294  -5.523  -4.194  1.00  0.00     0.211 HD
ENDBRANCH  15  20
ENDBRANCH   8   9
ENDBRANCH   7   8
ENDBRANCH   1   7
BRANCH   2  22
ATOM     22  O   UNL     1      -0.557  -3.982  -7.820  1.00  0.00    -0.387 OA
ATOM     23  H   UNL     1      -0.326  -3.905  -8.794  1.00  0.00     0.211 HD
ENDBRANCH   2  22
BRANCH   3  24
ATOM     24  O   UNL     1       0.740  -7.291  -6.887  1.00  0.00    -0.387 OA
ATOM     25  H   UNL     1       0.249  -8.131  -6.995  1.00  0.00     0.211 HD
ENDBRANCH   3  24
BRANCH   5  26
ATOM     26  O   UNL     1      -3.024  -4.728  -6.258  1.00  0.00    -0.454 OA
BRANCH  26  27
ATOM     27  C   UNL     1      -4.422  -4.970  -6.484  1.00  0.00     0.214 A 
ATOM     28  C   UNL     1      -5.400  -3.953  -6.432  1.00  0.00     0.180 A 
ATOM     29  C   UNL     1      -4.984  -6.224  -6.672  1.00  0.00     0.239 A 
ATOM     30  O   UNL     1      -6.485  -4.223  -5.665  1.00  0.00    -0.452 OA
ATOM     31  C   UNL     1      -6.073  -6.560  -5.878  1.00  0.00     0.111 A 
ATOM     32  O   UNL     1      -4.673  -6.941  -7.662  1.00  0.00    -0.285 OA
ATOM     33  C   UNL     1      -6.773  -5.490  -5.284  1.00  0.00     0.146 A 
ATOM     34  C   UNL     1      -6.480  -7.885  -5.687  1.00  0.00     0.134 A 
ATOM     35  C   UNL     1      -7.827  -5.765  -4.394  1.00  0.00     0.094 A 
ATOM     36  C   UNL     1      -7.510  -8.156  -4.775  1.00  0.00     0.093 A 
ATOM     37  C   UNL     1      -8.146  -7.092  -4.088  1.00  0.00     0.123 A 
BRANCH  28  38
ATOM     38  C   UNL     1      -5.517  -2.993  -7.585  1.00  0.00     0.025 A 
ATOM     39  C   UNL     1      -6.387  -1.916  -7.286  1.00  0.00     0.062 A 
ATOM     40  C   UNL     1      -5.824  -3.643  -8.809  1.00  0.00     0.016 A 
ATOM     41  C   UNL     1      -7.783  -2.102  -7.547  1.00  0.00     0.158 A 
ATOM     42  C   UNL     1      -7.178  -3.846  -9.125  1.00  0.00     0.051 A 
ATOM     43  C   UNL     1      -8.173  -3.167  -8.384  1.00  0.00     0.157 A 
BRANCH  41  44
ATOM     44  O   UNL     1      -8.734  -1.210  -7.056  1.00  0.00    -0.504 OA
ATOM     45  H   UNL     1      -8.564  -0.713  -6.187  1.00  0.00     0.293 HD
ENDBRANCH  41  44
BRANCH  43  46
ATOM     46  O   UNL     1      -9.520  -3.510  -8.555  1.00  0.00    -0.504 OA
ATOM     47  H   UNL     1      -9.809  -4.400  -8.921  1.00  0.00     0.293 HD
ENDBRANCH  43  46
ENDBRANCH  28  38
BRANCH  34  48
ATOM     48  O   UNL     1      -5.862  -8.938  -6.388  1.00  0.00    -0.507 OA
ATOM     49  H   UNL     1      -5.212  -8.750  -7.142  1.00  0.00     0.293 HD
ENDBRANCH  34  48
BRANCH  37  50
ATOM     50  O   UNL     1      -9.086  -7.373  -3.091  1.00  0.00    -0.508 OA
ATOM     51  H   UNL     1      -8.818  -7.365  -2.111  1.00  0.00     0.293 HD
ENDBRANCH  37  50
ENDBRANCH  26  27
ENDBRANCH   5  26
BRANCH   4  52
ATOM     52  O   UNL     1      -1.850  -7.885  -7.149  1.00  0.00    -0.384 OA
ATOM     53  H   UNL     1      -1.417  -8.342  -7.937  1.00  0.00     0.211 HD
ENDBRANCH   4  52
TORSDOF 16
ENDMDL
MODEL 2
REMARK VINA RESULT:    -7.134      1.442      3.394
REMARK INTER + INTRA:         -13.798
REMARK INTER:                 -11.527
REMARK INTRA:                  -2.271
REMARK UNBOUND:                -2.076
REMARK SMILES C[C@@H]1O[C@@H](OC[C@@H]2O[C@@H](Oc3c(-c4ccc(O)c(O)c4)oc4cc(O)cc(O)c4c3=O)[C@H](O)[C@H](O)[C@H]2O)[C@H](O)[C@@H](O)[C@H]1O
REMARK SMILES IDX 7 1 36 2 34 3 32 4 9 5 8 6 6 7 5 8 4 9 1 10 2 11 42 12 3 13
REMARK SMILES IDX 40 14 38 15 43 16 41 18 39 20 37 22 35 24 10 26 11 27 12 28
REMARK SMILES IDX 30 29 21 30 29 31 31 32 22 33 27 34 23 35 26 36 24 37 13 38
REMARK SMILES IDX 20 39 14 40 18 41 15 42 16 43 19 44 17 46 28 48 25 50 33 52
REMARK H PARENT 43 17 41 19 39 21 37 23 35 25 19 45 17 47 28 49 25 51 33 53
REMARK Flexibility Score: inf
ROOT
ATOM      1  C   UNL     1       0.778  -4.837  -5.771  1.00  0.00     0.180 C 
ATOM      2  C   UNL     1       0.762  -5.007  -7.317  1.00  0.00     0.177 C 
ATOM      3  C   UNL     1       0.332  -6.450  -7.585  1.00  0.00     0.180 C 
ATOM      4  C   UNL     1      -1.141  -6.562  -7.191  1.00  0.00     0.214 C 
ATOM      5  C   UNL     1      -1.558  -5.719  -5.949  1.00  0.00     0.339 C 
ATOM      6  O   UNL     1      -0.424  -5.311  -5.146  1.00  0.00    -0.332 OA
ENDROOT
BRANCH   1   7
ATOM      7  C   UNL     1       2.125  -5.498  -5.157  1.00  0.00     0.198 C 
BRANCH   7   8
ATOM      8  O   UNL     1       3.256  -5.318  -6.005  1.00  0.00    -0.347 OA
BRANCH   8   9
ATOM      9  C   UNL     1       4.530  -5.107  -5.349  1.00  0.00     0.281 C 
ATOM     10  C   UNL     1       6.810  -5.753  -8.128  1.00  0.00     0.041 C 
ATOM     11  C   UNL     1       5.503  -5.876  -7.346  1.00  0.00     0.150 C 
ATOM     12  C   UNL     1       5.243  -7.349  -6.879  1.00  0.00     0.174 C 
ATOM     13  O   UNL     1       5.564  -4.921  -6.289  1.00  0.00    -0.344 OA
ATOM     14  C   UNL     1       5.437  -7.565  -5.357  1.00  0.00     0.179 C 
ATOM     15  C   UNL     1       4.917  -6.355  -4.499  1.00  0.00     0.202 C 
BRANCH  12  16
ATOM     16  O   UNL     1       3.952  -7.757  -7.267  1.00  0.00    -0.388 OA
ATOM     17  H   UNL     1       3.868  -8.713  -6.989  1.00  0.00     0.211 HD
ENDBRANCH  12  16
BRANCH  14  18
ATOM     18  O   UNL     1       4.761  -8.741  -4.989  1.00  0.00    -0.387 OA
ATOM     19  H   UNL     1       3.993  -8.468  -4.430  1.00  0.00     0.211 HD
ENDBRANCH  14  18
BRANCH  15  20
ATOM     20  O   UNL     1       5.883  -6.013  -3.532  1.00  0.00    -0.385 OA
ATOM     21  H   UNL     1       5.659  -6.514  -2.696  1.00  0.00     0.211 HD
ENDBRANCH  15  20
ENDBRANCH   8   9
ENDBRANCH   7   8
ENDBRANCH   1   7
BRANCH   2  22
ATOM     22  O   UNL     1      -0.102  -4.108  -7.972  1.00  0.00    -0.387 OA
ATOM     23  H   UNL     1      -0.066  -4.252  -8.965  1.00  0.00     0.211 HD
ENDBRANCH   2  22
BRANCH   3  24
ATOM     24  O   UNL     1       1.103  -7.405  -6.889  1.00  0.00    -0.387 OA
ATOM     25  H   UNL     1       1.254  -8.125  -7.535  1.00  0.00     0.211 HD
ENDBRANCH   3  24
BRANCH   5  26
ATOM     26  O   UNL     1      -2.522  -4.649  -6.260  1.00  0.00    -0.454 OA
BRANCH  26  27
ATOM     27  C   UNL     1      -3.949  -4.790  -6.188  1.00  0.00     0.214 A 
ATOM     28  C   UNL     1      -4.725  -5.341  -7.231  1.00  0.00     0.180 A 
ATOM     29  C   UNL     1      -4.737  -4.317  -5.147  1.00  0.00     0.239 A 
ATOM     30  O   UNL     1      -5.803  -4.610  -7.606  1.00  0.00    -0.452 OA
ATOM     31  C   UNL     1      -5.830  -3.529  -5.483  1.00  0.00     0.111 A 
ATOM     32  O   UNL     1      -4.606  -4.758  -3.973  1.00  0.00    -0.285 OA
ATOM     33  C   UNL     1      -6.297  -3.633  -6.809  1.00  0.00     0.146 A 
ATOM     34  C   UNL     1      -6.459  -2.689  -4.558  1.00  0.00     0.134 A 
ATOM     35  C   UNL     1      -7.340  -2.794  -7.240  1.00  0.00     0.094 A 
ATOM     36  C   UNL     1      -7.477  -1.831  -5.000  1.00  0.00     0.093 A 
ATOM     37  C   UNL     1      -7.879  -1.849  -6.359  1.00  0.00     0.123 A 
BRANCH  28  38
ATOM     38  C   UNL     1      -4.721  -6.831  -7.436  1.00  0.00     0.025 A 
ATOM     39  C   UNL     1      -5.618  -7.224  -8.459  1.00  0.00     0.062 A 
ATOM     40  C   UNL     1      -4.897  -7.550  -6.224  1.00  0.00     0.016 A 
ATOM     41  C   UNL     1      -6.979  -7.470  -8.085  1.00  0.00     0.158 A 
ATOM     42  C   UNL     1      -6.210  -7.830  -5.810  1.00  0.00     0.051 A 
ATOM     43  C   UNL     1      -7.278  -7.651  -6.720  1.00  0.00     0.157 A 
BRANCH  41  44
ATOM     44  O   UNL     1      -7.977  -7.611  -9.047  1.00  0.00    -0.504 OA
ATOM     45  H   UNL     1      -8.765  -8.227  -8.875  1.00  0.00     0.293 HD
ENDBRANCH  41  44
BRANCH  43  46
ATOM     46  O   UNL     1      -8.600  -7.733  -6.263  1.00  0.00    -0.504 OA
ATOM     47  H   UNL     1      -8.850  -8.214  -5.416  1.00  0.00     0.293 HD
ENDBRANCH  43  46
ENDBRANCH  28  38
BRANCH  34  48
ATOM     48  O   UNL     1      -6.074  -2.689  -3.205  1.00  0.00    -0.507 OA
ATOM     49  H   UNL     1      -6.382  -3.422  -2.576  1.00  0.00     0.293 HD
ENDBRANCH  34  48
BRANCH  37  50
ATOM     50  O   UNL     1      -8.805  -0.910  -6.822  1.00  0.00    -0.508 OA
ATOM     51  H   UNL     1      -8.939  -0.030  -6.332  1.00  0.00     0.293 HD
ENDBRANCH  37  50
ENDBRANCH  26  27
ENDBRANCH   5  26
BRANCH   4  52
ATOM     52  O   UNL     1      -1.518  -7.902  -6.999  1.00  0.00    -0.384 OA
ATOM     53  H   UNL     1      -2.526  -7.924  -6.996  1.00  0.00     0.211 HD
ENDBRANCH   4  52
TORSDOF 16
ENDMDL
MODEL 3
REMARK VINA RESULT:    -7.022      1.481      2.544
REMARK INTER + INTRA:         -13.614
REMARK INTER:                 -11.841
REMARK INTRA:                  -1.773
REMARK UNBOUND:                -2.076
REMARK SMILES C[C@@H]1O[C@@H](OC[C@@H]2O[C@@H](Oc3c(-c4ccc(O)c(O)c4)oc4cc(O)cc(O)c4c3=O)[C@H](O)[C@H](O)[C@H]2O)[C@H](O)[C@@H](O)[C@H]1O
REMARK SMILES IDX 7 1 36 2 34 3 32 4 9 5 8 6 6 7 5 8 4 9 1 10 2 11 42 12 3 13
REMARK SMILES IDX 40 14 38 15 43 16 41 18 39 20 37 22 35 24 10 26 11 27 12 28
REMARK SMILES IDX 30 29 21 30 29 31 31 32 22 33 27 34 23 35 26 36 24 37 13 38
REMARK SMILES IDX 20 39 14 40 18 41 15 42 16 43 19 44 17 46 28 48 25 50 33 52
REMARK H PARENT 43 17 41 19 39 21 37 23 35 25 19 45 17 47 28 49 25 51 33 53
REMARK Flexibility Score: inf
ROOT
ATOM      1  C   UNL     1      -0.263  -6.977  -6.540  1.00  0.00     0.180 C 
ATOM      2  C   UNL     1      -0.063  -5.533  -5.999  1.00  0.00     0.177 C 
ATOM      3  C   UNL     1      -0.502  -4.590  -7.121  1.00  0.00     0.180 C 
ATOM      4  C   UNL     1      -2.019  -4.722  -7.254  1.00  0.00     0.214 C 
ATOM      5  C   UNL     1      -2.580  -6.156  -7.018  1.00  0.00     0.339 C 
ATOM      6  O   UNL     1      -1.560  -7.178  -7.125  1.00  0.00    -0.332 OA
ENDROOT
BRANCH   1   7
ATOM      7  C   UNL     1       0.956  -7.368  -7.533  1.00  0.00     0.198 C 
BRANCH   7   8
ATOM      8  O   UNL     1       2.177  -6.728  -7.175  1.00  0.00    -0.347 OA
BRANCH   8   9
ATOM      9  C   UNL     1       3.286  -6.886  -8.094  1.00  0.00     0.281 C 
ATOM     10  C   UNL     1       5.325  -9.291  -6.250  1.00  0.00     0.041 C 
ATOM     11  C   UNL     1       4.292  -8.175  -6.405  1.00  0.00     0.150 C 
ATOM     12  C   UNL     1       4.759  -6.853  -5.706  1.00  0.00     0.174 C 
ATOM     13  O   UNL     1       4.031  -8.046  -7.801  1.00  0.00    -0.344 OA
ATOM     14  C   UNL     1       5.180  -5.738  -6.695  1.00  0.00     0.179 C 
ATOM     15  C   UNL     1       4.268  -5.682  -7.974  1.00  0.00     0.202 C 
BRANCH  12  16
ATOM     16  O   UNL     1       3.750  -6.382  -4.843  1.00  0.00    -0.388 OA
ATOM     17  H   UNL     1       3.456  -5.502  -5.214  1.00  0.00     0.211 HD
ENDBRANCH  12  16
BRANCH  14  18
ATOM     18  O   UNL     1       5.135  -4.507  -6.018  1.00  0.00    -0.387 OA
ATOM     19  H   UNL     1       5.440  -4.677  -5.092  1.00  0.00     0.211 HD
ENDBRANCH  14  18
BRANCH  15  20
ATOM     20  O   UNL     1       5.075  -5.587  -9.125  1.00  0.00    -0.385 OA
ATOM     21  H   UNL     1       4.858  -4.718  -9.571  1.00  0.00     0.211 HD
ENDBRANCH  15  20
ENDBRANCH   8   9
ENDBRANCH   7   8
ENDBRANCH   1   7
BRANCH   2  22
ATOM     22  O   UNL     1      -0.792  -5.267  -4.823  1.00  0.00    -0.387 OA
ATOM     23  H   UNL     1      -1.453  -6.002  -4.650  1.00  0.00     0.211 HD
ENDBRANCH   2  22
BRANCH   3  24
ATOM     24  O   UNL     1       0.127  -4.856  -8.357  1.00  0.00    -0.387 OA
ATOM     25  H   UNL     1      -0.588  -5.193  -8.935  1.00  0.00     0.211 HD
ENDBRANCH   3  24
BRANCH   5  26
ATOM     26  O   UNL     1      -3.450  -6.261  -5.835  1.00  0.00    -0.454 OA
BRANCH  26  27
ATOM     27  C   UNL     1      -4.820  -5.833  -5.789  1.00  0.00     0.214 A 
ATOM     28  C   UNL     1      -5.299  -4.869  -4.876  1.00  0.00     0.180 A 
ATOM     29  C   UNL     1      -5.843  -6.380  -6.551  1.00  0.00     0.239 A 
ATOM     30  O   UNL     1      -6.413  -5.217  -4.187  1.00  0.00    -0.452 OA
ATOM     31  C   UNL     1      -6.988  -6.790  -5.881  1.00  0.00     0.111 A 
ATOM     32  O   UNL     1      -5.834  -6.307  -7.810  1.00  0.00    -0.285 OA
ATOM     33  C   UNL     1      -7.200  -6.237  -4.601  1.00  0.00     0.146 A 
ATOM     34  C   UNL     1      -7.904  -7.686  -6.443  1.00  0.00     0.134 A 
ATOM     35  C   UNL     1      -8.290  -6.680  -3.831  1.00  0.00     0.094 A 
ATOM     36  C   UNL     1      -8.972  -8.149  -5.659  1.00  0.00     0.093 A 
ATOM     37  C   UNL     1      -9.130  -7.682  -4.331  1.00  0.00     0.123 A 
BRANCH  28  38
ATOM     38  C   UNL     1      -4.992  -3.416  -5.121  1.00  0.00     0.025 A 
ATOM     39  C   UNL     1      -5.920  -2.566  -4.471  1.00  0.00     0.062 A 
ATOM     40  C   UNL     1      -4.822  -3.118  -6.498  1.00  0.00     0.016 A 
ATOM     41  C   UNL     1      -7.121  -2.236  -5.180  1.00  0.00     0.158 A 
ATOM     42  C   UNL     1      -5.962  -2.778  -7.244  1.00  0.00     0.051 A 
ATOM     43  C   UNL     1      -7.166  -2.468  -6.569  1.00  0.00     0.157 A 
BRANCH  41  44
ATOM     44  O   UNL     1      -8.193  -1.623  -4.535  1.00  0.00    -0.504 OA
ATOM     45  H   UNL     1      -8.612  -2.058  -3.719  1.00  0.00     0.293 HD
ENDBRANCH  41  44
BRANCH  43  46
ATOM     46  O   UNL     1      -8.353  -2.324  -7.299  1.00  0.00    -0.504 OA
ATOM     47  H   UNL     1      -8.706  -3.044  -7.905  1.00  0.00     0.293 HD
ENDBRANCH  43  46
ENDBRANCH  28  38
BRANCH  34  48
ATOM     48  O   UNL     1      -7.758  -8.130  -7.770  1.00  0.00    -0.507 OA
ATOM     49  H   UNL     1      -8.155  -9.013  -8.070  1.00  0.00     0.293 HD
ENDBRANCH  34  48
BRANCH  37  50
ATOM     50  O   UNL     1     -10.120  -8.237  -3.513  1.00  0.00    -0.508 OA
ATOM     51  H   UNL     1     -10.826  -7.647  -3.084  1.00  0.00     0.293 HD
ENDBRANCH  37  50
ENDBRANCH  26  27
ENDBRANCH   5  26
BRANCH   4  52
ATOM     52  O   UNL     1      -2.467  -4.239  -8.495  1.00  0.00    -0.384 OA
ATOM     53  H   UNL     1      -1.978  -4.760  -9.206  1.00  0.00     0.211 HD
ENDBRANCH   4  52
TORSDOF 16
ENDMDL
MODEL 4
REMARK VINA RESULT:    -6.868      1.522      1.996
REMARK INTER + INTRA:         -13.360
REMARK INTER:                 -11.627
REMARK INTRA:                  -1.734
REMARK UNBOUND:                -2.076
REMARK SMILES C[C@@H]1O[C@@H](OC[C@@H]2O[C@@H](Oc3c(-c4ccc(O)c(O)c4)oc4cc(O)cc(O)c4c3=O)[C@H](O)[C@H](O)[C@H]2O)[C@H](O)[C@@H](O)[C@H]1O
REMARK SMILES IDX 7 1 36 2 34 3 32 4 9 5 8 6 6 7 5 8 4 9 1 10 2 11 42 12 3 13
REMARK SMILES IDX 40 14 38 15 43 16 41 18 39 20 37 22 35 24 10 26 11 27 12 28
REMARK SMILES IDX 30 29 21 30 29 31 31 32 22 33 27 34 23 35 26 36 24 37 13 38
REMARK SMILES IDX 20 39 14 40 18 41 15 42 16 43 19 44 17 46 28 48 25 50 33 52
REMARK H PARENT 43 17 41 19 39 21 37 23 35 25 19 45 17 47 28 49 25 51 33 53
REMARK Flexibility Score: inf
ROOT
ATOM      1  C   UNL     1       0.252  -6.050  -6.343  1.00  0.00     0.180 C 
ATOM      2  C   UNL     1      -0.384  -4.777  -6.972  1.00  0.00     0.177 C 
ATOM      3  C   UNL     1      -1.080  -5.235  -8.255  1.00  0.00     0.180 C 
ATOM      4  C   UNL     1      -2.286  -6.076  -7.838  1.00  0.00     0.214 C 
ATOM      5  C   UNL     1      -2.071  -6.958  -6.573  1.00  0.00     0.339 C 
ATOM      6  O   UNL     1      -0.669  -7.148  -6.258  1.00  0.00    -0.332 OA
ENDROOT
BRANCH   1   7
ATOM      7  C   UNL     1       1.625  -6.422  -7.119  1.00  0.00     0.198 C 
BRANCH   7   8
ATOM      8  O   UNL     1       2.749  -5.712  -6.608  1.00  0.00    -0.347 OA
BRANCH   8   9
ATOM      9  C   UNL     1       3.599  -6.427  -5.678  1.00  0.00     0.281 C 
ATOM     10  C   UNL     1       6.675  -4.479  -5.973  1.00  0.00     0.041 C 
ATOM     11  C   UNL     1       5.334  -5.040  -6.447  1.00  0.00     0.150 C 
ATOM     12  C   UNL     1       5.506  -5.980  -7.688  1.00  0.00     0.174 C 
ATOM     13  O   UNL     1       4.723  -5.657  -5.316  1.00  0.00    -0.344 OA
ATOM     14  C   UNL     1       5.302  -7.481  -7.368  1.00  0.00     0.179 C 
ATOM     15  C   UNL     1       4.145  -7.732  -6.334  1.00  0.00     0.202 C 
BRANCH  12  16
ATOM     16  O   UNL     1       4.634  -5.581  -8.720  1.00  0.00    -0.388 OA
ATOM     17  H   UNL     1       4.177  -4.754  -8.393  1.00  0.00     0.211 HD
ENDBRANCH  12  16
BRANCH  14  18
ATOM     18  O   UNL     1       5.028  -8.157  -8.570  1.00  0.00    -0.387 OA
ATOM     19  H   UNL     1       5.659  -8.917  -8.622  1.00  0.00     0.211 HD
ENDBRANCH  14  18
BRANCH  15  20
ATOM     20  O   UNL     1       4.582  -8.636  -5.345  1.00  0.00    -0.385 OA
ATOM     21  H   UNL     1       5.380  -8.228  -4.901  1.00  0.00     0.211 HD
ENDBRANCH  15  20
ENDBRANCH   8   9
ENDBRANCH   7   8
ENDBRANCH   1   7
BRANCH   2  22
ATOM     22  O   UNL     1      -1.300  -4.128  -6.122  1.00  0.00    -0.387 OA
ATOM     23  H   UNL     1      -1.778  -4.799  -5.547  1.00  0.00     0.211 HD
ENDBRANCH   2  22
BRANCH   3  24
ATOM     24  O   UNL     1      -0.240  -5.970  -9.119  1.00  0.00    -0.387 OA
ATOM     25  H   UNL     1       0.666  -5.819  -8.777  1.00  0.00     0.211 HD
ENDBRANCH   3  24
BRANCH   5  26
ATOM     26  O   UNL     1      -2.921  -6.574  -5.434  1.00  0.00    -0.454 OA
BRANCH  26  27
ATOM     27  C   UNL     1      -4.306  -6.209  -5.537  1.00  0.00     0.214 A 
ATOM     28  C   UNL     1      -4.881  -5.142  -4.812  1.00  0.00     0.180 A 
ATOM     29  C   UNL     1      -5.254  -6.912  -6.267  1.00  0.00     0.239 A 
ATOM     30  O   UNL     1      -6.024  -5.436  -4.147  1.00  0.00    -0.452 OA
ATOM     31  C   UNL     1      -6.425  -7.271  -5.612  1.00  0.00     0.111 A 
ATOM     32  O   UNL     1      -5.164  -7.029  -7.519  1.00  0.00    -0.285 OA
ATOM     33  C   UNL     1      -6.743  -6.543  -4.447  1.00  0.00     0.146 A 
ATOM     34  C   UNL     1      -7.267  -8.284  -6.085  1.00  0.00     0.134 A 
ATOM     35  C   UNL     1      -7.865  -6.917  -3.685  1.00  0.00     0.094 A 
ATOM     36  C   UNL     1      -8.366  -8.674  -5.305  1.00  0.00     0.093 A 
ATOM     37  C   UNL     1      -8.631  -8.022  -4.076  1.00  0.00     0.123 A 
BRANCH  28  38
ATOM     38  C   UNL     1      -4.614  -3.730  -5.257  1.00  0.00     0.025 A 
ATOM     39  C   UNL     1      -5.504  -2.810  -4.651  1.00  0.00     0.062 A 
ATOM     40  C   UNL     1      -4.549  -3.605  -6.670  1.00  0.00     0.016 A 
ATOM     41  C   UNL     1      -6.758  -2.577  -5.303  1.00  0.00     0.158 A 
ATOM     42  C   UNL     1      -5.746  -3.366  -7.365  1.00  0.00     0.051 A 
ATOM     43  C   UNL     1      -6.902  -2.981  -6.646  1.00  0.00     0.157 A 
BRANCH  41  44
ATOM     44  O   UNL     1      -7.789  -1.894  -4.661  1.00  0.00    -0.504 OA
ATOM     45  H   UNL     1      -7.933  -2.014  -3.663  1.00  0.00     0.293 HD
ENDBRANCH  41  44
BRANCH  43  46
ATOM     46  O   UNL     1      -8.141  -2.935  -7.297  1.00  0.00    -0.504 OA
ATOM     47  H   UNL     1      -9.012  -3.061  -6.812  1.00  0.00     0.293 HD
ENDBRANCH  43  46
ENDBRANCH  28  38
BRANCH  34  48
ATOM     48  O   UNL     1      -7.016  -8.915  -7.317  1.00  0.00    -0.507 OA
ATOM     49  H   UNL     1      -6.947  -8.376  -8.173  1.00  0.00     0.293 HD
ENDBRANCH  34  48
BRANCH  37  50
ATOM     50  O   UNL     1      -9.651  -8.493  -3.245  1.00  0.00    -0.508 OA
ATOM     51  H   UNL     1      -9.434  -8.906  -2.342  1.00  0.00     0.293 HD
ENDBRANCH  37  50
ENDBRANCH  26  27
ENDBRANCH   5  26
BRANCH   4  52
ATOM     52  O   UNL     1      -2.741  -6.877  -8.900  1.00  0.00    -0.384 OA
ATOM     53  H   UNL     1      -1.930  -7.327  -9.294  1.00  0.00     0.211 HD
ENDBRANCH   4  52
TORSDOF 16
ENDMDL
MODEL 5
REMARK VINA RESULT:    -6.395      2.343      8.840
REMARK INTER + INTRA:         -12.583
REMARK INTER:                 -10.667
REMARK INTRA:                  -1.916
REMARK UNBOUND:                -2.076
REMARK SMILES C[C@@H]1O[C@@H](OC[C@@H]2O[C@@H](Oc3c(-c4ccc(O)c(O)c4)oc4cc(O)cc(O)c4c3=O)[C@H](O)[C@H](O)[C@H]2O)[C@H](O)[C@@H](O)[C@H]1O
REMARK SMILES IDX 7 1 36 2 34 3 32 4 9 5 8 6 6 7 5 8 4 9 1 10 2 11 42 12 3 13
REMARK SMILES IDX 40 14 38 15 43 16 41 18 39 20 37 22 35 24 10 26 11 27 12 28
REMARK SMILES IDX 30 29 21 30 29 31 31 32 22 33 27 34 23 35 26 36 24 37 13 38
REMARK SMILES IDX 20 39 14 40 18 41 15 42 16 43 19 44 17 46 28 48 25 50 33 52
REMARK H PARENT 43 17 41 19 39 21 37 23 35 25 19 45 17 47 28 49 25 51 33 53
REMARK Flexibility Score: inf
ROOT
ATOM      1  C   UNL     1      -3.266  -4.505  -6.806  1.00  0.00     0.180 C 
ATOM      2  C   UNL     1      -3.458  -4.743  -8.330  1.00  0.00     0.177 C 
ATOM      3  C   UNL     1      -3.572  -3.358  -8.970  1.00  0.00     0.180 C 
ATOM      4  C   UNL     1      -2.194  -2.703  -8.875  1.00  0.00     0.214 C 
ATOM      5  C   UNL     1      -1.396  -3.028  -7.577  1.00  0.00     0.339 C 
ATOM      6  O   UNL     1      -2.241  -3.541  -6.518  1.00  0.00    -0.332 OA
ENDROOT
BRANCH   1   7
ATOM      7  C   UNL     1      -4.690  -4.152  -6.118  1.00  0.00     0.198 C 
BRANCH   7   8
ATOM      8  O   UNL     1      -5.635  -5.211  -6.247  1.00  0.00    -0.347 OA
BRANCH   8   9
ATOM      9  C   UNL     1      -5.559  -6.271  -5.263  1.00  0.00     0.281 C 
ATOM     10  C   UNL     1      -6.093  -9.186  -7.398  1.00  0.00     0.041 C 
ATOM     11  C   UNL     1      -6.205  -7.714  -7.003  1.00  0.00     0.150 C 
ATOM     12  C   UNL     1      -7.696  -7.289  -6.770  1.00  0.00     0.174 C 
ATOM     13  O   UNL     1      -5.353  -7.523  -5.876  1.00  0.00    -0.344 OA
ATOM     14  C   UNL     1      -8.056  -7.063  -5.281  1.00  0.00     0.179 C 
ATOM     15  C   UNL     1      -6.898  -6.376  -4.471  1.00  0.00     0.202 C 
BRANCH  12  16
ATOM     16  O   UNL     1      -7.991  -6.135  -7.522  1.00  0.00    -0.388 OA
ATOM     17  H   UNL     1      -7.282  -5.468  -7.297  1.00  0.00     0.211 HD
ENDBRANCH  12  16
BRANCH  14  18
ATOM     18  O   UNL     1      -9.218  -6.274  -5.222  1.00  0.00    -0.387 OA
ATOM     19  H   UNL     1      -8.923  -5.331  -5.183  1.00  0.00     0.211 HD
ENDBRANCH  14  18
BRANCH  15  20
ATOM     20  O   UNL     1      -6.700  -7.060  -3.256  1.00  0.00    -0.385 OA
ATOM     21  H   UNL     1      -6.539  -8.022  -3.478  1.00  0.00     0.211 HD
ENDBRANCH  15  20
ENDBRANCH   8   9
ENDBRANCH   7   8
ENDBRANCH   1   7
BRANCH   2  22
ATOM     22  O   UNL     1      -2.408  -5.472  -8.922  1.00  0.00    -0.387 OA
ATOM     23  H   UNL     1      -1.902  -5.983  -8.223  1.00  0.00     0.211 HD
ENDBRANCH   2  22
BRANCH   3  24
ATOM     24  O   UNL     1      -4.550  -2.539  -8.367  1.00  0.00    -0.387 OA
ATOM     25  H   UNL     1      -5.312  -3.133  -8.209  1.00  0.00     0.211 HD
ENDBRANCH   3  24
BRANCH   5  26
ATOM     26  O   UNL     1      -0.162  -3.794  -7.819  1.00  0.00    -0.454 OA
BRANCH  26  27
ATOM     27  C   UNL     1       0.139  -5.065  -7.221  1.00  0.00     0.214 A 
ATOM     28  C   UNL     1       0.664  -6.156  -7.948  1.00  0.00     0.180 A 
ATOM     29  C   UNL     1      -0.141  -5.404  -5.905  1.00  0.00     0.239 A 
ATOM     30  O   UNL     1       0.020  -7.337  -7.777  1.00  0.00    -0.452 OA
ATOM     31  C   UNL     1      -0.836  -6.586  -5.685  1.00  0.00     0.111 A 
ATOM     32  O   UNL     1       0.397  -4.793  -4.941  1.00  0.00    -0.285 OA
ATOM     33  C   UNL     1      -0.815  -7.532  -6.730  1.00  0.00     0.146 A 
ATOM     34  C   UNL     1      -1.508  -6.847  -4.486  1.00  0.00     0.134 A 
ATOM     35  C   UNL     1      -1.575  -8.710  -6.609  1.00  0.00     0.094 A 
ATOM     36  C   UNL     1      -2.291  -8.007  -4.383  1.00  0.00     0.093 A 
ATOM     37  C   UNL     1      -2.364  -8.911  -5.471  1.00  0.00     0.123 A 
BRANCH  28  38
ATOM     38  C   UNL     1       2.118  -6.144  -8.336  1.00  0.00     0.025 A 
ATOM     39  C   UNL     1       2.461  -7.269  -9.124  1.00  0.00     0.062 A 
ATOM     40  C   UNL     1       2.978  -5.950  -7.223  1.00  0.00     0.016 A 
ATOM     41  C   UNL     1       2.850  -8.464  -8.436  1.00  0.00     0.158 A 
ATOM     42  C   UNL     1       3.402  -7.086  -6.513  1.00  0.00     0.051 A 
ATOM     43  C   UNL     1       3.205  -8.369  -7.075  1.00  0.00     0.157 A 
BRANCH  41  44
ATOM     44  O   UNL     1       2.959  -9.680  -9.107  1.00  0.00    -0.504 OA
ATOM     45  H   UNL     1       3.873 -10.094  -9.265  1.00  0.00     0.293 HD
ENDBRANCH  41  44
BRANCH  43  46
ATOM     46  O   UNL     1       3.438  -9.510  -6.297  1.00  0.00    -0.504 OA
ATOM     47  H   UNL     1       4.071  -9.513  -5.517  1.00  0.00     0.293 HD
ENDBRANCH  43  46
ENDBRANCH  28  38
BRANCH  34  48
ATOM     48  O   UNL     1      -1.416  -5.959  -3.398  1.00  0.00    -0.507 OA
ATOM     49  H   UNL     1      -0.764  -5.183  -3.415  1.00  0.00     0.293 HD
ENDBRANCH  34  48
BRANCH  37  50
ATOM     50  O   UNL     1      -3.239 -10.000  -5.411  1.00  0.00    -0.508 OA
ATOM     51  H   UNL     1      -4.230  -9.878  -5.599  1.00  0.00     0.293 HD
ENDBRANCH  37  50
ENDBRANCH  26  27
ENDBRANCH   5  26
BRANCH   4  52
ATOM     52  O   UNL     1      -2.277  -1.310  -9.041  1.00  0.00    -0.384 OA
ATOM     53  H   UNL     1      -1.915  -1.104  -9.959  1.00  0.00     0.211 HD
ENDBRANCH   4  52
TORSDOF 16
ENDMDL
MODEL 6
REMARK VINA RESULT:    -6.251      1.734      4.110
REMARK INTER + INTRA:         -12.347
REMARK INTER:                 -10.533
REMARK INTRA:                  -1.814
REMARK UNBOUND:                -2.076
REMARK SMILES C[C@@H]1O[C@@H](OC[C@@H]2O[C@@H](Oc3c(-c4ccc(O)c(O)c4)oc4cc(O)cc(O)c4c3=O)[C@H](O)[C@H](O)[C@H]2O)[C@H](O)[C@@H](O)[C@H]1O
REMARK SMILES IDX 7 1 36 2 34 3 32 4 9 5 8 6 6 7 5 8 4 9 1 10 2 11 42 12 3 13
REMARK SMILES IDX 40 14 38 15 43 16 41 18 39 20 37 22 35 24 10 26 11 27 12 28
REMARK SMILES IDX 30 29 21 30 29 31 31 32 22 33 27 34 23 35 26 36 24 37 13 38
REMARK SMILES IDX 20 39 14 40 18 41 15 42 16 43 19 44 17 46 28 48 25 50 33 52
REMARK H PARENT 43 17 41 19 39 21 37 23 35 25 19 45 17 47 28 49 25 51 33 53
REMARK Flexibility Score: inf
ROOT
ATOM      1  C   UNL     1       0.093  -6.782  -7.602  1.00  0.00     0.180 C 
ATOM      2  C   UNL     1      -0.014  -6.653  -6.056  1.00  0.00     0.177 C 
ATOM      3  C   UNL     1      -0.309  -5.180  -5.767  1.00  0.00     0.180 C 
ATOM      4  C   UNL     1      -1.730  -4.901  -6.255  1.00  0.00     0.214 C 
ATOM      5  C   UNL     1      -2.145  -5.661  -7.550  1.00  0.00     0.339 C 
ATOM      6  O   UNL     1      -1.007  -6.166  -8.289  1.00  0.00    -0.332 OA
ENDROOT
BRANCH   1   7
ATOM      7  C   UNL     1       1.541  -6.253  -8.101  1.00  0.00     0.198 C 
BRANCH   7   8
ATOM      8  O   UNL     1       2.599  -6.664  -7.239  1.00  0.00    -0.347 OA
BRANCH   8   9
ATOM      9  C   UNL     1       3.869  -6.959  -7.869  1.00  0.00     0.281 C 
ATOM     10  C   UNL     1       5.379  -9.098  -5.323  1.00  0.00     0.041 C 
ATOM     11  C   UNL     1       4.446  -8.007  -5.845  1.00  0.00     0.150 C 
ATOM     12  C   UNL     1       4.805  -6.603  -5.248  1.00  0.00     0.174 C 
ATOM     13  O   UNL     1       4.490  -8.073  -7.269  1.00  0.00    -0.344 OA
ATOM     14  C   UNL     1       5.468  -5.642  -6.265  1.00  0.00     0.179 C 
ATOM     15  C   UNL     1       4.850  -5.758  -7.706  1.00  0.00     0.202 C 
BRANCH  12  16
ATOM     16  O   UNL     1       3.655  -6.007  -4.694  1.00  0.00    -0.388 OA
ATOM     17  H   UNL     1       3.908  -5.721  -3.771  1.00  0.00     0.211 HD
ENDBRANCH  12  16
BRANCH  14  18
ATOM     18  O   UNL     1       5.328  -4.327  -5.787  1.00  0.00    -0.387 OA
ATOM     19  H   UNL     1       5.970  -3.769  -6.291  1.00  0.00     0.211 HD
ENDBRANCH  14  18
BRANCH  15  20
ATOM     20  O   UNL     1       5.884  -5.833  -8.659  1.00  0.00    -0.385 OA
ATOM     21  H   UNL     1       5.896  -6.768  -9.014  1.00  0.00     0.211 HD
ENDBRANCH  15  20
ENDBRANCH   8   9
ENDBRANCH   7   8
ENDBRANCH   1   7
BRANCH   2  22
ATOM     22  O   UNL     1      -1.011  -7.472  -5.491  1.00  0.00    -0.387 OA
ATOM     23  H   UNL     1      -1.874  -6.965  -5.411  1.00  0.00     0.211 HD
ENDBRANCH   2  22
BRANCH   3  24
ATOM     24  O   UNL     1       0.606  -4.294  -6.377  1.00  0.00    -0.387 OA
ATOM     25  H   UNL     1       0.144  -3.431  -6.396  1.00  0.00     0.211 HD
ENDBRANCH   3  24
BRANCH   5  26
ATOM     26  O   UNL     1      -3.235  -6.630  -7.341  1.00  0.00    -0.454 OA
BRANCH  26  27
ATOM     27  C   UNL     1      -4.582  -6.279  -6.988  1.00  0.00     0.214 A 
ATOM     28  C   UNL     1      -5.701  -6.614  -7.782  1.00  0.00     0.180 A 
ATOM     29  C   UNL     1      -4.932  -5.493  -5.900  1.00  0.00     0.239 A 
ATOM     30  O   UNL     1      -6.552  -5.594  -8.053  1.00  0.00    -0.452 OA
ATOM     31  C   UNL     1      -5.770  -4.411  -6.138  1.00  0.00     0.111 A 
ATOM     32  O   UNL     1      -4.690  -5.862  -4.718  1.00  0.00    -0.285 OA
ATOM     33  C   UNL     1      -6.526  -4.451  -7.327  1.00  0.00     0.146 A 
ATOM     34  C   UNL     1      -5.884  -3.341  -5.243  1.00  0.00     0.134 A 
ATOM     35  C   UNL     1      -7.323  -3.345  -7.675  1.00  0.00     0.094 A 
ATOM     36  C   UNL     1      -6.655  -2.228  -5.609  1.00  0.00     0.093 A 
ATOM     37  C   UNL     1      -7.331  -2.212  -6.854  1.00  0.00     0.123 A 
BRANCH  28  38
ATOM     38  C   UNL     1      -6.208  -8.030  -7.768  1.00  0.00     0.025 A 
ATOM     39  C   UNL     1      -7.438  -8.155  -8.460  1.00  0.00     0.062 A 
ATOM     40  C   UNL     1      -6.236  -8.588  -6.463  1.00  0.00     0.016 A 
ATOM     41  C   UNL     1      -8.640  -7.918  -7.718  1.00  0.00     0.158 A 
ATOM     42  C   UNL     1      -7.393  -8.398  -5.690  1.00  0.00     0.051 A 
ATOM     43  C   UNL     1      -8.572  -7.922  -6.310  1.00  0.00     0.157 A 
BRANCH  41  44
ATOM     44  O   UNL     1      -9.867  -7.769  -8.360  1.00  0.00    -0.504 OA
ATOM     45  H   UNL     1     -10.288  -6.850  -8.446  1.00  0.00     0.293 HD
ENDBRANCH  41  44
BRANCH  43  46
ATOM     46  O   UNL     1      -9.664  -7.539  -5.521  1.00  0.00    -0.504 OA
ATOM     47  H   UNL     1      -9.629  -7.528  -4.517  1.00  0.00     0.293 HD
ENDBRANCH  43  46
ENDBRANCH  28  38
BRANCH  34  48
ATOM     48  O   UNL     1      -5.230  -3.369  -3.998  1.00  0.00    -0.507 OA
ATOM     49  H   UNL     1      -5.514  -2.750  -3.247  1.00  0.00     0.293 HD
ENDBRANCH  34  48
BRANCH  37  50
ATOM     50  O   UNL     1      -7.996  -1.054  -7.268  1.00  0.00    -0.508 OA
ATOM     51  H   UNL     1      -8.520  -0.492  -6.603  1.00  0.00     0.293 HD
ENDBRANCH  37  50
ENDBRANCH  26  27
ENDBRANCH   5  26
BRANCH   4  52
ATOM     52  O   UNL     1      -1.950  -3.524  -6.426  1.00  0.00    -0.384 OA
ATOM     53  H   UNL     1      -1.401  -3.051  -5.725  1.00  0.00     0.211 HD
ENDBRANCH   4  52
TORSDOF 16
ENDMDL
MODEL 7
REMARK VINA RESULT:    -6.078     11.485     14.342
REMARK INTER + INTRA:         -12.062
REMARK INTER:                 -11.031
REMARK INTRA:                  -1.031
REMARK UNBOUND:                -2.076
REMARK SMILES C[C@@H]1O[C@@H](OC[C@@H]2O[C@@H](Oc3c(-c4ccc(O)c(O)c4)oc4cc(O)cc(O)c4c3=O)[C@H](O)[C@H](O)[C@H]2O)[C@H](O)[C@@H](O)[C@H]1O
REMARK SMILES IDX 7 1 36 2 34 3 32 4 9 5 8 6 6 7 5 8 4 9 1 10 2 11 42 12 3 13
REMARK SMILES IDX 40 14 38 15 43 16 41 18 39 20 37 22 35 24 10 26 11 27 12 28
REMARK SMILES IDX 30 29 21 30 29 31 31 32 22 33 27 34 23 35 26 36 24 37 13 38
REMARK SMILES IDX 20 39 14 40 18 41 15 42 16 43 19 44 17 46 28 48 25 50 33 52
REMARK H PARENT 43 17 41 19 39 21 37 23 35 25 19 45 17 47 28 49 25 51 33 53
REMARK Flexibility Score: inf
ROOT
ATOM      1  C   UNL     1      -6.804  -6.410   6.123  1.00  0.00     0.180 C 
ATOM      2  C   UNL     1      -6.793  -6.277   4.573  1.00  0.00     0.177 C 
ATOM      3  C   UNL     1      -7.792  -7.309   4.047  1.00  0.00     0.180 C 
ATOM      4  C   UNL     1      -9.188  -6.830   4.444  1.00  0.00     0.214 C 
ATOM      5  C   UNL     1      -9.275  -6.126   5.830  1.00  0.00     0.339 C 
ATOM      6  O   UNL     1      -8.131  -6.410   6.672  1.00  0.00    -0.332 OA
ENDROOT
BRANCH   1   7
ATOM      7  C   UNL     1      -5.923  -7.694   6.572  1.00  0.00     0.198 C 
BRANCH   7   8
ATOM      8  O   UNL     1      -5.256  -8.309   5.473  1.00  0.00    -0.347 OA
BRANCH   8   9
ATOM      9  C   UNL     1      -4.274  -7.503   4.778  1.00  0.00     0.281 C 
ATOM     10  C   UNL     1      -2.258 -10.122   3.225  1.00  0.00     0.041 C 
ATOM     11  C   UNL     1      -3.202  -9.532   4.273  1.00  0.00     0.150 C 
ATOM     12  C   UNL     1      -2.549  -9.515   5.697  1.00  0.00     0.174 C 
ATOM     13  O   UNL     1      -3.604  -8.252   3.791  1.00  0.00    -0.344 OA
ATOM     14  C   UNL     1      -2.146  -8.101   6.183  1.00  0.00     0.179 C 
ATOM     15  C   UNL     1      -3.185  -6.996   5.771  1.00  0.00     0.202 C 
BRANCH  12  16
ATOM     16  O   UNL     1      -3.412 -10.122   6.630  1.00  0.00    -0.388 OA
ATOM     17  H   UNL     1      -2.902 -10.173   7.488  1.00  0.00     0.211 HD
ENDBRANCH  12  16
BRANCH  14  18
ATOM     18  O   UNL     1      -2.009  -8.136   7.581  1.00  0.00    -0.387 OA
ATOM     19  H   UNL     1      -1.091  -7.830   7.787  1.00  0.00     0.211 HD
ENDBRANCH  14  18
BRANCH  15  20
ATOM     20  O   UNL     1      -2.506  -5.885   5.234  1.00  0.00    -0.385 OA
ATOM     21  H   UNL     1      -2.864  -5.734   4.312  1.00  0.00     0.211 HD
ENDBRANCH  15  20
ENDBRANCH   8   9
ENDBRANCH   7   8
ENDBRANCH   1   7
BRANCH   2  22
ATOM     22  O   UNL     1      -7.135  -4.988   4.118  1.00  0.00    -0.387 OA
ATOM     23  H   UNL     1      -7.782  -5.050   3.353  1.00  0.00     0.211 HD
ENDBRANCH   2  22
BRANCH   3  24
ATOM     24  O   UNL     1      -7.561  -8.614   4.534  1.00  0.00    -0.387 OA
ATOM     25  H   UNL     1      -7.432  -8.503   5.498  1.00  0.00     0.211 HD
ENDBRANCH   3  24
BRANCH   5  26
ATOM     26  O   UNL     1      -9.653  -4.705   5.748  1.00  0.00    -0.454 OA
BRANCH  26  27
ATOM     27  C   UNL     1      -9.099  -3.665   6.569  1.00  0.00     0.214 A 
ATOM     28  C   UNL     1      -8.550  -2.475   6.044  1.00  0.00     0.180 A 
ATOM     29  C   UNL     1      -8.944  -3.746   7.946  1.00  0.00     0.239 A 
ATOM     30  O   UNL     1      -7.322  -2.142   6.509  1.00  0.00    -0.452 OA
ATOM     31  C   UNL     1      -7.689  -3.453   8.464  1.00  0.00     0.111 A 
ATOM     32  O   UNL     1      -9.938  -3.859   8.713  1.00  0.00    -0.285 OA
ATOM     33  C   UNL     1      -6.828  -2.698   7.640  1.00  0.00     0.146 A 
ATOM     34  C   UNL     1      -7.293  -3.861   9.742  1.00  0.00     0.134 A 
ATOM     35  C   UNL     1      -5.511  -2.448   8.065  1.00  0.00     0.094 A 
ATOM     36  C   UNL     1      -5.969  -3.636  10.149  1.00  0.00     0.093 A 
ATOM     37  C   UNL     1      -5.064  -2.975   9.282  1.00  0.00     0.123 A 
BRANCH  28  38
ATOM     38  C   UNL     1      -9.479  -1.402   5.542  1.00  0.00     0.025 A 
ATOM     39  C   UNL     1      -8.841  -0.549   4.608  1.00  0.00     0.062 A 
ATOM     40  C   UNL     1     -10.125  -0.702   6.595  1.00  0.00     0.016 A 
ATOM     41  C   UNL     1      -8.124   0.578   5.126  1.00  0.00     0.158 A 
ATOM     42  C   UNL     1      -9.474   0.419   7.138  1.00  0.00     0.051 A 
ATOM     43  C   UNL     1      -8.369   0.977   6.455  1.00  0.00     0.157 A 
BRANCH  41  44
ATOM     44  O   UNL     1      -7.264   1.319   4.317  1.00  0.00    -0.504 OA
ATOM     45  H   UNL     1      -7.452   2.301   4.142  1.00  0.00     0.293 HD
ENDBRANCH  41  44
BRANCH  43  46
ATOM     46  O   UNL     1      -7.593   1.962   7.080  1.00  0.00    -0.504 OA
ATOM     47  H   UNL     1      -7.942   2.528   7.833  1.00  0.00     0.293 HD
ENDBRANCH  43  46
ENDBRANCH  28  38
BRANCH  34  48
ATOM     48  O   UNL     1      -8.200  -4.497  10.610  1.00  0.00    -0.507 OA
ATOM     49  H   UNL     1      -8.173  -5.501  10.746  1.00  0.00     0.293 HD
ENDBRANCH  34  48
BRANCH  37  50
ATOM     50  O   UNL     1      -3.717  -2.863   9.640  1.00  0.00    -0.508 OA
ATOM     51  H   UNL     1      -3.422  -3.019  10.599  1.00  0.00     0.293 HD
ENDBRANCH  37  50
ENDBRANCH  26  27
ENDBRANCH   5  26
BRANCH   4  52
ATOM     52  O   UNL     1     -10.123  -7.877   4.387  1.00  0.00    -0.384 OA
ATOM     53  H   UNL     1     -10.693  -7.805   5.216  1.00  0.00     0.211 HD
ENDBRANCH   4  52
TORSDOF 16
ENDMDL
MODEL 8
REMARK VINA RESULT:    -6.023      1.792      3.751
REMARK INTER + INTRA:         -11.972
REMARK INTER:                 -10.562
REMARK INTRA:                  -1.410
REMARK UNBOUND:                -2.076
REMARK SMILES C[C@@H]1O[C@@H](OC[C@@H]2O[C@@H](Oc3c(-c4ccc(O)c(O)c4)oc4cc(O)cc(O)c4c3=O)[C@H](O)[C@H](O)[C@H]2O)[C@H](O)[C@@H](O)[C@H]1O
REMARK SMILES IDX 7 1 36 2 34 3 32 4 9 5 8 6 6 7 5 8 4 9 1 10 2 11 42 12 3 13
REMARK SMILES IDX 40 14 38 15 43 16 41 18 39 20 37 22 35 24 10 26 11 27 12 28
REMARK SMILES IDX 30 29 21 30 29 31 31 32 22 33 27 34 23 35 26 36 24 37 13 38
REMARK SMILES IDX 20 39 14 40 18 41 15 42 16 43 19 44 17 46 28 48 25 50 33 52
REMARK H PARENT 43 17 41 19 39 21 37 23 35 25 19 45 17 47 28 49 25 51 33 53
REMARK Flexibility Score: inf
ROOT
ATOM      1  C   UNL     1       0.666  -6.404  -7.643  1.00  0.00     0.180 C 
ATOM      2  C   UNL     1       0.144  -6.570  -6.187  1.00  0.00     0.177 C 
ATOM      3  C   UNL     1      -0.299  -5.179  -5.729  1.00  0.00     0.180 C 
ATOM      4  C   UNL     1      -1.553  -4.819  -6.527  1.00  0.00     0.214 C 
ATOM      5  C   UNL     1      -1.565  -5.324  -8.001  1.00  0.00     0.339 C 
ATOM      6  O   UNL     1      -0.244  -5.674  -8.481  1.00  0.00    -0.332 OA
ENDROOT
BRANCH   1   7
ATOM      7  C   UNL     1       2.162  -5.783  -7.625  1.00  0.00     0.198 C 
BRANCH   7   8
ATOM      8  O   UNL     1       3.030  -6.477  -6.734  1.00  0.00    -0.347 OA
BRANCH   8   9
ATOM      9  C   UNL     1       3.934  -5.664  -5.946  1.00  0.00     0.281 C 
ATOM     10  C   UNL     1       6.932  -5.814  -8.026  1.00  0.00     0.041 C 
ATOM     11  C   UNL     1       5.595  -6.312  -7.477  1.00  0.00     0.150 C 
ATOM     12  C   UNL     1       5.757  -7.661  -6.696  1.00  0.00     0.174 C 
ATOM     13  O   UNL     1       5.043  -5.246  -6.708  1.00  0.00    -0.344 OA
ATOM     14  C   UNL     1       5.613  -7.516  -5.161  1.00  0.00     0.179 C 
ATOM     15  C   UNL     1       4.500  -6.486  -4.748  1.00  0.00     0.202 C 
BRANCH  12  16
ATOM     16  O   UNL     1       4.838  -8.612  -7.182  1.00  0.00    -0.388 OA
ATOM     17  H   UNL     1       5.377  -9.413  -7.439  1.00  0.00     0.211 HD
ENDBRANCH  12  16
BRANCH  14  18
ATOM     18  O   UNL     1       5.322  -8.781  -4.623  1.00  0.00    -0.387 OA
ATOM     19  H   UNL     1       4.848  -8.627  -3.768  1.00  0.00     0.211 HD
ENDBRANCH  14  18
BRANCH  15  20
ATOM     20  O   UNL     1       4.999  -5.625  -3.751  1.00  0.00    -0.385 OA
ATOM     21  H   UNL     1       4.716  -5.996  -2.866  1.00  0.00     0.211 HD
ENDBRANCH  15  20
ENDBRANCH   8   9
ENDBRANCH   7   8
ENDBRANCH   1   7
BRANCH   2  22
ATOM     22  O   UNL     1      -0.920  -7.485  -6.072  1.00  0.00    -0.387 OA
ATOM     23  H   UNL     1      -1.774  -7.068  -6.395  1.00  0.00     0.211 HD
ENDBRANCH   2  22
BRANCH   3  24
ATOM     24  O   UNL     1       0.694  -4.189  -5.897  1.00  0.00    -0.387 OA
ATOM     25  H   UNL     1       0.204  -3.341  -5.903  1.00  0.00     0.211 HD
ENDBRANCH   3  24
BRANCH   5  26
ATOM     26  O   UNL     1      -2.614  -6.320  -8.275  1.00  0.00    -0.454 OA
BRANCH  26  27
ATOM     27  C   UNL     1      -3.936  -6.286  -7.715  1.00  0.00     0.214 A 
ATOM     28  C   UNL     1      -5.105  -6.491  -8.480  1.00  0.00     0.180 A 
ATOM     29  C   UNL     1      -4.227  -5.951  -6.400  1.00  0.00     0.239 A 
ATOM     30  O   UNL     1      -6.080  -5.563  -8.320  1.00  0.00    -0.452 OA
ATOM     31  C   UNL     1      -5.191  -4.973  -6.189  1.00  0.00     0.111 A 
ATOM     32  O   UNL     1      -3.808  -6.649  -5.436  1.00  0.00    -0.285 OA
ATOM     33  C   UNL     1      -6.079  -4.725  -7.256  1.00  0.00     0.146 A 
ATOM     34  C   UNL     1      -5.300  -4.278  -4.980  1.00  0.00     0.134 A 
ATOM     35  C   UNL     1      -7.018  -3.684  -7.143  1.00  0.00     0.094 A 
ATOM     36  C   UNL     1      -6.216  -3.220  -4.884  1.00  0.00     0.093 A 
ATOM     37  C   UNL     1      -7.038  -2.891  -5.991  1.00  0.00     0.123 A 
BRANCH  28  38
ATOM     38  C   UNL     1      -5.465  -7.890  -8.904  1.00  0.00     0.025 A 
ATOM     39  C   UNL     1      -6.866  -8.097  -8.900  1.00  0.00     0.062 A 
ATOM     40  C   UNL     1      -4.746  -8.880  -8.184  1.00  0.00     0.016 A 
ATOM     41  C   UNL     1      -7.468  -8.518  -7.671  1.00  0.00     0.158 A 
ATOM     42  C   UNL     1      -5.292  -9.341  -6.974  1.00  0.00     0.051 A 
ATOM     43  C   UNL     1      -6.635  -9.032  -6.656  1.00  0.00     0.157 A 
BRANCH  41  44
ATOM     44  O   UNL     1      -8.851  -8.502  -7.503  1.00  0.00    -0.504 OA
ATOM     45  H   UNL     1      -9.462  -8.492  -8.314  1.00  0.00     0.293 HD
ENDBRANCH  41  44
BRANCH  43  46
ATOM     46  O   UNL     1      -7.127  -9.311  -5.375  1.00  0.00    -0.504 OA
ATOM     47  H   UNL     1      -7.196 -10.246  -5.014  1.00  0.00     0.293 HD
ENDBRANCH  43  46
ENDBRANCH  28  38
BRANCH  34  48
ATOM     48  O   UNL     1      -4.500  -4.622  -3.875  1.00  0.00    -0.507 OA
ATOM     49  H   UNL     1      -4.363  -3.972  -3.110  1.00  0.00     0.293 HD
ENDBRANCH  34  48
BRANCH  37  50
ATOM     50  O   UNL     1      -7.859  -1.761  -5.933  1.00  0.00    -0.508 OA
ATOM     51  H   UNL     1      -8.028  -1.288  -5.050  1.00  0.00     0.293 HD
ENDBRANCH  37  50
ENDBRANCH  26  27
ENDBRANCH   5  26
BRANCH   4  52
ATOM     52  O   UNL     1      -1.796  -3.436  -6.500  1.00  0.00    -0.384 OA
ATOM     53  H   UNL     1      -1.023  -2.994  -6.974  1.00  0.00     0.211 HD
ENDBRANCH   4  52
TORSDOF 16
ENDMDL
MODEL 9
REMARK VINA RESULT:    -5.541     11.597     15.748
REMARK INTER + INTRA:         -11.181
REMARK INTER:                 -10.575
REMARK INTRA:                  -0.606
REMARK UNBOUND:                -2.076
REMARK SMILES C[C@@H]1O[C@@H](OC[C@@H]2O[C@@H](Oc3c(-c4ccc(O)c(O)c4)oc4cc(O)cc(O)c4c3=O)[C@H](O)[C@H](O)[C@H]2O)[C@H](O)[C@@H](O)[C@H]1O
REMARK SMILES IDX 7 1 36 2 34 3 32 4 9 5 8 6 6 7 5 8 4 9 1 10 2 11 42 12 3 13
REMARK SMILES IDX 40 14 38 15 43 16 41 18 39 20 37 22 35 24 10 26 11 27 12 28
REMARK SMILES IDX 30 29 21 30 29 31 31 32 22 33 27 34 23 35 26 36 24 37 13 38
REMARK SMILES IDX 20 39 14 40 18 41 15 42 16 43 19 44 17 46 28 48 25 50 33 52
REMARK H PARENT 43 17 41 19 39 21 37 23 35 25 19 45 17 47 28 49 25 51 33 53
REMARK Flexibility Score: inf
ROOT
ATOM      1  C   UNL     1      -9.119  -2.525   5.565  1.00  0.00     0.180 C 
ATOM      2  C   UNL     1      -9.736  -3.914   5.892  1.00  0.00     0.177 C 
ATOM      3  C   UNL     1      -9.504  -4.788   4.658  1.00  0.00     0.180 C 
ATOM      4  C   UNL     1      -8.003  -5.065   4.577  1.00  0.00     0.214 C 
ATOM      5  C   UNL     1      -7.088  -3.887   5.026  1.00  0.00     0.339 C 
ATOM      6  O   UNL     1      -7.784  -2.617   5.043  1.00  0.00    -0.332 OA
ENDROOT
BRANCH   1   7
ATOM      7  C   UNL     1     -10.125  -1.685   4.613  1.00  0.00     0.198 C 
BRANCH   7   8
ATOM      8  O   UNL     1      -9.999  -0.277   4.793  1.00  0.00    -0.347 OA
BRANCH   8   9
ATOM      9  C   UNL     1     -10.125   0.216   6.149  1.00  0.00     0.281 C 
ATOM     10  C   UNL     1      -8.746   3.575   5.755  1.00  0.00     0.041 C 
ATOM     11  C   UNL     1      -8.931   2.098   5.405  1.00  0.00     0.150 C 
ATOM     12  C   UNL     1      -7.598   1.292   5.575  1.00  0.00     0.174 C 
ATOM     13  O   UNL     1     -10.017   1.621   6.194  1.00  0.00    -0.344 OA
ATOM     14  C   UNL     1      -7.591   0.348   6.803  1.00  0.00     0.179 C 
ATOM     15  C   UNL     1      -8.979  -0.349   7.043  1.00  0.00     0.202 C 
BRANCH  12  16
ATOM     16  O   UNL     1      -7.322   0.564   4.401  1.00  0.00    -0.388 OA
ATOM     17  H   UNL     1      -6.431   0.883   4.080  1.00  0.00     0.211 HD
ENDBRANCH  12  16
BRANCH  14  18
ATOM     18  O   UNL     1      -6.592  -0.622   6.609  1.00  0.00    -0.387 OA
ATOM     19  H   UNL     1      -6.510  -1.121   7.458  1.00  0.00     0.211 HD
ENDBRANCH  14  18
BRANCH  15  20
ATOM     20  O   UNL     1      -9.325  -0.258   8.405  1.00  0.00    -0.385 OA
ATOM     21  H   UNL     1      -9.366  -1.190   8.766  1.00  0.00     0.211 HD
ENDBRANCH  15  20
ENDBRANCH   8   9
ENDBRANCH   7   8
ENDBRANCH   1   7
BRANCH   2  22
ATOM     22  O   UNL     1      -9.178  -4.523   7.034  1.00  0.00    -0.387 OA
ATOM     23  H   UNL     1      -8.179  -4.565   6.953  1.00  0.00     0.211 HD
ENDBRANCH   2  22
BRANCH   3  24
ATOM     24  O   UNL     1      -9.962  -4.199   3.459  1.00  0.00    -0.387 OA
ATOM     25  H   UNL     1      -9.890  -4.908   2.788  1.00  0.00     0.211 HD
ENDBRANCH   3  24
BRANCH   5  26
ATOM     26  O   UNL     1      -6.294  -4.182   6.231  1.00  0.00    -0.454 OA
BRANCH  26  27
ATOM     27  C   UNL     1      -5.700  -5.456   6.524  1.00  0.00     0.214 A 
ATOM     28  C   UNL     1      -4.461  -5.598   7.184  1.00  0.00     0.180 A 
ATOM     29  C   UNL     1      -6.212  -6.679   6.110  1.00  0.00     0.239 A 
ATOM     30  O   UNL     1      -3.570  -6.426   6.586  1.00  0.00    -0.452 OA
ATOM     31  C   UNL     1      -5.344  -7.543   5.454  1.00  0.00     0.111 A 
ATOM     32  O   UNL     1      -7.340  -7.084   6.500  1.00  0.00    -0.285 OA
ATOM     33  C   UNL     1      -3.966  -7.316   5.645  1.00  0.00     0.146 A 
ATOM     34  C   UNL     1      -5.800  -8.601   4.661  1.00  0.00     0.134 A 
ATOM     35  C   UNL     1      -3.034  -8.095   4.937  1.00  0.00     0.094 A 
ATOM     36  C   UNL     1      -4.868  -9.355   3.932  1.00  0.00     0.093 A 
ATOM     37  C   UNL     1      -3.485  -9.062   4.032  1.00  0.00     0.123 A 
BRANCH  28  38
ATOM     38  C   UNL     1      -4.395  -5.374   8.671  1.00  0.00     0.025 A 
ATOM     39  C   UNL     1      -5.660  -5.548   9.285  1.00  0.00     0.062 A 
ATOM     40  C   UNL     1      -3.767  -4.148   9.012  1.00  0.00     0.016 A 
ATOM     41  C   UNL     1      -6.528  -4.410   9.343  1.00  0.00     0.158 A 
ATOM     42  C   UNL     1      -4.568  -2.997   9.095  1.00  0.00     0.051 A 
ATOM     43  C   UNL     1      -5.976  -3.133   9.119  1.00  0.00     0.157 A 
BRANCH  41  44
ATOM     44  O   UNL     1      -7.870  -4.544   9.693  1.00  0.00    -0.504 OA
ATOM     45  H   UNL     1      -8.549  -3.860   9.373  1.00  0.00     0.293 HD
ENDBRANCH  41  44
BRANCH  43  46
ATOM     46  O   UNL     1      -6.784  -1.995   9.000  1.00  0.00    -0.504 OA
ATOM     47  H   UNL     1      -6.825  -1.447   8.158  1.00  0.00     0.293 HD
ENDBRANCH  43  46
ENDBRANCH  28  38
BRANCH  34  48
ATOM     48  O   UNL     1      -7.171  -8.905   4.581  1.00  0.00    -0.507 OA
ATOM     49  H   UNL     1      -7.553  -9.378   3.770  1.00  0.00     0.293 HD
ENDBRANCH  34  48
BRANCH  37  50
ATOM     50  O   UNL     1      -2.573  -9.733   3.212  1.00  0.00    -0.508 OA
ATOM     51  H   UNL     1      -2.624  -9.645   2.201  1.00  0.00     0.293 HD
ENDBRANCH  37  50
ENDBRANCH  26  27
ENDBRANCH   5  26
BRANCH   4  52
ATOM     52  O   UNL     1      -7.630  -5.488   3.290  1.00  0.00    -0.384 OA
ATOM     53  H   UNL     1      -8.459  -5.446   2.717  1.00  0.00     0.211 HD
ENDBRANCH   4  52
TORSDOF 16
ENDMDL
