MODEL 1
REMARK VINA RESULT:    -2.820      0.000      0.000
REMARK INTER + INTRA:          -3.067
REMARK INTER:                  -3.067
REMARK INTRA:                   0.000
REMARK UNBOUND:                 0.000
REMARK SMILES [NH3+]CC(=O)[O-]
REMARK SMILES IDX 2 1 1 2 3 6 4 7 5 8
REMARK H PARENT 1 3 1 4 1 5
REMARK Flexibility Score: inf
ROOT
ATOM      1  C   UNL     1     191.398 193.368  84.128  1.00  0.00     0.312 C 
ENDROOT
BRANCH   1   2
ATOM      2  N   UNL     1     192.681 193.239  84.815  1.00  0.00    -0.353 N 
ATOM      3  H   UNL     1     193.433 193.713  84.262  1.00  0.00     0.344 HD
ATOM      4  H   UNL     1     192.919 192.225  84.909  1.00  0.00     0.344 HD
ATOM      5  H   UNL     1     192.623 193.663  85.769  1.00  0.00     0.344 HD
ENDBRANCH   1   2
BRANCH   1   6
ATOM      6  C   UNL     1     191.501 194.341  82.994  1.00  0.00     0.096 C 
ATOM      7  O   UNL     1     190.982 195.484  83.092  1.00  0.00    -0.544 OA
ATOM      8  O   UNL     1     192.127 193.967  81.812  1.00  0.00    -0.544 OA
ENDBRANCH   1   6
TORSDOF 2
ENDMDL
MODEL 2
REMARK VINA RESULT:    -2.811      0.208      1.459
REMARK INTER + INTRA:          -3.058
REMARK INTER:                  -3.058
REMARK INTRA:                   0.000
REMARK UNBOUND:                 0.000
REMARK SMILES [NH3+]CC(=O)[O-]
REMARK SMILES IDX 2 1 1 2 3 6 4 7 5 8
REMARK H PARENT 1 3 1 4 1 5
REMARK Flexibility Score: inf
ROOT
ATOM      1  C   UNL     1     191.396 193.278  84.199  1.00  0.00     0.312 C 
ENDROOT
BRANCH   1   2
ATOM      2  N   UNL     1     192.724 193.256  84.811  1.00  0.00    -0.353 N 
ATOM      3  H   UNL     1     193.438 193.603  84.130  1.00  0.00     0.344 HD
ATOM      4  H   UNL     1     192.961 192.274  85.079  1.00  0.00     0.344 HD
ATOM      5  H   UNL     1     192.734 193.853  85.669  1.00  0.00     0.344 HD
ENDBRANCH   1   2
BRANCH   1   6
ATOM      6  C   UNL     1     191.398 194.127  82.965  1.00  0.00     0.096 C 
ATOM      7  O   UNL     1     191.956 193.716  81.915  1.00  0.00    -0.544 OA
ATOM      8  O   UNL     1     190.827 195.393  82.992  1.00  0.00    -0.544 OA
ENDBRANCH   1   6
TORSDOF 2
ENDMDL
MODEL 3
REMARK VINA RESULT:    -2.767      1.811      2.258
REMARK INTER + INTRA:          -3.010
REMARK INTER:                  -3.010
REMARK INTRA:                   0.000
REMARK UNBOUND:                 0.000
REMARK SMILES [NH3+]CC(=O)[O-]
REMARK SMILES IDX 2 1 1 2 3 6 4 7 5 8
REMARK H PARENT 1 3 1 4 1 5
REMARK Flexibility Score: inf
ROOT
ATOM      1  C   UNL     1     191.726 193.779  83.679  1.00  0.00     0.312 C 
ENDROOT
BRANCH   1   2
ATOM      2  N   UNL     1     192.581 193.285  84.757  1.00  0.00    -0.353 N 
ATOM      3  H   UNL     1     192.342 193.769  85.654  1.00  0.00     0.344 HD
ATOM      4  H   UNL     1     193.580 193.487  84.521  1.00  0.00     0.344 HD
ATOM      5  H   UNL     1     192.461 192.253  84.868  1.00  0.00     0.344 HD
ENDBRANCH   1   2
BRANCH   1   6
ATOM      6  C   UNL     1     190.290 193.780  84.104  1.00  0.00     0.096 C 
ATOM      7  O   UNL     1     189.883 192.953  84.962  1.00  0.00    -0.544 OA
ATOM      8  O   UNL     1     189.391 194.661  83.516  1.00  0.00    -0.544 OA
ENDBRANCH   1   6
TORSDOF 2
ENDMDL
MODEL 4
REMARK VINA RESULT:    -2.756      9.813     10.109
REMARK INTER + INTRA:          -2.998
REMARK INTER:                  -2.998
REMARK INTRA:                   0.000
REMARK UNBOUND:                 0.000
REMARK SMILES [NH3+]CC(=O)[O-]
REMARK SMILES IDX 2 1 1 2 3 6 4 7 5 8
REMARK H PARENT 1 3 1 4 1 5
REMARK Flexibility Score: inf
ROOT
ATOM      1  C   UNL     1     192.772 203.139  88.026  1.00  0.00     0.312 C 
ENDROOT
BRANCH   1   2
ATOM      2  N   UNL     1     192.910 201.776  88.535  1.00  0.00    -0.353 N 
ATOM      3  H   UNL     1     192.230 201.143  88.054  1.00  0.00     0.344 HD
ATOM      4  H   UNL     1     192.706 201.772  89.561  1.00  0.00     0.344 HD
ATOM      5  H   UNL     1     193.884 201.431  88.382  1.00  0.00     0.344 HD
ENDBRANCH   1   2
BRANCH   1   6
ATOM      6  C   UNL     1     191.379 203.380  87.533  1.00  0.00     0.096 C 
ATOM      7  O   UNL     1     190.492 202.499  87.685  1.00  0.00    -0.544 OA
ATOM      8  O   UNL     1     191.072 204.556  86.861  1.00  0.00    -0.544 OA
ENDBRANCH   1   6
TORSDOF 2
ENDMDL
MODEL 5
REMARK VINA RESULT:    -2.739      2.077      2.511
REMARK INTER + INTRA:          -2.979
REMARK INTER:                  -2.979
REMARK INTRA:                   0.000
REMARK UNBOUND:                 0.000
REMARK SMILES [NH3+]CC(=O)[O-]
REMARK SMILES IDX 2 1 1 2 3 6 4 7 5 8
REMARK H PARENT 1 3 1 4 1 5
REMARK Flexibility Score: inf
ROOT
ATOM      1  C   UNL     1     191.794 193.630  81.677  1.00  0.00     0.312 C 
ENDROOT
BRANCH   1   2
ATOM      2  N   UNL     1     193.125 194.001  81.200  1.00  0.00    -0.353 N 
ATOM      3  H   UNL     1     193.593 193.174  80.763  1.00  0.00     0.344 HD
ATOM      4  H   UNL     1     193.700 194.327  82.010  1.00  0.00     0.344 HD
ATOM      5  H   UNL     1     193.053 194.777  80.502  1.00  0.00     0.344 HD
ENDBRANCH   1   2
BRANCH   1   6
ATOM      6  C   UNL     1     191.566 194.152  83.063  1.00  0.00     0.096 C 
ATOM      7  O   UNL     1     191.974 193.499  84.059  1.00  0.00    -0.544 OA
ATOM      8  O   UNL     1     190.860 195.332  83.255  1.00  0.00    -0.544 OA
ENDBRANCH   1   6
TORSDOF 2
ENDMDL
MODEL 6
REMARK VINA RESULT:    -2.647     15.278     15.751
REMARK INTER + INTRA:          -2.879
REMARK INTER:                  -2.879
REMARK INTRA:                   0.000
REMARK UNBOUND:                 0.000
REMARK SMILES [NH3+]CC(=O)[O-]
REMARK SMILES IDX 2 1 1 2 3 6 4 7 5 8
REMARK H PARENT 1 3 1 4 1 5
REMARK Flexibility Score: inf
ROOT
ATOM      1  C   UNL     1     180.334 203.180  86.767  1.00  0.00     0.312 C 
ENDROOT
BRANCH   1   2
ATOM      2  N   UNL     1     181.461 203.521  85.900  1.00  0.00    -0.353 N 
ATOM      3  H   UNL     1     181.647 204.549  85.942  1.00  0.00     0.344 HD
ATOM      4  H   UNL     1     181.226 203.259  84.915  1.00  0.00     0.344 HD
ATOM      5  H   UNL     1     182.314 202.994  86.196  1.00  0.00     0.344 HD
ENDBRANCH   1   2
BRANCH   1   6
ATOM      6  C   UNL     1     180.221 204.159  87.895  1.00  0.00     0.096 C 
ATOM      7  O   UNL     1     180.720 203.889  89.019  1.00  0.00    -0.544 OA
ATOM      8  O   UNL     1     179.523 205.346  87.719  1.00  0.00    -0.544 OA
ENDBRANCH   1   6
TORSDOF 2
ENDMDL
MODEL 7
REMARK VINA RESULT:    -2.645      2.789      2.929
REMARK INTER + INTRA:          -2.877
REMARK INTER:                  -2.877
REMARK INTRA:                   0.000
REMARK UNBOUND:                 0.000
REMARK SMILES [NH3+]CC(=O)[O-]
REMARK SMILES IDX 2 1 1 2 3 6 4 7 5 8
REMARK H PARENT 1 3 1 4 1 5
REMARK Flexibility Score: inf
ROOT
ATOM      1  C   UNL     1     189.137 195.168  83.077  1.00  0.00     0.312 C 
ENDROOT
BRANCH   1   2
ATOM      2  N   UNL     1     188.488 196.290  83.755  1.00  0.00    -0.353 N 
ATOM      3  H   UNL     1     189.065 196.596  84.573  1.00  0.00     0.344 HD
ATOM      4  H   UNL     1     187.549 195.984  84.099  1.00  0.00     0.344 HD
ATOM      5  H   UNL     1     188.363 197.087  83.091  1.00  0.00     0.344 HD
ENDBRANCH   1   2
BRANCH   1   6
ATOM      6  C   UNL     1     190.627 195.293  83.160  1.00  0.00     0.096 C 
ATOM      7  O   UNL     1     191.175 196.420  83.038  1.00  0.00    -0.544 OA
ATOM      8  O   UNL     1     191.412 194.159  83.320  1.00  0.00    -0.544 OA
ENDBRANCH   1   6
TORSDOF 2
ENDMDL
MODEL 8
REMARK VINA RESULT:    -2.624      2.456      2.624
REMARK INTER + INTRA:          -2.854
REMARK INTER:                  -2.854
REMARK INTRA:                   0.000
REMARK UNBOUND:                 0.000
REMARK SMILES [NH3+]CC(=O)[O-]
REMARK SMILES IDX 2 1 1 2 3 6 4 7 5 8
REMARK H PARENT 1 3 1 4 1 5
REMARK Flexibility Score: inf
ROOT
ATOM      1  C   UNL     1     191.498 195.219  82.927  1.00  0.00     0.312 C 
ENDROOT
BRANCH   1   2
ATOM      2  N   UNL     1     190.576 196.325  83.180  1.00  0.00    -0.353 N 
ATOM      3  H   UNL     1     190.317 196.790  82.278  1.00  0.00     0.344 HD
ATOM      4  H   UNL     1     191.044 197.026  83.799  1.00  0.00     0.344 HD
ATOM      5  H   UNL     1     189.715 195.974  83.657  1.00  0.00     0.344 HD
ENDBRANCH   1   2
BRANCH   1   6
ATOM      6  C   UNL     1     191.126 194.024  83.749  1.00  0.00     0.096 C 
ATOM      7  O   UNL     1     189.916 193.703  83.887  1.00  0.00    -0.544 OA
ATOM      8  O   UNL     1     192.111 193.296  84.403  1.00  0.00    -0.544 OA
ENDBRANCH   1   6
TORSDOF 2
ENDMDL
