MODEL 1
REMARK VINA RESULT:    33.311      0.000      0.000
REMARK INTER + INTRA:          33.311
REMARK INTER:                  33.311
REMARK INTRA:                   0.000
REMARK UNBOUND:                 0.000
REMARK SMILES C=C1CCC[C@]2(C)C=C3OC(=O)C(C)=C3C[C@@H]12
REMARK SMILES IDX 14 1 13 2 15 3 16 4 17 5 2 6 1 7 3 8 4 9 5 10 6 11 8 12 9 13
REMARK SMILES IDX 10 14 11 15 12 16 7 17
REMARK H PARENT
REMARK Flexibility Score: inf
ROOT
ATOM      1  C   UNL     1      10.393  14.366  25.402  1.00  0.00     0.053 C 
ATOM      2  C   UNL     1      11.531  14.253  26.366  1.00  0.00     0.041 C 
ATOM      3  C   UNL     1      11.535  13.577  27.511  1.00  0.00     0.005 C 
ATOM      4  C   UNL     1      10.465  12.710  28.102  1.00  0.00     0.049 C 
ATOM      5  C   UNL     1      10.719  12.546  29.628  1.00  0.00     0.029 C 
ATOM      6  C   UNL     1       9.797  11.549  30.331  1.00  0.00    -0.073 C 
ATOM      7  C   UNL     1       8.687  11.042  29.767  1.00  0.00     0.008 C 
ATOM      8  C   UNL     1      10.135  11.148  31.751  1.00  0.00     0.031 C 
ATOM      9  C   UNL     1      11.177  12.086  32.369  1.00  0.00     0.005 C 
ATOM     10  C   UNL     1      12.456  12.224  31.518  1.00  0.00     0.012 C 
ATOM     11  C   UNL     1      12.225  12.208  29.966  1.00  0.00    -0.004 C 
ATOM     12  C   UNL     1      13.157  13.224  29.312  1.00  0.00     0.027 C 
ATOM     13  C   UNL     1      12.816  13.791  28.157  1.00  0.00     0.131 C 
ATOM     14  O   UNL     1      13.598  14.652  27.402  1.00  0.00    -0.423 OA
ATOM     15  C   UNL     1      12.817  14.951  26.292  1.00  0.00     0.339 C 
ATOM     16  O   UNL     1      13.179  15.724  25.366  1.00  0.00    -0.246 OA
ATOM     17  C   UNL     1      12.614  10.815  29.407  1.00  0.00     0.016 C 
ENDROOT
TORSDOF 0
ENDMDL
MODEL 2
REMARK VINA RESULT:    34.658      2.185      3.742
REMARK INTER + INTRA:          34.658
REMARK INTER:                  34.658
REMARK INTRA:                   0.000
REMARK UNBOUND:                 0.000
REMARK SMILES C=C1CCC[C@]2(C)C=C3OC(=O)C(C)=C3C[C@@H]12
REMARK SMILES IDX 14 1 13 2 15 3 16 4 17 5 2 6 1 7 3 8 4 9 5 10 6 11 8 12 9 13
REMARK SMILES IDX 10 14 11 15 12 16 7 17
REMARK H PARENT
REMARK Flexibility Score: inf
ROOT
ATOM      1  C   UNL     1      12.870  16.343  32.881  1.00  0.00     0.053 C 
ATOM      2  C   UNL     1      13.139  15.665  31.576  1.00  0.00     0.041 C 
ATOM      3  C   UNL     1      12.633  14.505  31.166  1.00  0.00     0.005 C 
ATOM      4  C   UNL     1      11.629  13.621  31.840  1.00  0.00     0.049 C 
ATOM      5  C   UNL     1      11.720  12.188  31.241  1.00  0.00     0.029 C 
ATOM      6  C   UNL     1      10.639  11.219  31.720  1.00  0.00    -0.073 C 
ATOM      7  C   UNL     1       9.827  11.470  32.762  1.00  0.00     0.008 C 
ATOM      8  C   UNL     1      10.507   9.892  31.005  1.00  0.00     0.031 C 
ATOM      9  C   UNL     1      11.726   9.603  30.123  1.00  0.00     0.005 C 
ATOM     10  C   UNL     1      12.040  10.736  29.124  1.00  0.00     0.012 C 
ATOM     11  C   UNL     1      11.775  12.186  29.662  1.00  0.00    -0.004 C 
ATOM     12  C   UNL     1      12.884  13.111  29.169  1.00  0.00     0.027 C 
ATOM     13  C   UNL     1      13.209  14.193  29.872  1.00  0.00     0.131 C 
ATOM     14  O   UNL     1      14.122  15.170  29.503  1.00  0.00    -0.423 OA
ATOM     15  C   UNL     1      14.095  16.086  30.548  1.00  0.00     0.339 C 
ATOM     16  O   UNL     1      14.805  17.125  30.589  1.00  0.00    -0.246 OA
ATOM     17  C   UNL     1      10.447  12.718  29.065  1.00  0.00     0.016 C 
ENDROOT
TORSDOF 0
ENDMDL
MODEL 3
REMARK VINA RESULT:    35.190      2.753      5.164
REMARK INTER + INTRA:          35.190
REMARK INTER:                  35.190
REMARK INTRA:                   0.000
REMARK UNBOUND:                 0.000
REMARK SMILES C=C1CCC[C@]2(C)C=C3OC(=O)C(C)=C3C[C@@H]12
REMARK SMILES IDX 14 1 13 2 15 3 16 4 17 5 2 6 1 7 3 8 4 9 5 10 6 11 8 12 9 13
REMARK SMILES IDX 10 14 11 15 12 16 7 17
REMARK H PARENT
REMARK Flexibility Score: inf
ROOT
ATOM      1  C   UNL     1       8.193  11.418  29.703  1.00  0.00     0.053 C 
ATOM      2  C   UNL     1       9.519  11.412  30.394  1.00  0.00     0.041 C 
ATOM      3  C   UNL     1      10.621  12.045  30.001  1.00  0.00     0.005 C 
ATOM      4  C   UNL     1      10.816  12.970  28.839  1.00  0.00     0.049 C 
ATOM      5  C   UNL     1      12.333  13.062  28.504  1.00  0.00     0.029 C 
ATOM      6  C   UNL     1      12.697  14.100  27.442  1.00  0.00    -0.073 C 
ATOM      7  C   UNL     1      11.788  14.710  26.659  1.00  0.00     0.008 C 
ATOM      8  C   UNL     1      14.160  14.426  27.238  1.00  0.00     0.031 C 
ATOM      9  C   UNL     1      15.067  13.391  27.912  1.00  0.00     0.005 C 
ATOM     10  C   UNL     1      14.753  13.186  29.409  1.00  0.00     0.012 C 
ATOM     11  C   UNL     1      13.233  13.274  29.785  1.00  0.00    -0.004 C 
ATOM     12  C   UNL     1      12.917  12.214  30.836  1.00  0.00     0.027 C 
ATOM     13  C   UNL     1      11.687  11.714  30.928  1.00  0.00     0.131 C 
ATOM     14  O   UNL     1      11.231  10.823  31.887  1.00  0.00    -0.423 OA
ATOM     15  C   UNL     1       9.893  10.621  31.570  1.00  0.00     0.339 C 
ATOM     16  O   UNL     1       9.126   9.856  32.212  1.00  0.00    -0.246 OA
ATOM     17  C   UNL     1      12.946  14.651  30.436  1.00  0.00     0.016 C 
ENDROOT
TORSDOF 0
ENDMDL
