MODEL 1
REMARK VINA RESULT:    -5.692      0.000      0.000
REMARK INTER + INTRA:          -7.301
REMARK INTER:                  -7.024
REMARK INTRA:                  -0.278
REMARK UNBOUND:                -0.278
REMARK SMILES COc1cc(-c2oc3cc(O)cc(O)c3c(=O)c2O)ccc1O
REMARK SMILES IDX 6 1 18 2 16 3 17 4 15 5 13 6 12 7 10 8 9 9 8 10 7 11 5 12
REMARK SMILES IDX 3 13 22 14 4 15 21 16 20 17 2 18 1 19 23 20 19 22 14 24
REMARK SMILES IDX 11 26
REMARK H PARENT 23 21 19 23 14 25 11 27
REMARK Flexibility Score: inf
ROOT
ATOM      1  C   UNL     1       1.410  10.747   6.788  1.00  0.00     0.180 A 
ATOM      2  C   UNL     1       2.536   9.940   6.546  1.00  0.00     0.208 A 
ATOM      3  C   UNL     1       3.793  10.549   6.414  1.00  0.00     0.238 A 
ATOM      4  O   UNL     1       4.806   9.818   6.252  1.00  0.00    -0.285 OA
ATOM      5  C   UNL     1       3.908  11.958   6.510  1.00  0.00     0.111 A 
ATOM      6  C   UNL     1       5.127  12.684   6.352  1.00  0.00     0.134 A 
ATOM      7  C   UNL     1       5.145  14.062   6.596  1.00  0.00     0.093 A 
ATOM      8  C   UNL     1       3.976  14.751   6.929  1.00  0.00     0.123 A 
ATOM      9  C   UNL     1       2.771  14.060   7.026  1.00  0.00     0.094 A 
ATOM     10  C   UNL     1       2.727  12.679   6.824  1.00  0.00     0.146 A 
ATOM     11  O   UNL     1       1.559  12.057   6.938  1.00  0.00    -0.452 OA
ENDROOT
BRANCH   1  12
ATOM     12  C   UNL     1       0.047  10.180   6.914  1.00  0.00     0.025 A 
ATOM     13  C   UNL     1      -1.617   8.858   8.125  1.00  0.00     0.161 A 
ATOM     14  C   UNL     1      -2.533   9.076   7.087  1.00  0.00     0.157 A 
ATOM     15  C   UNL     1      -0.323   9.407   8.030  1.00  0.00     0.062 A 
ATOM     16  C   UNL     1      -2.160   9.827   5.965  1.00  0.00     0.051 A 
ATOM     17  C   UNL     1      -0.877  10.369   5.875  1.00  0.00     0.016 A 
BRANCH  13  18
ATOM     18  O   UNL     1      -2.025   8.091   9.227  1.00  0.00    -0.493 OA
ATOM     19  C   UNL     1      -1.138   7.462  10.145  1.00  0.00     0.278 C 
ENDBRANCH  13  18
BRANCH  14  20
ATOM     20  O   UNL     1      -3.817   8.538   7.176  1.00  0.00    -0.504 OA
ATOM     21  H   UNL     1      -4.600   8.947   6.680  1.00  0.00     0.293 HD
ENDBRANCH  14  20
ENDBRANCH   1  12
BRANCH   2  22
ATOM     22  O   UNL     1       2.403   8.550   6.478  1.00  0.00    -0.502 OA
ATOM     23  H   UNL     1       3.167   7.920   6.687  1.00  0.00     0.293 HD
ENDBRANCH   2  22
BRANCH   6  24
ATOM     24  O   UNL     1       6.330  12.107   5.933  1.00  0.00    -0.507 OA
ATOM     25  H   UNL     1       6.704  12.171   4.999  1.00  0.00     0.293 HD
ENDBRANCH   6  24
BRANCH   8  26
ATOM     26  O   UNL     1       4.001  16.125   7.155  1.00  0.00    -0.508 OA
ATOM     27  H   UNL     1       4.679  16.725   6.700  1.00  0.00     0.293 HD
ENDBRANCH   8  26
TORSDOF 6
ENDMDL
MODEL 2
REMARK VINA RESULT:    -5.559      1.808      3.037
REMARK INTER + INTRA:          -7.137
REMARK INTER:                  -6.932
REMARK INTRA:                  -0.205
REMARK UNBOUND:                -0.278
REMARK SMILES COc1cc(-c2oc3cc(O)cc(O)c3c(=O)c2O)ccc1O
REMARK SMILES IDX 6 1 18 2 16 3 17 4 15 5 13 6 12 7 10 8 9 9 8 10 7 11 5 12
REMARK SMILES IDX 3 13 22 14 4 15 21 16 20 17 2 18 1 19 23 20 19 22 14 24
REMARK SMILES IDX 11 26
REMARK H PARENT 23 21 19 23 14 25 11 27
REMARK Flexibility Score: inf
ROOT
ATOM      1  C   UNL     1       2.367  11.560   7.108  1.00  0.00     0.180 A 
ATOM      2  C   UNL     1       2.032  12.839   6.629  1.00  0.00     0.208 A 
ATOM      3  C   UNL     1       2.975  13.873   6.731  1.00  0.00     0.238 A 
ATOM      4  O   UNL     1       2.689  15.002   6.252  1.00  0.00    -0.285 OA
ATOM      5  C   UNL     1       4.236  13.621   7.324  1.00  0.00     0.111 A 
ATOM      6  C   UNL     1       5.253  14.605   7.515  1.00  0.00     0.134 A 
ATOM      7  C   UNL     1       6.510  14.213   7.994  1.00  0.00     0.093 A 
ATOM      8  C   UNL     1       6.765  12.887   8.349  1.00  0.00     0.123 A 
ATOM      9  C   UNL     1       5.760  11.931   8.222  1.00  0.00     0.094 A 
ATOM     10  C   UNL     1       4.507  12.283   7.713  1.00  0.00     0.146 A 
ATOM     11  O   UNL     1       3.581  11.339   7.598  1.00  0.00    -0.452 OA
ENDROOT
BRANCH   1  12
ATOM     12  C   UNL     1       1.416  10.426   7.058  1.00  0.00     0.025 A 
ATOM     13  C   UNL     1      -0.322   9.044   8.083  1.00  0.00     0.161 A 
ATOM     14  C   UNL     1      -0.335   8.228   6.943  1.00  0.00     0.157 A 
ATOM     15  C   UNL     1       0.562  10.139   8.139  1.00  0.00     0.062 A 
ATOM     16  C   UNL     1       0.529   8.499   5.875  1.00  0.00     0.051 A 
ATOM     17  C   UNL     1       1.405   9.585   5.934  1.00  0.00     0.016 A 
BRANCH  13  18
ATOM     18  O   UNL     1      -1.195   8.733   9.137  1.00  0.00    -0.493 OA
ATOM     19  C   UNL     1      -1.061   7.599   9.987  1.00  0.00     0.278 C 
ENDBRANCH  13  18
BRANCH  14  20
ATOM     20  O   UNL     1      -1.210   7.144   6.880  1.00  0.00    -0.504 OA
ATOM     21  H   UNL     1      -2.105   7.211   6.410  1.00  0.00     0.293 HD
ENDBRANCH  14  20
ENDBRANCH   1  12
BRANCH   2  22
ATOM     22  O   UNL     1       0.789  13.060   6.027  1.00  0.00    -0.502 OA
ATOM     23  H   UNL     1      -0.075  13.071   6.554  1.00  0.00     0.293 HD
ENDBRANCH   2  22
BRANCH   6  24
ATOM     24  O   UNL     1       5.071  15.970   7.279  1.00  0.00    -0.507 OA
ATOM     25  H   UNL     1       4.853  16.375   6.382  1.00  0.00     0.293 HD
ENDBRANCH   6  24
BRANCH   8  26
ATOM     26  O   UNL     1       8.013  12.510   8.838  1.00  0.00    -0.508 OA
ATOM     27  H   UNL     1       8.476  11.668   8.517  1.00  0.00     0.293 HD
ENDBRANCH   8  26
TORSDOF 6
ENDMDL
MODEL 3
REMARK VINA RESULT:    -5.357      1.366      2.719
REMARK INTER + INTRA:          -6.887
REMARK INTER:                  -6.872
REMARK INTRA:                  -0.015
REMARK UNBOUND:                -0.278
REMARK SMILES COc1cc(-c2oc3cc(O)cc(O)c3c(=O)c2O)ccc1O
REMARK SMILES IDX 6 1 18 2 16 3 17 4 15 5 13 6 12 7 10 8 9 9 8 10 7 11 5 12
REMARK SMILES IDX 3 13 22 14 4 15 21 16 20 17 2 18 1 19 23 20 19 22 14 24
REMARK SMILES IDX 11 26
REMARK H PARENT 23 21 19 23 14 25 11 27
REMARK Flexibility Score: inf
ROOT
ATOM      1  C   UNL     1       1.086  11.664   6.920  1.00  0.00     0.180 A 
ATOM      2  C   UNL     1       0.889  12.964   6.421  1.00  0.00     0.208 A 
ATOM      3  C   UNL     1       1.973  13.854   6.396  1.00  0.00     0.238 A 
ATOM      4  O   UNL     1       1.805  14.999   5.899  1.00  0.00    -0.285 OA
ATOM      5  C   UNL     1       3.237  13.440   6.883  1.00  0.00     0.111 A 
ATOM      6  C   UNL     1       4.395  14.273   6.943  1.00  0.00     0.134 A 
ATOM      7  C   UNL     1       5.624  13.719   7.322  1.00  0.00     0.093 A 
ATOM      8  C   UNL     1       5.723  12.380   7.706  1.00  0.00     0.123 A 
ATOM      9  C   UNL     1       4.587  11.575   7.709  1.00  0.00     0.094 A 
ATOM     10  C   UNL     1       3.353  12.089   7.301  1.00  0.00     0.146 A 
ATOM     11  O   UNL     1       2.297  11.284   7.308  1.00  0.00    -0.452 OA
ENDROOT
BRANCH   1  12
ATOM     12  C   UNL     1      -0.015  10.676   7.001  1.00  0.00     0.025 A 
ATOM     13  C   UNL     1      -1.276   8.973   8.223  1.00  0.00     0.161 A 
ATOM     14  C   UNL     1      -2.083   8.772   7.095  1.00  0.00     0.157 A 
ATOM     15  C   UNL     1      -0.237   9.923   8.169  1.00  0.00     0.062 A 
ATOM     16  C   UNL     1      -1.850   9.505   5.925  1.00  0.00     0.051 A 
ATOM     17  C   UNL     1      -0.819  10.445   5.875  1.00  0.00     0.016 A 
BRANCH  13  18
ATOM     18  O   UNL     1      -1.534   8.211   9.373  1.00  0.00    -0.493 OA
ATOM     19  C   UNL     1      -0.602   7.318   9.974  1.00  0.00     0.278 C 
ENDBRANCH  13  18
BRANCH  14  20
ATOM     20  O   UNL     1      -3.115   7.836   7.143  1.00  0.00    -0.504 OA
ATOM     21  H   UNL     1      -2.964   6.866   6.895  1.00  0.00     0.293 HD
ENDBRANCH  14  20
ENDBRANCH   1  12
BRANCH   2  22
ATOM     22  O   UNL     1      -0.361  13.344   5.925  1.00  0.00    -0.502 OA
ATOM     23  H   UNL     1      -0.667  14.309   5.903  1.00  0.00     0.293 HD
ENDBRANCH   2  22
BRANCH   6  24
ATOM     24  O   UNL     1       4.385  15.643   6.668  1.00  0.00    -0.507 OA
ATOM     25  H   UNL     1       5.113  16.289   6.933  1.00  0.00     0.293 HD
ENDBRANCH   6  24
BRANCH   8  26
ATOM     26  O   UNL     1       6.947  11.841   8.097  1.00  0.00    -0.508 OA
ATOM     27  H   UNL     1       7.749  12.431   8.289  1.00  0.00     0.293 HD
ENDBRANCH   8  26
TORSDOF 6
ENDMDL
MODEL 4
REMARK VINA RESULT:    -5.133     10.267     12.001
REMARK INTER + INTRA:          -6.611
REMARK INTER:                  -6.600
REMARK INTRA:                  -0.011
REMARK UNBOUND:                -0.278
REMARK SMILES COc1cc(-c2oc3cc(O)cc(O)c3c(=O)c2O)ccc1O
REMARK SMILES IDX 6 1 18 2 16 3 17 4 15 5 13 6 12 7 10 8 9 9 8 10 7 11 5 12
REMARK SMILES IDX 3 13 22 14 4 15 21 16 20 17 2 18 1 19 23 20 19 22 14 24
REMARK SMILES IDX 11 26
REMARK H PARENT 23 21 19 23 14 25 11 27
REMARK Flexibility Score: inf
ROOT
ATOM      1  C   UNL     1       7.090   0.704   6.437  1.00  0.00     0.180 A 
ATOM      2  C   UNL     1       6.588   2.013   6.330  1.00  0.00     0.208 A 
ATOM      3  C   UNL     1       7.492   3.079   6.201  1.00  0.00     0.238 A 
ATOM      4  O   UNL     1       7.036   4.244   6.051  1.00  0.00    -0.285 OA
ATOM      5  C   UNL     1       8.885   2.826   6.195  1.00  0.00     0.111 A 
ATOM      6  C   UNL     1       9.891   3.835   6.109  1.00  0.00     0.134 A 
ATOM      7  C   UNL     1      11.235   3.460   5.981  1.00  0.00     0.093 A 
ATOM      8  C   UNL     1      11.613   2.116   6.001  1.00  0.00     0.123 A 
ATOM      9  C   UNL     1      10.643   1.127   6.144  1.00  0.00     0.094 A 
ATOM     10  C   UNL     1       9.291   1.467   6.238  1.00  0.00     0.146 A 
ATOM     11  O   UNL     1       8.398   0.493   6.362  1.00  0.00    -0.452 OA
ENDROOT
BRANCH   1  12
ATOM     12  C   UNL     1       6.201  -0.469   6.602  1.00  0.00     0.025 A 
ATOM     13  C   UNL     1       4.292  -1.576   7.656  1.00  0.00     0.161 A 
ATOM     14  C   UNL     1       4.571  -2.738   6.924  1.00  0.00     0.157 A 
ATOM     15  C   UNL     1       5.115  -0.444   7.497  1.00  0.00     0.062 A 
ATOM     16  C   UNL     1       5.664  -2.772   6.050  1.00  0.00     0.051 A 
ATOM     17  C   UNL     1       6.478  -1.649   5.895  1.00  0.00     0.016 A 
BRANCH  13  18
ATOM     18  O   UNL     1       3.194  -1.585   8.532  1.00  0.00    -0.493 OA
ATOM     19  C   UNL     1       2.175  -0.591   8.558  1.00  0.00     0.278 C 
ENDBRANCH  13  18
BRANCH  14  20
ATOM     20  O   UNL     1       3.758  -3.861   7.075  1.00  0.00    -0.504 OA
ATOM     21  H   UNL     1       4.125  -4.741   7.416  1.00  0.00     0.293 HD
ENDBRANCH  14  20
ENDBRANCH   1  12
BRANCH   2  22
ATOM     22  O   UNL     1       5.209   2.238   6.316  1.00  0.00    -0.502 OA
ATOM     23  H   UNL     1       4.571   1.669   5.773  1.00  0.00     0.293 HD
ENDBRANCH   2  22
BRANCH   6  24
ATOM     24  O   UNL     1       9.628   5.207   6.173  1.00  0.00    -0.507 OA
ATOM     25  H   UNL     1      10.238   5.927   5.819  1.00  0.00     0.293 HD
ENDBRANCH   6  24
BRANCH   8  26
ATOM     26  O   UNL     1      12.953   1.753   5.888  1.00  0.00    -0.508 OA
ATOM     27  H   UNL     1      13.309   0.903   6.310  1.00  0.00     0.293 HD
ENDBRANCH   8  26
TORSDOF 6
ENDMDL
MODEL 5
REMARK VINA RESULT:    -5.101      2.200      7.344
REMARK INTER + INTRA:          -6.571
REMARK INTER:                  -6.626
REMARK INTRA:                   0.055
REMARK UNBOUND:                -0.278
REMARK SMILES COc1cc(-c2oc3cc(O)cc(O)c3c(=O)c2O)ccc1O
REMARK SMILES IDX 6 1 18 2 16 3 17 4 15 5 13 6 12 7 10 8 9 9 8 10 7 11 5 12
REMARK SMILES IDX 3 13 22 14 4 15 21 16 20 17 2 18 1 19 23 20 19 22 14 24
REMARK SMILES IDX 11 26
REMARK H PARENT 23 21 19 23 14 25 11 27
REMARK Flexibility Score: inf
ROOT
ATOM      1  C   UNL     1       2.896  12.460   6.929  1.00  0.00     0.180 A 
ATOM      2  C   UNL     1       1.757  13.281   7.003  1.00  0.00     0.208 A 
ATOM      3  C   UNL     1       0.493  12.713   6.778  1.00  0.00     0.238 A 
ATOM      4  O   UNL     1      -0.527  13.441   6.899  1.00  0.00    -0.285 OA
ATOM      5  C   UNL     1       0.384  11.335   6.467  1.00  0.00     0.111 A 
ATOM      6  C   UNL     1      -0.843  10.664   6.180  1.00  0.00     0.134 A 
ATOM      7  C   UNL     1      -0.845   9.274   6.013  1.00  0.00     0.093 A 
ATOM      8  C   UNL     1       0.343   8.540   6.058  1.00  0.00     0.123 A 
ATOM      9  C   UNL     1       1.552   9.195   6.277  1.00  0.00     0.094 A 
ATOM     10  C   UNL     1       1.584  10.576   6.483  1.00  0.00     0.146 A 
ATOM     11  O   UNL     1       2.756  11.160   6.700  1.00  0.00    -0.452 OA
ENDROOT
BRANCH   1  12
ATOM     12  C   UNL     1       4.264  12.991   7.129  1.00  0.00     0.025 A 
ATOM     13  C   UNL     1       6.486  12.852   8.142  1.00  0.00     0.161 A 
ATOM     14  C   UNL     1       6.833  14.063   7.527  1.00  0.00     0.157 A 
ATOM     15  C   UNL     1       5.195  12.323   7.945  1.00  0.00     0.062 A 
ATOM     16  C   UNL     1       5.901  14.740   6.732  1.00  0.00     0.051 A 
ATOM     17  C   UNL     1       4.623  14.212   6.540  1.00  0.00     0.016 A 
BRANCH  13  18
ATOM     18  O   UNL     1       7.445  12.209   8.941  1.00  0.00    -0.493 OA
ATOM     19  C   UNL     1       7.231  10.979   9.625  1.00  0.00     0.278 C 
ENDBRANCH  13  18
BRANCH  14  20
ATOM     20  O   UNL     1       8.111  14.591   7.715  1.00  0.00    -0.504 OA
ATOM     21  H   UNL     1       8.353  15.109   8.550  1.00  0.00     0.293 HD
ENDBRANCH  14  20
ENDBRANCH   1  12
BRANCH   2  22
ATOM     22  O   UNL     1       1.886  14.633   7.334  1.00  0.00    -0.502 OA
ATOM     23  H   UNL     1       1.372  15.361   6.854  1.00  0.00     0.293 HD
ENDBRANCH   2  22
BRANCH   6  24
ATOM     24  O   UNL     1      -2.070  11.315   6.024  1.00  0.00    -0.507 OA
ATOM     25  H   UNL     1      -2.970  10.862   6.059  1.00  0.00     0.293 HD
ENDBRANCH   6  24
BRANCH   8  26
ATOM     26  O   UNL     1       0.333   7.160   5.875  1.00  0.00    -0.508 OA
ATOM     27  H   UNL     1      -0.482   6.601   6.101  1.00  0.00     0.293 HD
ENDBRANCH   8  26
TORSDOF 6
ENDMDL
MODEL 6
REMARK VINA RESULT:    -5.065      2.088      7.145
REMARK INTER + INTRA:          -6.527
REMARK INTER:                  -6.229
REMARK INTRA:                  -0.299
REMARK UNBOUND:                -0.278
REMARK SMILES COc1cc(-c2oc3cc(O)cc(O)c3c(=O)c2O)ccc1O
REMARK SMILES IDX 6 1 18 2 16 3 17 4 15 5 13 6 12 7 10 8 9 9 8 10 7 11 5 12
REMARK SMILES IDX 3 13 22 14 4 15 21 16 20 17 2 18 1 19 23 20 19 22 14 24
REMARK SMILES IDX 11 26
REMARK H PARENT 23 21 19 23 14 25 11 27
REMARK Flexibility Score: inf
ROOT
ATOM      1  C   UNL     1       4.155  11.647   6.858  1.00  0.00     0.180 A 
ATOM      2  C   UNL     1       4.625  10.331   6.702  1.00  0.00     0.208 A 
ATOM      3  C   UNL     1       3.696   9.285   6.590  1.00  0.00     0.238 A 
ATOM      4  O   UNL     1       4.121   8.116   6.396  1.00  0.00    -0.285 OA
ATOM      5  C   UNL     1       2.309   9.565   6.651  1.00  0.00     0.111 A 
ATOM      6  C   UNL     1       1.280   8.578   6.589  1.00  0.00     0.134 A 
ATOM      7  C   UNL     1      -0.060   8.981   6.528  1.00  0.00     0.093 A 
ATOM      8  C   UNL     1      -0.410  10.332   6.593  1.00  0.00     0.123 A 
ATOM      9  C   UNL     1       0.585  11.299   6.714  1.00  0.00     0.094 A 
ATOM     10  C   UNL     1       1.932  10.931   6.741  1.00  0.00     0.146 A 
ATOM     11  O   UNL     1       2.849  11.885   6.846  1.00  0.00    -0.452 OA
ENDROOT
BRANCH   1  12
ATOM     12  C   UNL     1       5.074  12.799   7.008  1.00  0.00     0.025 A 
ATOM     13  C   UNL     1       6.403  14.310   8.399  1.00  0.00     0.161 A 
ATOM     14  C   UNL     1       6.774  15.026   7.253  1.00  0.00     0.157 A 
ATOM     15  C   UNL     1       5.546  13.199   8.272  1.00  0.00     0.062 A 
ATOM     16  C   UNL     1       6.288  14.643   5.996  1.00  0.00     0.051 A 
ATOM     17  C   UNL     1       5.438  13.542   5.875  1.00  0.00     0.016 A 
BRANCH  13  18
ATOM     18  O   UNL     1       6.902  14.732   9.641  1.00  0.00    -0.493 OA
ATOM     19  C   UNL     1       6.392  15.837  10.381  1.00  0.00     0.278 C 
ENDBRANCH  13  18
BRANCH  14  20
ATOM     20  O   UNL     1       7.625  16.125   7.371  1.00  0.00    -0.504 OA
ATOM     21  H   UNL     1       8.624  16.039   7.232  1.00  0.00     0.293 HD
ENDBRANCH  14  20
ENDBRANCH   1  12
BRANCH   2  22
ATOM     22  O   UNL     1       5.998  10.080   6.622  1.00  0.00    -0.502 OA
ATOM     23  H   UNL     1       6.687  10.684   7.054  1.00  0.00     0.293 HD
ENDBRANCH   2  22
BRANCH   6  24
ATOM     24  O   UNL     1       1.518   7.201   6.613  1.00  0.00    -0.507 OA
ATOM     25  H   UNL     1       0.840   6.496   6.367  1.00  0.00     0.293 HD
ENDBRANCH   6  24
BRANCH   8  26
ATOM     26  O   UNL     1      -1.746  10.723   6.547  1.00  0.00    -0.508 OA
ATOM     27  H   UNL     1      -2.227  11.064   7.371  1.00  0.00     0.293 HD
ENDBRANCH   8  26
TORSDOF 6
ENDMDL
MODEL 7
REMARK VINA RESULT:    -5.065      4.560      6.764
REMARK INTER + INTRA:          -6.527
REMARK INTER:                  -6.259
REMARK INTRA:                  -0.268
REMARK UNBOUND:                -0.278
REMARK SMILES COc1cc(-c2oc3cc(O)cc(O)c3c(=O)c2O)ccc1O
REMARK SMILES IDX 6 1 18 2 16 3 17 4 15 5 13 6 12 7 10 8 9 9 8 10 7 11 5 12
REMARK SMILES IDX 3 13 22 14 4 15 21 16 20 17 2 18 1 19 23 20 19 22 14 24
REMARK SMILES IDX 11 26
REMARK H PARENT 23 21 19 23 14 25 11 27
REMARK Flexibility Score: inf
ROOT
ATOM      1  C   UNL     1       2.914   6.662   6.672  1.00  0.00     0.180 A 
ATOM      2  C   UNL     1       4.180   7.239   6.463  1.00  0.00     0.208 A 
ATOM      3  C   UNL     1       5.278   6.401   6.220  1.00  0.00     0.238 A 
ATOM      4  O   UNL     1       6.398   6.925   5.980  1.00  0.00    -0.285 OA
ATOM      5  C   UNL     1       5.103   4.995   6.202  1.00  0.00     0.111 A 
ATOM      6  C   UNL     1       6.154   4.050   6.004  1.00  0.00     0.134 A 
ATOM      7  C   UNL     1       5.843   2.690   5.876  1.00  0.00     0.093 A 
ATOM      8  C   UNL     1       4.529   2.236   6.004  1.00  0.00     0.123 A 
ATOM      9  C   UNL     1       3.504   3.145   6.256  1.00  0.00     0.094 A 
ATOM     10  C   UNL     1       3.777   4.512   6.353  1.00  0.00     0.146 A 
ATOM     11  O   UNL     1       2.770   5.345   6.583  1.00  0.00    -0.452 OA
ENDROOT
BRANCH   1  12
ATOM     12  C   UNL     1       1.713   7.479   6.959  1.00  0.00     0.025 A 
ATOM     13  C   UNL     1       0.001   8.297   8.503  1.00  0.00     0.161 A 
ATOM     14  C   UNL     1      -0.601   9.000   7.450  1.00  0.00     0.157 A 
ATOM     15  C   UNL     1       1.156   7.531   8.250  1.00  0.00     0.062 A 
ATOM     16  C   UNL     1      -0.060   8.932   6.160  1.00  0.00     0.051 A 
ATOM     17  C   UNL     1       1.084   8.171   5.914  1.00  0.00     0.016 A 
BRANCH  13  18
ATOM     18  O   UNL     1      -0.578   8.381   9.779  1.00  0.00    -0.493 OA
ATOM     19  C   UNL     1      -1.662   7.575  10.227  1.00  0.00     0.278 C 
ENDBRANCH  13  18
BRANCH  14  20
ATOM     20  O   UNL     1      -1.743   9.763   7.693  1.00  0.00    -0.504 OA
ATOM     21  H   UNL     1      -1.682  10.738   7.961  1.00  0.00     0.293 HD
ENDBRANCH  14  20
ENDBRANCH   1  12
BRANCH   2  22
ATOM     22  O   UNL     1       4.326   8.629   6.463  1.00  0.00    -0.502 OA
ATOM     23  H   UNL     1       3.557   9.256   6.664  1.00  0.00     0.293 HD
ENDBRANCH   2  22
BRANCH   6  24
ATOM     24  O   UNL     1       7.509   4.389   5.955  1.00  0.00    -0.507 OA
ATOM     25  H   UNL     1       8.071   4.631   6.756  1.00  0.00     0.293 HD
ENDBRANCH   6  24
BRANCH   8  26
ATOM     26  O   UNL     1       4.231   0.880   5.891  1.00  0.00    -0.508 OA
ATOM     27  H   UNL     1       4.359   0.243   6.668  1.00  0.00     0.293 HD
ENDBRANCH   8  26
TORSDOF 6
ENDMDL
MODEL 8
REMARK VINA RESULT:    -4.864      1.933      6.792
REMARK INTER + INTRA:          -6.279
REMARK INTER:                  -6.148
REMARK INTRA:                  -0.132
REMARK UNBOUND:                -0.278
REMARK SMILES COc1cc(-c2oc3cc(O)cc(O)c3c(=O)c2O)ccc1O
REMARK SMILES IDX 6 1 18 2 16 3 17 4 15 5 13 6 12 7 10 8 9 9 8 10 7 11 5 12
REMARK SMILES IDX 3 13 22 14 4 15 21 16 20 17 2 18 1 19 23 20 19 22 14 24
REMARK SMILES IDX 11 26
REMARK H PARENT 23 21 19 23 14 25 11 27
REMARK Flexibility Score: inf
ROOT
ATOM      1  C   UNL     1       2.774  10.573   6.485  1.00  0.00     0.180 A 
ATOM      2  C   UNL     1       2.979   9.199   6.267  1.00  0.00     0.208 A 
ATOM      3  C   UNL     1       1.863   8.358   6.138  1.00  0.00     0.238 A 
ATOM      4  O   UNL     1       2.051   7.137   5.890  1.00  0.00    -0.285 OA
ATOM      5  C   UNL     1       0.557   8.896   6.243  1.00  0.00     0.111 A 
ATOM      6  C   UNL     1      -0.644   8.129   6.168  1.00  0.00     0.134 A 
ATOM      7  C   UNL     1      -1.881   8.785   6.154  1.00  0.00     0.093 A 
ATOM      8  C   UNL     1      -1.962  10.174   6.278  1.00  0.00     0.123 A 
ATOM      9  C   UNL     1      -0.797  10.926   6.412  1.00  0.00     0.094 A 
ATOM     10  C   UNL     1       0.453  10.304   6.393  1.00  0.00     0.146 A 
ATOM     11  O   UNL     1       1.539  11.059   6.512  1.00  0.00    -0.452 OA
ENDROOT
BRANCH   1  12
ATOM     12  C   UNL     1       3.901  11.520   6.656  1.00  0.00     0.025 A 
ATOM     13  C   UNL     1       5.951  12.224   7.790  1.00  0.00     0.161 A 
ATOM     14  C   UNL     1       5.992  13.371   6.985  1.00  0.00     0.157 A 
ATOM     15  C   UNL     1       4.897  11.303   7.626  1.00  0.00     0.062 A 
ATOM     16  C   UNL     1       4.990  13.599   6.034  1.00  0.00     0.051 A 
ATOM     17  C   UNL     1       3.947  12.684   5.875  1.00  0.00     0.016 A 
BRANCH  13  18
ATOM     18  O   UNL     1       6.967  12.036   8.739  1.00  0.00    -0.493 OA
ATOM     19  C   UNL     1       7.058  10.917   9.614  1.00  0.00     0.278 C 
ENDBRANCH  13  18
BRANCH  14  20
ATOM     20  O   UNL     1       7.034  14.285   7.139  1.00  0.00    -0.504 OA
ATOM     21  H   UNL     1       8.001  13.985   7.185  1.00  0.00     0.293 HD
ENDBRANCH  14  20
ENDBRANCH   1  12
BRANCH   2  22
ATOM     22  O   UNL     1       4.276   8.692   6.146  1.00  0.00    -0.502 OA
ATOM     23  H   UNL     1       4.512   7.955   5.493  1.00  0.00     0.293 HD
ENDBRANCH   2  22
BRANCH   6  24
ATOM     24  O   UNL     1      -0.677   6.732   6.134  1.00  0.00    -0.507 OA
ATOM     25  H   UNL     1      -0.581   6.135   6.940  1.00  0.00     0.293 HD
ENDBRANCH   6  24
BRANCH   8  26
ATOM     26  O   UNL     1      -3.198  10.817   6.278  1.00  0.00    -0.508 OA
ATOM     27  H   UNL     1      -4.000  10.424   6.758  1.00  0.00     0.293 HD
ENDBRANCH   8  26
TORSDOF 6
ENDMDL
