MODEL 1
REMARK VINA RESULT:    -7.184      0.000      0.000
REMARK INTER + INTRA:         -14.308
REMARK INTER:                 -13.484
REMARK INTRA:                  -0.823
REMARK UNBOUND:                -0.823
REMARK SMILES CCCCCCCCC=CCCCCCCCC(=O)[O-]
REMARK SMILES IDX 10 1 9 2 11 3 12 4 13 5 14 6 15 7 16 8 17 9 18 10 19 11
REMARK SMILES IDX 20 12 8 13 7 14 6 15 5 16 4 17 3 18 2 19 1 20
REMARK H PARENT
REMARK Flexibility Score: inf
ROOT
ATOM      1  C   UNL     1      12.882  -2.316 -23.004  1.00  0.00    -0.031 C 
ATOM      2  C   UNL     1      13.484  -3.105 -23.912  1.00  0.00    -0.031 C 
ENDROOT
BRANCH   1   3
ATOM      3  C   UNL     1      11.476  -2.513 -22.488  1.00  0.00     0.027 C 
BRANCH   3   4
ATOM      4  C   UNL     1      11.139  -1.507 -21.380  1.00  0.00     0.004 C 
BRANCH   4   5
ATOM      5  C   UNL     1      12.236  -0.445 -21.210  1.00  0.00     0.000 C 
BRANCH   5   6
ATOM      6  C   UNL     1      12.935  -0.582 -19.854  1.00  0.00     0.000 C 
BRANCH   6   7
ATOM      7  C   UNL     1      11.917  -0.877 -18.741  1.00  0.00     0.000 C 
BRANCH   7   8
ATOM      8  C   UNL     1      11.453   0.392 -18.010  1.00  0.00     0.006 C 
BRANCH   8   9
ATOM      9  C   UNL     1      12.171   0.600 -16.670  1.00  0.00     0.053 C 
BRANCH   9  10
ATOM     10  C   UNL     1      13.350   1.506 -16.839  1.00  0.00     0.041 C 
ATOM     11  O   UNL     1      14.396   1.318 -16.163  1.00  0.00    -0.550 OA
ATOM     12  O   UNL     1      13.310   2.534 -17.773  1.00  0.00    -0.550 OA
ENDBRANCH   9  10
ENDBRANCH   8   9
ENDBRANCH   7   8
ENDBRANCH   6   7
ENDBRANCH   5   6
ENDBRANCH   4   5
ENDBRANCH   3   4
ENDBRANCH   1   3
BRANCH   2  13
ATOM     13  C   UNL     1      12.835  -4.321 -24.527  1.00  0.00     0.027 C 
BRANCH  13  14
ATOM     14  C   UNL     1      13.796  -5.090 -25.450  1.00  0.00     0.004 C 
BRANCH  14  15
ATOM     15  C   UNL     1      15.247  -4.571 -25.416  1.00  0.00     0.000 C 
BRANCH  15  16
ATOM     16  C   UNL     1      16.100  -5.101 -24.246  1.00  0.00     0.000 C 
BRANCH  16  17
ATOM     17  C   UNL     1      17.619  -5.053 -24.512  1.00  0.00    -0.000 C 
BRANCH  17  18
ATOM     18  C   UNL     1      18.042  -3.755 -25.225  1.00  0.00    -0.000 C 
BRANCH  18  19
ATOM     19  C   UNL     1      19.032  -2.923 -24.396  1.00  0.00    -0.003 C 
ATOM     20  C   UNL     1      20.490  -3.274 -24.688  1.00  0.00     0.004 C 
ENDBRANCH  18  19
ENDBRANCH  17  18
ENDBRANCH  16  17
ENDBRANCH  15  16
ENDBRANCH  14  15
ENDBRANCH  13  14
ENDBRANCH   2  13
TORSDOF 15
ENDMDL
MODEL 2
REMARK VINA RESULT:    -7.167      1.563      2.393
REMARK INTER + INTRA:         -14.274
REMARK INTER:                 -13.199
REMARK INTRA:                  -1.075
REMARK UNBOUND:                -0.823
REMARK SMILES CCCCCCCCC=CCCCCCCCC(=O)[O-]
REMARK SMILES IDX 10 1 9 2 11 3 12 4 13 5 14 6 15 7 16 8 17 9 18 10 19 11
REMARK SMILES IDX 20 12 8 13 7 14 6 15 5 16 4 17 3 18 2 19 1 20
REMARK H PARENT
REMARK Flexibility Score: inf
ROOT
ATOM      1  C   UNL     1      12.865  -4.040 -24.059  1.00  0.00    -0.031 C 
ATOM      2  C   UNL     1      13.520  -5.039 -24.680  1.00  0.00    -0.031 C 
ENDROOT
BRANCH   1   3
ATOM      3  C   UNL     1      13.529  -2.901 -23.322  1.00  0.00     0.027 C 
BRANCH   3   4
ATOM      4  C   UNL     1      12.493  -1.967 -22.683  1.00  0.00     0.004 C 
BRANCH   4   5
ATOM      5  C   UNL     1      11.122  -2.641 -22.534  1.00  0.00     0.000 C 
BRANCH   5   6
ATOM      6  C   UNL     1      10.382  -2.125 -21.295  1.00  0.00     0.000 C 
BRANCH   6   7
ATOM      7  C   UNL     1      11.261  -1.147 -20.502  1.00  0.00     0.000 C 
BRANCH   7   8
ATOM      8  C   UNL     1      10.745  -0.911 -19.073  1.00  0.00     0.006 C 
BRANCH   8   9
ATOM      9  C   UNL     1      11.747  -0.142 -18.201  1.00  0.00     0.053 C 
BRANCH   9  10
ATOM     10  C   UNL     1      12.908  -1.014 -17.840  1.00  0.00     0.041 C 
ATOM     11  O   UNL     1      12.818  -1.822 -16.878  1.00  0.00    -0.550 OA
ATOM     12  O   UNL     1      14.076  -0.965 -18.590  1.00  0.00    -0.550 OA
ENDBRANCH   9  10
ENDBRANCH   8   9
ENDBRANCH   7   8
ENDBRANCH   6   7
ENDBRANCH   5   6
ENDBRANCH   4   5
ENDBRANCH   3   4
ENDBRANCH   1   3
BRANCH   2  13
ATOM     13  C   UNL     1      15.024  -5.142 -24.743  1.00  0.00     0.027 C 
BRANCH  13  14
ATOM     14  C   UNL     1      15.597  -4.527 -26.032  1.00  0.00     0.004 C 
BRANCH  14  15
ATOM     15  C   UNL     1      17.047  -4.023 -25.895  1.00  0.00     0.000 C 
BRANCH  15  16
ATOM     16  C   UNL     1      17.770  -4.467 -24.608  1.00  0.00     0.000 C 
BRANCH  16  17
ATOM     17  C   UNL     1      18.773  -3.427 -24.067  1.00  0.00    -0.000 C 
BRANCH  17  18
ATOM     18  C   UNL     1      20.232  -3.899 -24.210  1.00  0.00    -0.000 C 
BRANCH  18  19
ATOM     19  C   UNL     1      20.843  -3.525 -25.569  1.00  0.00    -0.003 C 
ATOM     20  C   UNL     1      20.587  -2.069 -25.953  1.00  0.00     0.004 C 
ENDBRANCH  18  19
ENDBRANCH  17  18
ENDBRANCH  16  17
ENDBRANCH  15  16
ENDBRANCH  14  15
ENDBRANCH  13  14
ENDBRANCH   2  13
TORSDOF 15
ENDMDL
MODEL 3
REMARK VINA RESULT:    -7.166      1.494      2.933
REMARK INTER + INTRA:         -14.272
REMARK INTER:                 -13.246
REMARK INTRA:                  -1.026
REMARK UNBOUND:                -0.823
REMARK SMILES CCCCCCCCC=CCCCCCCCC(=O)[O-]
REMARK SMILES IDX 10 1 9 2 11 3 12 4 13 5 14 6 15 7 16 8 17 9 18 10 19 11
REMARK SMILES IDX 20 12 8 13 7 14 6 15 5 16 4 17 3 18 2 19 1 20
REMARK H PARENT
REMARK Flexibility Score: inf
ROOT
ATOM      1  C   UNL     1      14.235  -4.684 -23.517  1.00  0.00    -0.031 C 
ATOM      2  C   UNL     1      15.438  -4.747 -24.115  1.00  0.00    -0.031 C 
ENDROOT
BRANCH   1   3
ATOM      3  C   UNL     1      13.058  -3.887 -24.028  1.00  0.00     0.027 C 
BRANCH   3   4
ATOM      4  C   UNL     1      12.937  -2.539 -23.305  1.00  0.00     0.004 C 
BRANCH   4   5
ATOM      5  C   UNL     1      11.575  -2.373 -22.616  1.00  0.00     0.000 C 
BRANCH   5   6
ATOM      6  C   UNL     1      11.583  -1.180 -21.654  1.00  0.00     0.000 C 
BRANCH   6   7
ATOM      7  C   UNL     1      13.007  -0.881 -21.165  1.00  0.00     0.000 C 
BRANCH   7   8
ATOM      8  C   UNL     1      13.039   0.157 -20.032  1.00  0.00     0.006 C 
BRANCH   8   9
ATOM      9  C   UNL     1      12.101  -0.203 -18.872  1.00  0.00     0.053 C 
BRANCH   9  10
ATOM     10  C   UNL     1      12.877  -0.382 -17.604  1.00  0.00     0.041 C 
ATOM     11  O   UNL     1      13.600   0.552 -17.167  1.00  0.00    -0.550 OA
ATOM     12  O   UNL     1      12.771  -1.565 -16.884  1.00  0.00    -0.550 OA
ENDBRANCH   9  10
ENDBRANCH   8   9
ENDBRANCH   7   8
ENDBRANCH   6   7
ENDBRANCH   5   6
ENDBRANCH   4   5
ENDBRANCH   3   4
ENDBRANCH   1   3
BRANCH   2  13
ATOM     13  C   UNL     1      15.769  -4.039 -25.407  1.00  0.00     0.027 C 
BRANCH  13  14
ATOM     14  C   UNL     1      17.267  -3.705 -25.520  1.00  0.00     0.004 C 
BRANCH  14  15
ATOM     15  C   UNL     1      18.079  -4.031 -24.252  1.00  0.00     0.000 C 
BRANCH  15  16
ATOM     16  C   UNL     1      19.329  -3.155 -24.037  1.00  0.00     0.000 C 
BRANCH  16  17
ATOM     17  C   UNL     1      20.614  -3.741 -24.658  1.00  0.00    -0.000 C 
BRANCH  17  18
ATOM     18  C   UNL     1      21.082  -2.940 -25.887  1.00  0.00    -0.000 C 
BRANCH  18  19
ATOM     19  C   UNL     1      20.593  -1.485 -25.864  1.00  0.00    -0.003 C 
ATOM     20  C   UNL     1      20.827  -0.759 -27.188  1.00  0.00     0.004 C 
ENDBRANCH  18  19
ENDBRANCH  17  18
ENDBRANCH  16  17
ENDBRANCH  15  16
ENDBRANCH  14  15
ENDBRANCH  13  14
ENDBRANCH   2  13
TORSDOF 15
ENDMDL
MODEL 4
REMARK VINA RESULT:    -6.800      3.864      8.555
REMARK INTER + INTRA:         -13.587
REMARK INTER:                 -12.472
REMARK INTRA:                  -1.115
REMARK UNBOUND:                -0.823
REMARK SMILES CCCCCCCCC=CCCCCCCCC(=O)[O-]
REMARK SMILES IDX 10 1 9 2 11 3 12 4 13 5 14 6 15 7 16 8 17 9 18 10 19 11
REMARK SMILES IDX 20 12 8 13 7 14 6 15 5 16 4 17 3 18 2 19 1 20
REMARK H PARENT
REMARK Flexibility Score: inf
ROOT
ATOM      1  C   UNL     1      13.470  -3.114 -23.754  1.00  0.00    -0.031 C 
ATOM      2  C   UNL     1      12.940  -2.228 -22.890  1.00  0.00    -0.031 C 
ENDROOT
BRANCH   1   3
ATOM      3  C   UNL     1      12.741  -4.310 -24.318  1.00  0.00     0.027 C 
BRANCH   3   4
ATOM      4  C   UNL     1      13.685  -5.216 -25.118  1.00  0.00     0.004 C 
BRANCH   4   5
ATOM      5  C   UNL     1      15.162  -4.932 -24.805  1.00  0.00     0.000 C 
BRANCH   5   6
ATOM      6  C   UNL     1      15.938  -4.568 -26.075  1.00  0.00     0.000 C 
BRANCH   6   7
ATOM      7  C   UNL     1      17.119  -3.643 -25.748  1.00  0.00     0.000 C 
BRANCH   7   8
ATOM      8  C   UNL     1      17.876  -4.073 -24.482  1.00  0.00     0.006 C 
BRANCH   8   9
ATOM      9  C   UNL     1      19.009  -3.106 -24.112  1.00  0.00     0.053 C 
BRANCH   9  10
ATOM     10  C   UNL     1      20.314  -3.590 -24.663  1.00  0.00     0.041 C 
ATOM     11  O   UNL     1      21.040  -4.364 -23.984  1.00  0.00    -0.550 OA
ATOM     12  O   UNL     1      20.710  -3.221 -25.942  1.00  0.00    -0.550 OA
ENDBRANCH   9  10
ENDBRANCH   8   9
ENDBRANCH   7   8
ENDBRANCH   6   7
ENDBRANCH   5   6
ENDBRANCH   4   5
ENDBRANCH   3   4
ENDBRANCH   1   3
BRANCH   2  13
ATOM     13  C   UNL     1      11.520  -2.301 -22.383  1.00  0.00     0.027 C 
BRANCH  13  14
ATOM     14  C   UNL     1      11.304  -1.432 -21.132  1.00  0.00     0.004 C 
BRANCH  14  15
ATOM     15  C   UNL     1      12.407  -0.380 -20.902  1.00  0.00     0.000 C 
BRANCH  15  16
ATOM     16  C   UNL     1      13.300  -0.633 -19.672  1.00  0.00     0.000 C 
BRANCH  16  17
ATOM     17  C   UNL     1      12.511  -0.818 -18.358  1.00  0.00    -0.000 C 
BRANCH  17  18
ATOM     18  C   UNL     1      11.647   0.411 -18.023  1.00  0.00    -0.000 C 
BRANCH  18  19
ATOM     19  C   UNL     1      12.486   1.674 -17.777  1.00  0.00    -0.003 C 
ATOM     20  C   UNL     1      13.432   1.534 -16.586  1.00  0.00     0.004 C 
ENDBRANCH  18  19
ENDBRANCH  17  18
ENDBRANCH  16  17
ENDBRANCH  15  16
ENDBRANCH  14  15
ENDBRANCH  13  14
ENDBRANCH   2  13
TORSDOF 15
ENDMDL
MODEL 5
REMARK VINA RESULT:    -6.591      3.960      8.617
REMARK INTER + INTRA:         -13.194
REMARK INTER:                 -12.105
REMARK INTRA:                  -1.088
REMARK UNBOUND:                -0.823
REMARK SMILES CCCCCCCCC=CCCCCCCCC(=O)[O-]
REMARK SMILES IDX 10 1 9 2 11 3 12 4 13 5 14 6 15 7 16 8 17 9 18 10 19 11
REMARK SMILES IDX 20 12 8 13 7 14 6 15 5 16 4 17 3 18 2 19 1 20
REMARK H PARENT
REMARK Flexibility Score: inf
ROOT
ATOM      1  C   UNL     1      12.344  -5.017 -24.435  1.00  0.00    -0.031 C 
ATOM      2  C   UNL     1      12.052  -3.872 -23.792  1.00  0.00    -0.031 C 
ENDROOT
BRANCH   1   3
ATOM      3  C   UNL     1      13.742  -5.530 -24.689  1.00  0.00     0.027 C 
BRANCH   3   4
ATOM      4  C   UNL     1      14.288  -5.028 -26.032  1.00  0.00     0.004 C 
BRANCH   4   5
ATOM      5  C   UNL     1      15.633  -4.302 -25.874  1.00  0.00     0.000 C 
BRANCH   5   6
ATOM      6  C   UNL     1      16.140  -4.383 -24.430  1.00  0.00     0.000 C 
BRANCH   6   7
ATOM      7  C   UNL     1      17.392  -5.266 -24.339  1.00  0.00     0.000 C 
BRANCH   7   8
ATOM      8  C   UNL     1      18.551  -4.744 -25.203  1.00  0.00     0.006 C 
BRANCH   8   9
ATOM      9  C   UNL     1      19.068  -3.376 -24.737  1.00  0.00     0.053 C 
BRANCH   9  10
ATOM     10  C   UNL     1      20.382  -3.063 -25.383  1.00  0.00     0.041 C 
ATOM     11  O   UNL     1      21.099  -3.992 -25.841  1.00  0.00    -0.550 OA
ATOM     12  O   UNL     1      20.796  -1.744 -25.515  1.00  0.00    -0.550 OA
ENDBRANCH   9  10
ENDBRANCH   8   9
ENDBRANCH   7   8
ENDBRANCH   6   7
ENDBRANCH   5   6
ENDBRANCH   4   5
ENDBRANCH   3   4
ENDBRANCH   1   3
BRANCH   2  13
ATOM     13  C   UNL     1      13.095  -2.948 -23.210  1.00  0.00     0.027 C 
BRANCH  13  14
ATOM     14  C   UNL     1      12.468  -1.767 -22.449  1.00  0.00     0.004 C 
BRANCH  14  15
ATOM     15  C   UNL     1      11.031  -2.031 -21.958  1.00  0.00     0.000 C 
BRANCH  15  16
ATOM     16  C   UNL     1      10.737  -1.553 -20.522  1.00  0.00     0.000 C 
BRANCH  16  17
ATOM     17  C   UNL     1      11.918  -0.815 -19.859  1.00  0.00    -0.000 C 
BRANCH  17  18
ATOM     18  C   UNL     1      11.578  -0.338 -18.434  1.00  0.00    -0.000 C 
BRANCH  18  19
ATOM     19  C   UNL     1      12.488   0.805 -17.962  1.00  0.00    -0.003 C 
ATOM     20  C   UNL     1      12.616   0.872 -16.441  1.00  0.00     0.004 C 
ENDBRANCH  18  19
ENDBRANCH  17  18
ENDBRANCH  16  17
ENDBRANCH  15  16
ENDBRANCH  14  15
ENDBRANCH  13  14
ENDBRANCH   2  13
TORSDOF 15
ENDMDL
MODEL 6
REMARK VINA RESULT:    -6.364      3.541      8.736
REMARK INTER + INTRA:         -12.768
REMARK INTER:                 -11.874
REMARK INTRA:                  -0.894
REMARK UNBOUND:                -0.823
REMARK SMILES CCCCCCCCC=CCCCCCCCC(=O)[O-]
REMARK SMILES IDX 10 1 9 2 11 3 12 4 13 5 14 6 15 7 16 8 17 9 18 10 19 11
REMARK SMILES IDX 20 12 8 13 7 14 6 15 5 16 4 17 3 18 2 19 1 20
REMARK H PARENT
REMARK Flexibility Score: inf
ROOT
ATOM      1  C   UNL     1      12.119  -2.963 -23.245  1.00  0.00    -0.031 C 
ATOM      2  C   UNL     1      11.688  -1.982 -22.430  1.00  0.00    -0.031 C 
ENDROOT
BRANCH   1   3
ATOM      3  C   UNL     1      13.564  -3.206 -23.613  1.00  0.00     0.027 C 
BRANCH   3   4
ATOM      4  C   UNL     1      13.864  -4.705 -23.744  1.00  0.00     0.004 C 
BRANCH   4   5
ATOM      5  C   UNL     1      14.365  -5.072 -25.148  1.00  0.00     0.000 C 
BRANCH   5   6
ATOM      6  C   UNL     1      15.708  -4.400 -25.452  1.00  0.00     0.000 C 
BRANCH   6   7
ATOM      7  C   UNL     1      16.635  -4.453 -24.228  1.00  0.00     0.000 C 
BRANCH   7   8
ATOM      8  C   UNL     1      17.943  -5.209 -24.508  1.00  0.00     0.006 C 
BRANCH   8   9
ATOM      9  C   UNL     1      18.903  -4.420 -25.409  1.00  0.00     0.053 C 
BRANCH   9  10
ATOM     10  C   UNL     1      19.740  -3.484 -24.593  1.00  0.00     0.041 C 
ATOM     11  O   UNL     1      19.490  -2.249 -24.594  1.00  0.00    -0.550 OA
ATOM     12  O   UNL     1      20.768  -3.978 -23.801  1.00  0.00    -0.550 OA
ENDBRANCH   9  10
ENDBRANCH   8   9
ENDBRANCH   7   8
ENDBRANCH   6   7
ENDBRANCH   5   6
ENDBRANCH   4   5
ENDBRANCH   3   4
ENDBRANCH   1   3
BRANCH   2  13
ATOM     13  C   UNL     1      12.606  -0.997 -21.749  1.00  0.00     0.027 C 
BRANCH  13  14
ATOM     14  C   UNL     1      12.141  -0.660 -20.321  1.00  0.00     0.004 C 
BRANCH  14  15
ATOM     15  C   UNL     1      10.802  -1.315 -19.928  1.00  0.00     0.000 C 
BRANCH  15  16
ATOM     16  C   UNL     1      10.208  -0.826 -18.592  1.00  0.00     0.000 C 
BRANCH  16  17
ATOM     17  C   UNL     1      10.881   0.448 -18.041  1.00  0.00    -0.000 C 
BRANCH  17  18
ATOM     18  C   UNL     1      11.847   0.139 -16.883  1.00  0.00    -0.000 C 
BRANCH  18  19
ATOM     19  C   UNL     1      12.985   1.165 -16.775  1.00  0.00    -0.003 C 
ATOM     20  C   UNL     1      12.993   2.165 -17.931  1.00  0.00     0.004 C 
ENDBRANCH  18  19
ENDBRANCH  17  18
ENDBRANCH  16  17
ENDBRANCH  15  16
ENDBRANCH  14  15
ENDBRANCH  13  14
ENDBRANCH   2  13
TORSDOF 15
ENDMDL
MODEL 7
REMARK VINA RESULT:    -6.185      4.095      8.978
REMARK INTER + INTRA:         -12.431
REMARK INTER:                 -11.672
REMARK INTRA:                  -0.759
REMARK UNBOUND:                -0.823
REMARK SMILES CCCCCCCCC=CCCCCCCCC(=O)[O-]
REMARK SMILES IDX 10 1 9 2 11 3 12 4 13 5 14 6 15 7 16 8 17 9 18 10 19 11
REMARK SMILES IDX 20 12 8 13 7 14 6 15 5 16 4 17 3 18 2 19 1 20
REMARK H PARENT
REMARK Flexibility Score: inf
ROOT
ATOM      1  C   UNL     1      13.908  -5.034 -24.603  1.00  0.00    -0.031 C 
ATOM      2  C   UNL     1      12.912  -4.460 -23.903  1.00  0.00    -0.031 C 
ENDROOT
BRANCH   1   3
ATOM      3  C   UNL     1      15.145  -4.316 -25.088  1.00  0.00     0.027 C 
BRANCH   3   4
ATOM      4  C   UNL     1      16.299  -4.448 -24.085  1.00  0.00     0.004 C 
BRANCH   4   5
ATOM      5  C   UNL     1      17.649  -4.663 -24.784  1.00  0.00     0.000 C 
BRANCH   5   6
ATOM      6  C   UNL     1      18.614  -3.508 -24.493  1.00  0.00     0.000 C 
BRANCH   6   7
ATOM      7  C   UNL     1      20.030  -4.034 -24.217  1.00  0.00     0.000 C 
BRANCH   7   8
ATOM      8  C   UNL     1      21.124  -3.119 -24.788  1.00  0.00     0.006 C 
BRANCH   8   9
ATOM      9  C   UNL     1      21.087  -3.036 -26.320  1.00  0.00     0.053 C 
BRANCH   9  10
ATOM     10  C   UNL     1      21.030  -1.609 -26.769  1.00  0.00     0.041 C 
ATOM     11  O   UNL     1      21.025  -0.679 -25.920  1.00  0.00    -0.550 OA
ATOM     12  O   UNL     1      21.024  -1.305 -28.124  1.00  0.00    -0.550 OA
ENDBRANCH   9  10
ENDBRANCH   8   9
ENDBRANCH   7   8
ENDBRANCH   6   7
ENDBRANCH   5   6
ENDBRANCH   4   5
ENDBRANCH   3   4
ENDBRANCH   1   3
BRANCH   2  13
ATOM     13  C   UNL     1      12.911  -3.010 -23.483  1.00  0.00     0.027 C 
BRANCH  13  14
ATOM     14  C   UNL     1      11.562  -2.579 -22.882  1.00  0.00     0.004 C 
BRANCH  14  15
ATOM     15  C   UNL     1      11.690  -1.658 -21.653  1.00  0.00     0.000 C 
BRANCH  15  16
ATOM     16  C   UNL     1      13.068  -0.988 -21.483  1.00  0.00     0.000 C 
BRANCH  16  17
ATOM     17  C   UNL     1      13.175  -0.095 -20.230  1.00  0.00    -0.000 C 
BRANCH  17  18
ATOM     18  C   UNL     1      12.397  -0.676 -19.035  1.00  0.00    -0.000 C 
BRANCH  18  19
ATOM     19  C   UNL     1      11.851   0.414 -18.100  1.00  0.00    -0.003 C 
ATOM     20  C   UNL     1      12.495   0.384 -16.715  1.00  0.00     0.004 C 
ENDBRANCH  18  19
ENDBRANCH  17  18
ENDBRANCH  16  17
ENDBRANCH  15  16
ENDBRANCH  14  15
ENDBRANCH  13  14
ENDBRANCH   2  13
TORSDOF 15
ENDMDL
MODEL 8
REMARK VINA RESULT:    -5.963      1.806      2.710
REMARK INTER + INTRA:         -12.015
REMARK INTER:                 -11.222
REMARK INTRA:                  -0.793
REMARK UNBOUND:                -0.823
REMARK SMILES CCCCCCCCC=CCCCCCCCC(=O)[O-]
REMARK SMILES IDX 10 1 9 2 11 3 12 4 13 5 14 6 15 7 16 8 17 9 18 10 19 11
REMARK SMILES IDX 20 12 8 13 7 14 6 15 5 16 4 17 3 18 2 19 1 20
REMARK H PARENT
REMARK Flexibility Score: inf
ROOT
ATOM      1  C   UNL     1       9.981  -2.960 -22.277  1.00  0.00    -0.031 C 
ATOM      2  C   UNL     1      10.612  -3.631 -23.258  1.00  0.00    -0.031 C 
ENDROOT
BRANCH   1   3
ATOM      3  C   UNL     1      10.665  -2.082 -21.255  1.00  0.00     0.027 C 
BRANCH   3   4
ATOM      4  C   UNL     1       9.668  -1.544 -20.222  1.00  0.00     0.004 C 
BRANCH   4   5
ATOM      5  C   UNL     1      10.305  -1.382 -18.834  1.00  0.00     0.000 C 
BRANCH   5   6
ATOM      6  C   UNL     1      10.396   0.095 -18.435  1.00  0.00     0.000 C 
BRANCH   6   7
ATOM      7  C   UNL     1      11.588   0.335 -17.496  1.00  0.00     0.000 C 
BRANCH   7   8
ATOM      8  C   UNL     1      12.879   0.680 -18.253  1.00  0.00     0.006 C 
BRANCH   8   9
ATOM      9  C   UNL     1      13.451  -0.516 -19.025  1.00  0.00     0.053 C 
BRANCH   9  10
ATOM     10  C   UNL     1      13.571  -0.194 -20.482  1.00  0.00     0.041 C 
ATOM     11  O   UNL     1      13.370   0.981 -20.889  1.00  0.00    -0.550 OA
ATOM     12  O   UNL     1      13.945  -1.181 -21.385  1.00  0.00    -0.550 OA
ENDBRANCH   9  10
ENDBRANCH   8   9
ENDBRANCH   7   8
ENDBRANCH   6   7
ENDBRANCH   5   6
ENDBRANCH   4   5
ENDBRANCH   3   4
ENDBRANCH   1   3
BRANCH   2  13
ATOM     13  C   UNL     1      12.103  -3.576 -23.485  1.00  0.00     0.027 C 
BRANCH  13  14
ATOM     14  C   UNL     1      12.598  -4.721 -24.385  1.00  0.00     0.004 C 
BRANCH  14  15
ATOM     15  C   UNL     1      14.118  -4.967 -24.307  1.00  0.00     0.000 C 
BRANCH  15  16
ATOM     16  C   UNL     1      14.990  -3.833 -24.883  1.00  0.00     0.000 C 
BRANCH  16  17
ATOM     17  C   UNL     1      16.288  -4.327 -25.554  1.00  0.00    -0.000 C 
BRANCH  17  18
ATOM     18  C   UNL     1      17.222  -5.039 -24.557  1.00  0.00    -0.000 C 
BRANCH  18  19
ATOM     19  C   UNL     1      18.560  -4.306 -24.377  1.00  0.00    -0.003 C 
ATOM     20  C   UNL     1      18.629  -2.997 -25.161  1.00  0.00     0.004 C 
ENDBRANCH  18  19
ENDBRANCH  17  18
ENDBRANCH  16  17
ENDBRANCH  15  16
ENDBRANCH  14  15
ENDBRANCH  13  14
ENDBRANCH   2  13
TORSDOF 15
ENDMDL
MODEL 9
REMARK VINA RESULT:    -5.922      1.758      2.150
REMARK INTER + INTRA:         -11.938
REMARK INTER:                 -10.797
REMARK INTRA:                  -1.141
REMARK UNBOUND:                -0.823
REMARK SMILES CCCCCCCCC=CCCCCCCCC(=O)[O-]
REMARK SMILES IDX 10 1 9 2 11 3 12 4 13 5 14 6 15 7 16 8 17 9 18 10 19 11
REMARK SMILES IDX 20 12 8 13 7 14 6 15 5 16 4 17 3 18 2 19 1 20
REMARK H PARENT
REMARK Flexibility Score: inf
ROOT
ATOM      1  C   UNL     1      13.132  -2.209 -23.462  1.00  0.00    -0.031 C 
ATOM      2  C   UNL     1      14.130  -3.009 -23.877  1.00  0.00    -0.031 C 
ENDROOT
BRANCH   1   3
ATOM      3  C   UNL     1      11.884  -2.684 -22.754  1.00  0.00     0.027 C 
BRANCH   3   4
ATOM      4  C   UNL     1      11.551  -1.797 -21.548  1.00  0.00     0.004 C 
BRANCH   4   5
ATOM      5  C   UNL     1      12.232  -0.423 -21.636  1.00  0.00     0.000 C 
BRANCH   5   6
ATOM      6  C   UNL     1      13.226  -0.222 -20.487  1.00  0.00     0.000 C 
BRANCH   6   7
ATOM      7  C   UNL     1      12.903   1.056 -19.701  1.00  0.00     0.000 C 
BRANCH   7   8
ATOM      8  C   UNL     1      12.652   0.787 -18.209  1.00  0.00     0.006 C 
BRANCH   8   9
ATOM      9  C   UNL     1      11.942  -0.550 -17.959  1.00  0.00     0.053 C 
BRANCH   9  10
ATOM     10  C   UNL     1      10.485  -0.441 -18.280  1.00  0.00     0.041 C 
ATOM     11  O   UNL     1       9.879   0.650 -18.109  1.00  0.00    -0.550 OA
ATOM     12  O   UNL     1       9.803  -1.530 -18.808  1.00  0.00    -0.550 OA
ENDBRANCH   9  10
ENDBRANCH   8   9
ENDBRANCH   7   8
ENDBRANCH   6   7
ENDBRANCH   5   6
ENDBRANCH   4   5
ENDBRANCH   3   4
ENDBRANCH   1   3
BRANCH   2  13
ATOM     13  C   UNL     1      14.148  -4.504 -23.669  1.00  0.00     0.027 C 
BRANCH  13  14
ATOM     14  C   UNL     1      14.646  -5.260 -24.913  1.00  0.00     0.004 C 
BRANCH  14  15
ATOM     15  C   UNL     1      16.009  -4.769 -25.439  1.00  0.00     0.000 C 
BRANCH  15  16
ATOM     16  C   UNL     1      17.203  -5.041 -24.503  1.00  0.00     0.000 C 
BRANCH  16  17
ATOM     17  C   UNL     1      18.003  -3.775 -24.132  1.00  0.00    -0.000 C 
BRANCH  17  18
ATOM     18  C   UNL     1      18.696  -3.146 -25.356  1.00  0.00    -0.000 C 
BRANCH  18  19
ATOM     19  C   UNL     1      20.221  -3.321 -25.324  1.00  0.00    -0.003 C 
ATOM     20  C   UNL     1      20.734  -3.810 -23.971  1.00  0.00     0.004 C 
ENDBRANCH  18  19
ENDBRANCH  17  18
ENDBRANCH  16  17
ENDBRANCH  15  16
ENDBRANCH  14  15
ENDBRANCH  13  14
ENDBRANCH   2  13
TORSDOF 15
ENDMDL
