MODEL 1
REMARK VINA RESULT:    -3.962      0.000      0.000
REMARK INTER + INTRA:          -5.270
REMARK INTER:                  -5.120
REMARK INTRA:                  -0.151
REMARK UNBOUND:                -0.151
REMARK SMILES CCCCCCC(=O)[O-]
REMARK SMILES IDX 5 1 6 2 7 3 8 4 9 5 4 6 3 7 2 8 1 9
REMARK H PARENT
REMARK Flexibility Score: inf
ROOT
ATOM      1  C   UNL     1      45.084  -5.545  83.768  1.00  0.00     0.006 C 
ENDROOT
BRANCH   1   2
ATOM      2  C   UNL     1      43.621  -5.448  84.230  1.00  0.00     0.053 C 
BRANCH   2   3
ATOM      3  C   UNL     1      43.016  -6.798  84.464  1.00  0.00     0.041 C 
ATOM      4  O   UNL     1      42.224  -7.291  83.618  1.00  0.00    -0.550 OA
ATOM      5  O   UNL     1      43.352  -7.526  85.597  1.00  0.00    -0.550 OA
ENDBRANCH   2   3
ENDBRANCH   1   2
BRANCH   1   6
ATOM      6  C   UNL     1      45.854  -4.208  83.796  1.00  0.00     0.000 C 
BRANCH   6   7
ATOM      7  C   UNL     1      45.460  -3.253  84.937  1.00  0.00    -0.000 C 
BRANCH   7   8
ATOM      8  C   UNL     1      46.436  -2.079  85.099  1.00  0.00    -0.003 C 
ATOM      9  C   UNL     1      47.586  -2.177  84.102  1.00  0.00     0.004 C 
ENDBRANCH   7   8
ENDBRANCH   6   7
ENDBRANCH   1   6
TORSDOF 5
ENDMDL
MODEL 2
REMARK VINA RESULT:    -3.729      3.576      5.314
REMARK INTER + INTRA:          -4.969
REMARK INTER:                  -4.834
REMARK INTRA:                  -0.135
REMARK UNBOUND:                -0.151
REMARK SMILES CCCCCCC(=O)[O-]
REMARK SMILES IDX 5 1 6 2 7 3 8 4 9 5 4 6 3 7 2 8 1 9
REMARK H PARENT
REMARK Flexibility Score: inf
ROOT
ATOM      1  C   UNL     1      46.163  -3.986  83.946  1.00  0.00     0.006 C 
ENDROOT
BRANCH   1   2
ATOM      2  C   UNL     1      45.589  -3.061  85.032  1.00  0.00     0.053 C 
BRANCH   2   3
ATOM      3  C   UNL     1      46.352  -1.777  85.137  1.00  0.00     0.041 C 
ATOM      4  O   UNL     1      47.605  -1.774  85.009  1.00  0.00    -0.550 OA
ATOM      5  O   UNL     1      45.679  -0.581  85.343  1.00  0.00    -0.550 OA
ENDBRANCH   2   3
ENDBRANCH   1   2
BRANCH   1   6
ATOM      6  C   UNL     1      45.243  -5.159  83.551  1.00  0.00     0.000 C 
BRANCH   6   7
ATOM      7  C   UNL     1      43.906  -5.223  84.310  1.00  0.00    -0.000 C 
BRANCH   7   8
ATOM      8  C   UNL     1      43.168  -6.555  84.113  1.00  0.00    -0.003 C 
ATOM      9  C   UNL     1      43.050  -7.319  85.428  1.00  0.00     0.004 C 
ENDBRANCH   7   8
ENDBRANCH   6   7
ENDBRANCH   1   6
TORSDOF 5
ENDMDL
MODEL 3
REMARK VINA RESULT:    -3.675     13.981     14.803
REMARK INTER + INTRA:          -4.899
REMARK INTER:                  -4.783
REMARK INTRA:                  -0.117
REMARK UNBOUND:                -0.151
REMARK SMILES CCCCCCC(=O)[O-]
REMARK SMILES IDX 5 1 6 2 7 3 8 4 9 5 4 6 3 7 2 8 1 9
REMARK H PARENT
REMARK Flexibility Score: inf
ROOT
ATOM      1  C   UNL     1      52.974  -2.149  73.007  1.00  0.00     0.006 C 
ENDROOT
BRANCH   1   2
ATOM      2  C   UNL     1      54.046  -3.089  72.432  1.00  0.00     0.053 C 
BRANCH   2   3
ATOM      3  C   UNL     1      54.422  -4.169  73.399  1.00  0.00     0.041 C 
ATOM      4  O   UNL     1      53.537  -4.729  74.097  1.00  0.00    -0.550 OA
ATOM      5  O   UNL     1      55.744  -4.580  73.504  1.00  0.00    -0.550 OA
ENDBRANCH   2   3
ENDBRANCH   1   2
BRANCH   1   6
ATOM      6  C   UNL     1      52.561  -0.998  72.066  1.00  0.00     0.000 C 
BRANCH   6   7
ATOM      7  C   UNL     1      51.127  -0.475  72.266  1.00  0.00    -0.000 C 
BRANCH   7   8
ATOM      8  C   UNL     1      50.055  -1.492  71.849  1.00  0.00    -0.003 C 
ATOM      9  C   UNL     1      48.670  -0.853  71.826  1.00  0.00     0.004 C 
ENDBRANCH   7   8
ENDBRANCH   6   7
ENDBRANCH   1   6
TORSDOF 5
ENDMDL
MODEL 4
REMARK VINA RESULT:    -3.625     13.375     14.577
REMARK INTER + INTRA:          -4.835
REMARK INTER:                  -4.596
REMARK INTRA:                  -0.239
REMARK UNBOUND:                -0.151
REMARK SMILES CCCCCCC(=O)[O-]
REMARK SMILES IDX 5 1 6 2 7 3 8 4 9 5 4 6 3 7 2 8 1 9
REMARK H PARENT
REMARK Flexibility Score: inf
ROOT
ATOM      1  C   UNL     1      50.419  -1.503  71.862  1.00  0.00     0.006 C 
ENDROOT
BRANCH   1   2
ATOM      2  C   UNL     1      51.568  -0.537  72.193  1.00  0.00     0.053 C 
BRANCH   2   3
ATOM      3  C   UNL     1      52.898  -1.223  72.186  1.00  0.00     0.041 C 
ATOM      4  O   UNL     1      53.100  -2.219  72.930  1.00  0.00    -0.550 OA
ATOM      5  O   UNL     1      53.905  -0.784  71.336  1.00  0.00    -0.550 OA
ENDBRANCH   2   3
ENDBRANCH   1   2
BRANCH   1   6
ATOM      6  C   UNL     1      49.011  -0.878  71.946  1.00  0.00     0.000 C 
BRANCH   6   7
ATOM      7  C   UNL     1      48.623  -0.330  73.331  1.00  0.00    -0.000 C 
BRANCH   7   8
ATOM      8  C   UNL     1      48.192   1.143  73.293  1.00  0.00    -0.003 C 
ATOM      9  C   UNL     1      49.321   2.060  73.753  1.00  0.00     0.004 C 
ENDBRANCH   7   8
ENDBRANCH   6   7
ENDBRANCH   1   6
TORSDOF 5
ENDMDL
MODEL 5
REMARK VINA RESULT:    -3.580     13.817     14.829
REMARK INTER + INTRA:          -4.778
REMARK INTER:                  -4.494
REMARK INTRA:                  -0.283
REMARK UNBOUND:                -0.151
REMARK SMILES CCCCCCC(=O)[O-]
REMARK SMILES IDX 5 1 6 2 7 3 8 4 9 5 4 6 3 7 2 8 1 9
REMARK H PARENT
REMARK Flexibility Score: inf
ROOT
ATOM      1  C   UNL     1      51.486  -2.289  73.223  1.00  0.00     0.006 C 
ENDROOT
BRANCH   1   2
ATOM      2  C   UNL     1      52.839  -2.182  72.502  1.00  0.00     0.053 C 
BRANCH   2   3
ATOM      3  C   UNL     1      53.030  -0.841  71.865  1.00  0.00     0.041 C 
ATOM      4  O   UNL     1      54.109  -0.569  71.275  1.00  0.00    -0.550 OA
ATOM      5  O   UNL     1      52.006   0.097  71.891  1.00  0.00    -0.550 OA
ENDBRANCH   2   3
ENDBRANCH   1   2
BRANCH   1   6
ATOM      6  C   UNL     1      50.373  -2.969  72.399  1.00  0.00     0.000 C 
BRANCH   6   7
ATOM      7  C   UNL     1      48.960  -2.400  72.618  1.00  0.00    -0.000 C 
BRANCH   7   8
ATOM      8  C   UNL     1      48.732  -1.067  71.891  1.00  0.00    -0.003 C 
ATOM      9  C   UNL     1      48.542   0.076  72.885  1.00  0.00     0.004 C 
ENDBRANCH   7   8
ENDBRANCH   6   7
ENDBRANCH   1   6
TORSDOF 5
ENDMDL
MODEL 6
REMARK VINA RESULT:    -3.577     13.739     14.854
REMARK INTER + INTRA:          -4.773
REMARK INTER:                  -4.625
REMARK INTRA:                  -0.147
REMARK UNBOUND:                -0.151
REMARK SMILES CCCCCCC(=O)[O-]
REMARK SMILES IDX 5 1 6 2 7 3 8 4 9 5 4 6 3 7 2 8 1 9
REMARK H PARENT
REMARK Flexibility Score: inf
ROOT
ATOM      1  C   UNL     1      52.670  -1.298  72.314  1.00  0.00     0.006 C 
ENDROOT
BRANCH   1   2
ATOM      2  C   UNL     1      52.675  -2.791  72.677  1.00  0.00     0.053 C 
BRANCH   2   3
ATOM      3  C   UNL     1      54.046  -3.386  72.584  1.00  0.00     0.041 C 
ATOM      4  O   UNL     1      54.673  -3.363  71.493  1.00  0.00    -0.550 OA
ATOM      5  O   UNL     1      54.645  -3.935  73.710  1.00  0.00    -0.550 OA
ENDBRANCH   2   3
ENDBRANCH   1   2
BRANCH   1   6
ATOM      6  C   UNL     1      51.265  -0.668  72.212  1.00  0.00     0.000 C 
BRANCH   6   7
ATOM      7  C   UNL     1      50.119  -1.667  71.975  1.00  0.00    -0.000 C 
BRANCH   7   8
ATOM      8  C   UNL     1      48.754  -0.984  71.805  1.00  0.00    -0.003 C 
ATOM      9  C   UNL     1      48.519   0.055  72.898  1.00  0.00     0.004 C 
ENDBRANCH   7   8
ENDBRANCH   6   7
ENDBRANCH   1   6
TORSDOF 5
ENDMDL
MODEL 7
REMARK VINA RESULT:    -3.520     13.507     14.798
REMARK INTER + INTRA:          -4.700
REMARK INTER:                  -4.483
REMARK INTRA:                  -0.217
REMARK UNBOUND:                -0.151
REMARK SMILES CCCCCCC(=O)[O-]
REMARK SMILES IDX 5 1 6 2 7 3 8 4 9 5 4 6 3 7 2 8 1 9
REMARK H PARENT
REMARK Flexibility Score: inf
ROOT
ATOM      1  C   UNL     1      51.448  -0.419  72.184  1.00  0.00     0.006 C 
ENDROOT
BRANCH   1   2
ATOM      2  C   UNL     1      52.224  -1.624  72.739  1.00  0.00     0.053 C 
BRANCH   2   3
ATOM      3  C   UNL     1      53.567  -1.772  72.094  1.00  0.00     0.041 C 
ATOM      4  O   UNL     1      54.194  -2.861  72.181  1.00  0.00    -0.550 OA
ATOM      5  O   UNL     1      54.112  -0.720  71.370  1.00  0.00    -0.550 OA
ENDBRANCH   2   3
ENDBRANCH   1   2
BRANCH   1   6
ATOM      6  C   UNL     1      49.993  -0.308  72.686  1.00  0.00     0.000 C 
BRANCH   6   7
ATOM      7  C   UNL     1      48.980  -1.202  71.949  1.00  0.00    -0.000 C 
BRANCH   7   8
ATOM      8  C   UNL     1      48.735  -2.541  72.660  1.00  0.00    -0.003 C 
ATOM      9  C   UNL     1      48.838  -2.387  74.175  1.00  0.00     0.004 C 
ENDBRANCH   7   8
ENDBRANCH   6   7
ENDBRANCH   1   6
TORSDOF 5
ENDMDL
MODEL 8
REMARK VINA RESULT:    -3.493     13.213     14.472
REMARK INTER + INTRA:          -4.665
REMARK INTER:                  -4.457
REMARK INTRA:                  -0.208
REMARK UNBOUND:                -0.151
REMARK SMILES CCCCCCC(=O)[O-]
REMARK SMILES IDX 5 1 6 2 7 3 8 4 9 5 4 6 3 7 2 8 1 9
REMARK H PARENT
REMARK Flexibility Score: inf
ROOT
ATOM      1  C   UNL     1      50.269  -1.331  71.870  1.00  0.00     0.006 C 
ENDROOT
BRANCH   1   2
ATOM      2  C   UNL     1      51.489  -0.454  72.193  1.00  0.00     0.053 C 
BRANCH   2   3
ATOM      3  C   UNL     1      52.764  -1.239  72.184  1.00  0.00     0.041 C 
ATOM      4  O   UNL     1      52.844  -2.320  72.825  1.00  0.00    -0.550 OA
ATOM      5  O   UNL     1      53.850  -0.797  71.442  1.00  0.00    -0.550 OA
ENDBRANCH   2   3
ENDBRANCH   1   2
BRANCH   1   6
ATOM      6  C   UNL     1      49.100  -1.195  72.868  1.00  0.00     0.000 C 
BRANCH   6   7
ATOM      7  C   UNL     1      48.661  -2.508  73.540  1.00  0.00    -0.000 C 
BRANCH   7   8
ATOM      8  C   UNL     1      49.101  -3.756  72.761  1.00  0.00    -0.003 C 
ATOM      9  C   UNL     1      47.952  -4.748  72.616  1.00  0.00     0.004 C 
ENDBRANCH   7   8
ENDBRANCH   6   7
ENDBRANCH   1   6
TORSDOF 5
ENDMDL
MODEL 9
REMARK VINA RESULT:    -3.358     13.056     14.189
REMARK INTER + INTRA:          -4.490
REMARK INTER:                  -4.373
REMARK INTRA:                  -0.117
REMARK UNBOUND:                -0.151
REMARK SMILES CCCCCCC(=O)[O-]
REMARK SMILES IDX 5 1 6 2 7 3 8 4 9 5 4 6 3 7 2 8 1 9
REMARK H PARENT
REMARK Flexibility Score: inf
ROOT
ATOM      1  C   UNL     1      48.944  -0.555  72.689  1.00  0.00     0.006 C 
ENDROOT
BRANCH   1   2
ATOM      2  C   UNL     1      49.211   0.807  73.351  1.00  0.00     0.053 C 
BRANCH   2   3
ATOM      3  C   UNL     1      47.951   1.593  73.543  1.00  0.00     0.041 C 
ATOM      4  O   UNL     1      47.035   1.148  74.283  1.00  0.00    -0.550 OA
ATOM      5  O   UNL     1      47.803   2.831  72.932  1.00  0.00    -0.550 OA
ENDBRANCH   2   3
ENDBRANCH   1   2
BRANCH   1   6
ATOM      6  C   UNL     1      50.159  -1.158  71.953  1.00  0.00     0.000 C 
BRANCH   6   7
ATOM      7  C   UNL     1      51.498  -0.443  72.209  1.00  0.00    -0.000 C 
BRANCH   7   8
ATOM      8  C   UNL     1      52.688  -1.409  72.286  1.00  0.00    -0.003 C 
ATOM      9  C   UNL     1      53.897  -0.854  71.539  1.00  0.00     0.004 C 
ENDBRANCH   7   8
ENDBRANCH   6   7
ENDBRANCH   1   6
TORSDOF 5
ENDMDL
