MODEL 1
REMARK VINA RESULT:    -5.596      0.000      0.000
REMARK INTER + INTRA:          -6.467
REMARK INTER:                  -6.250
REMARK INTRA:                  -0.218
REMARK UNBOUND:                -0.218
REMARK SMILES CC(C)c1ccc(C(=O)[O-])cc1
REMARK SMILES IDX 7 1 6 2 11 3 5 4 12 5 4 6 8 7 9 8 10 9 2 10 1 11 3 12
REMARK H PARENT
REMARK Flexibility Score: inf
ROOT
ATOM      1  C   UNL     1     118.156 -47.748  29.431  1.00  0.00    -0.003 A 
ATOM      2  C   UNL     1     116.810 -47.712  29.833  1.00  0.00     0.010 A 
ATOM      3  C   UNL     1     118.594 -48.802  28.611  1.00  0.00     0.010 A 
ATOM      4  C   UNL     1     115.919 -48.709  29.423  1.00  0.00     0.004 A 
ATOM      5  C   UNL     1     117.703 -49.799  28.202  1.00  0.00     0.004 A 
ATOM      6  C   UNL     1     116.356 -49.763  28.604  1.00  0.00    -0.045 A 
ENDROOT
BRANCH   1   7
ATOM      7  C   UNL     1     119.102 -46.695  29.862  1.00  0.00     0.071 C 
ATOM      8  O   UNL     1     119.050 -46.227  31.030  1.00  0.00    -0.545 OA
ATOM      9  O   UNL     1     120.062 -46.208  28.983  1.00  0.00    -0.545 OA
ENDBRANCH   1   7
BRANCH   6  10
ATOM     10  C   UNL     1     115.378 -50.839  28.166  1.00  0.00     0.013 C 
ATOM     11  C   UNL     1     113.965 -50.269  28.005  1.00  0.00     0.012 C 
ATOM     12  C   UNL     1     115.849 -51.519  26.875  1.00  0.00     0.012 C 
ENDBRANCH   6  10
TORSDOF 2
ENDMDL
MODEL 2
REMARK VINA RESULT:    -5.276      3.865      5.066
REMARK INTER + INTRA:          -6.111
REMARK INTER:                  -5.899
REMARK INTRA:                  -0.212
REMARK UNBOUND:                -0.218
REMARK SMILES CC(C)c1ccc(C(=O)[O-])cc1
REMARK SMILES IDX 7 1 6 2 11 3 5 4 12 5 4 6 8 7 9 8 10 9 2 10 1 11 3 12
REMARK H PARENT
REMARK Flexibility Score: inf
ROOT
ATOM      1  C   UNL     1     113.406 -49.650  29.537  1.00  0.00    -0.003 A 
ATOM      2  C   UNL     1     114.588 -49.244  30.181  1.00  0.00     0.010 A 
ATOM      3  C   UNL     1     113.496 -50.287  28.289  1.00  0.00     0.010 A 
ATOM      4  C   UNL     1     115.834 -49.472  29.589  1.00  0.00     0.004 A 
ATOM      5  C   UNL     1     114.742 -50.514  27.696  1.00  0.00     0.004 A 
ATOM      6  C   UNL     1     115.925 -50.109  28.340  1.00  0.00    -0.045 A 
ENDROOT
BRANCH   1   7
ATOM      7  C   UNL     1     112.086 -49.411  30.161  1.00  0.00     0.071 C 
ATOM      8  O   UNL     1     111.639 -50.200  31.036  1.00  0.00    -0.545 OA
ATOM      9  O   UNL     1     111.320 -48.312  29.791  1.00  0.00    -0.545 OA
ENDBRANCH   1   7
BRANCH   6  10
ATOM     10  C   UNL     1     117.284 -50.350  27.708  1.00  0.00     0.013 C 
ATOM     11  C   UNL     1     118.405 -50.228  28.746  1.00  0.00     0.012 C 
ATOM     12  C   UNL     1     117.330 -51.710  27.002  1.00  0.00     0.012 C 
ENDBRANCH   6  10
TORSDOF 2
ENDMDL
MODEL 3
REMARK VINA RESULT:    -5.259      3.851      5.122
REMARK INTER + INTRA:          -6.092
REMARK INTER:                  -5.880
REMARK INTRA:                  -0.212
REMARK UNBOUND:                -0.218
REMARK SMILES CC(C)c1ccc(C(=O)[O-])cc1
REMARK SMILES IDX 7 1 6 2 11 3 5 4 12 5 4 6 8 7 9 8 10 9 2 10 1 11 3 12
REMARK H PARENT
REMARK Flexibility Score: inf
ROOT
ATOM      1  C   UNL     1     113.403 -49.656  29.542  1.00  0.00    -0.003 A 
ATOM      2  C   UNL     1     113.509 -50.319  28.307  1.00  0.00     0.010 A 
ATOM      3  C   UNL     1     114.573 -49.213  30.179  1.00  0.00     0.010 A 
ATOM      4  C   UNL     1     114.760 -50.534  27.722  1.00  0.00     0.004 A 
ATOM      5  C   UNL     1     115.824 -49.429  29.594  1.00  0.00     0.004 A 
ATOM      6  C   UNL     1     115.932 -50.092  28.359  1.00  0.00    -0.045 A 
ENDROOT
BRANCH   1   7
ATOM      7  C   UNL     1     112.080 -49.426  30.165  1.00  0.00     0.071 C 
ATOM      8  O   UNL     1     111.613 -50.247  30.998  1.00  0.00    -0.545 OA
ATOM      9  O   UNL     1     111.335 -48.298  29.839  1.00  0.00    -0.545 OA
ENDBRANCH   1   7
BRANCH   6  10
ATOM     10  C   UNL     1     117.284 -50.332  27.712  1.00  0.00     0.013 C 
ATOM     11  C   UNL     1     118.417 -50.209  28.737  1.00  0.00     0.012 C 
ATOM     12  C   UNL     1     117.323 -51.692  27.005  1.00  0.00     0.012 C 
ENDBRANCH   6  10
TORSDOF 2
ENDMDL
MODEL 4
REMARK VINA RESULT:    -5.072      3.176      5.304
REMARK INTER + INTRA:          -5.882
REMARK INTER:                  -5.664
REMARK INTRA:                  -0.219
REMARK UNBOUND:                -0.218
REMARK SMILES CC(C)c1ccc(C(=O)[O-])cc1
REMARK SMILES IDX 7 1 6 2 11 3 5 4 12 5 4 6 8 7 9 8 10 9 2 10 1 11 3 12
REMARK H PARENT
REMARK Flexibility Score: inf
ROOT
ATOM      1  C   UNL     1     116.216 -50.076  28.243  1.00  0.00    -0.003 A 
ATOM      2  C   UNL     1     117.597 -50.075  27.978  1.00  0.00     0.010 A 
ATOM      3  C   UNL     1     115.690 -49.103  29.109  1.00  0.00     0.010 A 
ATOM      4  C   UNL     1     118.432 -49.121  28.566  1.00  0.00     0.004 A 
ATOM      5  C   UNL     1     116.525 -48.150  29.698  1.00  0.00     0.004 A 
ATOM      6  C   UNL     1     117.906 -48.148  29.433  1.00  0.00    -0.045 A 
ENDROOT
BRANCH   1   7
ATOM      7  C   UNL     1     115.328 -51.083  27.622  1.00  0.00     0.071 C 
ATOM      8  O   UNL     1     115.803 -51.990  26.887  1.00  0.00    -0.545 OA
ATOM      9  O   UNL     1     113.956 -51.043  27.842  1.00  0.00    -0.545 OA
ENDBRANCH   1   7
BRANCH   6  10
ATOM     10  C   UNL     1     118.825 -47.118  30.065  1.00  0.00     0.013 C 
ATOM     11  C   UNL     1     119.637 -46.374  28.999  1.00  0.00     0.012 C 
ATOM     12  C   UNL     1     118.036 -46.139  30.941  1.00  0.00     0.012 C 
ENDBRANCH   6  10
TORSDOF 2
ENDMDL
MODEL 5
REMARK VINA RESULT:    -5.067      1.406      2.037
REMARK INTER + INTRA:          -5.877
REMARK INTER:                  -5.667
REMARK INTRA:                  -0.210
REMARK UNBOUND:                -0.218
REMARK SMILES CC(C)c1ccc(C(=O)[O-])cc1
REMARK SMILES IDX 7 1 6 2 11 3 5 4 12 5 4 6 8 7 9 8 10 9 2 10 1 11 3 12
REMARK H PARENT
REMARK Flexibility Score: inf
ROOT
ATOM      1  C   UNL     1     117.448 -47.867  30.296  1.00  0.00    -0.003 A 
ATOM      2  C   UNL     1     116.166 -48.425  30.156  1.00  0.00     0.010 A 
ATOM      3  C   UNL     1     118.455 -48.239  29.390  1.00  0.00     0.010 A 
ATOM      4  C   UNL     1     115.896 -49.337  29.131  1.00  0.00     0.004 A 
ATOM      5  C   UNL     1     118.185 -49.151  28.366  1.00  0.00     0.004 A 
ATOM      6  C   UNL     1     116.903 -49.710  28.225  1.00  0.00    -0.045 A 
ENDROOT
BRANCH   1   7
ATOM      7  C   UNL     1     117.737 -46.901  31.379  1.00  0.00     0.071 C 
ATOM      8  O   UNL     1     117.666 -45.661  31.168  1.00  0.00    -0.545 OA
ATOM      9  O   UNL     1     118.092 -47.349  32.646  1.00  0.00    -0.545 OA
ENDBRANCH   1   7
BRANCH   6  10
ATOM     10  C   UNL     1     116.596 -50.701  27.116  1.00  0.00     0.013 C 
ATOM     11  C   UNL     1     117.611 -51.849  27.104  1.00  0.00     0.012 C 
ATOM     12  C   UNL     1     115.162 -51.232  27.232  1.00  0.00     0.012 C 
ENDBRANCH   6  10
TORSDOF 2
ENDMDL
MODEL 6
REMARK VINA RESULT:    -5.052      6.060      7.611
REMARK INTER + INTRA:          -5.860
REMARK INTER:                  -5.650
REMARK INTRA:                  -0.210
REMARK UNBOUND:                -0.218
REMARK SMILES CC(C)c1ccc(C(=O)[O-])cc1
REMARK SMILES IDX 7 1 6 2 11 3 5 4 12 5 4 6 8 7 9 8 10 9 2 10 1 11 3 12
REMARK H PARENT
REMARK Flexibility Score: inf
ROOT
ATOM      1  C   UNL     1     110.411 -49.152  32.592  1.00  0.00    -0.003 A 
ATOM      2  C   UNL     1     110.351 -47.974  31.827  1.00  0.00     0.010 A 
ATOM      3  C   UNL     1     111.244 -50.199  32.165  1.00  0.00     0.010 A 
ATOM      4  C   UNL     1     111.108 -47.848  30.658  1.00  0.00     0.004 A 
ATOM      5  C   UNL     1     112.000 -50.072  30.996  1.00  0.00     0.004 A 
ATOM      6  C   UNL     1     111.940 -48.895  30.230  1.00  0.00    -0.045 A 
ENDROOT
BRANCH   1   7
ATOM      7  C   UNL     1     109.612 -49.290  33.830  1.00  0.00     0.071 C 
ATOM      8  O   UNL     1     109.662 -48.406  34.727  1.00  0.00    -0.545 OA
ATOM      9  O   UNL     1     108.794 -50.398  34.020  1.00  0.00    -0.545 OA
ENDBRANCH   1   7
BRANCH   6  10
ATOM     10  C   UNL     1     112.757 -48.743  28.959  1.00  0.00     0.013 C 
ATOM     11  C   UNL     1     113.762 -47.593  29.082  1.00  0.00     0.012 C 
ATOM     12  C   UNL     1     113.462 -50.056  28.596  1.00  0.00     0.012 C 
ENDBRANCH   6  10
TORSDOF 2
ENDMDL
MODEL 7
REMARK VINA RESULT:    -4.993      2.876      4.210
REMARK INTER + INTRA:          -5.794
REMARK INTER:                  -5.586
REMARK INTRA:                  -0.208
REMARK UNBOUND:                -0.218
REMARK SMILES CC(C)c1ccc(C(=O)[O-])cc1
REMARK SMILES IDX 7 1 6 2 11 3 5 4 12 5 4 6 8 7 9 8 10 9 2 10 1 11 3 12
REMARK H PARENT
REMARK Flexibility Score: inf
ROOT
ATOM      1  C   UNL     1     116.049 -50.089  28.369  1.00  0.00    -0.003 A 
ATOM      2  C   UNL     1     115.896 -49.371  29.568  1.00  0.00     0.010 A 
ATOM      3  C   UNL     1     114.901 -50.507  27.676  1.00  0.00     0.010 A 
ATOM      4  C   UNL     1     114.622 -49.076  30.062  1.00  0.00     0.004 A 
ATOM      5  C   UNL     1     113.627 -50.212  28.170  1.00  0.00     0.004 A 
ATOM      6  C   UNL     1     113.473 -49.494  29.369  1.00  0.00    -0.045 A 
ENDROOT
BRANCH   1   7
ATOM      7  C   UNL     1     117.395 -50.403  27.842  1.00  0.00     0.071 C 
ATOM      8  O   UNL     1     118.339 -49.577  27.964  1.00  0.00    -0.545 OA
ATOM      9  O   UNL     1     117.638 -51.615  27.206  1.00  0.00    -0.545 OA
ENDBRANCH   1   7
BRANCH   6  10
ATOM     10  C   UNL     1     112.096 -49.166  29.917  1.00  0.00     0.013 C 
ATOM     11  C   UNL     1     111.690 -50.153  31.017  1.00  0.00     0.012 C 
ATOM     12  C   UNL     1     112.033 -47.720  30.422  1.00  0.00     0.012 C 
ENDBRANCH   6  10
TORSDOF 2
ENDMDL
MODEL 8
REMARK VINA RESULT:    -4.973      3.260      4.558
REMARK INTER + INTRA:          -5.772
REMARK INTER:                  -5.551
REMARK INTRA:                  -0.220
REMARK UNBOUND:                -0.218
REMARK SMILES CC(C)c1ccc(C(=O)[O-])cc1
REMARK SMILES IDX 7 1 6 2 11 3 5 4 12 5 4 6 8 7 9 8 10 9 2 10 1 11 3 12
REMARK H PARENT
REMARK Flexibility Score: inf
ROOT
ATOM      1  C   UNL     1     113.922 -48.384  29.608  1.00  0.00    -0.003 A 
ATOM      2  C   UNL     1     115.143 -47.850  30.054  1.00  0.00     0.010 A 
ATOM      3  C   UNL     1     113.937 -49.525  28.790  1.00  0.00     0.010 A 
ATOM      4  C   UNL     1     116.354 -48.444  29.689  1.00  0.00     0.004 A 
ATOM      5  C   UNL     1     115.148 -50.120  28.424  1.00  0.00     0.004 A 
ATOM      6  C   UNL     1     116.371 -49.585  28.869  1.00  0.00    -0.045 A 
ENDROOT
BRANCH   1   7
ATOM      7  C   UNL     1     112.637 -47.758  29.993  1.00  0.00     0.071 C 
ATOM      8  O   UNL     1     111.546 -48.349  29.777  1.00  0.00    -0.545 OA
ATOM      9  O   UNL     1     112.618 -46.508  30.601  1.00  0.00    -0.545 OA
ENDBRANCH   1   7
BRANCH   6  10
ATOM     10  C   UNL     1     117.693 -50.221  28.481  1.00  0.00     0.013 C 
ATOM     11  C   UNL     1     117.512 -51.211  27.325  1.00  0.00     0.012 C 
ATOM     12  C   UNL     1     118.738 -49.154  28.135  1.00  0.00     0.012 C 
ENDBRANCH   6  10
TORSDOF 2
ENDMDL
MODEL 9
REMARK VINA RESULT:    -4.890      6.686      8.234
REMARK INTER + INTRA:          -5.679
REMARK INTER:                  -5.478
REMARK INTRA:                  -0.201
REMARK UNBOUND:                -0.218
REMARK SMILES CC(C)c1ccc(C(=O)[O-])cc1
REMARK SMILES IDX 7 1 6 2 11 3 5 4 12 5 4 6 8 7 9 8 10 9 2 10 1 11 3 12
REMARK H PARENT
REMARK Flexibility Score: inf
ROOT
ATOM      1  C   UNL     1     109.992 -49.049  33.124  1.00  0.00    -0.003 A 
ATOM      2  C   UNL     1     109.772 -47.828  32.462  1.00  0.00     0.010 A 
ATOM      3  C   UNL     1     111.057 -49.866  32.710  1.00  0.00     0.010 A 
ATOM      4  C   UNL     1     110.600 -47.434  31.408  1.00  0.00     0.004 A 
ATOM      5  C   UNL     1     111.884 -49.471  31.654  1.00  0.00     0.004 A 
ATOM      6  C   UNL     1     111.665 -48.250  30.991  1.00  0.00    -0.045 A 
ENDROOT
BRANCH   1   7
ATOM      7  C   UNL     1     109.118 -49.470  34.242  1.00  0.00     0.071 C 
ATOM      8  O   UNL     1     108.474 -50.551  34.179  1.00  0.00    -0.545 OA
ATOM      9  O   UNL     1     108.997 -48.679  35.378  1.00  0.00    -0.545 OA
ENDBRANCH   1   7
BRANCH   6  10
ATOM     10  C   UNL     1     112.556 -47.809  29.845  1.00  0.00     0.013 C 
ATOM     11  C   UNL     1     113.989 -47.554  30.325  1.00  0.00     0.012 C 
ATOM     12  C   UNL     1     112.530 -48.830  28.701  1.00  0.00     0.012 C 
ENDBRANCH   6  10
TORSDOF 2
ENDMDL
