MODEL 1
REMARK VINA RESULT:    -4.726      0.000      0.000
REMARK INTER + INTRA:          -6.271
REMARK INTER:                  -5.831
REMARK INTRA:                  -0.440
REMARK UNBOUND:                -0.440
REMARK SMILES C=CC[C@@H](C)C(=O)CC
REMARK SMILES IDX 4 1 5 2 6 3 7 4 8 5 9 6 3 7 2 8 1 9
REMARK H PARENT
REMARK Flexibility Score: inf
ROOT
ATOM      1  C   UNL     1      26.865  56.245 140.313  1.00  0.00     0.057 C 
ATOM      2  C   UNL     1      27.713  55.122 139.700  1.00  0.00     0.016 C 
ENDROOT
BRANCH   1   3
ATOM      3  C   UNL     1      27.653  56.954 141.394  1.00  0.00     0.135 C 
ATOM      4  O   UNL     1      28.869  57.046 141.295  1.00  0.00    -0.299 OA
BRANCH   3   5
ATOM      5  C   UNL     1      26.969  57.547 142.597  1.00  0.00     0.072 C 
ATOM      6  C   UNL     1      25.972  56.559 143.193  1.00  0.00     0.012 C 
ENDBRANCH   3   5
ENDBRANCH   1   3
BRANCH   1   7
ATOM      7  C   UNL     1      26.403  57.259 139.248  1.00  0.00     0.038 C 
BRANCH   7   8
ATOM      8  C   UNL     1      24.929  57.134 138.967  1.00  0.00    -0.034 C 
ATOM      9  C   UNL     1      24.154  56.270 139.629  1.00  0.00     0.004 C 
ENDBRANCH   7   8
ENDBRANCH   1   7
TORSDOF 4
ENDMDL
MODEL 2
REMARK VINA RESULT:    -4.678      2.252      3.794
REMARK INTER + INTRA:          -6.212
REMARK INTER:                  -5.950
REMARK INTRA:                  -0.262
REMARK UNBOUND:                -0.440
REMARK SMILES C=CC[C@@H](C)C(=O)CC
REMARK SMILES IDX 4 1 5 2 6 3 7 4 8 5 9 6 3 7 2 8 1 9
REMARK H PARENT
REMARK Flexibility Score: inf
ROOT
ATOM      1  C   UNL     1      26.452  58.482 139.416  1.00  0.00     0.057 C 
ATOM      2  C   UNL     1      27.237  59.243 140.494  1.00  0.00     0.016 C 
ENDROOT
BRANCH   1   3
ATOM      3  C   UNL     1      27.409  57.886 138.406  1.00  0.00     0.135 C 
ATOM      4  O   UNL     1      28.234  57.058 138.769  1.00  0.00    -0.299 OA
BRANCH   3   5
ATOM      5  C   UNL     1      27.371  58.296 136.958  1.00  0.00     0.072 C 
ATOM      6  C   UNL     1      27.836  59.739 136.793  1.00  0.00     0.012 C 
ENDBRANCH   3   5
ENDBRANCH   1   3
BRANCH   1   7
ATOM      7  C   UNL     1      25.573  57.372 140.026  1.00  0.00     0.038 C 
BRANCH   7   8
ATOM      8  C   UNL     1      24.526  56.897 139.054  1.00  0.00    -0.034 C 
ATOM      9  C   UNL     1      23.542  56.071 139.422  1.00  0.00     0.004 C 
ENDBRANCH   7   8
ENDBRANCH   1   7
TORSDOF 4
ENDMDL
MODEL 3
REMARK VINA RESULT:    -4.670      1.143      1.829
REMARK INTER + INTRA:          -6.202
REMARK INTER:                  -5.675
REMARK INTRA:                  -0.527
REMARK UNBOUND:                -0.440
REMARK SMILES C=CC[C@@H](C)C(=O)CC
REMARK SMILES IDX 4 1 5 2 6 3 7 4 8 5 9 6 3 7 2 8 1 9
REMARK H PARENT
REMARK Flexibility Score: inf
ROOT
ATOM      1  C   UNL     1      26.900  57.817 139.093  1.00  0.00     0.057 C 
ATOM      2  C   UNL     1      26.429  59.226 139.482  1.00  0.00     0.016 C 
ENDROOT
BRANCH   1   3
ATOM      3  C   UNL     1      27.344  57.064 140.328  1.00  0.00     0.135 C 
ATOM      4  O   UNL     1      27.881  55.971 140.211  1.00  0.00    -0.299 OA
BRANCH   3   5
ATOM      5  C   UNL     1      27.132  57.631 141.707  1.00  0.00     0.072 C 
ATOM      6  C   UNL     1      26.066  56.842 142.458  1.00  0.00     0.012 C 
ENDBRANCH   3   5
ENDBRANCH   1   3
BRANCH   1   7
ATOM      7  C   UNL     1      25.795  57.026 138.364  1.00  0.00     0.038 C 
BRANCH   7   8
ATOM      8  C   UNL     1      24.483  57.102 139.098  1.00  0.00    -0.034 C 
ATOM      9  C   UNL     1      23.851  56.007 139.531  1.00  0.00     0.004 C 
ENDBRANCH   7   8
ENDBRANCH   1   7
TORSDOF 4
ENDMDL
MODEL 4
REMARK VINA RESULT:    -4.659      2.014      2.588
REMARK INTER + INTRA:          -6.189
REMARK INTER:                  -5.844
REMARK INTRA:                  -0.345
REMARK UNBOUND:                -0.440
REMARK SMILES C=CC[C@@H](C)C(=O)CC
REMARK SMILES IDX 4 1 5 2 6 3 7 4 8 5 9 6 3 7 2 8 1 9
REMARK H PARENT
REMARK Flexibility Score: inf
ROOT
ATOM      1  C   UNL     1      26.649  57.189 138.440  1.00  0.00     0.057 C 
ATOM      2  C   UNL     1      27.017  57.911 137.136  1.00  0.00     0.016 C 
ENDROOT
BRANCH   1   3
ATOM      3  C   UNL     1      27.719  57.433 139.483  1.00  0.00     0.135 C 
ATOM      4  O   UNL     1      27.951  58.574 139.857  1.00  0.00    -0.299 OA
BRANCH   3   5
ATOM      5  C   UNL     1      28.513  56.294 140.067  1.00  0.00     0.072 C 
ATOM      6  C   UNL     1      27.876  54.954 139.715  1.00  0.00     0.012 C 
ENDBRANCH   3   5
ENDBRANCH   1   3
BRANCH   1   7
ATOM      7  C   UNL     1      25.278  57.645 138.978  1.00  0.00     0.038 C 
BRANCH   7   8
ATOM      8  C   UNL     1      24.588  56.543 139.739  1.00  0.00    -0.034 C 
ATOM      9  C   UNL     1      23.373  56.103 139.399  1.00  0.00     0.004 C 
ENDBRANCH   7   8
ENDBRANCH   1   7
TORSDOF 4
ENDMDL
MODEL 5
REMARK VINA RESULT:    -4.640      1.356      2.479
REMARK INTER + INTRA:          -6.165
REMARK INTER:                  -5.954
REMARK INTRA:                  -0.211
REMARK UNBOUND:                -0.440
REMARK SMILES C=CC[C@@H](C)C(=O)CC
REMARK SMILES IDX 4 1 5 2 6 3 7 4 8 5 9 6 3 7 2 8 1 9
REMARK H PARENT
REMARK Flexibility Score: inf
ROOT
ATOM      1  C   UNL     1      26.389  57.097 141.860  1.00  0.00     0.057 C 
ATOM      2  C   UNL     1      25.956  56.593 143.244  1.00  0.00     0.016 C 
ENDROOT
BRANCH   1   3
ATOM      3  C   UNL     1      27.899  57.158 141.784  1.00  0.00     0.135 C 
ATOM      4  O   UNL     1      28.477  56.676 140.820  1.00  0.00    -0.299 OA
BRANCH   3   5
ATOM      5  C   UNL     1      28.711  57.800 142.879  1.00  0.00     0.072 C 
ATOM      6  C   UNL     1      30.012  58.369 142.325  1.00  0.00     0.012 C 
ENDBRANCH   3   5
ENDBRANCH   1   3
BRANCH   1   7
ATOM      7  C   UNL     1      25.842  56.203 140.730  1.00  0.00     0.038 C 
BRANCH   7   8
ATOM      8  C   UNL     1      25.082  57.005 139.707  1.00  0.00    -0.034 C 
ATOM      9  C   UNL     1      25.623  58.062 139.094  1.00  0.00     0.004 C 
ENDBRANCH   7   8
ENDBRANCH   1   7
TORSDOF 4
ENDMDL
MODEL 6
REMARK VINA RESULT:    -4.611      1.545      2.497
REMARK INTER + INTRA:          -6.129
REMARK INTER:                  -5.801
REMARK INTRA:                  -0.328
REMARK UNBOUND:                -0.440
REMARK SMILES C=CC[C@@H](C)C(=O)CC
REMARK SMILES IDX 4 1 5 2 6 3 7 4 8 5 9 6 3 7 2 8 1 9
REMARK H PARENT
REMARK Flexibility Score: inf
ROOT
ATOM      1  C   UNL     1      25.267  56.957 140.100  1.00  0.00     0.057 C 
ATOM      2  C   UNL     1      24.225  55.891 139.734  1.00  0.00     0.016 C 
ENDROOT
BRANCH   1   3
ATOM      3  C   UNL     1      26.502  56.294 140.675  1.00  0.00     0.135 C 
ATOM      4  O   UNL     1      27.071  55.419 140.038  1.00  0.00    -0.299 OA
BRANCH   3   5
ATOM      5  C   UNL     1      27.042  56.689 142.023  1.00  0.00     0.072 C 
ATOM      6  C   UNL     1      25.933  56.697 143.070  1.00  0.00     0.012 C 
ENDBRANCH   3   5
ENDBRANCH   1   3
BRANCH   1   7
ATOM      7  C   UNL     1      25.653  57.821 138.883  1.00  0.00     0.038 C 
BRANCH   7   8
ATOM      8  C   UNL     1      26.335  59.096 139.304  1.00  0.00    -0.034 C 
ATOM      9  C   UNL     1      27.340  59.626 138.600  1.00  0.00     0.004 C 
ENDBRANCH   7   8
ENDBRANCH   1   7
TORSDOF 4
ENDMDL
MODEL 7
REMARK VINA RESULT:    -4.472      2.095      3.388
REMARK INTER + INTRA:          -5.958
REMARK INTER:                  -5.505
REMARK INTRA:                  -0.453
REMARK UNBOUND:                -0.440
REMARK SMILES C=CC[C@@H](C)C(=O)CC
REMARK SMILES IDX 4 1 5 2 6 3 7 4 8 5 9 6 3 7 2 8 1 9
REMARK H PARENT
REMARK Flexibility Score: inf
ROOT
ATOM      1  C   UNL     1      26.222  57.235 138.812  1.00  0.00     0.057 C 
ATOM      2  C   UNL     1      24.722  56.984 139.020  1.00  0.00     0.016 C 
ENDROOT
BRANCH   1   3
ATOM      3  C   UNL     1      27.025  56.143 139.486  1.00  0.00     0.135 C 
ATOM      4  O   UNL     1      26.886  54.981 139.129  1.00  0.00    -0.299 OA
BRANCH   3   5
ATOM      5  C   UNL     1      27.992  56.457 140.596  1.00  0.00     0.072 C 
ATOM      6  C   UNL     1      29.397  56.673 140.044  1.00  0.00     0.012 C 
ENDBRANCH   3   5
ENDBRANCH   1   3
BRANCH   1   7
ATOM      7  C   UNL     1      26.587  57.309 137.316  1.00  0.00     0.038 C 
BRANCH   7   8
ATOM      8  C   UNL     1      27.446  58.508 137.014  1.00  0.00    -0.034 C 
ATOM      9  C   UNL     1      27.660  59.470 137.917  1.00  0.00     0.004 C 
ENDBRANCH   7   8
ENDBRANCH   1   7
TORSDOF 4
ENDMDL
MODEL 8
REMARK VINA RESULT:    -4.432      1.489      3.247
REMARK INTER + INTRA:          -5.908
REMARK INTER:                  -5.451
REMARK INTRA:                  -0.458
REMARK UNBOUND:                -0.440
REMARK SMILES C=CC[C@@H](C)C(=O)CC
REMARK SMILES IDX 4 1 5 2 6 3 7 4 8 5 9 6 3 7 2 8 1 9
REMARK H PARENT
REMARK Flexibility Score: inf
ROOT
ATOM      1  C   UNL     1      27.675  57.492 139.995  1.00  0.00     0.057 C 
ATOM      2  C   UNL     1      28.924  56.608 140.131  1.00  0.00     0.016 C 
ENDROOT
BRANCH   1   3
ATOM      3  C   UNL     1      26.566  56.715 139.319  1.00  0.00     0.135 C 
ATOM      4  O   UNL     1      26.752  55.550 138.996  1.00  0.00    -0.299 OA
BRANCH   3   5
ATOM      5  C   UNL     1      25.233  57.352 139.028  1.00  0.00     0.072 C 
ATOM      6  C   UNL     1      24.091  56.413 139.404  1.00  0.00     0.012 C 
ENDBRANCH   3   5
ENDBRANCH   1   3
BRANCH   1   7
ATOM      7  C   UNL     1      27.193  58.013 141.364  1.00  0.00     0.038 C 
BRANCH   7   8
ATOM      8  C   UNL     1      27.127  56.909 142.385  1.00  0.00    -0.034 C 
ATOM      9  C   UNL     1      26.001  56.624 143.046  1.00  0.00     0.004 C 
ENDBRANCH   7   8
ENDBRANCH   1   7
TORSDOF 4
ENDMDL
