MODEL 1
REMARK VINA RESULT:    -2.031      0.000      0.000
REMARK INTER + INTRA:          -6.275
REMARK INTER:                  -3.811
REMARK INTRA:                  -2.463
REMARK UNBOUND:                -2.463
REMARK SMILES O=C([O-])CCCCCCCCCCCCCCC(=O)[O-]
REMARK SMILES IDX 10 1 9 2 8 3 7 4 6 5 5 6 4 7 2 8 1 9 3 10 11 11 12 12 13 13
REMARK SMILES IDX 14 14 15 15 16 16 17 17 18 18 19 19 20 20
REMARK H PARENT
REMARK Flexibility Score: inf
ROOT
ATOM      1  C   UNL     1     174.851 204.538 199.615  1.00  0.00     0.000 C 
ENDROOT
BRANCH   1   2
ATOM      2  C   UNL     1     174.639 205.687 198.612  1.00  0.00     0.000 C 
BRANCH   2   3
ATOM      3  C   UNL     1     173.174 205.777 198.129  1.00  0.00     0.000 C 
BRANCH   3   4
ATOM      4  C   UNL     1     172.367 206.902 198.806  1.00  0.00     0.000 C 
BRANCH   4   5
ATOM      5  C   UNL     1     173.202 207.876 199.654  1.00  0.00     0.000 C 
BRANCH   5   6
ATOM      6  C   UNL     1     172.622 208.084 201.063  1.00  0.00     0.006 C 
BRANCH   6   7
ATOM      7  C   UNL     1     172.600 206.782 201.876  1.00  0.00     0.053 C 
BRANCH   7   8
ATOM      8  C   UNL     1     171.220 206.444 202.351  1.00  0.00     0.041 C 
ATOM      9  O   UNL     1     170.276 207.261 202.188  1.00  0.00    -0.550 OA
ATOM     10  O   UNL     1     170.984 205.240 203.003  1.00  0.00    -0.550 OA
ENDBRANCH   7   8
ENDBRANCH   6   7
ENDBRANCH   5   6
ENDBRANCH   4   5
ENDBRANCH   3   4
ENDBRANCH   2   3
ENDBRANCH   1   2
BRANCH   1  11
ATOM     11  C   UNL     1     176.323 204.110 199.715  1.00  0.00     0.000 C 
BRANCH  11  12
ATOM     12  C   UNL     1     176.953 204.470 201.072  1.00  0.00     0.000 C 
BRANCH  12  13
ATOM     13  C   UNL     1     176.050 205.406 201.902  1.00  0.00     0.000 C 
BRANCH  13  14
ATOM     14  C   UNL     1     176.766 206.682 202.378  1.00  0.00     0.000 C 
BRANCH  14  15
ATOM     15  C   UNL     1     176.241 207.951 201.688  1.00  0.00     0.000 C 
BRANCH  15  16
ATOM     16  C   UNL     1     176.794 208.124 200.261  1.00  0.00     0.006 C 
BRANCH  16  17
ATOM     17  C   UNL     1     178.281 207.769 200.117  1.00  0.00     0.053 C 
BRANCH  17  18
ATOM     18  C   UNL     1     178.557 207.007 198.856  1.00  0.00     0.041 C 
ATOM     19  O   UNL     1     178.054 207.384 197.765  1.00  0.00    -0.550 OA
ATOM     20  O   UNL     1     179.399 205.903 198.881  1.00  0.00    -0.550 OA
ENDBRANCH  17  18
ENDBRANCH  16  17
ENDBRANCH  15  16
ENDBRANCH  14  15
ENDBRANCH  13  14
ENDBRANCH  12  13
ENDBRANCH  11  12
ENDBRANCH   1  11
TORSDOF 15
ENDMDL
MODEL 2
REMARK VINA RESULT:    -1.998      1.452      2.234
REMARK INTER + INTRA:          -6.213
REMARK INTER:                  -3.745
REMARK INTRA:                  -2.468
REMARK UNBOUND:                -2.463
REMARK SMILES O=C([O-])CCCCCCCCCCCCCCC(=O)[O-]
REMARK SMILES IDX 10 1 9 2 8 3 7 4 6 5 5 6 4 7 2 8 1 9 3 10 11 11 12 12 13 13
REMARK SMILES IDX 14 14 15 15 16 16 17 17 18 18 19 19 20 20
REMARK H PARENT
REMARK Flexibility Score: inf
ROOT
ATOM      1  C   UNL     1     177.638 203.640 199.151  1.00  0.00     0.000 C 
ENDROOT
BRANCH   1   2
ATOM      2  C   UNL     1     176.204 204.144 198.908  1.00  0.00     0.000 C 
BRANCH   2   3
ATOM      3  C   UNL     1     175.909 204.363 197.408  1.00  0.00     0.000 C 
BRANCH   3   4
ATOM      4  C   UNL     1     174.930 205.521 197.132  1.00  0.00     0.000 C 
BRANCH   4   5
ATOM      5  C   UNL     1     174.780 206.529 198.284  1.00  0.00     0.000 C 
BRANCH   5   6
ATOM      6  C   UNL     1     173.382 206.494 198.925  1.00  0.00     0.006 C 
BRANCH   6   7
ATOM      7  C   UNL     1     173.418 205.948 200.359  1.00  0.00     0.053 C 
BRANCH   7   8
ATOM      8  C   UNL     1     172.839 206.919 201.341  1.00  0.00     0.041 C 
ATOM      9  O   UNL     1     173.201 208.125 201.329  1.00  0.00    -0.550 OA
ATOM     10  O   UNL     1     171.922 206.485 202.292  1.00  0.00    -0.550 OA
ENDBRANCH   7   8
ENDBRANCH   6   7
ENDBRANCH   5   6
ENDBRANCH   4   5
ENDBRANCH   3   4
ENDBRANCH   2   3
ENDBRANCH   1   2
BRANCH   1  11
ATOM     11  C   UNL     1     178.177 204.039 200.533  1.00  0.00     0.000 C 
BRANCH  11  12
ATOM     12  C   UNL     1     177.087 204.630 201.445  1.00  0.00     0.000 C 
BRANCH  12  13
ATOM     13  C   UNL     1     177.514 205.979 202.061  1.00  0.00     0.000 C 
BRANCH  13  14
ATOM     14  C   UNL     1     176.499 207.110 201.815  1.00  0.00     0.000 C 
BRANCH  14  15
ATOM     15  C   UNL     1     176.895 208.017 200.638  1.00  0.00     0.000 C 
BRANCH  15  16
ATOM     16  C   UNL     1     178.331 207.760 200.145  1.00  0.00     0.006 C 
BRANCH  16  17
ATOM     17  C   UNL     1     178.424 207.345 198.670  1.00  0.00     0.053 C 
BRANCH  17  18
ATOM     18  C   UNL     1     179.801 206.880 198.303  1.00  0.00     0.041 C 
ATOM     19  O   UNL     1     180.466 206.173 199.106  1.00  0.00    -0.550 OA
ATOM     20  O   UNL     1     180.334 207.197 197.061  1.00  0.00    -0.550 OA
ENDBRANCH  17  18
ENDBRANCH  16  17
ENDBRANCH  15  16
ENDBRANCH  14  15
ENDBRANCH  13  14
ENDBRANCH  12  13
ENDBRANCH  11  12
ENDBRANCH   1  11
TORSDOF 15
ENDMDL
MODEL 3
REMARK VINA RESULT:    -1.989      3.399      4.971
REMARK INTER + INTRA:          -6.196
REMARK INTER:                  -3.726
REMARK INTRA:                  -2.470
REMARK UNBOUND:                -2.463
REMARK SMILES O=C([O-])CCCCCCCCCCCCCCC(=O)[O-]
REMARK SMILES IDX 10 1 9 2 8 3 7 4 6 5 5 6 4 7 2 8 1 9 3 10 11 11 12 12 13 13
REMARK SMILES IDX 14 14 15 15 16 16 17 17 18 18 19 19 20 20
REMARK H PARENT
REMARK Flexibility Score: inf
ROOT
ATOM      1  C   UNL     1     178.213 204.478 201.451  1.00  0.00     0.000 C 
ENDROOT
BRANCH   1   2
ATOM      2  C   UNL     1     176.999 204.036 200.613  1.00  0.00     0.000 C 
BRANCH   2   3
ATOM      3  C   UNL     1     177.285 204.092 199.096  1.00  0.00     0.000 C 
BRANCH   3   4
ATOM      4  C   UNL     1     176.217 204.860 198.293  1.00  0.00     0.000 C 
BRANCH   4   5
ATOM      5  C   UNL     1     176.357 204.754 196.765  1.00  0.00     0.000 C 
BRANCH   5   6
ATOM      6  C   UNL     1     177.316 205.807 196.183  1.00  0.00     0.006 C 
BRANCH   6   7
ATOM      7  C   UNL     1     176.649 207.182 196.043  1.00  0.00     0.053 C 
BRANCH   7   8
ATOM      8  C   UNL     1     175.492 207.146 195.092  1.00  0.00     0.041 C 
ATOM      9  O   UNL     1     174.314 207.062 195.529  1.00  0.00    -0.550 OA
ATOM     10  O   UNL     1     175.717 207.174 193.720  1.00  0.00    -0.550 OA
ENDBRANCH   7   8
ENDBRANCH   6   7
ENDBRANCH   5   6
ENDBRANCH   4   5
ENDBRANCH   3   4
ENDBRANCH   2   3
ENDBRANCH   1   2
BRANCH   1  11
ATOM     11  C   UNL     1     177.818 205.384 202.627  1.00  0.00     0.000 C 
BRANCH  11  12
ATOM     12  C   UNL     1     176.362 205.871 202.536  1.00  0.00     0.000 C 
BRANCH  12  13
ATOM     13  C   UNL     1     176.270 207.347 202.095  1.00  0.00     0.000 C 
BRANCH  13  14
ATOM     14  C   UNL     1     175.606 207.533 200.719  1.00  0.00     0.000 C 
BRANCH  14  15
ATOM     15  C   UNL     1     176.564 208.125 199.672  1.00  0.00     0.000 C 
BRANCH  15  16
ATOM     16  C   UNL     1     178.045 207.978 200.071  1.00  0.00     0.006 C 
BRANCH  16  17
ATOM     17  C   UNL     1     178.935 207.382 198.969  1.00  0.00     0.053 C 
BRANCH  17  18
ATOM     18  C   UNL     1     180.201 206.802 199.524  1.00  0.00     0.041 C 
ATOM     19  O   UNL     1     180.760 207.335 200.518  1.00  0.00    -0.550 OA
ATOM     20  O   UNL     1     180.740 205.651 198.965  1.00  0.00    -0.550 OA
ENDBRANCH  17  18
ENDBRANCH  16  17
ENDBRANCH  15  16
ENDBRANCH  14  15
ENDBRANCH  13  14
ENDBRANCH  12  13
ENDBRANCH  11  12
ENDBRANCH   1  11
TORSDOF 15
ENDMDL
MODEL 4
REMARK VINA RESULT:    -1.976      3.229      4.694
REMARK INTER + INTRA:          -6.171
REMARK INTER:                  -3.391
REMARK INTRA:                  -2.780
REMARK UNBOUND:                -2.463
REMARK SMILES O=C([O-])CCCCCCCCCCCCCCC(=O)[O-]
REMARK SMILES IDX 10 1 9 2 8 3 7 4 6 5 5 6 4 7 2 8 1 9 3 10 11 11 12 12 13 13
REMARK SMILES IDX 14 14 15 15 16 16 17 17 18 18 19 19 20 20
REMARK H PARENT
REMARK Flexibility Score: inf
ROOT
ATOM      1  C   UNL     1     176.057 206.613 198.934  1.00  0.00     0.000 C 
ENDROOT
BRANCH   1   2
ATOM      2  C   UNL     1     176.348 208.049 199.407  1.00  0.00     0.000 C 
BRANCH   2   3
ATOM      3  C   UNL     1     176.588 208.125 200.930  1.00  0.00     0.000 C 
BRANCH   3   4
ATOM      4  C   UNL     1     175.853 207.030 201.728  1.00  0.00     0.000 C 
BRANCH   4   5
ATOM      5  C   UNL     1     176.756 206.170 202.628  1.00  0.00     0.000 C 
BRANCH   5   6
ATOM      6  C   UNL     1     176.131 204.805 202.966  1.00  0.00     0.006 C 
BRANCH   6   7
ATOM      7  C   UNL     1     174.992 204.438 202.006  1.00  0.00     0.053 C 
BRANCH   7   8
ATOM      8  C   UNL     1     175.326 203.236 201.177  1.00  0.00     0.041 C 
ATOM      9  O   UNL     1     175.764 202.190 201.725  1.00  0.00    -0.550 OA
ATOM     10  O   UNL     1     175.183 203.281 199.795  1.00  0.00    -0.550 OA
ENDBRANCH   7   8
ENDBRANCH   6   7
ENDBRANCH   5   6
ENDBRANCH   4   5
ENDBRANCH   3   4
ENDBRANCH   2   3
ENDBRANCH   1   2
BRANCH   1  11
ATOM     11  C   UNL     1     177.184 206.041 198.060  1.00  0.00     0.000 C 
BRANCH  11  12
ATOM     12  C   UNL     1     178.252 207.091 197.708  1.00  0.00     0.000 C 
BRANCH  12  13
ATOM     13  C   UNL     1     179.654 206.684 198.207  1.00  0.00     0.000 C 
BRANCH  13  14
ATOM     14  C   UNL     1     180.007 207.271 199.585  1.00  0.00     0.000 C 
BRANCH  14  15
ATOM     15  C   UNL     1     179.875 206.243 200.720  1.00  0.00     0.000 C 
BRANCH  15  16
ATOM     16  C   UNL     1     180.039 204.792 200.231  1.00  0.00     0.006 C 
BRANCH  16  17
ATOM     17  C   UNL     1     178.866 203.869 200.595  1.00  0.00     0.053 C 
BRANCH  17  18
ATOM     18  C   UNL     1     178.822 202.648 199.727  1.00  0.00     0.041 C 
ATOM     19  O   UNL     1     179.167 201.529 200.190  1.00  0.00    -0.550 OA
ATOM     20  O   UNL     1     178.363 202.741 198.420  1.00  0.00    -0.550 OA
ENDBRANCH  17  18
ENDBRANCH  16  17
ENDBRANCH  15  16
ENDBRANCH  14  15
ENDBRANCH  13  14
ENDBRANCH  12  13
ENDBRANCH  11  12
ENDBRANCH   1  11
TORSDOF 15
ENDMDL
MODEL 5
REMARK VINA RESULT:    -1.962      2.200      3.482
REMARK INTER + INTRA:          -6.145
REMARK INTER:                  -3.565
REMARK INTRA:                  -2.580
REMARK UNBOUND:                -2.463
REMARK SMILES O=C([O-])CCCCCCCCCCCCCCC(=O)[O-]
REMARK SMILES IDX 10 1 9 2 8 3 7 4 6 5 5 6 4 7 2 8 1 9 3 10 11 11 12 12 13 13
REMARK SMILES IDX 14 14 15 15 16 16 17 17 18 18 19 19 20 20
REMARK H PARENT
REMARK Flexibility Score: inf
ROOT
ATOM      1  C   UNL     1     178.166 204.221 201.581  1.00  0.00     0.000 C 
ENDROOT
BRANCH   1   2
ATOM      2  C   UNL     1     176.940 203.727 200.792  1.00  0.00     0.000 C 
BRANCH   2   3
ATOM      3  C   UNL     1     177.137 203.855 199.266  1.00  0.00     0.000 C 
BRANCH   3   4
ATOM      4  C   UNL     1     176.006 204.625 198.558  1.00  0.00     0.000 C 
BRANCH   4   5
ATOM      5  C   UNL     1     174.630 204.522 199.237  1.00  0.00     0.000 C 
BRANCH   5   6
ATOM      6  C   UNL     1     173.481 204.360 198.227  1.00  0.00     0.006 C 
BRANCH   6   7
ATOM      7  C   UNL     1     173.297 205.610 197.356  1.00  0.00     0.053 C 
BRANCH   7   8
ATOM      8  C   UNL     1     172.787 206.774 198.149  1.00  0.00     0.041 C 
ATOM      9  O   UNL     1     173.389 207.879 198.113  1.00  0.00    -0.550 OA
ATOM     10  O   UNL     1     171.664 206.628 198.955  1.00  0.00    -0.550 OA
ENDBRANCH   7   8
ENDBRANCH   6   7
ENDBRANCH   5   6
ENDBRANCH   4   5
ENDBRANCH   3   4
ENDBRANCH   2   3
ENDBRANCH   1   2
BRANCH   1  11
ATOM     11  C   UNL     1     177.786 205.178 202.722  1.00  0.00     0.000 C 
BRANCH  11  12
ATOM     12  C   UNL     1     176.380 205.778 202.548  1.00  0.00     0.000 C 
BRANCH  12  13
ATOM     13  C   UNL     1     176.430 207.261 202.124  1.00  0.00     0.000 C 
BRANCH  13  14
ATOM     14  C   UNL     1     175.626 207.558 200.846  1.00  0.00     0.000 C 
BRANCH  14  15
ATOM     15  C   UNL     1     176.498 208.125 199.713  1.00  0.00     0.000 C 
BRANCH  15  16
ATOM     16  C   UNL     1     178.006 207.988 199.998  1.00  0.00     0.006 C 
BRANCH  16  17
ATOM     17  C   UNL     1     178.760 207.118 198.982  1.00  0.00     0.053 C 
BRANCH  17  18
ATOM     18  C   UNL     1     180.122 206.732 199.475  1.00  0.00     0.041 C 
ATOM     19  O   UNL     1     180.744 207.483 200.271  1.00  0.00    -0.550 OA
ATOM     20  O   UNL     1     180.686 205.525 199.084  1.00  0.00    -0.550 OA
ENDBRANCH  17  18
ENDBRANCH  16  17
ENDBRANCH  15  16
ENDBRANCH  14  15
ENDBRANCH  13  14
ENDBRANCH  12  13
ENDBRANCH  11  12
ENDBRANCH   1  11
TORSDOF 15
ENDMDL
MODEL 6
REMARK VINA RESULT:    -1.929      1.777      5.839
REMARK INTER + INTRA:          -6.085
REMARK INTER:                  -3.708
REMARK INTRA:                  -2.376
REMARK UNBOUND:                -2.463
REMARK SMILES O=C([O-])CCCCCCCCCCCCCCC(=O)[O-]
REMARK SMILES IDX 10 1 9 2 8 3 7 4 6 5 5 6 4 7 2 8 1 9 3 10 11 11 12 12 13 13
REMARK SMILES IDX 14 14 15 15 16 16 17 17 18 18 19 19 20 20
REMARK H PARENT
REMARK Flexibility Score: inf
ROOT
ATOM      1  C   UNL     1     177.994 203.909 199.970  1.00  0.00     0.000 C 
ENDROOT
BRANCH   1   2
ATOM      2  C   UNL     1     176.983 203.463 198.897  1.00  0.00     0.000 C 
BRANCH   2   3
ATOM      3  C   UNL     1     176.004 204.594 198.512  1.00  0.00     0.000 C 
BRANCH   3   4
ATOM      4  C   UNL     1     176.625 205.664 197.594  1.00  0.00     0.000 C 
BRANCH   4   5
ATOM      5  C   UNL     1     176.891 207.020 198.268  1.00  0.00     0.000 C 
BRANCH   5   6
ATOM      6  C   UNL     1     178.384 207.391 198.287  1.00  0.00     0.006 C 
BRANCH   6   7
ATOM      7  C   UNL     1     178.915 207.576 199.715  1.00  0.00     0.053 C 
BRANCH   7   8
ATOM      8  C   UNL     1     180.317 207.069 199.860  1.00  0.00     0.041 C 
ATOM      9  O   UNL     1     181.112 207.115 198.884  1.00  0.00    -0.550 OA
ATOM     10  O   UNL     1     180.737 206.517 201.064  1.00  0.00    -0.550 OA
ENDBRANCH   7   8
ENDBRANCH   6   7
ENDBRANCH   5   6
ENDBRANCH   4   5
ENDBRANCH   3   4
ENDBRANCH   2   3
ENDBRANCH   1   2
BRANCH   1  11
ATOM     11  C   UNL     1     177.755 203.225 201.325  1.00  0.00     0.000 C 
BRANCH  11  12
ATOM     12  C   UNL     1     176.968 204.113 202.305  1.00  0.00     0.000 C 
BRANCH  12  13
ATOM     13  C   UNL     1     177.653 205.478 202.531  1.00  0.00     0.000 C 
BRANCH  13  14
ATOM     14  C   UNL     1     176.678 206.667 202.471  1.00  0.00     0.000 C 
BRANCH  14  15
ATOM     15  C   UNL     1     175.418 206.362 201.645  1.00  0.00     0.000 C 
BRANCH  15  16
ATOM     16  C   UNL     1     174.693 207.636 201.173  1.00  0.00     0.006 C 
BRANCH  16  17
ATOM     17  C   UNL     1     173.603 207.385 200.120  1.00  0.00     0.053 C 
BRANCH  17  18
ATOM     18  C   UNL     1     172.229 207.408 200.718  1.00  0.00     0.041 C 
ATOM     19  O   UNL     1     172.079 207.579 201.956  1.00  0.00    -0.550 OA
ATOM     20  O   UNL     1     171.114 207.278 199.901  1.00  0.00    -0.550 OA
ENDBRANCH  17  18
ENDBRANCH  16  17
ENDBRANCH  15  16
ENDBRANCH  14  15
ENDBRANCH  13  14
ENDBRANCH  12  13
ENDBRANCH  11  12
ENDBRANCH   1  11
TORSDOF 15
ENDMDL
MODEL 7
REMARK VINA RESULT:    -1.927      2.793      6.004
REMARK INTER + INTRA:          -6.079
REMARK INTER:                  -3.581
REMARK INTRA:                  -2.498
REMARK UNBOUND:                -2.463
REMARK SMILES O=C([O-])CCCCCCCCCCCCCCC(=O)[O-]
REMARK SMILES IDX 10 1 9 2 8 3 7 4 6 5 5 6 4 7 2 8 1 9 3 10 11 11 12 12 13 13
REMARK SMILES IDX 14 14 15 15 16 16 17 17 18 18 19 19 20 20
REMARK H PARENT
REMARK Flexibility Score: inf
ROOT
ATOM      1  C   UNL     1     178.100 204.877 200.993  1.00  0.00     0.000 C 
ENDROOT
BRANCH   1   2
ATOM      2  C   UNL     1     179.603 204.833 200.662  1.00  0.00     0.000 C 
BRANCH   2   3
ATOM      3  C   UNL     1     180.329 206.132 201.075  1.00  0.00     0.000 C 
BRANCH   3   4
ATOM      4  C   UNL     1     180.315 207.223 199.986  1.00  0.00     0.000 C 
BRANCH   4   5
ATOM      5  C   UNL     1     180.933 206.802 198.642  1.00  0.00     0.000 C 
BRANCH   5   6
ATOM      6  C   UNL     1     180.004 207.080 197.448  1.00  0.00     0.006 C 
BRANCH   6   7
ATOM      7  C   UNL     1     178.526 207.105 197.861  1.00  0.00     0.053 C 
BRANCH   7   8
ATOM      8  C   UNL     1     177.748 205.996 197.221  1.00  0.00     0.041 C 
ATOM      9  O   UNL     1     178.068 204.796 197.430  1.00  0.00    -0.550 OA
ATOM     10  O   UNL     1     176.690 206.288 196.369  1.00  0.00    -0.550 OA
ENDBRANCH   7   8
ENDBRANCH   6   7
ENDBRANCH   5   6
ENDBRANCH   4   5
ENDBRANCH   3   4
ENDBRANCH   2   3
ENDBRANCH   1   2
BRANCH   1  11
ATOM     11  C   UNL     1     177.824 205.398 202.412  1.00  0.00     0.000 C 
BRANCH  11  12
ATOM     12  C   UNL     1     176.759 206.508 202.439  1.00  0.00     0.000 C 
BRANCH  12  13
ATOM     13  C   UNL     1     176.748 207.333 201.135  1.00  0.00     0.000 C 
BRANCH  13  14
ATOM     14  C   UNL     1     175.431 208.097 200.908  1.00  0.00     0.000 C 
BRANCH  14  15
ATOM     15  C   UNL     1     174.278 207.177 200.473  1.00  0.00     0.000 C 
BRANCH  15  16
ATOM     16  C   UNL     1     174.706 206.151 199.407  1.00  0.00     0.006 C 
BRANCH  16  17
ATOM     17  C   UNL     1     174.557 204.687 199.850  1.00  0.00     0.053 C 
BRANCH  17  18
ATOM     18  C   UNL     1     175.021 203.731 198.793  1.00  0.00     0.041 C 
ATOM     19  O   UNL     1     174.684 203.902 197.592  1.00  0.00    -0.550 OA
ATOM     20  O   UNL     1     175.856 202.674 199.131  1.00  0.00    -0.550 OA
ENDBRANCH  17  18
ENDBRANCH  16  17
ENDBRANCH  15  16
ENDBRANCH  14  15
ENDBRANCH  13  14
ENDBRANCH  12  13
ENDBRANCH  11  12
ENDBRANCH   1  11
TORSDOF 15
ENDMDL
MODEL 8
REMARK VINA RESULT:    -1.907      1.891      6.432
REMARK INTER + INTRA:          -6.043
REMARK INTER:                  -3.364
REMARK INTRA:                  -2.679
REMARK UNBOUND:                -2.463
REMARK SMILES O=C([O-])CCCCCCCCCCCCCCC(=O)[O-]
REMARK SMILES IDX 10 1 9 2 8 3 7 4 6 5 5 6 4 7 2 8 1 9 3 10 11 11 12 12 13 13
REMARK SMILES IDX 14 14 15 15 16 16 17 17 18 18 19 19 20 20
REMARK H PARENT
REMARK Flexibility Score: inf
ROOT
ATOM      1  C   UNL     1     176.296 207.677 201.830  1.00  0.00     0.000 C 
ENDROOT
BRANCH   1   2
ATOM      2  C   UNL     1     176.950 208.084 200.497  1.00  0.00     0.000 C 
BRANCH   2   3
ATOM      3  C   UNL     1     175.934 208.117 199.334  1.00  0.00     0.000 C 
BRANCH   3   4
ATOM      4  C   UNL     1     176.450 207.458 198.041  1.00  0.00     0.000 C 
BRANCH   4   5
ATOM      5  C   UNL     1     177.981 207.363 197.931  1.00  0.00     0.000 C 
BRANCH   5   6
ATOM      6  C   UNL     1     178.491 205.912 197.973  1.00  0.00     0.006 C 
BRANCH   6   7
ATOM      7  C   UNL     1     180.009 205.827 197.766  1.00  0.00     0.053 C 
BRANCH   7   8
ATOM      8  C   UNL     1     180.760 206.052 199.043  1.00  0.00     0.041 C 
ATOM      9  O   UNL     1     181.112 207.214 199.375  1.00  0.00    -0.550 OA
ATOM     10  O   UNL     1     181.098 204.972 199.851  1.00  0.00    -0.550 OA
ENDBRANCH   7   8
ENDBRANCH   6   7
ENDBRANCH   5   6
ENDBRANCH   4   5
ENDBRANCH   3   4
ENDBRANCH   2   3
ENDBRANCH   1   2
BRANCH   1  11
ATOM     11  C   UNL     1     176.884 206.377 202.402  1.00  0.00     0.000 C 
BRANCH  11  12
ATOM     12  C   UNL     1     177.930 205.741 201.471  1.00  0.00     0.000 C 
BRANCH  12  13
ATOM     13  C   UNL     1     177.612 204.263 201.163  1.00  0.00     0.000 C 
BRANCH  13  14
ATOM     14  C   UNL     1     176.107 203.982 201.008  1.00  0.00     0.000 C 
BRANCH  14  15
ATOM     15  C   UNL     1     175.592 204.267 199.588  1.00  0.00     0.000 C 
BRANCH  15  16
ATOM     16  C   UNL     1     174.177 204.875 199.579  1.00  0.00     0.006 C 
BRANCH  16  17
ATOM     17  C   UNL     1     173.673 205.311 200.963  1.00  0.00     0.053 C 
BRANCH  17  18
ATOM     18  C   UNL     1     172.465 204.533 201.390  1.00  0.00     0.041 C 
ATOM     19  O   UNL     1     172.267 203.373 200.943  1.00  0.00    -0.550 OA
ATOM     20  O   UNL     1     171.579 205.076 202.311  1.00  0.00    -0.550 OA
ENDBRANCH  17  18
ENDBRANCH  16  17
ENDBRANCH  15  16
ENDBRANCH  14  15
ENDBRANCH  13  14
ENDBRANCH  12  13
ENDBRANCH  11  12
ENDBRANCH   1  11
TORSDOF 15
ENDMDL
MODEL 9
REMARK VINA RESULT:    -1.900      3.517      6.188
REMARK INTER + INTRA:          -6.029
REMARK INTER:                  -3.303
REMARK INTRA:                  -2.726
REMARK UNBOUND:                -2.463
REMARK SMILES O=C([O-])CCCCCCCCCCCCCCC(=O)[O-]
REMARK SMILES IDX 10 1 9 2 8 3 7 4 6 5 5 6 4 7 2 8 1 9 3 10 11 11 12 12 13 13
REMARK SMILES IDX 14 14 15 15 16 16 17 17 18 18 19 19 20 20
REMARK H PARENT
REMARK Flexibility Score: inf
ROOT
ATOM      1  C   UNL     1     175.782 207.254 201.400  1.00  0.00     0.000 C 
ENDROOT
BRANCH   1   2
ATOM      2  C   UNL     1     175.554 207.310 199.878  1.00  0.00     0.000 C 
BRANCH   2   3
ATOM      3  C   UNL     1     176.832 207.715 199.111  1.00  0.00     0.000 C 
BRANCH   3   4
ATOM      4  C   UNL     1     178.046 207.974 200.025  1.00  0.00     0.000 C 
BRANCH   4   5
ATOM      5  C   UNL     1     179.373 207.384 199.520  1.00  0.00     0.000 C 
BRANCH   5   6
ATOM      6  C   UNL     1     179.323 206.998 198.031  1.00  0.00     0.006 C 
BRANCH   6   7
ATOM      7  C   UNL     1     180.578 206.232 197.590  1.00  0.00     0.053 C 
BRANCH   7   8
ATOM      8  C   UNL     1     180.235 204.930 196.934  1.00  0.00     0.041 C 
ATOM      9  O   UNL     1     179.539 204.913 195.885  1.00  0.00    -0.550 OA
ATOM     10  O   UNL     1     180.659 203.733 197.499  1.00  0.00    -0.550 OA
ENDBRANCH   7   8
ENDBRANCH   6   7
ENDBRANCH   5   6
ENDBRANCH   4   5
ENDBRANCH   3   4
ENDBRANCH   2   3
ENDBRANCH   1   2
BRANCH   1  11
ATOM     11  C   UNL     1     175.422 205.886 201.999  1.00  0.00     0.000 C 
BRANCH  11  12
ATOM     12  C   UNL     1     176.384 205.460 203.122  1.00  0.00     0.000 C 
BRANCH  12  13
ATOM     13  C   UNL     1     177.852 205.423 202.647  1.00  0.00     0.000 C 
BRANCH  13  14
ATOM     14  C   UNL     1     178.276 204.058 202.078  1.00  0.00     0.000 C 
BRANCH  14  15
ATOM     15  C   UNL     1     178.740 204.142 200.614  1.00  0.00     0.000 C 
BRANCH  15  16
ATOM     16  C   UNL     1     177.885 203.279 199.668  1.00  0.00     0.006 C 
BRANCH  16  17
ATOM     17  C   UNL     1     177.019 204.088 198.691  1.00  0.00     0.053 C 
BRANCH  17  18
ATOM     18  C   UNL     1     176.757 203.338 197.419  1.00  0.00     0.041 C 
ATOM     19  O   UNL     1     175.802 203.674 196.671  1.00  0.00    -0.550 OA
ATOM     20  O   UNL     1     177.592 202.294 197.044  1.00  0.00    -0.550 OA
ENDBRANCH  17  18
ENDBRANCH  16  17
ENDBRANCH  15  16
ENDBRANCH  14  15
ENDBRANCH  13  14
ENDBRANCH  12  13
ENDBRANCH  11  12
ENDBRANCH   1  11
TORSDOF 15
ENDMDL
