MODEL 1
REMARK VINA RESULT:    -3.658      0.000      0.000
REMARK INTER + INTRA:          -5.836
REMARK INTER:                  -5.582
REMARK INTRA:                  -0.253
REMARK UNBOUND:                -0.253
REMARK SMILES CC1=CCC[C@H](C)C(=O)C[C@H](C(C)C)C(=O)C1
REMARK SMILES IDX 8 1 9 2 6 3 7 4 5 5 4 6 3 7 2 8 1 9 10 11 11 12 15 13 16 14
REMARK SMILES IDX 17 15 12 17 13 18 14 19
REMARK H PARENT
REMARK Flexibility Score: 70.00
ROOT
ATOM      1  C   UNL     1      14.489  18.858  17.243  1.00  0.00     0.136 C 
ATOM      2  O   UNL     1      15.187  18.384  18.128  1.00  0.00    -0.299 OA
ENDROOT
BRANCH   1   3
ATOM      3  C   UNL     1      13.446  19.899  17.616  1.00  0.00     0.053 C 
ATOM      4  C   UNL     1      13.370  20.977  16.527  1.00  0.00     0.016 C 
BRANCH   3   5
ATOM      5  C   UNL     1      12.054  19.275  17.876  1.00  0.00     0.015 C 
BRANCH   5   6
ATOM      6  C   UNL     1      10.934  19.764  16.931  1.00  0.00     0.028 C 
BRANCH   6   7
ATOM      7  C   UNL     1      10.241  18.683  16.132  1.00  0.00    -0.028 C 
ATOM      8  C   UNL     1      10.700  18.119  14.991  1.00  0.00    -0.070 CG0
ATOM      9  C   UNL     1       9.827  17.093  14.311  1.00  0.00     0.039 C 
ATOM     10  G   UNL     1      12.034  18.474  14.362  1.00  0.00     0.000 G0
ENDBRANCH   6   7
ENDBRANCH   5   6
ENDBRANCH   3   5
ENDBRANCH   1   3
BRANCH   1  11
ATOM     11  C   UNL     1      14.739  18.428  15.813  1.00  0.00     0.087 C 
BRANCH  11  12
ATOM     12  C   UNL     1      13.999  17.112  15.464  1.00  0.00     0.066 C 
BRANCH  12  13
ATOM     13  C   UNL     1      13.011  17.338  14.326  1.00  0.00     0.140 C 
ATOM     14  O   UNL     1      12.982  16.557  13.387  1.00  0.00    -0.299 OA
BRANCH  13  15
ATOM     15  C   UNL     1      12.024  18.479  14.336  1.00  0.00     0.106 CG0
ATOM     16  G   UNL     1      10.710  18.120  15.003  1.00  0.00     0.000 G0
ENDBRANCH  13  15
ENDBRANCH  12  13
BRANCH  12  17
ATOM     17  C   UNL     1      14.984  15.932  15.193  1.00  0.00    -0.006 C 
ATOM     18  C   UNL     1      16.444  16.366  15.396  1.00  0.00     0.008 C 
ATOM     19  C   UNL     1      14.690  14.658  16.004  1.00  0.00     0.008 C 
ENDBRANCH  12  17
ENDBRANCH  11  12
ENDBRANCH   1  11
TORSDOF 1
ENDMDL
MODEL 2
REMARK VINA RESULT:    -3.329      1.389      1.892
REMARK INTER + INTRA:          -5.333
REMARK INTER:                  -4.975
REMARK INTRA:                  -0.359
REMARK UNBOUND:                -0.253
REMARK SMILES CC1=CCC[C@H](C)C(=O)C[C@H](C(C)C)C(=O)C1
REMARK SMILES IDX 8 1 9 2 6 3 7 4 5 5 4 6 3 7 2 8 1 9 10 11 11 12 15 13 16 14
REMARK SMILES IDX 17 15 12 17 13 18 14 19
REMARK H PARENT
REMARK Flexibility Score: 70.00
ROOT
ATOM      1  C   UNL     1      14.409  18.754  15.918  1.00  0.00     0.136 C 
ATOM      2  O   UNL     1      14.500  19.902  15.510  1.00  0.00    -0.299 OA
ENDROOT
BRANCH   1   3
ATOM      3  C   UNL     1      14.112  18.524  17.391  1.00  0.00     0.053 C 
ATOM      4  C   UNL     1      15.388  18.717  18.219  1.00  0.00     0.016 C 
BRANCH   3   5
ATOM      5  C   UNL     1      12.971  19.431  17.911  1.00  0.00     0.015 C 
BRANCH   5   6
ATOM      6  C   UNL     1      11.547  18.970  17.528  1.00  0.00     0.028 C 
BRANCH   6   7
ATOM      7  C   UNL     1      10.936  19.673  16.337  1.00  0.00    -0.028 C 
ATOM      8  C   UNL     1      10.629  19.104  15.148  1.00  0.00    -0.070 CG0
ATOM      9  C   UNL     1      10.079  19.994  14.061  1.00  0.00     0.039 C 
ATOM     10  G   UNL     1      10.820  17.628  14.855  1.00  0.00     0.000 G0
ENDBRANCH   6   7
ENDBRANCH   5   6
ENDBRANCH   3   5
ENDBRANCH   1   3
BRANCH   1  11
ATOM     11  C   UNL     1      14.537  17.618  14.924  1.00  0.00     0.087 C 
BRANCH  11  12
ATOM     12  C   UNL     1      13.295  16.691  14.939  1.00  0.00     0.066 C 
BRANCH  12  13
ATOM     13  C   UNL     1      12.140  17.330  14.178  1.00  0.00     0.140 C 
ATOM     14  O   UNL     1      12.262  17.572  12.986  1.00  0.00    -0.299 OA
BRANCH  13  15
ATOM     15  C   UNL     1      10.819  17.638  14.837  1.00  0.00     0.106 CG0
ATOM     16  G   UNL     1      10.637  19.113  15.140  1.00  0.00     0.000 G0
ENDBRANCH  13  15
ENDBRANCH  12  13
BRANCH  12  17
ATOM     17  C   UNL     1      13.628  15.248  14.447  1.00  0.00    -0.006 C 
ATOM     18  C   UNL     1      14.612  14.547  15.396  1.00  0.00     0.008 C 
ATOM     19  C   UNL     1      12.396  14.357  14.206  1.00  0.00     0.008 C 
ENDBRANCH  12  17
ENDBRANCH  11  12
ENDBRANCH   1  11
TORSDOF 1
ENDMDL
MODEL 3
REMARK VINA RESULT:    -3.282      6.872      8.994
REMARK INTER + INTRA:          -5.263
REMARK INTER:                  -4.739
REMARK INTRA:                  -0.524
REMARK UNBOUND:                -0.253
REMARK SMILES CC1=CCC[C@H](C)C(=O)C[C@H](C(C)C)C(=O)C1
REMARK SMILES IDX 8 1 9 2 6 3 7 4 5 5 4 6 3 7 2 8 1 9 10 11 11 12 15 13 16 14
REMARK SMILES IDX 17 15 12 17 13 18 14 19
REMARK H PARENT
REMARK Flexibility Score: 70.00
ROOT
ATOM      1  C   UNL     1      12.512  24.937  16.325  1.00  0.00     0.136 C 
ATOM      2  O   UNL     1      11.699  24.757  17.220  1.00  0.00    -0.299 OA
ENDROOT
BRANCH   1   3
ATOM      3  C   UNL     1      12.391  24.112  15.053  1.00  0.00     0.053 C 
ATOM      4  C   UNL     1      12.780  22.656  15.334  1.00  0.00     0.016 C 
BRANCH   3   5
ATOM      5  C   UNL     1      10.979  24.199  14.426  1.00  0.00     0.015 C 
BRANCH   5   6
ATOM      6  C   UNL     1      10.758  25.401  13.481  1.00  0.00     0.028 C 
BRANCH   6   7
ATOM      7  C   UNL     1      10.314  26.681  14.153  1.00  0.00    -0.028 C 
ATOM      8  C   UNL     1      11.053  27.807  14.288  1.00  0.00    -0.070 CG0
ATOM      9  C   UNL     1      10.446  28.961  15.047  1.00  0.00     0.039 C 
ATOM     10  G   UNL     1      12.454  27.958  13.727  1.00  0.00     0.000 G0
ENDBRANCH   6   7
ENDBRANCH   5   6
ENDBRANCH   3   5
ENDBRANCH   1   3
BRANCH   1  11
ATOM     11  C   UNL     1      13.562  26.014  16.502  1.00  0.00     0.087 C 
BRANCH  11  12
ATOM     12  C   UNL     1      14.138  26.493  15.146  1.00  0.00     0.066 C 
BRANCH  12  13
ATOM     13  C   UNL     1      13.546  27.843  14.759  1.00  0.00     0.140 C 
ATOM     14  O   UNL     1      13.982  28.863  15.272  1.00  0.00    -0.299 OA
BRANCH  13  15
ATOM     15  C   UNL     1      12.459  27.973  13.722  1.00  0.00     0.106 CG0
ATOM     16  G   UNL     1      11.065  27.816  14.299  1.00  0.00     0.000 G0
ENDBRANCH  13  15
ENDBRANCH  12  13
BRANCH  12  17
ATOM     17  C   UNL     1      15.698  26.482  15.128  1.00  0.00    -0.006 C 
ATOM     18  C   UNL     1      16.263  25.582  16.238  1.00  0.00     0.008 C 
ATOM     19  C   UNL     1      16.317  26.104  13.771  1.00  0.00     0.008 C 
ENDBRANCH  12  17
ENDBRANCH  11  12
ENDBRANCH   1  11
TORSDOF 1
ENDMDL
MODEL 4
REMARK VINA RESULT:    -3.183      1.953      4.176
REMARK INTER + INTRA:          -5.112
REMARK INTER:                  -4.822
REMARK INTRA:                  -0.290
REMARK UNBOUND:                -0.253
REMARK SMILES CC1=CCC[C@H](C)C(=O)C[C@H](C(C)C)C(=O)C1
REMARK SMILES IDX 8 1 9 2 6 3 7 4 5 5 4 6 3 7 2 8 1 9 10 11 11 12 15 13 16 14
REMARK SMILES IDX 17 15 12 17 13 18 14 19
REMARK H PARENT
REMARK Flexibility Score: 70.00
ROOT
ATOM      1  C   UNL     1      12.831  19.624  17.708  1.00  0.00     0.136 C 
ATOM      2  O   UNL     1      12.124  18.947  18.440  1.00  0.00    -0.299 OA
ENDROOT
BRANCH   1   3
ATOM      3  C   UNL     1      14.236  19.137  17.395  1.00  0.00     0.053 C 
ATOM      4  C   UNL     1      15.148  19.350  18.610  1.00  0.00     0.016 C 
BRANCH   3   5
ATOM      5  C   UNL     1      14.260  17.659  16.935  1.00  0.00     0.015 C 
BRANCH   5   6
ATOM      6  C   UNL     1      14.247  17.453  15.404  1.00  0.00     0.028 C 
BRANCH   6   7
ATOM      7  C   UNL     1      12.908  17.073  14.812  1.00  0.00    -0.028 C 
ATOM      8  C   UNL     1      12.102  17.881  14.086  1.00  0.00    -0.070 CG0
ATOM      9  C   UNL     1      10.772  17.329  13.634  1.00  0.00     0.039 C 
ATOM     10  G   UNL     1      12.462  19.307  13.717  1.00  0.00     0.000 G0
ENDBRANCH   6   7
ENDBRANCH   5   6
ENDBRANCH   3   5
ENDBRANCH   1   3
BRANCH   1  11
ATOM     11  C   UNL     1      12.250  20.884  17.100  1.00  0.00     0.087 C 
BRANCH  11  12
ATOM     12  C   UNL     1      12.744  21.111  15.649  1.00  0.00     0.066 C 
BRANCH  12  13
ATOM     13  C   UNL     1      11.882  20.334  14.662  1.00  0.00     0.140 C 
ATOM     14  O   UNL     1      10.683  20.561  14.598  1.00  0.00    -0.299 OA
BRANCH  13  15
ATOM     15  C   UNL     1      12.467  19.315  13.716  1.00  0.00     0.106 CG0
ATOM     16  G   UNL     1      12.101  17.890  14.080  1.00  0.00     0.000 G0
ENDBRANCH  13  15
ENDBRANCH  12  13
BRANCH  12  17
ATOM     17  C   UNL     1      12.866  22.626  15.295  1.00  0.00    -0.006 C 
ATOM     18  C   UNL     1      11.959  23.484  16.191  1.00  0.00     0.008 C 
ATOM     19  C   UNL     1      14.305  23.171  15.317  1.00  0.00     0.008 C 
ENDBRANCH  12  17
ENDBRANCH  11  12
ENDBRANCH   1  11
TORSDOF 1
ENDMDL
MODEL 5
REMARK VINA RESULT:    -3.089      2.501      5.312
REMARK INTER + INTRA:          -4.967
REMARK INTER:                  -4.624
REMARK INTRA:                  -0.343
REMARK UNBOUND:                -0.253
REMARK SMILES CC1=CCC[C@H](C)C(=O)C[C@H](C(C)C)C(=O)C1
REMARK SMILES IDX 8 1 9 2 6 3 7 4 5 5 4 6 3 7 2 8 1 9 10 11 11 12 15 13 16 14
REMARK SMILES IDX 17 15 12 17 13 18 14 19
REMARK H PARENT
REMARK Flexibility Score: 70.00
ROOT
ATOM      1  C   UNL     1      10.496  19.573  14.643  1.00  0.00     0.136 C 
ATOM      2  O   UNL     1      10.706  18.524  14.052  1.00  0.00    -0.299 OA
ENDROOT
BRANCH   1   3
ATOM      3  C   UNL     1       9.730  19.530  15.955  1.00  0.00     0.053 C 
ATOM      4  C   UNL     1       8.253  19.211  15.691  1.00  0.00     0.016 C 
BRANCH   3   5
ATOM      5  C   UNL     1      10.342  18.527  16.964  1.00  0.00     0.015 C 
BRANCH   5   6
ATOM      6  C   UNL     1      11.579  19.047  17.729  1.00  0.00     0.028 C 
BRANCH   6   7
ATOM      7  C   UNL     1      12.903  18.455  17.299  1.00  0.00    -0.028 C 
ATOM      8  C   UNL     1      13.941  19.136  16.760  1.00  0.00    -0.070 CG0
ATOM      9  C   UNL     1      15.158  18.350  16.341  1.00  0.00     0.039 C 
ATOM     10  G   UNL     1      13.934  20.638  16.547  1.00  0.00     0.000 G0
ENDBRANCH   6   7
ENDBRANCH   5   6
ENDBRANCH   3   5
ENDBRANCH   1   3
BRANCH   1  11
ATOM     11  C   UNL     1      11.061  20.856  14.070  1.00  0.00     0.087 C 
BRANCH  11  12
ATOM     12  C   UNL     1      11.918  21.627  15.105  1.00  0.00     0.066 C 
BRANCH  12  13
ATOM     13  C   UNL     1      13.312  21.022  15.205  1.00  0.00     0.140 C 
ATOM     14  O   UNL     1      13.978  20.869  14.191  1.00  0.00    -0.299 OA
BRANCH  13  15
ATOM     15  C   UNL     1      13.929  20.640  16.528  1.00  0.00     0.106 CG0
ATOM     16  G   UNL     1      13.951  19.142  16.762  1.00  0.00     0.000 G0
ENDBRANCH  13  15
ENDBRANCH  12  13
BRANCH  12  17
ATOM     17  C   UNL     1      11.936  23.163  14.833  1.00  0.00    -0.006 C 
ATOM     18  C   UNL     1      10.720  23.597  13.998  1.00  0.00     0.008 C 
ATOM     19  C   UNL     1      12.051  24.034  16.097  1.00  0.00     0.008 C 
ENDBRANCH  12  17
ENDBRANCH  11  12
ENDBRANCH   1  11
TORSDOF 1
ENDMDL
MODEL 6
REMARK VINA RESULT:    -2.978      2.037      4.033
REMARK INTER + INTRA:          -4.798
REMARK INTER:                  -4.442
REMARK INTRA:                  -0.356
REMARK UNBOUND:                -0.253
REMARK SMILES CC1=CCC[C@H](C)C(=O)C[C@H](C(C)C)C(=O)C1
REMARK SMILES IDX 8 1 9 2 6 3 7 4 5 5 4 6 3 7 2 8 1 9 10 11 11 12 15 13 16 14
REMARK SMILES IDX 17 15 12 17 13 18 14 19
REMARK H PARENT
REMARK Flexibility Score: 70.00
ROOT
ATOM      1  C   UNL     1      12.196  18.774  16.855  1.00  0.00     0.136 C 
ATOM      2  O   UNL     1      11.697  18.780  17.971  1.00  0.00    -0.299 OA
ENDROOT
BRANCH   1   3
ATOM      3  C   UNL     1      13.710  18.732  16.733  1.00  0.00     0.053 C 
ATOM      4  C   UNL     1      14.339  19.799  17.636  1.00  0.00     0.016 C 
BRANCH   3   5
ATOM      5  C   UNL     1      14.288  17.330  17.045  1.00  0.00     0.015 C 
BRANCH   5   6
ATOM      6  C   UNL     1      14.837  16.565  15.820  1.00  0.00     0.028 C 
BRANCH   6   7
ATOM      7  C   UNL     1      14.043  15.346  15.407  1.00  0.00    -0.028 C 
ATOM      8  C   UNL     1      13.235  15.252  14.326  1.00  0.00    -0.070 CG0
ATOM      9  C   UNL     1      12.480  13.962  14.120  1.00  0.00     0.039 C 
ATOM     10  G   UNL     1      13.044  16.376  13.325  1.00  0.00     0.000 G0
ENDBRANCH   6   7
ENDBRANCH   5   6
ENDBRANCH   3   5
ENDBRANCH   1   3
BRANCH   1  11
ATOM     11  C   UNL     1      11.278  18.748  15.651  1.00  0.00     0.087 C 
BRANCH  11  12
ATOM     12  C   UNL     1      12.068  18.651  14.321  1.00  0.00     0.066 C 
BRANCH  12  13
ATOM     13  C   UNL     1      11.866  17.286  13.676  1.00  0.00     0.140 C 
ATOM     14  O   UNL     1      10.737  16.914  13.389  1.00  0.00    -0.299 OA
BRANCH  13  15
ATOM     15  C   UNL     1      13.023  16.382  13.332  1.00  0.00     0.106 CG0
ATOM     16  G   UNL     1      13.231  15.272  14.344  1.00  0.00     0.000 G0
ENDBRANCH  13  15
ENDBRANCH  12  13
BRANCH  12  17
ATOM     17  C   UNL     1      11.751  19.836  13.356  1.00  0.00    -0.006 C 
ATOM     18  C   UNL     1      10.286  20.283  13.481  1.00  0.00     0.008 C 
ATOM     19  C   UNL     1      12.690  21.047  13.504  1.00  0.00     0.008 C 
ENDBRANCH  12  17
ENDBRANCH  11  12
ENDBRANCH   1  11
TORSDOF 1
ENDMDL
MODEL 7
REMARK VINA RESULT:    -2.862      1.926      4.420
REMARK INTER + INTRA:          -4.621
REMARK INTER:                  -4.165
REMARK INTRA:                  -0.456
REMARK UNBOUND:                -0.253
REMARK SMILES CC1=CCC[C@H](C)C(=O)C[C@H](C(C)C)C(=O)C1
REMARK SMILES IDX 8 1 9 2 6 3 7 4 5 5 4 6 3 7 2 8 1 9 10 11 11 12 15 13 16 14
REMARK SMILES IDX 17 15 12 17 13 18 14 19
REMARK H PARENT
REMARK Flexibility Score: 70.00
ROOT
ATOM      1  C   UNL     1      10.354  19.402  14.356  1.00  0.00     0.136 C 
ATOM      2  O   UNL     1       9.608  20.193  13.798  1.00  0.00    -0.299 OA
ENDROOT
BRANCH   1   3
ATOM      3  C   UNL     1       9.753  18.167  15.007  1.00  0.00     0.053 C 
ATOM      4  C   UNL     1       8.575  18.568  15.904  1.00  0.00     0.016 C 
BRANCH   3   5
ATOM      5  C   UNL     1       9.321  17.103  13.969  1.00  0.00     0.015 C 
BRANCH   5   6
ATOM      6  C   UNL     1      10.446  16.620  13.026  1.00  0.00     0.028 C 
BRANCH   6   7
ATOM      7  C   UNL     1      11.422  15.636  13.630  1.00  0.00    -0.028 C 
ATOM      8  C   UNL     1      12.728  15.871  13.894  1.00  0.00    -0.070 CG0
ATOM      9  C   UNL     1      13.551  14.733  14.445  1.00  0.00     0.039 C 
ATOM     10  G   UNL     1      13.401  17.208  13.652  1.00  0.00     0.000 G0
ENDBRANCH   6   7
ENDBRANCH   5   6
ENDBRANCH   3   5
ENDBRANCH   1   3
BRANCH   1  11
ATOM     11  C   UNL     1      11.846  19.660  14.318  1.00  0.00     0.087 C 
BRANCH  11  12
ATOM     12  C   UNL     1      12.588  18.955  15.482  1.00  0.00     0.066 C 
BRANCH  12  13
ATOM     13  C   UNL     1      13.633  17.987  14.942  1.00  0.00     0.140 C 
ATOM     14  O   UNL     1      14.662  17.794  15.575  1.00  0.00    -0.299 OA
BRANCH  13  15
ATOM     15  C   UNL     1      13.425  17.212  13.665  1.00  0.00     0.106 CG0
ATOM     16  G   UNL     1      12.735  15.880  13.885  1.00  0.00     0.000 G0
ENDBRANCH  13  15
ENDBRANCH  12  13
BRANCH  12  17
ATOM     17  C   UNL     1      13.169  19.970  16.515  1.00  0.00    -0.006 C 
ATOM     18  C   UNL     1      13.042  21.416  16.010  1.00  0.00     0.008 C 
ATOM     19  C   UNL     1      12.577  19.847  17.931  1.00  0.00     0.008 C 
ENDBRANCH  12  17
ENDBRANCH  11  12
ENDBRANCH   1  11
TORSDOF 1
ENDMDL
MODEL 8
REMARK VINA RESULT:    -2.785     11.296     13.526
REMARK INTER + INTRA:          -4.504
REMARK INTER:                  -4.147
REMARK INTRA:                  -0.357
REMARK UNBOUND:                -0.253
REMARK SMILES CC1=CCC[C@H](C)C(=O)C[C@H](C(C)C)C(=O)C1
REMARK SMILES IDX 8 1 9 2 6 3 7 4 5 5 4 6 3 7 2 8 1 9 10 11 11 12 15 13 16 14
REMARK SMILES IDX 17 15 12 17 13 18 14 19
REMARK H PARENT
REMARK Flexibility Score: 70.00
ROOT
ATOM      1  C   UNL     1       5.794  29.052  16.846  1.00  0.00     0.136 C 
ATOM      2  O   UNL     1       6.303  28.087  17.397  1.00  0.00    -0.299 OA
ENDROOT
BRANCH   1   3
ATOM      3  C   UNL     1       6.702  30.121  16.261  1.00  0.00     0.053 C 
ATOM      4  C   UNL     1       7.309  30.967  17.387  1.00  0.00     0.016 C 
BRANCH   3   5
ATOM      5  C   UNL     1       7.809  29.526  15.357  1.00  0.00     0.015 C 
BRANCH   5   6
ATOM      6  C   UNL     1       7.298  28.818  14.082  1.00  0.00     0.028 C 
BRANCH   6   7
ATOM      7  C   UNL     1       7.252  27.308  14.153  1.00  0.00    -0.028 C 
ATOM      8  C   UNL     1       6.156  26.536  13.972  1.00  0.00    -0.070 CG0
ATOM      9  C   UNL     1       6.308  25.044  14.143  1.00  0.00     0.039 C 
ATOM     10  G   UNL     1       4.790  27.093  13.619  1.00  0.00     0.000 G0
ENDBRANCH   6   7
ENDBRANCH   5   6
ENDBRANCH   3   5
ENDBRANCH   1   3
BRANCH   1  11
ATOM     11  C   UNL     1       4.286  29.103  16.720  1.00  0.00     0.087 C 
BRANCH  11  12
ATOM     12  C   UNL     1       3.819  28.933  15.252  1.00  0.00     0.066 C 
BRANCH  12  13
ATOM     13  C   UNL     1       3.958  27.481  14.811  1.00  0.00     0.140 C 
ATOM     14  O   UNL     1       3.361  26.605  15.420  1.00  0.00    -0.299 OA
BRANCH  13  15
ATOM     15  C   UNL     1       4.778  27.083  13.609  1.00  0.00     0.106 CG0
ATOM     16  G   UNL     1       6.145  26.541  13.977  1.00  0.00     0.000 G0
ENDBRANCH  13  15
ENDBRANCH  12  13
BRANCH  12  17
ATOM     17  C   UNL     1       2.390  29.511  15.014  1.00  0.00    -0.006 C 
ATOM     18  C   UNL     1       2.185  30.828  15.778  1.00  0.00     0.008 C 
ATOM     19  C   UNL     1       2.014  29.692  13.532  1.00  0.00     0.008 C 
ENDBRANCH  12  17
ENDBRANCH  11  12
ENDBRANCH   1  11
TORSDOF 1
ENDMDL
MODEL 9
REMARK VINA RESULT:    -2.724      2.537      4.326
REMARK INTER + INTRA:          -4.410
REMARK INTER:                  -4.085
REMARK INTRA:                  -0.325
REMARK UNBOUND:                -0.253
REMARK SMILES CC1=CCC[C@H](C)C(=O)C[C@H](C(C)C)C(=O)C1
REMARK SMILES IDX 8 1 9 2 6 3 7 4 5 5 4 6 3 7 2 8 1 9 10 11 11 12 15 13 16 14
REMARK SMILES IDX 17 15 12 17 13 18 14 19
REMARK H PARENT
REMARK Flexibility Score: 70.00
ROOT
ATOM      1  C   UNL     1      10.497  18.731  15.892  1.00  0.00     0.136 C 
ATOM      2  O   UNL     1       9.517  18.654  16.618  1.00  0.00    -0.299 OA
ENDROOT
BRANCH   1   3
ATOM      3  C   UNL     1      10.285  18.866  14.393  1.00  0.00     0.053 C 
ATOM      4  C   UNL     1       9.275  17.817  13.910  1.00  0.00     0.016 C 
BRANCH   3   5
ATOM      5  C   UNL     1       9.841  20.292  13.985  1.00  0.00     0.015 C 
BRANCH   5   6
ATOM      6  C   UNL     1      10.890  21.096  13.185  1.00  0.00     0.028 C 
BRANCH   6   7
ATOM      7  C   UNL     1      11.463  22.302  13.896  1.00  0.00    -0.028 C 
ATOM      8  C   UNL     1      12.689  22.384  14.462  1.00  0.00    -0.070 CG0
ATOM      9  C   UNL     1      13.050  23.661  15.179  1.00  0.00     0.039 C 
ATOM     10  G   UNL     1      13.704  21.258  14.421  1.00  0.00     0.000 G0
ENDBRANCH   6   7
ENDBRANCH   5   6
ENDBRANCH   3   5
ENDBRANCH   1   3
BRANCH   1  11
ATOM     11  C   UNL     1      11.872  18.750  16.526  1.00  0.00     0.087 C 
BRANCH  11  12
ATOM     12  C   UNL     1      12.996  18.924  15.474  1.00  0.00     0.066 C 
BRANCH  12  13
ATOM     13  C   UNL     1      13.625  20.307  15.585  1.00  0.00     0.140 C 
ATOM     14  O   UNL     1      14.116  20.664  16.646  1.00  0.00    -0.299 OA
BRANCH  13  15
ATOM     15  C   UNL     1      13.706  21.249  14.409  1.00  0.00     0.106 CG0
ATOM     16  G   UNL     1      12.690  22.372  14.478  1.00  0.00     0.000 G0
ENDBRANCH  13  15
ENDBRANCH  12  13
BRANCH  12  17
ATOM     17  C   UNL     1      14.043  17.769  15.529  1.00  0.00    -0.006 C 
ATOM     18  C   UNL     1      14.244  17.265  16.967  1.00  0.00     0.008 C 
ATOM     19  C   UNL     1      13.741  16.589  14.589  1.00  0.00     0.008 C 
ENDBRANCH  12  17
ENDBRANCH  11  12
ENDBRANCH   1  11
TORSDOF 1
ENDMDL
