MODEL 1
REMARK VINA RESULT:    -3.905      0.000      0.000
REMARK INTER + INTRA:          -5.301
REMARK INTER:                  -5.503
REMARK INTRA:                   0.202
REMARK UNBOUND:                 0.202
REMARK SMILES CC1=CCC(=C(C)C)C(=O)CC(C)=CCC1
REMARK SMILES IDX 12 1 14 2 13 3 15 4 16 5 2 6 1 7 3 8 11 10 9 11 10 12 5 13
REMARK SMILES IDX 6 14 7 15 8 16 4 17
REMARK H PARENT
REMARK Flexibility Score: 60.00
ROOT
ATOM      1  C   UNL     1      10.128  -9.675 -44.608  1.00  0.00    -0.070 C 
ATOM      2  C   UNL     1       9.009 -10.033 -45.276  1.00  0.00    -0.027 C 
ATOM      3  C   UNL     1      10.109  -8.374 -43.847  1.00  0.00     0.039 C 
ENDROOT
BRANCH   2   4
ATOM      4  C   UNL     1       8.863 -11.245 -46.170  1.00  0.00     0.032 C 
BRANCH   4   5
ATOM      5  C   UNL     1       8.717 -12.587 -45.423  1.00  0.00     0.034 C 
BRANCH   5   6
ATOM      6  C   UNL     1       9.661 -13.662 -45.935  1.00  0.00    -0.077 C 
ATOM      7  C   UNL     1       9.453 -14.162 -47.343  1.00  0.00     0.039 C 
ATOM      8  C   UNL     1      10.630 -14.247 -45.191  1.00  0.00    -0.023 CG0
ATOM      9  G   UNL     1      11.029 -13.896 -43.771  1.00  0.00     0.000 G0
ENDBRANCH   5   6
ENDBRANCH   4   5
ENDBRANCH   2   4
BRANCH   1  10
ATOM     10  C   UNL     1      11.418 -10.466 -44.664  1.00  0.00     0.111 C 
BRANCH  10  11
ATOM     11  C   UNL     1      11.543 -11.408 -43.496  1.00  0.00     0.163 C 
ATOM     12  O   UNL     1      11.260 -10.970 -42.348  1.00  0.00    -0.294 OA
BRANCH  11  13
ATOM     13  C   UNL     1      12.046 -12.806 -43.643  1.00  0.00    -0.002 C 
ATOM     14  C   UNL     1      13.385 -13.058 -43.765  1.00  0.00    -0.069 C 
ATOM     15  C   UNL     1      13.914 -14.442 -44.073  1.00  0.00     0.039 C 
ATOM     16  C   UNL     1      14.409 -11.957 -43.598  1.00  0.00     0.039 C 
BRANCH  13  17
ATOM     17  C   UNL     1      11.008 -13.912 -43.747  1.00  0.00     0.066 CG0
ATOM     18  G   UNL     1      10.637 -14.220 -45.184  1.00  0.00     0.000 G0
ENDBRANCH  13  17
ENDBRANCH  11  13
ENDBRANCH  10  11
ENDBRANCH   1  10
TORSDOF 0
ENDMDL
MODEL 2
REMARK VINA RESULT:    -3.604     10.482     12.308
REMARK INTER + INTRA:          -4.876
REMARK INTER:                  -5.280
REMARK INTRA:                   0.404
REMARK UNBOUND:                 0.202
REMARK SMILES CC1=CCC(=C(C)C)C(=O)CC(C)=CCC1
REMARK SMILES IDX 12 1 14 2 13 3 15 4 16 5 2 6 1 7 3 8 11 10 9 11 10 12 5 13
REMARK SMILES IDX 6 14 7 15 8 16 4 17
REMARK H PARENT
REMARK Flexibility Score: 60.00
ROOT
ATOM      1  C   UNL     1       7.021 -21.440 -36.605  1.00  0.00    -0.070 C 
ATOM      2  C   UNL     1       7.438 -22.341 -35.688  1.00  0.00    -0.027 C 
ATOM      3  C   UNL     1       5.790 -21.770 -37.410  1.00  0.00     0.039 C 
ENDROOT
BRANCH   2   4
ATOM      4  C   UNL     1       8.697 -22.237 -34.856  1.00  0.00     0.032 C 
BRANCH   4   5
ATOM      5  C   UNL     1       9.747 -23.334 -35.129  1.00  0.00     0.034 C 
BRANCH   5   6
ATOM      6  C   UNL     1      10.037 -23.528 -36.607  1.00  0.00    -0.077 C 
ATOM      7  C   UNL     1       9.685 -24.861 -37.220  1.00  0.00     0.039 C 
ATOM      8  C   UNL     1      10.653 -22.611 -37.392  1.00  0.00    -0.023 CG0
ATOM      9  G   UNL     1      11.077 -21.209 -37.001  1.00  0.00     0.000 G0
ENDBRANCH   5   6
ENDBRANCH   4   5
ENDBRANCH   2   4
BRANCH   1  10
ATOM     10  C   UNL     1       7.780 -20.168 -36.925  1.00  0.00     0.111 C 
BRANCH  10  11
ATOM     11  C   UNL     1       8.813 -20.392 -37.997  1.00  0.00     0.163 C 
ATOM     12  O   UNL     1       8.429 -20.861 -39.102  1.00  0.00    -0.294 OA
BRANCH  11  13
ATOM     13  C   UNL     1      10.268 -20.140 -37.773  1.00  0.00    -0.002 C 
ATOM     14  C   UNL     1      10.874 -19.035 -38.304  1.00  0.00    -0.069 C 
ATOM     15  C   UNL     1      12.372 -18.832 -38.231  1.00  0.00     0.039 C 
ATOM     16  C   UNL     1      10.072 -17.956 -38.997  1.00  0.00     0.039 C 
BRANCH  13  17
ATOM     17  C   UNL     1      11.051 -21.203 -37.021  1.00  0.00     0.066 CG0
ATOM     18  G   UNL     1      10.632 -22.608 -37.406  1.00  0.00     0.000 G0
ENDBRANCH  13  17
ENDBRANCH  11  13
ENDBRANCH  10  11
ENDBRANCH   1  10
TORSDOF 0
ENDMDL
MODEL 3
REMARK VINA RESULT:    -3.555      9.603     11.459
REMARK INTER + INTRA:          -4.808
REMARK INTER:                  -5.138
REMARK INTRA:                   0.330
REMARK UNBOUND:                 0.202
REMARK SMILES CC1=CCC(=C(C)C)C(=O)CC(C)=CCC1
REMARK SMILES IDX 12 1 14 2 13 3 15 4 16 5 2 6 1 7 3 8 11 10 9 11 10 12 5 13
REMARK SMILES IDX 6 14 7 15 8 16 4 17
REMARK H PARENT
REMARK Flexibility Score: 60.00
ROOT
ATOM      1  C   UNL     1       9.108 -22.207 -35.621  1.00  0.00    -0.070 C 
ATOM      2  C   UNL     1       7.786 -22.063 -35.862  1.00  0.00    -0.027 C 
ATOM      3  C   UNL     1       9.566 -23.466 -34.928  1.00  0.00     0.039 C 
ENDROOT
BRANCH   2   4
ATOM      4  C   UNL     1       7.125 -20.838 -36.455  1.00  0.00     0.032 C 
BRANCH   4   5
ATOM      5  C   UNL     1       7.428 -20.596 -37.948  1.00  0.00     0.034 C 
BRANCH   5   6
ATOM      6  C   UNL     1       8.061 -19.243 -38.217  1.00  0.00    -0.077 C 
ATOM      7  C   UNL     1       7.260 -18.013 -37.868  1.00  0.00     0.039 C 
ATOM      8  C   UNL     1       9.266 -19.067 -38.810  1.00  0.00    -0.023 CG0
ATOM      9  G   UNL     1      10.247 -20.145 -39.226  1.00  0.00     0.000 G0
ENDBRANCH   5   6
ENDBRANCH   4   5
ENDBRANCH   2   4
BRANCH   1  10
ATOM     10  C   UNL     1      10.131 -21.132 -35.927  1.00  0.00     0.111 C 
BRANCH  10  11
ATOM     11  C   UNL     1      10.942 -21.470 -37.150  1.00  0.00     0.163 C 
ATOM     12  O   UNL     1      11.373 -22.649 -37.269  1.00  0.00    -0.294 OA
BRANCH  11  13
ATOM     13  C   UNL     1      11.301 -20.451 -38.181  1.00  0.00    -0.002 C 
ATOM     14  C   UNL     1      12.481 -19.764 -38.103  1.00  0.00    -0.069 C 
ATOM     15  C   UNL     1      12.803 -18.618 -39.037  1.00  0.00     0.039 C 
ATOM     16  C   UNL     1      13.529 -20.119 -37.070  1.00  0.00     0.039 C 
BRANCH  13  17
ATOM     17  C   UNL     1      10.264 -20.148 -39.250  1.00  0.00     0.066 CG0
ATOM     18  G   UNL     1       9.282 -19.079 -38.814  1.00  0.00     0.000 G0
ENDBRANCH  13  17
ENDBRANCH  11  13
ENDBRANCH  10  11
ENDBRANCH   1  10
TORSDOF 0
ENDMDL
MODEL 4
REMARK VINA RESULT:    -3.549      1.326      1.618
REMARK INTER + INTRA:          -4.799
REMARK INTER:                  -5.110
REMARK INTRA:                   0.311
REMARK UNBOUND:                 0.202
REMARK SMILES CC1=CCC(=C(C)C)C(=O)CC(C)=CCC1
REMARK SMILES IDX 12 1 14 2 13 3 15 4 16 5 2 6 1 7 3 8 11 10 9 11 10 12 5 13
REMARK SMILES IDX 6 14 7 15 8 16 4 17
REMARK H PARENT
REMARK Flexibility Score: 60.00
ROOT
ATOM      1  C   UNL     1       9.710 -10.192 -44.928  1.00  0.00    -0.070 C 
ATOM      2  C   UNL     1       8.502 -10.153 -45.532  1.00  0.00    -0.027 C 
ATOM      3  C   UNL     1      10.128  -8.996 -44.110  1.00  0.00     0.039 C 
ENDROOT
BRANCH   2   4
ATOM      4  C   UNL     1       7.948 -11.207 -46.467  1.00  0.00     0.032 C 
BRANCH   4   5
ATOM      5  C   UNL     1       7.367 -12.453 -45.768  1.00  0.00     0.034 C 
BRANCH   5   6
ATOM      6  C   UNL     1       8.030 -13.747 -46.206  1.00  0.00    -0.077 C 
ATOM      7  C   UNL     1       7.745 -14.243 -47.602  1.00  0.00     0.039 C 
ATOM      8  C   UNL     1       8.804 -14.519 -45.405  1.00  0.00    -0.023 CG0
ATOM      9  G   UNL     1       9.238 -14.216 -43.984  1.00  0.00     0.000 G0
ENDBRANCH   5   6
ENDBRANCH   4   5
ENDBRANCH   2   4
BRANCH   1  10
ATOM     10  C   UNL     1      10.693 -11.330 -45.107  1.00  0.00     0.111 C 
BRANCH  10  11
ATOM     11  C   UNL     1      10.786 -12.183 -43.869  1.00  0.00     0.163 C 
ATOM     12  O   UNL     1      11.036 -11.613 -42.773  1.00  0.00    -0.294 OA
BRANCH  11  13
ATOM     13  C   UNL     1      10.655 -13.670 -43.909  1.00  0.00    -0.002 C 
ATOM     14  C   UNL     1      11.764 -14.468 -43.969  1.00  0.00    -0.069 C 
ATOM     15  C   UNL     1      11.664 -15.964 -44.169  1.00  0.00     0.039 C 
ATOM     16  C   UNL     1      13.156 -13.887 -43.838  1.00  0.00     0.039 C 
BRANCH  13  17
ATOM     17  C   UNL     1       9.249 -14.243 -43.977  1.00  0.00     0.066 CG0
ATOM     18  G   UNL     1       8.803 -14.508 -45.402  1.00  0.00     0.000 G0
ENDBRANCH  13  17
ENDBRANCH  11  13
ENDBRANCH  10  11
ENDBRANCH   1  10
TORSDOF 0
ENDMDL
MODEL 5
REMARK VINA RESULT:    -3.526     11.131     12.999
REMARK INTER + INTRA:          -4.766
REMARK INTER:                  -5.230
REMARK INTRA:                   0.464
REMARK UNBOUND:                 0.202
REMARK SMILES CC1=CCC(=C(C)C)C(=O)CC(C)=CCC1
REMARK SMILES IDX 12 1 14 2 13 3 15 4 16 5 2 6 1 7 3 8 11 10 9 11 10 12 5 13
REMARK SMILES IDX 6 14 7 15 8 16 4 17
REMARK H PARENT
REMARK Flexibility Score: 60.00
ROOT
ATOM      1  C   UNL     1       9.782 -24.495 -37.098  1.00  0.00    -0.070 C 
ATOM      2  C   UNL     1       9.048 -24.208 -36.000  1.00  0.00    -0.027 C 
ATOM      3  C   UNL     1       9.256 -25.546 -38.043  1.00  0.00     0.039 C 
ENDROOT
BRANCH   2   4
ATOM      4  C   UNL     1       9.450 -23.260 -34.891  1.00  0.00     0.032 C 
BRANCH   4   5
ATOM      5  C   UNL     1       8.593 -21.982 -34.788  1.00  0.00     0.034 C 
BRANCH   5   6
ATOM      6  C   UNL     1       8.222 -21.400 -36.141  1.00  0.00    -0.077 C 
ATOM      7  C   UNL     1       6.795 -21.559 -36.605  1.00  0.00     0.039 C 
ATOM      8  C   UNL     1       9.101 -20.809 -36.986  1.00  0.00    -0.023 CG0
ATOM      9  G   UNL     1      10.568 -20.525 -36.728  1.00  0.00     0.000 G0
ENDBRANCH   5   6
ENDBRANCH   4   5
ENDBRANCH   2   4
BRANCH   1  10
ATOM     10  C   UNL     1      11.140 -23.883 -37.373  1.00  0.00     0.111 C 
BRANCH  10  11
ATOM     11  C   UNL     1      11.024 -22.603 -38.156  1.00  0.00     0.163 C 
ATOM     12  O   UNL     1      10.546 -22.662 -39.322  1.00  0.00    -0.294 OA
BRANCH  11  13
ATOM     13  C   UNL     1      11.509 -21.293 -37.628  1.00  0.00    -0.002 C 
ATOM     14  C   UNL     1      12.780 -20.862 -37.889  1.00  0.00    -0.069 C 
ATOM     15  C   UNL     1      13.353 -19.620 -37.240  1.00  0.00     0.039 C 
ATOM     16  C   UNL     1      13.682 -21.611 -38.845  1.00  0.00     0.039 C 
BRANCH  13  17
ATOM     17  C   UNL     1      10.568 -20.519 -36.719  1.00  0.00     0.066 CG0
ATOM     18  G   UNL     1       9.111 -20.820 -37.006  1.00  0.00     0.000 G0
ENDBRANCH  13  17
ENDBRANCH  11  13
ENDBRANCH  10  11
ENDBRANCH   1  10
TORSDOF 0
ENDMDL
MODEL 6
REMARK VINA RESULT:    -3.491     10.292     12.362
REMARK INTER + INTRA:          -4.717
REMARK INTER:                  -5.192
REMARK INTRA:                   0.475
REMARK UNBOUND:                 0.202
REMARK SMILES CC1=CCC(=C(C)C)C(=O)CC(C)=CCC1
REMARK SMILES IDX 12 1 14 2 13 3 15 4 16 5 2 6 1 7 3 8 11 10 9 11 10 12 5 13
REMARK SMILES IDX 6 14 7 15 8 16 4 17
REMARK H PARENT
REMARK Flexibility Score: 60.00
ROOT
ATOM      1  C   UNL     1      13.002 -19.838 -38.220  1.00  0.00    -0.070 C 
ATOM      2  C   UNL     1      14.066 -20.634 -38.461  1.00  0.00    -0.027 C 
ATOM      3  C   UNL     1      12.783 -18.657 -39.132  1.00  0.00     0.039 C 
ENDROOT
BRANCH   2   4
ATOM      4  C   UNL     1      14.507 -21.803 -37.607  1.00  0.00     0.032 C 
BRANCH   4   5
ATOM      5  C   UNL     1      14.316 -23.189 -38.257  1.00  0.00     0.034 C 
BRANCH   5   6
ATOM      6  C   UNL     1      13.064 -23.281 -39.111  1.00  0.00    -0.077 C 
ATOM      7  C   UNL     1      13.234 -23.245 -40.610  1.00  0.00     0.039 C 
ATOM      8  C   UNL     1      11.803 -23.326 -38.617  1.00  0.00    -0.023 CG0
ATOM      9  G   UNL     1      11.394 -23.391 -37.159  1.00  0.00     0.000 G0
ENDBRANCH   5   6
ENDBRANCH   4   5
ENDBRANCH   2   4
BRANCH   1  10
ATOM     10  C   UNL     1      12.079 -20.020 -37.032  1.00  0.00     0.111 C 
BRANCH  10  11
ATOM     11  C   UNL     1      10.881 -20.861 -37.384  1.00  0.00     0.163 C 
ATOM     12  O   UNL     1      10.072 -20.413 -38.242  1.00  0.00    -0.294 OA
BRANCH  11  13
ATOM     13  C   UNL     1      10.589 -22.162 -36.712  1.00  0.00    -0.002 C 
ATOM     14  C   UNL     1       9.698 -22.230 -35.677  1.00  0.00    -0.069 C 
ATOM     15  C   UNL     1       9.499 -23.497 -34.873  1.00  0.00     0.039 C 
ATOM     16  C   UNL     1       8.863 -21.032 -35.281  1.00  0.00     0.039 C 
BRANCH  13  17
ATOM     17  C   UNL     1      11.391 -23.372 -37.162  1.00  0.00     0.066 CG0
ATOM     18  G   UNL     1      11.780 -23.294 -38.625  1.00  0.00     0.000 G0
ENDBRANCH  13  17
ENDBRANCH  11  13
ENDBRANCH  10  11
ENDBRANCH   1  10
TORSDOF 0
ENDMDL
MODEL 7
REMARK VINA RESULT:    -3.471      1.477      4.365
REMARK INTER + INTRA:          -4.689
REMARK INTER:                  -5.093
REMARK INTRA:                   0.403
REMARK UNBOUND:                 0.202
REMARK SMILES CC1=CCC(=C(C)C)C(=O)CC(C)=CCC1
REMARK SMILES IDX 12 1 14 2 13 3 15 4 16 5 2 6 1 7 3 8 11 10 9 11 10 12 5 13
REMARK SMILES IDX 6 14 7 15 8 16 4 17
REMARK H PARENT
REMARK Flexibility Score: 60.00
ROOT
ATOM      1  C   UNL     1      15.089 -12.230 -44.061  1.00  0.00    -0.070 C 
ATOM      2  C   UNL     1      15.346 -13.339 -44.789  1.00  0.00    -0.027 C 
ATOM      3  C   UNL     1      15.845 -12.042 -42.770  1.00  0.00     0.039 C 
ENDROOT
BRANCH   2   4
ATOM      4  C   UNL     1      14.627 -13.751 -46.055  1.00  0.00     0.032 C 
BRANCH   4   5
ATOM      5  C   UNL     1      13.916 -15.118 -45.981  1.00  0.00     0.034 C 
BRANCH   5   6
ATOM      6  C   UNL     1      12.910 -15.206 -44.846  1.00  0.00    -0.077 C 
ATOM      7  C   UNL     1      13.078 -16.324 -43.847  1.00  0.00     0.039 C 
ATOM      8  C   UNL     1      11.835 -14.392 -44.712  1.00  0.00    -0.023 CG0
ATOM      9  G   UNL     1      11.477 -13.200 -45.578  1.00  0.00     0.000 G0
ENDBRANCH   5   6
ENDBRANCH   4   5
ENDBRANCH   2   4
BRANCH   1  10
ATOM     10  C   UNL     1      14.021 -11.221 -44.431  1.00  0.00     0.111 C 
BRANCH  10  11
ATOM     11  C   UNL     1      12.664 -11.641 -43.931  1.00  0.00     0.163 C 
ATOM     12  O   UNL     1      12.529 -11.861 -42.696  1.00  0.00    -0.294 OA
BRANCH  11  13
ATOM     13  C   UNL     1      11.505 -11.864 -44.846  1.00  0.00    -0.002 C 
ATOM     14  C   UNL     1      10.496 -10.946 -44.933  1.00  0.00    -0.069 C 
ATOM     15  C   UNL     1       9.236 -11.213 -45.728  1.00  0.00     0.039 C 
ATOM     16  C   UNL     1      10.591  -9.608 -44.232  1.00  0.00     0.039 C 
BRANCH  13  17
ATOM     17  C   UNL     1      11.454 -13.187 -45.594  1.00  0.00     0.066 CG0
ATOM     18  G   UNL     1      11.839 -14.361 -44.715  1.00  0.00     0.000 G0
ENDBRANCH  13  17
ENDBRANCH  11  13
ENDBRANCH  10  11
ENDBRANCH   1  10
TORSDOF 0
ENDMDL
MODEL 8
REMARK VINA RESULT:    -3.341      1.793      5.134
REMARK INTER + INTRA:          -4.506
REMARK INTER:                  -4.800
REMARK INTRA:                   0.293
REMARK UNBOUND:                 0.202
REMARK SMILES CC1=CCC(=C(C)C)C(=O)CC(C)=CCC1
REMARK SMILES IDX 12 1 14 2 13 3 15 4 16 5 2 6 1 7 3 8 11 10 9 11 10 12 5 13
REMARK SMILES IDX 6 14 7 15 8 16 4 17
REMARK H PARENT
REMARK Flexibility Score: 60.00
ROOT
ATOM      1  C   UNL     1      11.910 -15.065 -45.847  1.00  0.00    -0.070 C 
ATOM      2  C   UNL     1      13.155 -15.382 -45.429  1.00  0.00    -0.027 C 
ATOM      3  C   UNL     1      10.985 -16.194 -46.226  1.00  0.00     0.039 C 
ENDROOT
BRANCH   2   4
ATOM      4  C   UNL     1      14.254 -14.395 -45.099  1.00  0.00     0.032 C 
BRANCH   4   5
ATOM      5  C   UNL     1      13.998 -13.537 -43.842  1.00  0.00     0.034 C 
BRANCH   5   6
ATOM      6  C   UNL     1      14.114 -12.045 -44.103  1.00  0.00    -0.077 C 
ATOM      7  C   UNL     1      15.420 -11.530 -44.653  1.00  0.00     0.039 C 
ATOM      8  C   UNL     1      13.148 -11.141 -43.811  1.00  0.00    -0.023 CG0
ATOM      9  G   UNL     1      11.759 -11.427 -43.274  1.00  0.00     0.000 G0
ENDBRANCH   5   6
ENDBRANCH   4   5
ENDBRANCH   2   4
BRANCH   1  10
ATOM     10  C   UNL     1      11.434 -13.639 -46.038  1.00  0.00     0.111 C 
BRANCH  10  11
ATOM     11  C   UNL     1      10.653 -13.150 -44.848  1.00  0.00     0.163 C 
ATOM     12  O   UNL     1       9.865 -13.957 -44.283  1.00  0.00    -0.294 OA
BRANCH  11  13
ATOM     13  C   UNL     1      10.732 -11.740 -44.362  1.00  0.00    -0.002 C 
ATOM     14  C   UNL     1       9.985 -10.756 -44.948  1.00  0.00    -0.069 C 
ATOM     15  C   UNL     1      10.158  -9.297 -44.586  1.00  0.00     0.039 C 
ATOM     16  C   UNL     1       8.942 -11.081 -45.995  1.00  0.00     0.039 C 
BRANCH  13  17
ATOM     17  C   UNL     1      11.739 -11.439 -43.264  1.00  0.00     0.066 CG0
ATOM     18  G   UNL     1      13.120 -11.144 -43.815  1.00  0.00     0.000 G0
ENDBRANCH  13  17
ENDBRANCH  11  13
ENDBRANCH  10  11
ENDBRANCH   1  10
TORSDOF 0
ENDMDL
MODEL 9
REMARK VINA RESULT:    -3.217     10.287     12.151
REMARK INTER + INTRA:          -4.331
REMARK INTER:                  -4.799
REMARK INTRA:                   0.468
REMARK UNBOUND:                 0.202
REMARK SMILES CC1=CCC(=C(C)C)C(=O)CC(C)=CCC1
REMARK SMILES IDX 12 1 14 2 13 3 15 4 16 5 2 6 1 7 3 8 11 10 9 11 10 12 5 13
REMARK SMILES IDX 6 14 7 15 8 16 4 17
REMARK H PARENT
REMARK Flexibility Score: 60.00
ROOT
ATOM      1  C   UNL     1      12.512 -19.589 -37.815  1.00  0.00    -0.070 C 
ATOM      2  C   UNL     1      11.303 -19.306 -37.280  1.00  0.00    -0.027 C 
ATOM      3  C   UNL     1      13.052 -18.657 -38.870  1.00  0.00     0.039 C 
ENDROOT
BRANCH   2   4
ATOM      4  C   UNL     1      10.554 -20.166 -36.286  1.00  0.00     0.032 C 
BRANCH   4   5
ATOM      5  C   UNL     1       9.556 -21.161 -36.913  1.00  0.00     0.034 C 
BRANCH   5   6
ATOM      6  C   UNL     1       9.928 -22.613 -36.670  1.00  0.00    -0.077 C 
ATOM      7  C   UNL     1       9.466 -23.248 -35.382  1.00  0.00     0.039 C 
ATOM      8  C   UNL     1      10.702 -23.353 -37.501  1.00  0.00    -0.023 CG0
ATOM      9  G   UNL     1      11.259 -22.935 -38.847  1.00  0.00     0.000 G0
ENDBRANCH   5   6
ENDBRANCH   4   5
ENDBRANCH   2   4
BRANCH   1  10
ATOM     10  C   UNL     1      13.300 -20.837 -37.474  1.00  0.00     0.111 C 
BRANCH  10  11
ATOM     11  C   UNL     1      13.527 -21.699 -38.688  1.00  0.00     0.163 C 
ATOM     12  O   UNL     1      14.328 -21.283 -39.569  1.00  0.00    -0.294 OA
BRANCH  11  13
ATOM     13  C   UNL     1      12.795 -22.981 -38.909  1.00  0.00    -0.002 C 
ATOM     14  C   UNL     1      13.472 -24.126 -39.225  1.00  0.00    -0.069 C 
ATOM     15  C   UNL     1      12.753 -25.402 -39.609  1.00  0.00     0.039 C 
ATOM     16  C   UNL     1      14.984 -24.174 -39.208  1.00  0.00     0.039 C 
BRANCH  13  17
ATOM     17  C   UNL     1      11.277 -22.933 -38.861  1.00  0.00     0.066 CG0
ATOM     18  G   UNL     1      10.729 -23.351 -37.511  1.00  0.00     0.000 G0
ENDBRANCH  13  17
ENDBRANCH  11  13
ENDBRANCH  10  11
ENDBRANCH   1  10
TORSDOF 0
ENDMDL
