MODEL 1
REMARK VINA RESULT:    -3.368      0.000      0.000
REMARK INTER + INTRA:         -10.511
REMARK INTER:                  -7.306
REMARK INTRA:                  -3.205
REMARK UNBOUND:                -3.205
REMARK SMILES CCCCCCCCCCCCCCCCCCCCCC(=O)[O-]
REMARK SMILES IDX 12 1 11 2 10 3 9 4 8 5 7 6 6 7 5 8 4 9 3 10 2 11 1 12 13 13
REMARK SMILES IDX 14 14 15 15 16 16 17 17 18 18 19 19 20 20 21 21 22 22 23 23
REMARK SMILES IDX 24 24
REMARK H PARENT
REMARK Flexibility Score: inf
ROOT
ATOM      1  C   UNL     1      10.378   7.296   8.854  1.00  0.00     0.000 C 
ENDROOT
BRANCH   1   2
ATOM      2  C   UNL     1       9.402   6.370   9.595  1.00  0.00     0.000 C 
BRANCH   2   3
ATOM      3  C   UNL     1       8.240   7.134  10.251  1.00  0.00     0.000 C 
BRANCH   3   4
ATOM      4  C   UNL     1       8.545   7.540  11.703  1.00  0.00    -0.000 C 
BRANCH   4   5
ATOM      5  C   UNL     1       8.965   9.013  11.829  1.00  0.00    -0.000 C 
BRANCH   5   6
ATOM      6  C   UNL     1      10.435   9.178  12.252  1.00  0.00    -0.000 C 
BRANCH   6   7
ATOM      7  C   UNL     1      10.989   7.929  12.954  1.00  0.00    -0.000 C 
BRANCH   7   8
ATOM      8  C   UNL     1      12.226   7.352  12.242  1.00  0.00    -0.000 C 
BRANCH   8   9
ATOM      9  C   UNL     1      13.326   6.924  13.228  1.00  0.00    -0.000 C 
BRANCH   9  10
ATOM     10  C   UNL     1      14.739   7.241  12.708  1.00  0.00    -0.000 C 
BRANCH  10  11
ATOM     11  C   UNL     1      14.740   7.676  11.235  1.00  0.00    -0.003 C 
ATOM     12  C   UNL     1      15.280   6.593  10.301  1.00  0.00     0.004 C 
ENDBRANCH  10  11
ENDBRANCH   9  10
ENDBRANCH   8   9
ENDBRANCH   7   8
ENDBRANCH   6   7
ENDBRANCH   5   6
ENDBRANCH   4   5
ENDBRANCH   3   4
ENDBRANCH   2   3
ENDBRANCH   1   2
BRANCH   1  13
ATOM     13  C   UNL     1      11.607   6.516   8.364  1.00  0.00     0.000 C 
BRANCH  13  14
ATOM     14  C   UNL     1      11.805   6.598   6.839  1.00  0.00     0.000 C 
BRANCH  14  15
ATOM     15  C   UNL     1      10.668   7.292   6.065  1.00  0.00     0.000 C 
BRANCH  15  16
ATOM     16  C   UNL     1      11.056   8.691   5.558  1.00  0.00     0.000 C 
BRANCH  16  17
ATOM     17  C   UNL     1      10.045   9.779   5.965  1.00  0.00     0.000 C 
BRANCH  17  18
ATOM     18  C   UNL     1       8.583   9.309   6.083  1.00  0.00     0.000 C 
BRANCH  18  19
ATOM     19  C   UNL     1       7.938   9.682   7.426  1.00  0.00     0.000 C 
BRANCH  19  20
ATOM     20  C   UNL     1       8.918  10.462   8.308  1.00  0.00     0.006 C 
BRANCH  20  21
ATOM     21  C   UNL     1       8.265  11.728   8.872  1.00  0.00     0.053 C 
BRANCH  21  22
ATOM     22  C   UNL     1       8.101  12.756   7.798  1.00  0.00     0.041 C 
ATOM     23  O   UNL     1       9.090  13.107   7.102  1.00  0.00    -0.550 OA
ATOM     24  O   UNL     1       6.869  13.365   7.601  1.00  0.00    -0.550 OA
ENDBRANCH  21  22
ENDBRANCH  20  21
ENDBRANCH  19  20
ENDBRANCH  18  19
ENDBRANCH  17  18
ENDBRANCH  16  17
ENDBRANCH  15  16
ENDBRANCH  14  15
ENDBRANCH  13  14
ENDBRANCH   1  13
TORSDOF 20
ENDMDL
MODEL 2
REMARK VINA RESULT:    -3.334      3.538      6.519
REMARK INTER + INTRA:         -10.437
REMARK INTER:                  -6.660
REMARK INTRA:                  -3.776
REMARK UNBOUND:                -3.205
REMARK SMILES CCCCCCCCCCCCCCCCCCCCCC(=O)[O-]
REMARK SMILES IDX 12 1 11 2 10 3 9 4 8 5 7 6 6 7 5 8 4 9 3 10 2 11 1 12 13 13
REMARK SMILES IDX 14 14 15 15 16 16 17 17 18 18 19 19 20 20 21 21 22 22 23 23
REMARK SMILES IDX 24 24
REMARK H PARENT
REMARK Flexibility Score: inf
ROOT
ATOM      1  C   UNL     1       5.151  10.050   8.880  1.00  0.00     0.000 C 
ENDROOT
BRANCH   1   2
ATOM      2  C   UNL     1       5.057  10.897  10.158  1.00  0.00     0.000 C 
BRANCH   2   3
ATOM      3  C   UNL     1       6.102  10.498  11.212  1.00  0.00     0.000 C 
BRANCH   3   4
ATOM      4  C   UNL     1       6.965   9.305  10.767  1.00  0.00    -0.000 C 
BRANCH   4   5
ATOM      5  C   UNL     1       8.469   9.617  10.807  1.00  0.00    -0.000 C 
BRANCH   5   6
ATOM      6  C   UNL     1       9.092   9.721   9.404  1.00  0.00    -0.000 C 
BRANCH   6   7
ATOM      7  C   UNL     1       9.002  11.141   8.824  1.00  0.00    -0.000 C 
BRANCH   7   8
ATOM      8  C   UNL     1       8.913  11.147   7.287  1.00  0.00    -0.000 C 
BRANCH   8   9
ATOM      9  C   UNL     1       8.357   9.828   6.725  1.00  0.00    -0.000 C 
BRANCH   9  10
ATOM     10  C   UNL     1       9.100   9.367   5.459  1.00  0.00    -0.000 C 
BRANCH  10  11
ATOM     11  C   UNL     1      10.611   9.209   5.689  1.00  0.00    -0.003 C 
ATOM     12  C   UNL     1      10.952   7.986   6.541  1.00  0.00     0.004 C 
ENDBRANCH  10  11
ENDBRANCH   9  10
ENDBRANCH   8   9
ENDBRANCH   7   8
ENDBRANCH   6   7
ENDBRANCH   5   6
ENDBRANCH   4   5
ENDBRANCH   3   4
ENDBRANCH   2   3
ENDBRANCH   1   2
BRANCH   1  13
ATOM     13  C   UNL     1       4.948  10.921   7.630  1.00  0.00     0.000 C 
BRANCH  13  14
ATOM     14  C   UNL     1       4.839  12.423   7.953  1.00  0.00     0.000 C 
BRANCH  14  15
ATOM     15  C   UNL     1       6.063  13.270   7.559  1.00  0.00     0.000 C 
BRANCH  15  16
ATOM     16  C   UNL     1       6.658  14.052   8.742  1.00  0.00     0.000 C 
BRANCH  16  17
ATOM     17  C   UNL     1       5.583  14.638   9.677  1.00  0.00     0.000 C 
BRANCH  17  18
ATOM     18  C   UNL     1       5.765  14.316  11.172  1.00  0.00     0.000 C 
BRANCH  18  19
ATOM     19  C   UNL     1       6.870  15.151  11.836  1.00  0.00     0.000 C 
BRANCH  19  20
ATOM     20  C   UNL     1       7.531  14.375  12.981  1.00  0.00     0.006 C 
BRANCH  20  21
ATOM     21  C   UNL     1       8.257  13.132  12.457  1.00  0.00     0.053 C 
BRANCH  21  22
ATOM     22  C   UNL     1       9.737  13.346  12.467  1.00  0.00     0.041 C 
ATOM     23  O   UNL     1      10.485  12.631  11.750  1.00  0.00    -0.550 OA
ATOM     24  O   UNL     1      10.296  14.300  13.308  1.00  0.00    -0.550 OA
ENDBRANCH  21  22
ENDBRANCH  20  21
ENDBRANCH  19  20
ENDBRANCH  18  19
ENDBRANCH  17  18
ENDBRANCH  16  17
ENDBRANCH  15  16
ENDBRANCH  14  15
ENDBRANCH  13  14
ENDBRANCH   1  13
TORSDOF 20
ENDMDL
MODEL 3
REMARK VINA RESULT:    -3.237      3.960      6.936
REMARK INTER + INTRA:         -10.226
REMARK INTER:                  -6.935
REMARK INTRA:                  -3.291
REMARK UNBOUND:                -3.205
REMARK SMILES CCCCCCCCCCCCCCCCCCCCCC(=O)[O-]
REMARK SMILES IDX 12 1 11 2 10 3 9 4 8 5 7 6 6 7 5 8 4 9 3 10 2 11 1 12 13 13
REMARK SMILES IDX 14 14 15 15 16 16 17 17 18 18 19 19 20 20 21 21 22 22 23 23
REMARK SMILES IDX 24 24
REMARK H PARENT
REMARK Flexibility Score: inf
ROOT
ATOM      1  C   UNL     1       8.317   7.968   5.662  1.00  0.00     0.000 C 
ENDROOT
BRANCH   1   2
ATOM      2  C   UNL     1       7.268   8.346   6.719  1.00  0.00     0.000 C 
BRANCH   2   3
ATOM      3  C   UNL     1       7.636   7.847   8.126  1.00  0.00     0.000 C 
BRANCH   3   4
ATOM      4  C   UNL     1       7.753   8.992   9.147  1.00  0.00    -0.000 C 
BRANCH   4   5
ATOM      5  C   UNL     1       9.124   9.686   9.101  1.00  0.00    -0.000 C 
BRANCH   5   6
ATOM      6  C   UNL     1       9.010  11.220   9.049  1.00  0.00    -0.000 C 
BRANCH   6   7
ATOM      7  C   UNL     1       8.916  11.754   7.612  1.00  0.00    -0.000 C 
BRANCH   7   8
ATOM      8  C   UNL     1       8.001  12.987   7.500  1.00  0.00    -0.000 C 
BRANCH   8   9
ATOM      9  C   UNL     1       6.856  12.965   8.525  1.00  0.00    -0.000 C 
BRANCH   9  10
ATOM     10  C   UNL     1       5.490  12.675   7.878  1.00  0.00    -0.000 C 
BRANCH  10  11
ATOM     11  C   UNL     1       5.201  11.171   7.765  1.00  0.00    -0.003 C 
ATOM     12  C   UNL     1       3.707  10.851   7.828  1.00  0.00     0.004 C 
ENDBRANCH  10  11
ENDBRANCH   9  10
ENDBRANCH   8   9
ENDBRANCH   7   8
ENDBRANCH   6   7
ENDBRANCH   5   6
ENDBRANCH   4   5
ENDBRANCH   3   4
ENDBRANCH   2   3
ENDBRANCH   1   2
BRANCH   1  13
ATOM     13  C   UNL     1       9.128   9.199   5.230  1.00  0.00     0.000 C 
BRANCH  13  14
ATOM     14  C   UNL     1      10.614   9.111   5.624  1.00  0.00     0.000 C 
BRANCH  14  15
ATOM     15  C   UNL     1      10.998   7.884   6.472  1.00  0.00     0.000 C 
BRANCH  15  16
ATOM     16  C   UNL     1      11.883   6.883   5.711  1.00  0.00     0.000 C 
BRANCH  16  17
ATOM     17  C   UNL     1      12.610   7.515   4.510  1.00  0.00     0.000 C 
BRANCH  17  18
ATOM     18  C   UNL     1      12.350   6.837   3.152  1.00  0.00     0.000 C 
BRANCH  18  19
ATOM     19  C   UNL     1      11.378   7.626   2.263  1.00  0.00     0.000 C 
BRANCH  19  20
ATOM     20  C   UNL     1       9.956   7.066   2.371  1.00  0.00     0.006 C 
BRANCH  20  21
ATOM     21  C   UNL     1       9.252   7.083   1.011  1.00  0.00     0.053 C 
BRANCH  21  22
ATOM     22  C   UNL     1       8.798   8.468   0.673  1.00  0.00     0.041 C 
ATOM     23  O   UNL     1       9.266   9.060  -0.335  1.00  0.00    -0.550 OA
ATOM     24  O   UNL     1       7.896   9.125   1.500  1.00  0.00    -0.550 OA
ENDBRANCH  21  22
ENDBRANCH  20  21
ENDBRANCH  19  20
ENDBRANCH  18  19
ENDBRANCH  17  18
ENDBRANCH  16  17
ENDBRANCH  15  16
ENDBRANCH  14  15
ENDBRANCH  13  14
ENDBRANCH   1  13
TORSDOF 20
ENDMDL
MODEL 4
REMARK VINA RESULT:    -3.217      1.851      4.485
REMARK INTER + INTRA:         -10.183
REMARK INTER:                  -7.267
REMARK INTRA:                  -2.916
REMARK UNBOUND:                -3.205
REMARK SMILES CCCCCCCCCCCCCCCCCCCCCC(=O)[O-]
REMARK SMILES IDX 12 1 11 2 10 3 9 4 8 5 7 6 6 7 5 8 4 9 3 10 2 11 1 12 13 13
REMARK SMILES IDX 14 14 15 15 16 16 17 17 18 18 19 19 20 20 21 21 22 22 23 23
REMARK SMILES IDX 24 24
REMARK H PARENT
REMARK Flexibility Score: inf
ROOT
ATOM      1  C   UNL     1      13.090   7.169  12.477  1.00  0.00     0.000 C 
ENDROOT
BRANCH   1   2
ATOM      2  C   UNL     1      14.257   7.649  11.602  1.00  0.00     0.000 C 
BRANCH   2   3
ATOM      3  C   UNL     1      15.479   8.085  12.427  1.00  0.00     0.000 C 
BRANCH   3   4
ATOM      4  C   UNL     1      15.474   7.492  13.847  1.00  0.00    -0.000 C 
BRANCH   4   5
ATOM      5  C   UNL     1      16.631   6.506  14.078  1.00  0.00    -0.000 C 
BRANCH   5   6
ATOM      6  C   UNL     1      16.197   5.037  13.931  1.00  0.00    -0.000 C 
BRANCH   6   7
ATOM      7  C   UNL     1      16.478   4.478  12.528  1.00  0.00    -0.000 C 
BRANCH   7   8
ATOM      8  C   UNL     1      15.195   4.036  11.802  1.00  0.00    -0.000 C 
BRANCH   8   9
ATOM      9  C   UNL     1      15.336   4.089  10.272  1.00  0.00    -0.000 C 
BRANCH   9  10
ATOM     10  C   UNL     1      16.276   5.214   9.805  1.00  0.00    -0.000 C 
BRANCH  10  11
ATOM     11  C   UNL     1      15.719   5.981   8.596  1.00  0.00    -0.003 C 
ATOM     12  C   UNL     1      14.828   5.113   7.707  1.00  0.00     0.004 C 
ENDBRANCH  10  11
ENDBRANCH   9  10
ENDBRANCH   8   9
ENDBRANCH   7   8
ENDBRANCH   6   7
ENDBRANCH   5   6
ENDBRANCH   4   5
ENDBRANCH   3   4
ENDBRANCH   2   3
ENDBRANCH   1   2
BRANCH   1  13
ATOM     13  C   UNL     1      12.111   6.311  11.662  1.00  0.00     0.000 C 
BRANCH  13  14
ATOM     14  C   UNL     1      12.383   6.360  10.147  1.00  0.00     0.000 C 
BRANCH  14  15
ATOM     15  C   UNL     1      11.135   6.527   9.260  1.00  0.00     0.000 C 
BRANCH  15  16
ATOM     16  C   UNL     1      11.478   6.771   7.781  1.00  0.00     0.000 C 
BRANCH  16  17
ATOM     17  C   UNL     1      10.322   7.414   6.994  1.00  0.00     0.000 C 
BRANCH  17  18
ATOM     18  C   UNL     1      10.739   8.489   5.973  1.00  0.00     0.000 C 
BRANCH  18  19
ATOM     19  C   UNL     1       9.945   9.796   6.118  1.00  0.00     0.000 C 
BRANCH  19  20
ATOM     20  C   UNL     1       9.212   9.847   7.463  1.00  0.00     0.006 C 
BRANCH  20  21
ATOM     21  C   UNL     1       8.139  10.940   7.465  1.00  0.00     0.053 C 
BRANCH  21  22
ATOM     22  C   UNL     1       8.413  11.942   8.542  1.00  0.00     0.041 C 
ATOM     23  O   UNL     1       7.914  13.096   8.475  1.00  0.00    -0.550 OA
ATOM     24  O   UNL     1       9.260  11.618   9.593  1.00  0.00    -0.550 OA
ENDBRANCH  21  22
ENDBRANCH  20  21
ENDBRANCH  19  20
ENDBRANCH  18  19
ENDBRANCH  17  18
ENDBRANCH  16  17
ENDBRANCH  15  16
ENDBRANCH  14  15
ENDBRANCH  13  14
ENDBRANCH   1  13
TORSDOF 20
ENDMDL
MODEL 5
REMARK VINA RESULT:    -3.205      3.695      6.745
REMARK INTER + INTRA:         -10.156
REMARK INTER:                  -6.354
REMARK INTRA:                  -3.802
REMARK UNBOUND:                -3.205
REMARK SMILES CCCCCCCCCCCCCCCCCCCCCC(=O)[O-]
REMARK SMILES IDX 12 1 11 2 10 3 9 4 8 5 7 6 6 7 5 8 4 9 3 10 2 11 1 12 13 13
REMARK SMILES IDX 14 14 15 15 16 16 17 17 18 18 19 19 20 20 21 21 22 22 23 23
REMARK SMILES IDX 24 24
REMARK H PARENT
REMARK Flexibility Score: inf
ROOT
ATOM      1  C   UNL     1       9.163  11.148   8.785  1.00  0.00     0.000 C 
ENDROOT
BRANCH   1   2
ATOM      2  C   UNL     1       8.755  10.718  10.203  1.00  0.00     0.000 C 
BRANCH   2   3
ATOM      3  C   UNL     1       7.507  11.458  10.711  1.00  0.00     0.000 C 
BRANCH   3   4
ATOM      4  C   UNL     1       7.658  12.988  10.640  1.00  0.00    -0.000 C 
BRANCH   4   5
ATOM      5  C   UNL     1       6.450  13.670   9.978  1.00  0.00    -0.000 C 
BRANCH   5   6
ATOM      6  C   UNL     1       6.710  14.039   8.507  1.00  0.00    -0.000 C 
BRANCH   6   7
ATOM      7  C   UNL     1       6.001  13.091   7.528  1.00  0.00    -0.000 C 
BRANCH   7   8
ATOM      8  C   UNL     1       4.642  12.601   8.061  1.00  0.00    -0.000 C 
BRANCH   8   9
ATOM      9  C   UNL     1       4.461  11.082   7.904  1.00  0.00    -0.000 C 
BRANCH   9  10
ATOM     10  C   UNL     1       5.782  10.361   7.586  1.00  0.00    -0.000 C 
BRANCH  10  11
ATOM     11  C   UNL     1       5.668   8.836   7.730  1.00  0.00    -0.003 C 
ATOM     12  C   UNL     1       6.158   8.333   9.089  1.00  0.00     0.004 C 
ENDBRANCH  10  11
ENDBRANCH   9  10
ENDBRANCH   8   9
ENDBRANCH   7   8
ENDBRANCH   6   7
ENDBRANCH   5   6
ENDBRANCH   4   5
ENDBRANCH   3   4
ENDBRANCH   2   3
ENDBRANCH   1   2
BRANCH   1  13
ATOM     13  C   UNL     1       9.378   9.925   7.882  1.00  0.00     0.000 C 
BRANCH  13  14
ATOM     14  C   UNL     1       9.369  10.273   6.382  1.00  0.00     0.000 C 
BRANCH  14  15
ATOM     15  C   UNL     1      10.060   9.246   5.465  1.00  0.00     0.000 C 
BRANCH  15  16
ATOM     16  C   UNL     1       9.106   8.628   4.430  1.00  0.00     0.000 C 
BRANCH  16  17
ATOM     17  C   UNL     1       8.009   7.757   5.069  1.00  0.00     0.000 C 
BRANCH  17  18
ATOM     18  C   UNL     1       8.442   6.330   5.453  1.00  0.00     0.000 C 
BRANCH  18  19
ATOM     19  C   UNL     1       7.984   5.920   6.861  1.00  0.00     0.000 C 
BRANCH  19  20
ATOM     20  C   UNL     1       9.165   5.418   7.698  1.00  0.00     0.006 C 
BRANCH  20  21
ATOM     21  C   UNL     1       9.921   6.585   8.341  1.00  0.00     0.053 C 
BRANCH  21  22
ATOM     22  C   UNL     1      11.375   6.521   7.997  1.00  0.00     0.041 C 
ATOM     23  O   UNL     1      11.738   6.440   6.794  1.00  0.00    -0.550 OA
ATOM     24  O   UNL     1      12.328   6.500   9.007  1.00  0.00    -0.550 OA
ENDBRANCH  21  22
ENDBRANCH  20  21
ENDBRANCH  19  20
ENDBRANCH  18  19
ENDBRANCH  17  18
ENDBRANCH  16  17
ENDBRANCH  15  16
ENDBRANCH  14  15
ENDBRANCH  13  14
ENDBRANCH   1  13
TORSDOF 20
ENDMDL
MODEL 6
REMARK VINA RESULT:    -3.196      3.103      5.850
REMARK INTER + INTRA:         -10.137
REMARK INTER:                  -6.626
REMARK INTRA:                  -3.511
REMARK UNBOUND:                -3.205
REMARK SMILES CCCCCCCCCCCCCCCCCCCCCC(=O)[O-]
REMARK SMILES IDX 12 1 11 2 10 3 9 4 8 5 7 6 6 7 5 8 4 9 3 10 2 11 1 12 13 13
REMARK SMILES IDX 14 14 15 15 16 16 17 17 18 18 19 19 20 20 21 21 22 22 23 23
REMARK SMILES IDX 24 24
REMARK H PARENT
REMARK Flexibility Score: inf
ROOT
ATOM      1  C   UNL     1       5.429   9.855   8.447  1.00  0.00     0.000 C 
ENDROOT
BRANCH   1   2
ATOM      2  C   UNL     1       4.779  10.893   7.519  1.00  0.00     0.000 C 
BRANCH   2   3
ATOM      3  C   UNL     1       4.518  12.235   8.219  1.00  0.00     0.000 C 
BRANCH   3   4
ATOM      4  C   UNL     1       5.293  13.398   7.575  1.00  0.00    -0.000 C 
BRANCH   4   5
ATOM      5  C   UNL     1       6.118  14.196   8.598  1.00  0.00    -0.000 C 
BRANCH   5   6
ATOM      6  C   UNL     1       6.349  13.421   9.908  1.00  0.00    -0.000 C 
BRANCH   6   7
ATOM      7  C   UNL     1       7.788  12.899  10.037  1.00  0.00    -0.000 C 
BRANCH   7   8
ATOM      8  C   UNL     1       7.868  11.575  10.818  1.00  0.00    -0.000 C 
BRANCH   8   9
ATOM      9  C   UNL     1       9.312  11.073  10.979  1.00  0.00    -0.000 C 
BRANCH   9  10
ATOM     10  C   UNL     1       9.437   9.972  12.047  1.00  0.00    -0.000 C 
BRANCH  10  11
ATOM     11  C   UNL     1       9.245   8.564  11.465  1.00  0.00    -0.003 C 
ATOM     12  C   UNL     1      10.484   7.684  11.630  1.00  0.00     0.004 C 
ENDBRANCH  10  11
ENDBRANCH   9  10
ENDBRANCH   8   9
ENDBRANCH   7   8
ENDBRANCH   6   7
ENDBRANCH   5   6
ENDBRANCH   4   5
ENDBRANCH   3   4
ENDBRANCH   2   3
ENDBRANCH   1   2
BRANCH   1  13
ATOM     13  C   UNL     1       6.769   9.370   7.872  1.00  0.00     0.000 C 
BRANCH  13  14
ATOM     14  C   UNL     1       7.626  10.512   7.295  1.00  0.00     0.000 C 
BRANCH  14  15
ATOM     15  C   UNL     1       9.145  10.258   7.297  1.00  0.00     0.000 C 
BRANCH  15  16
ATOM     16  C   UNL     1       9.522   8.875   7.854  1.00  0.00     0.000 C 
BRANCH  16  17
ATOM     17  C   UNL     1      10.674   8.208   7.080  1.00  0.00     0.000 C 
BRANCH  17  18
ATOM     18  C   UNL     1      10.252   7.409   5.833  1.00  0.00     0.000 C 
BRANCH  18  19
ATOM     19  C   UNL     1       8.811   6.882   5.915  1.00  0.00     0.000 C 
BRANCH  19  20
ATOM     20  C   UNL     1       7.960   7.429   4.765  1.00  0.00     0.006 C 
BRANCH  20  21
ATOM     21  C   UNL     1       8.787   8.339   3.851  1.00  0.00     0.053 C 
BRANCH  21  22
ATOM     22  C   UNL     1       8.487   8.052   2.414  1.00  0.00     0.041 C 
ATOM     23  O   UNL     1       8.682   6.900   1.944  1.00  0.00    -0.550 OA
ATOM     24  O   UNL     1       8.040   9.069   1.581  1.00  0.00    -0.550 OA
ENDBRANCH  21  22
ENDBRANCH  20  21
ENDBRANCH  19  20
ENDBRANCH  18  19
ENDBRANCH  17  18
ENDBRANCH  16  17
ENDBRANCH  15  16
ENDBRANCH  14  15
ENDBRANCH  13  14
ENDBRANCH   1  13
TORSDOF 20
ENDMDL
MODEL 7
REMARK VINA RESULT:    -3.173      4.063      7.137
REMARK INTER + INTRA:         -10.088
REMARK INTER:                  -6.103
REMARK INTRA:                  -3.985
REMARK UNBOUND:                -3.205
REMARK SMILES CCCCCCCCCCCCCCCCCCCCCC(=O)[O-]
REMARK SMILES IDX 12 1 11 2 10 3 9 4 8 5 7 6 6 7 5 8 4 9 3 10 2 11 1 12 13 13
REMARK SMILES IDX 14 14 15 15 16 16 17 17 18 18 19 19 20 20 21 21 22 22 23 23
REMARK SMILES IDX 24 24
REMARK H PARENT
REMARK Flexibility Score: inf
ROOT
ATOM      1  C   UNL     1       3.095  11.148   7.866  1.00  0.00     0.000 C 
ENDROOT
BRANCH   1   2
ATOM      2  C   UNL     1       2.877  12.651   8.096  1.00  0.00     0.000 C 
BRANCH   2   3
ATOM      3  C   UNL     1       4.049  13.506   7.588  1.00  0.00     0.000 C 
BRANCH   3   4
ATOM      4  C   UNL     1       4.602  14.451   8.668  1.00  0.00    -0.000 C 
BRANCH   4   5
ATOM      5  C   UNL     1       6.135  14.398   8.769  1.00  0.00    -0.000 C 
BRANCH   5   6
ATOM      6  C   UNL     1       6.781  13.634   7.600  1.00  0.00    -0.000 C 
BRANCH   6   7
ATOM      7  C   UNL     1       7.765  12.553   8.074  1.00  0.00    -0.000 C 
BRANCH   7   8
ATOM      8  C   UNL     1       7.837  12.454   9.609  1.00  0.00    -0.000 C 
BRANCH   8   9
ATOM      9  C   UNL     1       7.946  11.001  10.100  1.00  0.00    -0.000 C 
BRANCH   9  10
ATOM     10  C   UNL     1       6.772  10.596  11.009  1.00  0.00    -0.000 C 
BRANCH  10  11
ATOM     11  C   UNL     1       5.950  11.805  11.480  1.00  0.00    -0.003 C 
ATOM     12  C   UNL     1       4.445  11.600  11.302  1.00  0.00     0.004 C 
ENDBRANCH  10  11
ENDBRANCH   9  10
ENDBRANCH   8   9
ENDBRANCH   7   8
ENDBRANCH   6   7
ENDBRANCH   5   6
ENDBRANCH   4   5
ENDBRANCH   3   4
ENDBRANCH   2   3
ENDBRANCH   1   2
BRANCH   1  13
ATOM     13  C   UNL     1       4.570  10.850   7.555  1.00  0.00     0.000 C 
BRANCH  13  14
ATOM     14  C   UNL     1       4.997   9.427   7.960  1.00  0.00     0.000 C 
BRANCH  14  15
ATOM     15  C   UNL     1       6.373   8.978   7.435  1.00  0.00     0.000 C 
BRANCH  15  16
ATOM     16  C   UNL     1       6.892   7.705   8.122  1.00  0.00     0.000 C 
BRANCH  16  17
ATOM     17  C   UNL     1       8.324   7.858   8.669  1.00  0.00     0.000 C 
BRANCH  17  18
ATOM     18  C   UNL     1       9.429   7.946   7.600  1.00  0.00     0.000 C 
BRANCH  18  19
ATOM     19  C   UNL     1       9.826   9.392   7.264  1.00  0.00     0.000 C 
BRANCH  19  20
ATOM     20  C   UNL     1       9.534   9.713   5.794  1.00  0.00     0.006 C 
BRANCH  20  21
ATOM     21  C   UNL     1       9.889   8.527   4.890  1.00  0.00     0.053 C 
BRANCH  21  22
ATOM     22  C   UNL     1       8.706   8.122   4.069  1.00  0.00     0.041 C 
ATOM     23  O   UNL     1       8.592   8.526   2.881  1.00  0.00    -0.550 OA
ATOM     24  O   UNL     1       7.705   7.341   4.630  1.00  0.00    -0.550 OA
ENDBRANCH  21  22
ENDBRANCH  20  21
ENDBRANCH  19  20
ENDBRANCH  18  19
ENDBRANCH  17  18
ENDBRANCH  16  17
ENDBRANCH  15  16
ENDBRANCH  14  15
ENDBRANCH  13  14
ENDBRANCH   1  13
TORSDOF 20
ENDMDL
MODEL 8
REMARK VINA RESULT:    -3.156      3.088      6.025
REMARK INTER + INTRA:         -10.050
REMARK INTER:                  -6.527
REMARK INTRA:                  -3.523
REMARK UNBOUND:                -3.205
REMARK SMILES CCCCCCCCCCCCCCCCCCCCCC(=O)[O-]
REMARK SMILES IDX 12 1 11 2 10 3 9 4 8 5 7 6 6 7 5 8 4 9 3 10 2 11 1 12 13 13
REMARK SMILES IDX 14 14 15 15 16 16 17 17 18 18 19 19 20 20 21 21 22 22 23 23
REMARK SMILES IDX 24 24
REMARK H PARENT
REMARK Flexibility Score: inf
ROOT
ATOM      1  C   UNL     1       7.601   9.384   7.012  1.00  0.00     0.000 C 
ENDROOT
BRANCH   1   2
ATOM      2  C   UNL     1       7.003   8.997   8.373  1.00  0.00     0.000 C 
BRANCH   2   3
ATOM      3  C   UNL     1       5.543   9.452   8.531  1.00  0.00     0.000 C 
BRANCH   3   4
ATOM      4  C   UNL     1       5.171  10.588   7.563  1.00  0.00    -0.000 C 
BRANCH   4   5
ATOM      5  C   UNL     1       5.210  11.971   8.234  1.00  0.00    -0.000 C 
BRANCH   5   6
ATOM      6  C   UNL     1       6.400  12.825   7.763  1.00  0.00    -0.000 C 
BRANCH   6   7
ATOM      7  C   UNL     1       7.321  13.240   8.920  1.00  0.00    -0.000 C 
BRANCH   7   8
ATOM      8  C   UNL     1       7.183  12.316  10.144  1.00  0.00    -0.000 C 
BRANCH   8   9
ATOM      9  C   UNL     1       8.500  12.173  10.925  1.00  0.00    -0.000 C 
BRANCH   9  10
ATOM     10  C   UNL     1       9.224  10.850  10.622  1.00  0.00    -0.000 C 
BRANCH  10  11
ATOM     11  C   UNL     1       8.920   9.762  11.663  1.00  0.00    -0.003 C 
ATOM     12  C   UNL     1      10.182   9.221  12.336  1.00  0.00     0.004 C 
ENDBRANCH  10  11
ENDBRANCH   9  10
ENDBRANCH   8   9
ENDBRANCH   7   8
ENDBRANCH   6   7
ENDBRANCH   5   6
ENDBRANCH   4   5
ENDBRANCH   3   4
ENDBRANCH   2   3
ENDBRANCH   1   2
BRANCH   1  13
ATOM     13  C   UNL     1       8.870  10.231   7.192  1.00  0.00     0.000 C 
BRANCH  13  14
ATOM     14  C   UNL     1       9.782  10.222   5.951  1.00  0.00     0.000 C 
BRANCH  14  15
ATOM     15  C   UNL     1       9.969   8.847   5.282  1.00  0.00     0.000 C 
BRANCH  15  16
ATOM     16  C   UNL     1      11.069   8.002   5.946  1.00  0.00     0.000 C 
BRANCH  16  17
ATOM     17  C   UNL     1      10.574   6.614   6.392  1.00  0.00     0.000 C 
BRANCH  17  18
ATOM     18  C   UNL     1       9.877   6.574   7.764  1.00  0.00     0.000 C 
BRANCH  18  19
ATOM     19  C   UNL     1      10.635   7.355   8.847  1.00  0.00     0.000 C 
BRANCH  19  20
ATOM     20  C   UNL     1      11.244   6.406   9.885  1.00  0.00     0.006 C 
BRANCH  20  21
ATOM     21  C   UNL     1      12.735   6.178   9.616  1.00  0.00     0.053 C 
BRANCH  21  22
ATOM     22  C   UNL     1      13.562   6.755  10.721  1.00  0.00     0.041 C 
ATOM     23  O   UNL     1      14.785   6.991  10.539  1.00  0.00    -0.550 OA
ATOM     24  O   UNL     1      12.993   6.984  11.967  1.00  0.00    -0.550 OA
ENDBRANCH  21  22
ENDBRANCH  20  21
ENDBRANCH  19  20
ENDBRANCH  18  19
ENDBRANCH  17  18
ENDBRANCH  16  17
ENDBRANCH  15  16
ENDBRANCH  14  15
ENDBRANCH  13  14
ENDBRANCH   1  13
TORSDOF 20
ENDMDL
MODEL 9
REMARK VINA RESULT:    -3.134      2.966      5.807
REMARK INTER + INTRA:         -10.004
REMARK INTER:                  -6.608
REMARK INTRA:                  -3.396
REMARK UNBOUND:                -3.205
REMARK SMILES CCCCCCCCCCCCCCCCCCCCCC(=O)[O-]
REMARK SMILES IDX 12 1 11 2 10 3 9 4 8 5 7 6 6 7 5 8 4 9 3 10 2 11 1 12 13 13
REMARK SMILES IDX 14 14 15 15 16 16 17 17 18 18 19 19 20 20 21 21 22 22 23 23
REMARK SMILES IDX 24 24
REMARK H PARENT
REMARK Flexibility Score: inf
ROOT
ATOM      1  C   UNL     1       5.177  10.568   7.526  1.00  0.00     0.000 C 
ENDROOT
BRANCH   1   2
ATOM      2  C   UNL     1       4.977  11.853   8.345  1.00  0.00     0.000 C 
BRANCH   2   3
ATOM      3  C   UNL     1       5.302  13.124   7.544  1.00  0.00     0.000 C 
BRANCH   3   4
ATOM      4  C   UNL     1       6.525  13.874   8.098  1.00  0.00    -0.000 C 
BRANCH   4   5
ATOM      5  C   UNL     1       7.525  12.938   8.796  1.00  0.00    -0.000 C 
BRANCH   5   6
ATOM      6  C   UNL     1       8.429  12.188   7.803  1.00  0.00    -0.000 C 
BRANCH   6   7
ATOM      7  C   UNL     1       9.209  11.043   8.466  1.00  0.00    -0.000 C 
BRANCH   7   8
ATOM      8  C   UNL     1       8.925  10.932   9.975  1.00  0.00    -0.000 C 
BRANCH   8   9
ATOM      9  C   UNL     1       8.129   9.666  10.332  1.00  0.00    -0.000 C 
BRANCH   9  10
ATOM     10  C   UNL     1       8.965   8.651  11.132  1.00  0.00    -0.000 C 
BRANCH  10  11
ATOM     11  C   UNL     1       9.891   9.327  12.154  1.00  0.00    -0.003 C 
ATOM     12  C   UNL     1      11.045   8.425  12.591  1.00  0.00     0.004 C 
ENDBRANCH  10  11
ENDBRANCH   9  10
ENDBRANCH   8   9
ENDBRANCH   7   8
ENDBRANCH   6   7
ENDBRANCH   5   6
ENDBRANCH   4   5
ENDBRANCH   3   4
ENDBRANCH   2   3
ENDBRANCH   1   2
BRANCH   1  13
ATOM     13  C   UNL     1       4.933   9.323   8.392  1.00  0.00     0.000 C 
BRANCH  13  14
ATOM     14  C   UNL     1       5.786   8.114   7.965  1.00  0.00     0.000 C 
BRANCH  14  15
ATOM     15  C   UNL     1       7.024   8.451   7.112  1.00  0.00     0.000 C 
BRANCH  15  16
ATOM     16  C   UNL     1       7.189   7.519   5.900  1.00  0.00     0.000 C 
BRANCH  16  17
ATOM     17  C   UNL     1       8.389   7.895   5.011  1.00  0.00     0.000 C 
BRANCH  17  18
ATOM     18  C   UNL     1       9.056   9.243   5.344  1.00  0.00     0.000 C 
BRANCH  18  19
ATOM     19  C   UNL     1      10.570   9.122   5.578  1.00  0.00     0.000 C 
BRANCH  19  20
ATOM     20  C   UNL     1      10.917   7.787   6.245  1.00  0.00     0.006 C 
BRANCH  20  21
ATOM     21  C   UNL     1      10.747   7.869   7.765  1.00  0.00     0.053 C 
BRANCH  21  22
ATOM     22  C   UNL     1      10.460   6.515   8.334  1.00  0.00     0.041 C 
ATOM     23  O   UNL     1       9.693   5.723   7.727  1.00  0.00    -0.550 OA
ATOM     24  O   UNL     1      11.000   6.149   9.560  1.00  0.00    -0.550 OA
ENDBRANCH  21  22
ENDBRANCH  20  21
ENDBRANCH  19  20
ENDBRANCH  18  19
ENDBRANCH  17  18
ENDBRANCH  16  17
ENDBRANCH  15  16
ENDBRANCH  14  15
ENDBRANCH  13  14
ENDBRANCH   1  13
TORSDOF 20
ENDMDL
