MODEL 1
REMARK VINA RESULT:    -6.539      0.000      0.000
REMARK INTER + INTRA:         -11.010
REMARK INTER:                  -9.598
REMARK INTRA:                  -1.412
REMARK UNBOUND:                -1.412
REMARK SMILES Cc1cc2c(C(C)C)c(O)c(O)c(C=O)c2c(O)c1-c1c(C)cc2c(C(C)C)c(O)c(O)c(C=O)c2c1O
REMARK SMILES IDX 1 1 2 2 3 3 4 4 16 5 13 6 11 7 9 8 5 9 17 10 19 11 20 12
REMARK SMILES IDX 37 13 21 14 36 15 23 16 22 17 24 18 33 19 25 20 31 21 29 22
REMARK SMILES IDX 38 23 34 25 35 26 26 27 27 28 28 29 32 30 30 32 18 34 6 36
REMARK SMILES IDX 7 37 8 38 14 39 15 40 10 41 12 43
REMARK H PARENT 38 24 32 31 30 33 18 35 10 42 12 44
REMARK Flexibility Score: inf
ROOT
ATOM      1  C   UNL     1      24.469   4.576   2.064  1.00  0.00     0.045 C 
ATOM      2  C   UNL     1      24.411   3.162   1.534  1.00  0.00    -0.039 A 
ATOM      3  C   UNL     1      23.515   2.851   0.511  1.00  0.00     0.013 A 
ATOM      4  C   UNL     1      23.426   1.551  -0.036  1.00  0.00    -0.006 A 
ATOM      5  C   UNL     1      24.207   0.505   0.545  1.00  0.00     0.039 A 
ATOM      6  C   UNL     1      24.015  -0.833   0.086  1.00  0.00     0.072 A 
ATOM      7  C   UNL     1      23.024  -1.110  -0.880  1.00  0.00     0.169 A 
ATOM      8  C   UNL     1      22.274  -0.076  -1.445  1.00  0.00     0.162 A 
ATOM      9  C   UNL     1      22.541   1.271  -1.123  1.00  0.00     0.008 A 
ATOM     10  C   UNL     1      25.122   0.829   1.595  1.00  0.00     0.132 A 
ATOM     11  C   UNL     1      25.225   2.154   2.074  1.00  0.00     0.031 A 
ENDROOT
BRANCH  11  12
ATOM     12  C   UNL     1      26.165   2.480   3.178  1.00  0.00     0.031 A 
ATOM     13  C   UNL     1      27.467   2.944   2.889  1.00  0.00     0.132 A 
ATOM     14  C   UNL     1      25.752   2.334   4.513  1.00  0.00    -0.039 A 
ATOM     15  C   UNL     1      28.351   3.313   3.945  1.00  0.00     0.039 A 
ATOM     16  C   UNL     1      26.663   2.574   5.544  1.00  0.00     0.013 A 
ATOM     17  C   UNL     1      24.352   1.880   4.850  1.00  0.00     0.045 C 
ATOM     18  C   UNL     1      27.985   2.998   5.286  1.00  0.00    -0.006 A 
ATOM     19  C   UNL     1      29.597   3.960   3.704  1.00  0.00     0.072 A 
ATOM     20  C   UNL     1      28.934   3.145   6.342  1.00  0.00     0.008 A 
ATOM     21  C   UNL     1      30.474   4.223   4.773  1.00  0.00     0.169 A 
ATOM     22  C   UNL     1      30.129   3.855   6.088  1.00  0.00     0.162 A 
BRANCH  13  23
ATOM     23  O   UNL     1      27.894   2.996   1.557  1.00  0.00    -0.507 OA
ATOM     24  H   UNL     1      27.794   3.810   0.964  1.00  0.00     0.293 HD
ENDBRANCH  13  23
BRANCH  19  25
ATOM     25  C   UNL     1      29.956   4.503   2.371  1.00  0.00     0.264 C 
ATOM     26  O   UNL     1      30.877   3.987   1.685  1.00  0.00    -0.298 OA
ENDBRANCH  19  25
BRANCH  20  27
ATOM     27  C   UNL     1      28.669   2.572   7.746  1.00  0.00     0.017 C 
ATOM     28  C   UNL     1      28.344   3.689   8.744  1.00  0.00     0.012 C 
ATOM     29  C   UNL     1      29.797   1.662   8.269  1.00  0.00     0.012 C 
ENDBRANCH  20  27
BRANCH  21  30
ATOM     30  O   UNL     1      31.691   4.861   4.498  1.00  0.00    -0.504 OA
ATOM     31  H   UNL     1      31.819   5.566   3.785  1.00  0.00     0.293 HD
ENDBRANCH  21  30
BRANCH  22  32
ATOM     32  O   UNL     1      30.935   4.227   7.168  1.00  0.00    -0.504 OA
ATOM     33  H   UNL     1      30.874   3.828   8.094  1.00  0.00     0.293 HD
ENDBRANCH  22  32
ENDBRANCH  11  12
BRANCH  10  34
ATOM     34  O   UNL     1      25.922  -0.165   2.171  1.00  0.00    -0.507 OA
ATOM     35  H   UNL     1      25.907  -0.405   3.154  1.00  0.00     0.293 HD
ENDBRANCH  10  34
BRANCH   9  36
ATOM     36  C   UNL     1      21.861   2.396  -1.927  1.00  0.00     0.017 C 
ATOM     37  C   UNL     1      20.393   2.547  -1.518  1.00  0.00     0.012 C 
ATOM     38  C   UNL     1      22.004   2.247  -3.453  1.00  0.00     0.012 C 
ENDBRANCH   9  36
BRANCH   6  39
ATOM     39  C   UNL     1      24.806  -1.964   0.611  1.00  0.00     0.264 C 
ATOM     40  O   UNL     1      24.301  -2.766   1.439  1.00  0.00    -0.298 OA
ENDBRANCH   6  39
BRANCH   8  41
ATOM     41  O   UNL     1      21.250  -0.388  -2.342  1.00  0.00    -0.504 OA
ATOM     42  H   UNL     1      21.302  -1.160  -2.995  1.00  0.00     0.293 HD
ENDBRANCH   8  41
BRANCH   7  43
ATOM     43  O   UNL     1      22.779  -2.416  -1.325  1.00  0.00    -0.504 OA
ATOM     44  H   UNL     1      21.913  -2.914  -1.175  1.00  0.00     0.293 HD
ENDBRANCH   7  43
TORSDOF 11
ENDMDL
MODEL 2
REMARK VINA RESULT:    -6.499      2.380      9.124
REMARK INTER + INTRA:         -10.950
REMARK INTER:                  -9.570
REMARK INTRA:                  -1.380
REMARK UNBOUND:                -1.412
REMARK SMILES Cc1cc2c(C(C)C)c(O)c(O)c(C=O)c2c(O)c1-c1c(C)cc2c(C(C)C)c(O)c(O)c(C=O)c2c1O
REMARK SMILES IDX 1 1 2 2 3 3 4 4 16 5 13 6 11 7 9 8 5 9 17 10 19 11 20 12
REMARK SMILES IDX 37 13 21 14 36 15 23 16 22 17 24 18 33 19 25 20 31 21 29 22
REMARK SMILES IDX 38 23 34 25 35 26 26 27 27 28 28 29 32 30 30 32 18 34 6 36
REMARK SMILES IDX 7 37 8 38 14 39 15 40 10 41 12 43
REMARK H PARENT 38 24 32 31 30 33 18 35 10 42 12 44
REMARK Flexibility Score: inf
ROOT
ATOM      1  C   UNL     1      27.868   3.256   1.626  1.00  0.00     0.045 C 
ATOM      2  C   UNL     1      27.169   3.560   2.929  1.00  0.00    -0.039 A 
ATOM      3  C   UNL     1      27.847   4.266   3.922  1.00  0.00     0.013 A 
ATOM      4  C   UNL     1      27.240   4.593   5.156  1.00  0.00    -0.006 A 
ATOM      5  C   UNL     1      25.928   4.099   5.429  1.00  0.00     0.039 A 
ATOM      6  C   UNL     1      25.369   4.310   6.727  1.00  0.00     0.072 A 
ATOM      7  C   UNL     1      26.136   4.942   7.728  1.00  0.00     0.169 A 
ATOM      8  C   UNL     1      27.414   5.428   7.443  1.00  0.00     0.162 A 
ATOM      9  C   UNL     1      27.936   5.368   6.134  1.00  0.00     0.008 A 
ATOM     10  C   UNL     1      25.237   3.373   4.408  1.00  0.00     0.132 A 
ATOM     11  C   UNL     1      25.857   3.118   3.166  1.00  0.00     0.031 A 
ENDROOT
BRANCH  11  12
ATOM     12  C   UNL     1      25.140   2.347   2.116  1.00  0.00     0.031 A 
ATOM     13  C   UNL     1      25.286   0.946   2.039  1.00  0.00     0.132 A 
ATOM     14  C   UNL     1      24.308   3.017   1.203  1.00  0.00    -0.039 A 
ATOM     15  C   UNL     1      24.555   0.197   1.070  1.00  0.00     0.039 A 
ATOM     16  C   UNL     1      23.694   2.297   0.176  1.00  0.00     0.013 A 
ATOM     17  C   UNL     1      24.101   4.511   1.289  1.00  0.00     0.045 C 
ATOM     18  C   UNL     1      23.855   0.900   0.047  1.00  0.00    -0.006 A 
ATOM     19  C   UNL     1      24.522  -1.228   1.073  1.00  0.00     0.072 A 
ATOM     20  C   UNL     1      23.304   0.192  -1.063  1.00  0.00     0.008 A 
ATOM     21  C   UNL     1      23.860  -1.921   0.043  1.00  0.00     0.169 A 
ATOM     22  C   UNL     1      23.220  -1.217  -0.995  1.00  0.00     0.162 A 
BRANCH  13  23
ATOM     23  O   UNL     1      26.189   0.304   2.895  1.00  0.00    -0.507 OA
ATOM     24  H   UNL     1      27.135   0.622   3.058  1.00  0.00     0.293 HD
ENDBRANCH  13  23
BRANCH  19  25
ATOM     25  C   UNL     1      25.047  -2.023   2.210  1.00  0.00     0.264 C 
ATOM     26  O   UNL     1      26.073  -2.741   2.083  1.00  0.00    -0.298 OA
ENDBRANCH  19  25
BRANCH  20  27
ATOM     27  C   UNL     1      22.779   0.930  -2.308  1.00  0.00     0.017 C 
ATOM     28  C   UNL     1      21.246   0.949  -2.331  1.00  0.00     0.012 C 
ATOM     29  C   UNL     1      23.354   0.399  -3.634  1.00  0.00     0.012 C 
ENDBRANCH  20  27
BRANCH  21  30
ATOM     30  O   UNL     1      23.848  -3.321   0.080  1.00  0.00    -0.504 OA
ATOM     31  H   UNL     1      24.637  -3.893   0.348  1.00  0.00     0.293 HD
ENDBRANCH  21  30
BRANCH  22  32
ATOM     32  O   UNL     1      22.454  -1.894  -1.950  1.00  0.00    -0.504 OA
ATOM     33  H   UNL     1      22.529  -2.879  -2.154  1.00  0.00     0.293 HD
ENDBRANCH  22  32
ENDBRANCH  11  12
BRANCH  10  34
ATOM     34  O   UNL     1      23.940   2.895   4.631  1.00  0.00    -0.507 OA
ATOM     35  H   UNL     1      23.135   3.490   4.783  1.00  0.00     0.293 HD
ENDBRANCH  10  34
BRANCH   9  36
ATOM     36  C   UNL     1      29.243   6.112   5.800  1.00  0.00     0.017 C 
ATOM     37  C   UNL     1      30.434   5.471   6.519  1.00  0.00     0.012 C 
ATOM     38  C   UNL     1      29.183   7.629   6.062  1.00  0.00     0.012 C 
ENDBRANCH   9  36
BRANCH   6  39
ATOM     39  C   UNL     1      24.007   3.861   7.077  1.00  0.00     0.264 C 
ATOM     40  O   UNL     1      23.057   4.685   7.131  1.00  0.00    -0.298 OA
ENDBRANCH   6  39
BRANCH   8  41
ATOM     41  O   UNL     1      28.179   5.980   8.473  1.00  0.00    -0.504 OA
ATOM     42  H   UNL     1      29.172   6.159   8.390  1.00  0.00     0.293 HD
ENDBRANCH   8  41
BRANCH   7  43
ATOM     43  O   UNL     1      25.637   5.131   9.023  1.00  0.00    -0.504 OA
ATOM     44  H   UNL     1      24.945   5.825   9.270  1.00  0.00     0.293 HD
ENDBRANCH   7  43
TORSDOF 11
ENDMDL
MODEL 3
REMARK VINA RESULT:    -6.409      2.287      3.536
REMARK INTER + INTRA:         -10.818
REMARK INTER:                  -9.381
REMARK INTRA:                  -1.437
REMARK UNBOUND:                -1.412
REMARK SMILES Cc1cc2c(C(C)C)c(O)c(O)c(C=O)c2c(O)c1-c1c(C)cc2c(C(C)C)c(O)c(O)c(C=O)c2c1O
REMARK SMILES IDX 1 1 2 2 3 3 4 4 16 5 13 6 11 7 9 8 5 9 17 10 19 11 20 12
REMARK SMILES IDX 37 13 21 14 36 15 23 16 22 17 24 18 33 19 25 20 31 21 29 22
REMARK SMILES IDX 38 23 34 25 35 26 26 27 27 28 28 29 32 30 30 32 18 34 6 36
REMARK SMILES IDX 7 37 8 38 14 39 15 40 10 41 12 43
REMARK H PARENT 38 24 32 31 30 33 18 35 10 42 12 44
REMARK Flexibility Score: inf
ROOT
ATOM      1  C   UNL     1      24.207   4.541   1.267  1.00  0.00     0.045 C 
ATOM      2  C   UNL     1      24.345   3.042   1.146  1.00  0.00    -0.039 A 
ATOM      3  C   UNL     1      23.670   2.373   0.125  1.00  0.00     0.013 A 
ATOM      4  C   UNL     1      23.773   0.974  -0.050  1.00  0.00    -0.006 A 
ATOM      5  C   UNL     1      24.510   0.214   0.909  1.00  0.00     0.039 A 
ATOM      6  C   UNL     1      24.499  -1.211   0.813  1.00  0.00     0.072 A 
ATOM      7  C   UNL     1      23.719  -1.843  -0.178  1.00  0.00     0.169 A 
ATOM      8  C   UNL     1      23.010  -1.086  -1.114  1.00  0.00     0.162 A 
ATOM      9  C   UNL     1      23.119   0.320  -1.139  1.00  0.00     0.008 A 
ATOM     10  C   UNL     1      25.199   0.905   1.956  1.00  0.00     0.132 A 
ATOM     11  C   UNL     1      25.119   2.310   2.060  1.00  0.00     0.031 A 
ENDROOT
BRANCH  11  12
ATOM     12  C   UNL     1      25.822   3.020   3.161  1.00  0.00     0.031 A 
ATOM     13  C   UNL     1      25.180   3.218   4.402  1.00  0.00     0.132 A 
ATOM     14  C   UNL     1      27.133   3.487   2.967  1.00  0.00    -0.039 A 
ATOM     15  C   UNL     1      25.872   3.847   5.480  1.00  0.00     0.039 A 
ATOM     16  C   UNL     1      27.761   4.214   3.979  1.00  0.00     0.013 A 
ATOM     17  C   UNL     1      27.858   3.251   1.663  1.00  0.00     0.045 C 
ATOM     18  C   UNL     1      27.129   4.466   5.217  1.00  0.00    -0.006 A 
ATOM     19  C   UNL     1      25.340   3.901   6.800  1.00  0.00     0.072 A 
ATOM     20  C   UNL     1      27.742   5.294   6.206  1.00  0.00     0.008 A 
ATOM     21  C   UNL     1      26.020   4.611   7.807  1.00  0.00     0.169 A 
ATOM     22  C   UNL     1      27.232   5.268   7.524  1.00  0.00     0.162 A 
BRANCH  13  23
ATOM     23  O   UNL     1      23.844   2.830   4.551  1.00  0.00    -0.507 OA
ATOM     24  H   UNL     1      23.185   2.772   3.786  1.00  0.00     0.293 HD
ENDBRANCH  13  23
BRANCH  19  25
ATOM     25  C   UNL     1      24.149   3.112   7.199  1.00  0.00     0.264 C 
ATOM     26  O   UNL     1      23.048   3.673   7.442  1.00  0.00    -0.298 OA
ENDBRANCH  19  25
BRANCH  20  27
ATOM     27  C   UNL     1      28.952   6.184   5.871  1.00  0.00     0.017 C 
ATOM     28  C   UNL     1      28.618   7.165   4.742  1.00  0.00     0.012 C 
ATOM     29  C   UNL     1      30.239   5.395   5.566  1.00  0.00     0.012 C 
ENDBRANCH  20  27
BRANCH  21  30
ATOM     30  O   UNL     1      25.466   4.641   9.093  1.00  0.00    -0.504 OA
ATOM     31  H   UNL     1      25.615   5.382   9.764  1.00  0.00     0.293 HD
ENDBRANCH  21  30
BRANCH  22  32
ATOM     32  O   UNL     1      27.977   5.866   8.546  1.00  0.00    -0.504 OA
ATOM     33  H   UNL     1      28.104   6.861   8.657  1.00  0.00     0.293 HD
ENDBRANCH  22  32
ENDBRANCH  11  12
BRANCH  10  34
ATOM     34  O   UNL     1      25.952   0.195   2.898  1.00  0.00    -0.507 OA
ATOM     35  H   UNL     1      25.549  -0.365   3.639  1.00  0.00     0.293 HD
ENDBRANCH  10  34
BRANCH   9  36
ATOM     36  C   UNL     1      22.515   1.110  -2.316  1.00  0.00     0.017 C 
ATOM     37  C   UNL     1      20.987   1.163  -2.209  1.00  0.00     0.012 C 
ATOM     38  C   UNL     1      22.961   0.606  -3.701  1.00  0.00     0.012 C 
ENDBRANCH   9  36
BRANCH   6  39
ATOM     39  C   UNL     1      25.262  -2.065   1.744  1.00  0.00     0.264 C 
ATOM     40  O   UNL     1      24.674  -2.694   2.662  1.00  0.00    -0.298 OA
ENDBRANCH   6  39
BRANCH   8  41
ATOM     41  O   UNL     1      22.186  -1.738  -2.035  1.00  0.00    -0.504 OA
ATOM     42  H   UNL     1      22.475  -1.950  -2.982  1.00  0.00     0.293 HD
ENDBRANCH   8  41
BRANCH   7  43
ATOM     43  O   UNL     1      23.651  -3.239  -0.278  1.00  0.00    -0.504 OA
ATOM     44  H   UNL     1      23.653  -3.746  -1.152  1.00  0.00     0.293 HD
ENDBRANCH   7  43
TORSDOF 11
ENDMDL
MODEL 4
REMARK VINA RESULT:    -6.372      5.318      9.776
REMARK INTER + INTRA:         -10.765
REMARK INTER:                  -9.774
REMARK INTRA:                  -0.990
REMARK UNBOUND:                -1.412
REMARK SMILES Cc1cc2c(C(C)C)c(O)c(O)c(C=O)c2c(O)c1-c1c(C)cc2c(C(C)C)c(O)c(O)c(C=O)c2c1O
REMARK SMILES IDX 1 1 2 2 3 3 4 4 16 5 13 6 11 7 9 8 5 9 17 10 19 11 20 12
REMARK SMILES IDX 37 13 21 14 36 15 23 16 22 17 24 18 33 19 25 20 31 21 29 22
REMARK SMILES IDX 38 23 34 25 35 26 26 27 27 28 28 29 32 30 30 32 18 34 6 36
REMARK SMILES IDX 7 37 8 38 14 39 15 40 10 41 12 43
REMARK H PARENT 38 24 32 31 30 33 18 35 10 42 12 44
REMARK Flexibility Score: inf
ROOT
ATOM      1  C   UNL     1      20.673  -3.021  -2.778  1.00  0.00     0.045 C 
ATOM      2  C   UNL     1      21.696  -2.825  -1.685  1.00  0.00    -0.039 A 
ATOM      3  C   UNL     1      22.249  -3.942  -1.057  1.00  0.00     0.013 A 
ATOM      4  C   UNL     1      23.222  -3.823  -0.039  1.00  0.00    -0.006 A 
ATOM      5  C   UNL     1      23.574  -2.519   0.427  1.00  0.00     0.039 A 
ATOM      6  C   UNL     1      24.451  -2.403   1.548  1.00  0.00     0.072 A 
ATOM      7  C   UNL     1      24.903  -3.563   2.211  1.00  0.00     0.169 A 
ATOM      8  C   UNL     1      24.557  -4.832   1.738  1.00  0.00     0.162 A 
ATOM      9  C   UNL     1      23.816  -4.982   0.548  1.00  0.00     0.008 A 
ATOM     10  C   UNL     1      23.003  -1.377  -0.219  1.00  0.00     0.132 A 
ATOM     11  C   UNL     1      22.079  -1.538  -1.274  1.00  0.00     0.031 A 
ENDROOT
BRANCH  11  12
ATOM     12  C   UNL     1      21.475  -0.348  -1.928  1.00  0.00     0.031 A 
ATOM     13  C   UNL     1      22.146   0.297  -2.988  1.00  0.00     0.132 A 
ATOM     14  C   UNL     1      20.227   0.130  -1.494  1.00  0.00    -0.039 A 
ATOM     15  C   UNL     1      21.544   1.404  -3.657  1.00  0.00     0.039 A 
ATOM     16  C   UNL     1      19.699   1.290  -2.064  1.00  0.00     0.013 A 
ATOM     17  C   UNL     1      19.467  -0.566  -0.389  1.00  0.00     0.045 C 
ATOM     18  C   UNL     1      20.367   1.982  -3.097  1.00  0.00    -0.006 A 
ATOM     19  C   UNL     1      22.090   1.966  -4.846  1.00  0.00     0.072 A 
ATOM     20  C   UNL     1      19.866   3.219  -3.604  1.00  0.00     0.008 A 
ATOM     21  C   UNL     1      21.508   3.114  -5.417  1.00  0.00     0.169 A 
ATOM     22  C   UNL     1      20.380   3.712  -4.824  1.00  0.00     0.162 A 
BRANCH  13  23
ATOM     23  O   UNL     1      23.429  -0.133  -3.349  1.00  0.00    -0.507 OA
ATOM     24  H   UNL     1      23.697  -1.106  -3.424  1.00  0.00     0.293 HD
ENDBRANCH  13  23
BRANCH  19  25
ATOM     25  C   UNL     1      23.183   1.302  -5.599  1.00  0.00     0.264 C 
ATOM     26  O   UNL     1      22.933   0.463  -6.503  1.00  0.00    -0.298 OA
ENDBRANCH  19  25
BRANCH  20  27
ATOM     27  C   UNL     1      18.767   4.004  -2.864  1.00  0.00     0.017 C 
ATOM     28  C   UNL     1      19.009   3.996  -1.351  1.00  0.00     0.012 C 
ATOM     29  C   UNL     1      17.337   3.544  -3.206  1.00  0.00     0.012 C 
ENDBRANCH  20  27
BRANCH  21  30
ATOM     30  O   UNL     1      22.073   3.638  -6.586  1.00  0.00    -0.504 OA
ATOM     31  H   UNL     1      22.187   3.123  -7.448  1.00  0.00     0.293 HD
ENDBRANCH  21  30
BRANCH  22  32
ATOM     32  O   UNL     1      19.721   4.773  -5.454  1.00  0.00    -0.504 OA
ATOM     33  H   UNL     1      20.124   5.351  -6.176  1.00  0.00     0.293 HD
ENDBRANCH  22  32
ENDBRANCH  11  12
BRANCH  10  34
ATOM     34  O   UNL     1      23.344  -0.085   0.194  1.00  0.00    -0.507 OA
ATOM     35  H   UNL     1      24.289   0.213   0.403  1.00  0.00     0.293 HD
ENDBRANCH  10  34
BRANCH   9  36
ATOM     36  C   UNL     1      23.646  -6.383  -0.072  1.00  0.00     0.017 C 
ATOM     37  C   UNL     1      22.649  -7.219   0.737  1.00  0.00     0.012 C 
ATOM     38  C   UNL     1      24.972  -7.140  -0.278  1.00  0.00     0.012 C 
ENDBRANCH   9  36
BRANCH   6  39
ATOM     39  C   UNL     1      24.890  -1.093   2.068  1.00  0.00     0.264 C 
ATOM     40  O   UNL     1      24.506  -0.694   3.199  1.00  0.00    -0.298 OA
ENDBRANCH   6  39
BRANCH   8  41
ATOM     41  O   UNL     1      24.956  -5.960   2.458  1.00  0.00    -0.504 OA
ATOM     42  H   UNL     1      25.020  -6.883   2.049  1.00  0.00     0.293 HD
ENDBRANCH   8  41
BRANCH   7  43
ATOM     43  O   UNL     1      25.732  -3.488   3.338  1.00  0.00    -0.504 OA
ATOM     44  H   UNL     1      26.742  -3.488   3.302  1.00  0.00     0.293 HD
ENDBRANCH   7  43
TORSDOF 11
ENDMDL
MODEL 5
REMARK VINA RESULT:    -6.301      6.602      8.762
REMARK INTER + INTRA:         -10.660
REMARK INTER:                  -9.379
REMARK INTRA:                  -1.281
REMARK UNBOUND:                -1.412
REMARK SMILES Cc1cc2c(C(C)C)c(O)c(O)c(C=O)c2c(O)c1-c1c(C)cc2c(C(C)C)c(O)c(O)c(C=O)c2c1O
REMARK SMILES IDX 1 1 2 2 3 3 4 4 16 5 13 6 11 7 9 8 5 9 17 10 19 11 20 12
REMARK SMILES IDX 37 13 21 14 36 15 23 16 22 17 24 18 33 19 25 20 31 21 29 22
REMARK SMILES IDX 38 23 34 25 35 26 26 27 27 28 28 29 32 30 30 32 18 34 6 36
REMARK SMILES IDX 7 37 8 38 14 39 15 40 10 41 12 43
REMARK H PARENT 38 24 32 31 30 33 18 35 10 42 12 44
REMARK Flexibility Score: inf
ROOT
ATOM      1  C   UNL     1      24.423  -1.746   1.216  1.00  0.00     0.045 C 
ATOM      2  C   UNL     1      23.112  -1.922   0.488  1.00  0.00    -0.039 A 
ATOM      3  C   UNL     1      22.662  -0.915  -0.365  1.00  0.00     0.013 A 
ATOM      4  C   UNL     1      21.452  -1.030  -1.086  1.00  0.00    -0.006 A 
ATOM      5  C   UNL     1      20.619  -2.167  -0.855  1.00  0.00     0.039 A 
ATOM      6  C   UNL     1      19.333  -2.216  -1.475  1.00  0.00     0.072 A 
ATOM      7  C   UNL     1      18.884  -1.126  -2.249  1.00  0.00     0.169 A 
ATOM      8  C   UNL     1      19.714  -0.024  -2.474  1.00  0.00     0.162 A 
ATOM      9  C   UNL     1      21.042  -0.010  -1.999  1.00  0.00     0.008 A 
ATOM     10  C   UNL     1      21.084  -3.196   0.023  1.00  0.00     0.132 A 
ATOM     11  C   UNL     1      22.328  -3.071   0.679  1.00  0.00     0.031 A 
ENDROOT
BRANCH  11  12
ATOM     12  C   UNL     1      22.797  -4.136   1.605  1.00  0.00     0.031 A 
ATOM     13  C   UNL     1      23.637  -5.168   1.133  1.00  0.00     0.132 A 
ATOM     14  C   UNL     1      22.408  -4.109   2.954  1.00  0.00    -0.039 A 
ATOM     15  C   UNL     1      24.135  -6.158   2.031  1.00  0.00     0.039 A 
ATOM     16  C   UNL     1      22.793  -5.150   3.802  1.00  0.00     0.013 A 
ATOM     17  C   UNL     1      21.544  -2.994   3.494  1.00  0.00     0.045 C 
ATOM     18  C   UNL     1      23.598  -6.219   3.350  1.00  0.00    -0.006 A 
ATOM     19  C   UNL     1      25.130  -7.103   1.648  1.00  0.00     0.072 A 
ATOM     20  C   UNL     1      23.902  -7.325   4.198  1.00  0.00     0.008 A 
ATOM     21  C   UNL     1      25.524  -8.116   2.542  1.00  0.00     0.169 A 
ATOM     22  C   UNL     1      24.944  -8.203   3.823  1.00  0.00     0.162 A 
BRANCH  13  23
ATOM     23  O   UNL     1      23.940  -5.234  -0.231  1.00  0.00    -0.507 OA
ATOM     24  H   UNL     1      23.376  -5.725  -0.912  1.00  0.00     0.293 HD
ENDBRANCH  13  23
BRANCH  19  25
ATOM     25  C   UNL     1      25.882  -6.979   0.375  1.00  0.00     0.264 C 
ATOM     26  O   UNL     1      25.674  -7.770  -0.582  1.00  0.00    -0.298 OA
ENDBRANCH  19  25
BRANCH  20  27
ATOM     27  C   UNL     1      23.141  -7.562   5.516  1.00  0.00     0.017 C 
ATOM     28  C   UNL     1      21.648  -7.787   5.255  1.00  0.00     0.012 C 
ATOM     29  C   UNL     1      23.367  -6.462   6.570  1.00  0.00     0.012 C 
ENDBRANCH  20  27
BRANCH  21  30
ATOM     30  O   UNL     1      26.505  -9.027   2.130  1.00  0.00    -0.504 OA
ATOM     31  H   UNL     1      27.115  -9.534   2.756  1.00  0.00     0.293 HD
ENDBRANCH  21  30
BRANCH  22  32
ATOM     32  O   UNL     1      25.420  -9.125   4.760  1.00  0.00    -0.504 OA
ATOM     33  H   UNL     1      24.848  -9.805   5.239  1.00  0.00     0.293 HD
ENDBRANCH  22  32
ENDBRANCH  11  12
BRANCH  10  34
ATOM     34  O   UNL     1      20.306  -4.337   0.254  1.00  0.00    -0.507 OA
ATOM     35  H   UNL     1      20.007  -4.643   1.172  1.00  0.00     0.293 HD
ENDBRANCH  10  34
BRANCH   9  36
ATOM     36  C   UNL     1      22.001   1.107  -2.454  1.00  0.00     0.017 C 
ATOM     37  C   UNL     1      23.257   0.515  -3.101  1.00  0.00     0.012 C 
ATOM     38  C   UNL     1      22.365   2.109  -1.342  1.00  0.00     0.012 C 
ENDBRANCH   9  36
BRANCH   6  39
ATOM     39  C   UNL     1      18.428  -3.371  -1.314  1.00  0.00     0.264 C 
ATOM     40  O   UNL     1      18.242  -4.175  -2.265  1.00  0.00    -0.298 OA
ENDBRANCH   6  39
BRANCH   8  41
ATOM     41  O   UNL     1      19.214   1.073  -3.179  1.00  0.00    -0.504 OA
ATOM     42  H   UNL     1      19.722   1.943  -3.281  1.00  0.00     0.293 HD
ENDBRANCH   8  41
BRANCH   7  43
ATOM     43  O   UNL     1      17.614  -1.120  -2.840  1.00  0.00    -0.504 OA
ATOM     44  H   UNL     1      16.786  -0.741  -2.403  1.00  0.00     0.293 HD
ENDBRANCH   7  43
TORSDOF 11
ENDMDL
MODEL 6
REMARK VINA RESULT:    -6.259      6.583     10.626
REMARK INTER + INTRA:         -10.599
REMARK INTER:                  -9.256
REMARK INTRA:                  -1.343
REMARK UNBOUND:                -1.412
REMARK SMILES Cc1cc2c(C(C)C)c(O)c(O)c(C=O)c2c(O)c1-c1c(C)cc2c(C(C)C)c(O)c(O)c(C=O)c2c1O
REMARK SMILES IDX 1 1 2 2 3 3 4 4 16 5 13 6 11 7 9 8 5 9 17 10 19 11 20 12
REMARK SMILES IDX 37 13 21 14 36 15 23 16 22 17 24 18 33 19 25 20 31 21 29 22
REMARK SMILES IDX 38 23 34 25 35 26 26 27 27 28 28 29 32 30 30 32 18 34 6 36
REMARK SMILES IDX 7 37 8 38 14 39 15 40 10 41 12 43
REMARK H PARENT 38 24 32 31 30 33 18 35 10 42 12 44
REMARK Flexibility Score: inf
ROOT
ATOM      1  C   UNL     1      21.261  -3.088   3.394  1.00  0.00     0.045 C 
ATOM      2  C   UNL     1      22.155  -4.174   2.845  1.00  0.00    -0.039 A 
ATOM      3  C   UNL     1      22.570  -5.209   3.683  1.00  0.00     0.013 A 
ATOM      4  C   UNL     1      23.393  -6.261   3.222  1.00  0.00    -0.006 A 
ATOM      5  C   UNL     1      23.895  -6.207   1.886  1.00  0.00     0.039 A 
ATOM      6  C   UNL     1      24.837  -7.194   1.464  1.00  0.00     0.072 A 
ATOM      7  C   UNL     1      25.301  -8.161   2.381  1.00  0.00     0.169 A 
ATOM      8  C   UNL     1      24.794  -8.206   3.683  1.00  0.00     0.162 A 
ATOM      9  C   UNL     1      23.756  -7.340   4.085  1.00  0.00     0.008 A 
ATOM     10  C   UNL     1      23.468  -5.143   1.031  1.00  0.00     0.132 A 
ATOM     11  C   UNL     1      22.596  -4.142   1.512  1.00  0.00     0.031 A 
ENDROOT
BRANCH  11  12
ATOM     12  C   UNL     1      22.172  -3.028   0.623  1.00  0.00     0.031 A 
ATOM     13  C   UNL     1      20.989  -3.139  -0.139  1.00  0.00     0.132 A 
ATOM     14  C   UNL     1      22.947  -1.859   0.550  1.00  0.00    -0.039 A 
ATOM     15  C   UNL     1      20.548  -2.050  -0.947  1.00  0.00     0.039 A 
ATOM     16  C   UNL     1      22.582  -0.847  -0.339  1.00  0.00     0.013 A 
ATOM     17  C   UNL     1      24.195  -1.698   1.386  1.00  0.00     0.045 C 
ATOM     18  C   UNL     1      21.427  -0.946  -1.147  1.00  0.00    -0.006 A 
ATOM     19  C   UNL     1      19.273  -2.039  -1.583  1.00  0.00     0.072 A 
ATOM     20  C   UNL     1      21.118   0.050  -2.121  1.00  0.00     0.008 A 
ATOM     21  C   UNL     1      18.921  -0.982  -2.443  1.00  0.00     0.169 A 
ATOM     22  C   UNL     1      19.820   0.076  -2.679  1.00  0.00     0.162 A 
BRANCH  13  23
ATOM     23  O   UNL     1      20.276  -4.344  -0.126  1.00  0.00    -0.507 OA
ATOM     24  H   UNL     1      20.700  -5.248   0.040  1.00  0.00     0.293 HD
ENDBRANCH  13  23
BRANCH  19  25
ATOM     25  C   UNL     1      18.228  -3.043  -1.264  1.00  0.00     0.264 C 
ATOM     26  O   UNL     1      17.947  -3.968  -2.069  1.00  0.00    -0.298 OA
ENDBRANCH  19  25
BRANCH  20  27
ATOM     27  C   UNL     1      22.156   1.103  -2.551  1.00  0.00     0.017 C 
ATOM     28  C   UNL     1      23.461   0.437  -3.001  1.00  0.00     0.012 C 
ATOM     29  C   UNL     1      22.417   2.189  -1.490  1.00  0.00     0.012 C 
ENDBRANCH  20  27
BRANCH  21  30
ATOM     30  O   UNL     1      17.659  -1.006  -3.049  1.00  0.00    -0.504 OA
ATOM     31  H   UNL     1      16.952  -0.294  -2.930  1.00  0.00     0.293 HD
ENDBRANCH  21  30
BRANCH  22  32
ATOM     32  O   UNL     1      19.430   1.190  -3.429  1.00  0.00    -0.504 OA
ATOM     33  H   UNL     1      19.079   2.051  -3.037  1.00  0.00     0.293 HD
ENDBRANCH  22  32
ENDBRANCH  11  12
BRANCH  10  34
ATOM     34  O   UNL     1      23.919  -5.072  -0.292  1.00  0.00    -0.507 OA
ATOM     35  H   UNL     1      24.750  -5.539  -0.634  1.00  0.00     0.293 HD
ENDBRANCH  10  34
BRANCH   9  36
ATOM     36  C   UNL     1      23.062  -7.564   5.443  1.00  0.00     0.017 C 
ATOM     37  C   UNL     1      21.561  -7.807   5.253  1.00  0.00     0.012 C 
ATOM     38  C   UNL     1      23.321  -6.445   6.469  1.00  0.00     0.012 C 
ENDBRANCH   9  36
BRANCH   6  39
ATOM     39  C   UNL     1      25.376  -7.228   0.090  1.00  0.00     0.264 C 
ATOM     40  O   UNL     1      26.546  -6.827  -0.147  1.00  0.00    -0.298 OA
ENDBRANCH   6  39
BRANCH   8  41
ATOM     41  O   UNL     1      25.328  -9.124   4.590  1.00  0.00    -0.504 OA
ATOM     42  H   UNL     1      24.766  -9.812   5.076  1.00  0.00     0.293 HD
ENDBRANCH   8  41
BRANCH   7  43
ATOM     43  O   UNL     1      26.255  -9.120   2.016  1.00  0.00    -0.504 OA
ATOM     44  H   UNL     1      26.275  -9.589   1.121  1.00  0.00     0.293 HD
ENDBRANCH   7  43
TORSDOF 11
ENDMDL
MODEL 7
REMARK VINA RESULT:    -6.256      3.615      7.344
REMARK INTER + INTRA:         -10.593
REMARK INTER:                  -9.547
REMARK INTRA:                  -1.046
REMARK UNBOUND:                -1.412
REMARK SMILES Cc1cc2c(C(C)C)c(O)c(O)c(C=O)c2c(O)c1-c1c(C)cc2c(C(C)C)c(O)c(O)c(C=O)c2c1O
REMARK SMILES IDX 1 1 2 2 3 3 4 4 16 5 13 6 11 7 9 8 5 9 17 10 19 11 20 12
REMARK SMILES IDX 37 13 21 14 36 15 23 16 22 17 24 18 33 19 25 20 31 21 29 22
REMARK SMILES IDX 38 23 34 25 35 26 26 27 27 28 28 29 32 30 30 32 18 34 6 36
REMARK SMILES IDX 7 37 8 38 14 39 15 40 10 41 12 43
REMARK H PARENT 38 24 32 31 30 33 18 35 10 42 12 44
REMARK Flexibility Score: inf
ROOT
ATOM      1  C   UNL     1      19.207  -0.443  -0.399  1.00  0.00     0.045 C 
ATOM      2  C   UNL     1      19.558  -0.582  -1.861  1.00  0.00    -0.039 A 
ATOM      3  C   UNL     1      18.611  -1.096  -2.747  1.00  0.00     0.013 A 
ATOM      4  C   UNL     1      18.875  -1.234  -4.128  1.00  0.00    -0.006 A 
ATOM      5  C   UNL     1      20.184  -0.931  -4.612  1.00  0.00     0.039 A 
ATOM      6  C   UNL     1      20.493  -1.202  -5.980  1.00  0.00     0.072 A 
ATOM      7  C   UNL     1      19.531  -1.816  -6.809  1.00  0.00     0.169 A 
ATOM      8  C   UNL     1      18.252  -2.099  -6.324  1.00  0.00     0.162 A 
ATOM      9  C   UNL     1      17.868  -1.709  -5.024  1.00  0.00     0.008 A 
ATOM     10  C   UNL     1      21.153  -0.405  -3.699  1.00  0.00     0.132 A 
ATOM     11  C   UNL     1      20.830  -0.226  -2.337  1.00  0.00     0.031 A 
ENDROOT
BRANCH  11  12
ATOM     12  C   UNL     1      21.847   0.303  -1.390  1.00  0.00     0.031 A 
ATOM     13  C   UNL     1      22.592  -0.581  -0.581  1.00  0.00     0.132 A 
ATOM     14  C   UNL     1      22.072   1.688  -1.308  1.00  0.00    -0.039 A 
ATOM     15  C   UNL     1      23.609  -0.082   0.286  1.00  0.00     0.039 A 
ATOM     16  C   UNL     1      22.977   2.183  -0.367  1.00  0.00     0.013 A 
ATOM     17  C   UNL     1      21.318   2.653  -2.192  1.00  0.00     0.045 C 
ATOM     18  C   UNL     1      23.706   1.326   0.487  1.00  0.00    -0.006 A 
ATOM     19  C   UNL     1      24.511  -0.940   0.978  1.00  0.00     0.072 A 
ATOM     20  C   UNL     1      24.554   1.848   1.510  1.00  0.00     0.008 A 
ATOM     21  C   UNL     1      25.438  -0.403   1.890  1.00  0.00     0.169 A 
ATOM     22  C   UNL     1      25.488   0.984   2.125  1.00  0.00     0.162 A 
BRANCH  13  23
ATOM     23  O   UNL     1      22.294  -1.948  -0.606  1.00  0.00    -0.507 OA
ATOM     24  H   UNL     1      22.900  -2.651  -1.009  1.00  0.00     0.293 HD
ENDBRANCH  13  23
BRANCH  19  25
ATOM     25  C   UNL     1      24.610  -2.388   0.669  1.00  0.00     0.264 C 
ATOM     26  O   UNL     1      24.163  -3.255   1.464  1.00  0.00    -0.298 OA
ENDBRANCH  19  25
BRANCH  20  27
ATOM     27  C   UNL     1      24.487   3.328   1.931  1.00  0.00     0.017 C 
ATOM     28  C   UNL     1      25.794   4.054   1.596  1.00  0.00     0.012 C 
ATOM     29  C   UNL     1      24.091   3.537   3.405  1.00  0.00     0.012 C 
ENDBRANCH  20  27
BRANCH  21  30
ATOM     30  O   UNL     1      26.309  -1.279   2.551  1.00  0.00    -0.504 OA
ATOM     31  H   UNL     1      26.831  -2.016   2.099  1.00  0.00     0.293 HD
ENDBRANCH  21  30
BRANCH  22  32
ATOM     32  O   UNL     1      26.488   1.537   2.931  1.00  0.00    -0.504 OA
ATOM     33  H   UNL     1      26.323   2.003   3.811  1.00  0.00     0.293 HD
ENDBRANCH  22  32
ENDBRANCH  11  12
BRANCH  10  34
ATOM     34  O   UNL     1      22.438  -0.073  -4.143  1.00  0.00    -0.507 OA
ATOM     35  H   UNL     1      23.273  -0.163  -3.578  1.00  0.00     0.293 HD
ENDBRANCH  10  34
BRANCH   9  36
ATOM     36  C   UNL     1      16.392  -1.826  -4.598  1.00  0.00     0.017 C 
ATOM     37  C   UNL     1      15.875  -0.490  -4.055  1.00  0.00     0.012 C 
ATOM     38  C   UNL     1      16.115  -2.975  -3.611  1.00  0.00     0.012 C 
ENDBRANCH   9  36
BRANCH   6  39
ATOM     39  C   UNL     1      21.811  -0.886  -6.564  1.00  0.00     0.264 C 
ATOM     40  O   UNL     1      21.893  -0.233  -7.638  1.00  0.00    -0.298 OA
ENDBRANCH   6  39
BRANCH   8  41
ATOM     41  O   UNL     1      17.346  -2.777  -7.144  1.00  0.00    -0.504 OA
ATOM     42  H   UNL     1      16.550  -3.289  -6.784  1.00  0.00     0.293 HD
ENDBRANCH   8  41
BRANCH   7  43
ATOM     43  O   UNL     1      19.811  -2.135  -8.144  1.00  0.00    -0.504 OA
ATOM     44  H   UNL     1      19.719  -1.486  -8.914  1.00  0.00     0.293 HD
ENDBRANCH   7  43
TORSDOF 11
ENDMDL
MODEL 8
REMARK VINA RESULT:    -6.256      0.535      9.236
REMARK INTER + INTRA:         -10.593
REMARK INTER:                  -9.530
REMARK INTRA:                  -1.063
REMARK UNBOUND:                -1.412
REMARK SMILES Cc1cc2c(C(C)C)c(O)c(O)c(C=O)c2c(O)c1-c1c(C)cc2c(C(C)C)c(O)c(O)c(C=O)c2c1O
REMARK SMILES IDX 1 1 2 2 3 3 4 4 16 5 13 6 11 7 9 8 5 9 17 10 19 11 20 12
REMARK SMILES IDX 37 13 21 14 36 15 23 16 22 17 24 18 33 19 25 20 31 21 29 22
REMARK SMILES IDX 38 23 34 25 35 26 26 27 27 28 28 29 32 30 30 32 18 34 6 36
REMARK SMILES IDX 7 37 8 38 14 39 15 40 10 41 12 43
REMARK H PARENT 38 24 32 31 30 33 18 35 10 42 12 44
REMARK Flexibility Score: inf
ROOT
ATOM      1  C   UNL     1      24.172   1.640   4.626  1.00  0.00     0.045 C 
ATOM      2  C   UNL     1      25.527   2.213   4.287  1.00  0.00    -0.039 A 
ATOM      3  C   UNL     1      26.417   2.523   5.315  1.00  0.00     0.013 A 
ATOM      4  C   UNL     1      27.704   3.046   5.058  1.00  0.00    -0.006 A 
ATOM      5  C   UNL     1      28.064   3.359   3.711  1.00  0.00     0.039 A 
ATOM      6  C   UNL     1      29.308   4.017   3.466  1.00  0.00     0.072 A 
ATOM      7  C   UNL     1      30.127   4.399   4.549  1.00  0.00     0.169 A 
ATOM      8  C   UNL     1      29.766   4.078   5.861  1.00  0.00     0.162 A 
ATOM      9  C   UNL     1      28.619   3.301   6.126  1.00  0.00     0.008 A 
ATOM     10  C   UNL     1      27.147   3.041   2.661  1.00  0.00     0.132 A 
ATOM     11  C   UNL     1      25.893   2.463   2.954  1.00  0.00     0.031 A 
ENDROOT
BRANCH  11  12
ATOM     12  C   UNL     1      24.937   2.152   1.859  1.00  0.00     0.031 A 
ATOM     13  C   UNL     1      24.910   0.864   1.283  1.00  0.00     0.132 A 
ATOM     14  C   UNL     1      24.052   3.144   1.402  1.00  0.00    -0.039 A 
ATOM     15  C   UNL     1      23.956   0.545   0.273  1.00  0.00     0.039 A 
ATOM     16  C   UNL     1      23.206   2.867   0.326  1.00  0.00     0.013 A 
ATOM     17  C   UNL     1      24.031   4.518   2.028  1.00  0.00     0.045 C 
ATOM     18  C   UNL     1      23.187   1.601  -0.299  1.00  0.00    -0.006 A 
ATOM     19  C   UNL     1      23.763  -0.784  -0.203  1.00  0.00     0.072 A 
ATOM     20  C   UNL     1      22.390   1.361  -1.459  1.00  0.00     0.008 A 
ATOM     21  C   UNL     1      22.872  -1.032  -1.264  1.00  0.00     0.169 A 
ATOM     22  C   UNL     1      22.160   0.026  -1.861  1.00  0.00     0.162 A 
BRANCH  13  23
ATOM     23  O   UNL     1      25.859  -0.084   1.684  1.00  0.00    -0.507 OA
ATOM     24  H   UNL     1      26.116  -0.252   2.648  1.00  0.00     0.293 HD
ENDBRANCH  13  23
BRANCH  19  25
ATOM     25  C   UNL     1      24.368  -1.956   0.475  1.00  0.00     0.264 C 
ATOM     26  O   UNL     1      23.763  -2.555   1.402  1.00  0.00    -0.298 OA
ENDBRANCH  19  25
BRANCH  20  27
ATOM     27  C   UNL     1      21.762   2.519  -2.256  1.00  0.00     0.017 C 
ATOM     28  C   UNL     1      20.283   2.697  -1.893  1.00  0.00     0.012 C 
ATOM     29  C   UNL     1      21.955   2.402  -3.780  1.00  0.00     0.012 C 
ENDBRANCH  20  27
BRANCH  21  30
ATOM     30  O   UNL     1      22.710  -2.352  -1.704  1.00  0.00    -0.504 OA
ATOM     31  H   UNL     1      21.869  -2.713  -2.134  1.00  0.00     0.293 HD
ENDBRANCH  21  30
BRANCH  22  32
ATOM     32  O   UNL     1      21.181  -0.228  -2.827  1.00  0.00    -0.504 OA
ATOM     33  H   UNL     1      20.577   0.472  -3.230  1.00  0.00     0.293 HD
ENDBRANCH  22  32
ENDBRANCH  11  12
BRANCH  10  34
ATOM     34  O   UNL     1      27.476   3.310   1.327  1.00  0.00    -0.507 OA
ATOM     35  H   UNL     1      28.094   2.736   0.769  1.00  0.00     0.293 HD
ENDBRANCH  10  34
BRANCH   9  36
ATOM     36  C   UNL     1      28.372   2.770   7.551  1.00  0.00     0.017 C 
ATOM     37  C   UNL     1      28.276   1.241   7.554  1.00  0.00     0.012 C 
ATOM     38  C   UNL     1      27.158   3.407   8.253  1.00  0.00     0.012 C 
ENDBRANCH   9  36
BRANCH   6  39
ATOM     39  C   UNL     1      29.767   4.343   2.102  1.00  0.00     0.264 C 
ATOM     40  O   UNL     1      30.924   4.022   1.723  1.00  0.00    -0.298 OA
ENDBRANCH   6  39
BRANCH   8  41
ATOM     41  O   UNL     1      30.557   4.536   6.917  1.00  0.00    -0.504 OA
ATOM     42  H   UNL     1      30.938   5.474   6.956  1.00  0.00     0.293 HD
ENDBRANCH   8  41
BRANCH   7  43
ATOM     43  O   UNL     1      31.334   5.081   4.351  1.00  0.00    -0.504 OA
ATOM     44  H   UNL     1      32.166   4.661   3.959  1.00  0.00     0.293 HD
ENDBRANCH   7  43
TORSDOF 11
ENDMDL
MODEL 9
REMARK VINA RESULT:    -6.223      6.333     10.003
REMARK INTER + INTRA:         -10.545
REMARK INTER:                  -9.471
REMARK INTRA:                  -1.074
REMARK UNBOUND:                -1.412
REMARK SMILES Cc1cc2c(C(C)C)c(O)c(O)c(C=O)c2c(O)c1-c1c(C)cc2c(C(C)C)c(O)c(O)c(C=O)c2c1O
REMARK SMILES IDX 1 1 2 2 3 3 4 4 16 5 13 6 11 7 9 8 5 9 17 10 19 11 20 12
REMARK SMILES IDX 37 13 21 14 36 15 23 16 22 17 24 18 33 19 25 20 31 21 29 22
REMARK SMILES IDX 38 23 34 25 35 26 26 27 27 28 28 29 32 30 30 32 18 34 6 36
REMARK SMILES IDX 7 37 8 38 14 39 15 40 10 41 12 43
REMARK H PARENT 38 24 32 31 30 33 18 35 10 42 12 44
REMARK Flexibility Score: inf
ROOT
ATOM      1  C   UNL     1      23.384   0.844  -0.223  1.00  0.00     0.045 C 
ATOM      2  C   UNL     1      23.070  -0.605  -0.509  1.00  0.00    -0.039 A 
ATOM      3  C   UNL     1      23.678  -1.601   0.255  1.00  0.00     0.013 A 
ATOM      4  C   UNL     1      23.411  -2.973   0.045  1.00  0.00    -0.006 A 
ATOM      5  C   UNL     1      22.571  -3.351  -1.047  1.00  0.00     0.039 A 
ATOM      6  C   UNL     1      22.414  -4.739  -1.346  1.00  0.00     0.072 A 
ATOM      7  C   UNL     1      23.130  -5.703  -0.605  1.00  0.00     0.169 A 
ATOM      8  C   UNL     1      23.941  -5.318   0.466  1.00  0.00     0.162 A 
ATOM      9  C   UNL     1      24.001  -3.971   0.879  1.00  0.00     0.008 A 
ATOM     10  C   UNL     1      21.952  -2.326  -1.829  1.00  0.00     0.132 A 
ATOM     11  C   UNL     1      22.197  -0.964  -1.549  1.00  0.00     0.031 A 
ENDROOT
BRANCH  11  12
ATOM     12  C   UNL     1      21.565   0.096  -2.378  1.00  0.00     0.031 A 
ATOM     13  C   UNL     1      22.260   0.649  -3.475  1.00  0.00     0.132 A 
ATOM     14  C   UNL     1      20.268   0.542  -2.071  1.00  0.00    -0.039 A 
ATOM     15  C   UNL     1      21.635   1.624  -4.307  1.00  0.00     0.039 A 
ATOM     16  C   UNL     1      19.709   1.587  -2.809  1.00  0.00     0.013 A 
ATOM     17  C   UNL     1      19.487  -0.063  -0.929  1.00  0.00     0.045 C 
ATOM     18  C   UNL     1      20.396   2.190  -3.885  1.00  0.00    -0.006 A 
ATOM     19  C   UNL     1      22.217   2.072  -5.527  1.00  0.00     0.072 A 
ATOM     20  C   UNL     1      19.854   3.321  -4.568  1.00  0.00     0.008 A 
ATOM     21  C   UNL     1      21.604   3.101  -6.267  1.00  0.00     0.169 A 
ATOM     22  C   UNL     1      20.410   3.694  -5.812  1.00  0.00     0.162 A 
BRANCH  13  23
ATOM     23  O   UNL     1      23.584   0.262  -3.712  1.00  0.00    -0.507 OA
ATOM     24  H   UNL     1      23.939  -0.010  -4.619  1.00  0.00     0.293 HD
ENDBRANCH  13  23
BRANCH  19  25
ATOM     25  C   UNL     1      23.388   1.393  -6.134  1.00  0.00     0.264 C 
ATOM     26  O   UNL     1      23.280   0.741  -7.205  1.00  0.00    -0.298 OA
ENDBRANCH  19  25
BRANCH  20  27
ATOM     27  C   UNL     1      18.670   4.117  -3.990  1.00  0.00     0.017 C 
ATOM     28  C   UNL     1      18.811   4.289  -2.474  1.00  0.00     0.012 C 
ATOM     29  C   UNL     1      17.291   3.540  -4.364  1.00  0.00     0.012 C 
ENDBRANCH  20  27
BRANCH  21  30
ATOM     30  O   UNL     1      22.206   3.514  -7.462  1.00  0.00    -0.504 OA
ATOM     31  H   UNL     1      23.066   3.133  -7.832  1.00  0.00     0.293 HD
ENDBRANCH  21  30
BRANCH  22  32
ATOM     32  O   UNL     1      19.729   4.625  -6.603  1.00  0.00    -0.504 OA
ATOM     33  H   UNL     1      18.773   4.912  -6.456  1.00  0.00     0.293 HD
ENDBRANCH  22  32
ENDBRANCH  11  12
BRANCH  10  34
ATOM     34  O   UNL     1      21.104  -2.659  -2.891  1.00  0.00    -0.507 OA
ATOM     35  H   UNL     1      20.404  -2.036  -3.274  1.00  0.00     0.293 HD
ENDBRANCH  10  34
BRANCH   9  36
ATOM     36  C   UNL     1      24.716  -3.611   2.196  1.00  0.00     0.017 C 
ATOM     37  C   UNL     1      26.234  -3.757   2.049  1.00  0.00     0.012 C 
ATOM     38  C   UNL     1      24.196  -4.385   3.422  1.00  0.00     0.012 C 
ENDBRANCH   9  36
BRANCH   6  39
ATOM     39  C   UNL     1      21.538  -5.213  -2.435  1.00  0.00     0.264 C 
ATOM     40  O   UNL     1      22.028  -5.581  -3.535  1.00  0.00    -0.298 OA
ENDBRANCH   6  39
BRANCH   8  41
ATOM     41  O   UNL     1      24.696  -6.287   1.131  1.00  0.00    -0.504 OA
ATOM     42  H   UNL     1      25.693  -6.198   1.289  1.00  0.00     0.293 HD
ENDBRANCH   8  41
BRANCH   7  43
ATOM     43  O   UNL     1      23.032  -7.071  -0.894  1.00  0.00    -0.504 OA
ATOM     44  H   UNL     1      22.192  -7.619  -0.771  1.00  0.00     0.293 HD
ENDBRANCH   7  43
TORSDOF 11
ENDMDL
