MODEL 1
REMARK VINA RESULT:    -4.463      0.000      0.000
REMARK INTER + INTRA:          -6.136
REMARK INTER:                  -5.768
REMARK INTRA:                  -0.368
REMARK UNBOUND:                -0.368
REMARK SMILES CCCCCCC(=O)[O-]
REMARK SMILES IDX 5 1 6 2 7 3 8 4 9 5 4 6 3 7 2 8 1 9
REMARK H PARENT
REMARK Flexibility Score: inf
ROOT
ATOM      1  C   UNL     1      19.015   6.514  11.028  1.00  0.00     0.006 C 
ENDROOT
BRANCH   1   2
ATOM      2  C   UNL     1      19.229   8.033  11.058  1.00  0.00     0.053 C 
BRANCH   2   3
ATOM      3  C   UNL     1      20.679   8.388  11.177  1.00  0.00     0.041 C 
ATOM      4  O   UNL     1      21.211   9.165  10.341  1.00  0.00    -0.550 OA
ATOM      5  O   UNL     1      21.450   7.834  12.191  1.00  0.00    -0.550 OA
ENDBRANCH   2   3
ENDBRANCH   1   2
BRANCH   1   6
ATOM      6  C   UNL     1      19.666   5.860   9.800  1.00  0.00     0.000 C 
BRANCH   6   7
ATOM      7  C   UNL     1      18.998   6.342   8.504  1.00  0.00    -0.000 C 
BRANCH   7   8
ATOM      8  C   UNL     1      19.938   7.198   7.639  1.00  0.00    -0.003 C 
ATOM      9  C   UNL     1      19.236   8.408   7.024  1.00  0.00     0.004 C 
ENDBRANCH   7   8
ENDBRANCH   6   7
ENDBRANCH   1   6
TORSDOF 5
ENDMDL
MODEL 2
REMARK VINA RESULT:    -4.317      1.034      1.309
REMARK INTER + INTRA:          -5.947
REMARK INTER:                  -5.656
REMARK INTRA:                  -0.291
REMARK UNBOUND:                -0.368
REMARK SMILES CCCCCCC(=O)[O-]
REMARK SMILES IDX 5 1 6 2 7 3 8 4 9 5 4 6 3 7 2 8 1 9
REMARK H PARENT
REMARK Flexibility Score: inf
ROOT
ATOM      1  C   UNL     1      19.590   7.934  10.956  1.00  0.00     0.006 C 
ENDROOT
BRANCH   1   2
ATOM      2  C   UNL     1      20.833   8.330  11.764  1.00  0.00     0.053 C 
BRANCH   2   3
ATOM      3  C   UNL     1      22.010   8.601  10.878  1.00  0.00     0.041 C 
ATOM      4  O   UNL     1      21.993   9.577  10.082  1.00  0.00    -0.550 OA
ATOM      5  O   UNL     1      23.113   7.756  10.907  1.00  0.00    -0.550 OA
ENDBRANCH   2   3
ENDBRANCH   1   2
BRANCH   1   6
ATOM      6  C   UNL     1      19.524   6.422  10.695  1.00  0.00     0.000 C 
BRANCH   6   7
ATOM      7  C   UNL     1      19.279   6.134   9.206  1.00  0.00    -0.000 C 
BRANCH   7   8
ATOM      8  C   UNL     1      20.113   7.039   8.285  1.00  0.00    -0.003 C 
ATOM      9  C   UNL     1      19.269   7.727   7.212  1.00  0.00     0.004 C 
ENDBRANCH   7   8
ENDBRANCH   6   7
ENDBRANCH   1   6
TORSDOF 5
ENDMDL
MODEL 3
REMARK VINA RESULT:    -4.167      1.046      1.320
REMARK INTER + INTRA:          -5.754
REMARK INTER:                  -5.557
REMARK INTRA:                  -0.197
REMARK UNBOUND:                -0.368
REMARK SMILES CCCCCCC(=O)[O-]
REMARK SMILES IDX 5 1 6 2 7 3 8 4 9 5 4 6 3 7 2 8 1 9
REMARK H PARENT
REMARK Flexibility Score: inf
ROOT
ATOM      1  C   UNL     1      19.779   6.417  11.003  1.00  0.00     0.006 C 
ENDROOT
BRANCH   1   2
ATOM      2  C   UNL     1      20.236   7.878  11.107  1.00  0.00     0.053 C 
BRANCH   2   3
ATOM      3  C   UNL     1      21.654   7.985  11.577  1.00  0.00     0.041 C 
ATOM      4  O   UNL     1      21.909   8.428  12.728  1.00  0.00    -0.550 OA
ATOM      5  O   UNL     1      22.696   7.625  10.731  1.00  0.00    -0.550 OA
ENDBRANCH   2   3
ENDBRANCH   1   2
BRANCH   1   6
ATOM      6  C   UNL     1      19.339   6.045   9.579  1.00  0.00     0.000 C 
BRANCH   6   7
ATOM      7  C   UNL     1      20.109   6.868   8.535  1.00  0.00    -0.000 C 
BRANCH   7   8
ATOM      8  C   UNL     1      19.292   7.111   7.256  1.00  0.00    -0.003 C 
ATOM      9  C   UNL     1      19.186   8.592   6.895  1.00  0.00     0.004 C 
ENDBRANCH   7   8
ENDBRANCH   6   7
ENDBRANCH   1   6
TORSDOF 5
ENDMDL
MODEL 4
REMARK VINA RESULT:    -4.116      2.269      2.863
REMARK INTER + INTRA:          -5.688
REMARK INTER:                  -5.478
REMARK INTRA:                  -0.209
REMARK UNBOUND:                -0.368
REMARK SMILES CCCCCCC(=O)[O-]
REMARK SMILES IDX 5 1 6 2 7 3 8 4 9 5 4 6 3 7 2 8 1 9
REMARK H PARENT
REMARK Flexibility Score: inf
ROOT
ATOM      1  C   UNL     1      21.372   8.792  10.581  1.00  0.00     0.006 C 
ENDROOT
BRANCH   1   2
ATOM      2  C   UNL     1      22.313   9.567   9.650  1.00  0.00     0.053 C 
BRANCH   2   3
ATOM      3  C   UNL     1      23.740   9.465  10.091  1.00  0.00     0.041 C 
ATOM      4  O   UNL     1      24.200  10.271  10.942  1.00  0.00    -0.550 OA
ATOM      5  O   UNL     1      24.572   8.497   9.539  1.00  0.00    -0.550 OA
ENDBRANCH   2   3
ENDBRANCH   1   2
BRANCH   1   6
ATOM      6  C   UNL     1      20.079   8.359   9.873  1.00  0.00     0.000 C 
BRANCH   6   7
ATOM      7  C   UNL     1      20.340   7.176   8.930  1.00  0.00    -0.000 C 
BRANCH   7   8
ATOM      8  C   UNL     1      19.316   7.095   7.786  1.00  0.00    -0.003 C 
ATOM      9  C   UNL     1      19.275   8.368   6.940  1.00  0.00     0.004 C 
ENDBRANCH   7   8
ENDBRANCH   6   7
ENDBRANCH   1   6
TORSDOF 5
ENDMDL
MODEL 5
REMARK VINA RESULT:    -4.033      1.565      2.594
REMARK INTER + INTRA:          -5.579
REMARK INTER:                  -5.267
REMARK INTRA:                  -0.313
REMARK UNBOUND:                -0.368
REMARK SMILES CCCCCCC(=O)[O-]
REMARK SMILES IDX 5 1 6 2 7 3 8 4 9 5 4 6 3 7 2 8 1 9
REMARK H PARENT
REMARK Flexibility Score: inf
ROOT
ATOM      1  C   UNL     1      21.060   8.264  11.667  1.00  0.00     0.006 C 
ENDROOT
BRANCH   1   2
ATOM      2  C   UNL     1      22.269   7.956  10.773  1.00  0.00     0.053 C 
BRANCH   2   3
ATOM      3  C   UNL     1      22.813   9.194  10.128  1.00  0.00     0.041 C 
ATOM      4  O   UNL     1      22.468   9.503   8.957  1.00  0.00    -0.550 OA
ATOM      5  O   UNL     1      23.727   9.989  10.809  1.00  0.00    -0.550 OA
ENDBRANCH   2   3
ENDBRANCH   1   2
BRANCH   1   6
ATOM      6  C   UNL     1      19.726   8.005  10.951  1.00  0.00     0.000 C 
BRANCH   6   7
ATOM      7  C   UNL     1      19.386   6.507  10.952  1.00  0.00    -0.000 C 
BRANCH   7   8
ATOM      8  C   UNL     1      19.353   5.908   9.537  1.00  0.00    -0.003 C 
ATOM      9  C   UNL     1      19.531   6.963   8.445  1.00  0.00     0.004 C 
ENDBRANCH   7   8
ENDBRANCH   6   7
ENDBRANCH   1   6
TORSDOF 5
ENDMDL
MODEL 6
REMARK VINA RESULT:    -3.923      1.656      2.111
REMARK INTER + INTRA:          -5.437
REMARK INTER:                  -5.232
REMARK INTRA:                  -0.206
REMARK UNBOUND:                -0.368
REMARK SMILES CCCCCCC(=O)[O-]
REMARK SMILES IDX 5 1 6 2 7 3 8 4 9 5 4 6 3 7 2 8 1 9
REMARK H PARENT
REMARK Flexibility Score: inf
ROOT
ATOM      1  C   UNL     1      21.126   7.458  10.794  1.00  0.00     0.006 C 
ENDROOT
BRANCH   1   2
ATOM      2  C   UNL     1      21.348   8.419  11.969  1.00  0.00     0.053 C 
BRANCH   2   3
ATOM      3  C   UNL     1      22.421   7.929  12.892  1.00  0.00     0.041 C 
ATOM      4  O   UNL     1      22.832   8.660  13.831  1.00  0.00    -0.550 OA
ATOM      5  O   UNL     1      22.990   6.676  12.694  1.00  0.00    -0.550 OA
ENDBRANCH   2   3
ENDBRANCH   1   2
BRANCH   1   6
ATOM      6  C   UNL     1      19.707   6.870  10.783  1.00  0.00     0.000 C 
BRANCH   6   7
ATOM      7  C   UNL     1      19.387   6.235   9.421  1.00  0.00    -0.000 C 
BRANCH   7   8
ATOM      8  C   UNL     1      20.147   6.906   8.265  1.00  0.00    -0.003 C 
ATOM      9  C   UNL     1      19.250   7.798   7.407  1.00  0.00     0.004 C 
ENDBRANCH   7   8
ENDBRANCH   6   7
ENDBRANCH   1   6
TORSDOF 5
ENDMDL
MODEL 7
REMARK VINA RESULT:    -3.782      2.225      3.298
REMARK INTER + INTRA:          -5.256
REMARK INTER:                  -5.042
REMARK INTRA:                  -0.214
REMARK UNBOUND:                -0.368
REMARK SMILES CCCCCCC(=O)[O-]
REMARK SMILES IDX 5 1 6 2 7 3 8 4 9 5 4 6 3 7 2 8 1 9
REMARK H PARENT
REMARK Flexibility Score: inf
ROOT
ATOM      1  C   UNL     1      21.113   8.739   9.842  1.00  0.00     0.006 C 
ENDROOT
BRANCH   1   2
ATOM      2  C   UNL     1      22.352   9.578   9.505  1.00  0.00     0.053 C 
BRANCH   2   3
ATOM      3  C   UNL     1      23.610   8.940  10.009  1.00  0.00     0.041 C 
ATOM      4  O   UNL     1      24.491   9.637  10.578  1.00  0.00    -0.550 OA
ATOM      5  O   UNL     1      23.823   7.579   9.820  1.00  0.00    -0.550 OA
ENDBRANCH   2   3
ENDBRANCH   1   2
BRANCH   1   6
ATOM      6  C   UNL     1      20.480   8.107   8.593  1.00  0.00     0.000 C 
BRANCH   6   7
ATOM      7  C   UNL     1      19.674   6.853   8.963  1.00  0.00    -0.000 C 
BRANCH   7   8
ATOM      8  C   UNL     1      19.866   6.439  10.431  1.00  0.00    -0.003 C 
ATOM      9  C   UNL     1      18.662   5.685  10.994  1.00  0.00     0.004 C 
ENDBRANCH   7   8
ENDBRANCH   6   7
ENDBRANCH   1   6
TORSDOF 5
ENDMDL
MODEL 8
REMARK VINA RESULT:    -3.782      1.608      2.951
REMARK INTER + INTRA:          -5.255
REMARK INTER:                  -4.894
REMARK INTRA:                  -0.361
REMARK UNBOUND:                -0.368
REMARK SMILES CCCCCCC(=O)[O-]
REMARK SMILES IDX 5 1 6 2 7 3 8 4 9 5 4 6 3 7 2 8 1 9
REMARK H PARENT
REMARK Flexibility Score: inf
ROOT
ATOM      1  C   UNL     1      21.328   8.937   9.905  1.00  0.00     0.006 C 
ENDROOT
BRANCH   1   2
ATOM      2  C   UNL     1      22.471   7.980  10.270  1.00  0.00     0.053 C 
BRANCH   2   3
ATOM      3  C   UNL     1      22.662   7.883  11.752  1.00  0.00     0.041 C 
ATOM      4  O   UNL     1      22.338   6.832  12.365  1.00  0.00    -0.550 OA
ATOM      5  O   UNL     1      23.170   8.965  12.461  1.00  0.00    -0.550 OA
ENDBRANCH   2   3
ENDBRANCH   1   2
BRANCH   1   6
ATOM      6  C   UNL     1      19.956   8.248   9.948  1.00  0.00     0.000 C 
BRANCH   6   7
ATOM      7  C   UNL     1      19.877   7.118   8.911  1.00  0.00    -0.000 C 
BRANCH   7   8
ATOM      8  C   UNL     1      19.350   5.804   9.508  1.00  0.00    -0.003 C 
ATOM      9  C   UNL     1      19.008   5.926  10.993  1.00  0.00     0.004 C 
ENDBRANCH   7   8
ENDBRANCH   6   7
ENDBRANCH   1   6
TORSDOF 5
ENDMDL
MODEL 9
REMARK VINA RESULT:    -3.693      1.899      3.839
REMARK INTER + INTRA:          -5.141
REMARK INTER:                  -4.823
REMARK INTRA:                  -0.318
REMARK UNBOUND:                -0.368
REMARK SMILES CCCCCCC(=O)[O-]
REMARK SMILES IDX 5 1 6 2 7 3 8 4 9 5 4 6 3 7 2 8 1 9
REMARK H PARENT
REMARK Flexibility Score: inf
ROOT
ATOM      1  C   UNL     1      20.081   6.473   9.999  1.00  0.00     0.006 C 
ENDROOT
BRANCH   1   2
ATOM      2  C   UNL     1      19.326   6.624   8.672  1.00  0.00     0.053 C 
BRANCH   2   3
ATOM      3  C   UNL     1      19.768   7.839   7.916  1.00  0.00     0.041 C 
ATOM      4  O   UNL     1      20.847   8.414   8.216  1.00  0.00    -0.550 OA
ATOM      5  O   UNL     1      18.972   8.355   6.900  1.00  0.00    -0.550 OA
ENDBRANCH   2   3
ENDBRANCH   1   2
BRANCH   1   6
ATOM      6  C   UNL     1      19.452   7.311  11.124  1.00  0.00     0.000 C 
BRANCH   6   7
ATOM      7  C   UNL     1      20.489   8.259  11.745  1.00  0.00    -0.000 C 
BRANCH   7   8
ATOM      8  C   UNL     1      21.913   7.682  11.708  1.00  0.00    -0.003 C 
ATOM      9  C   UNL     1      22.929   8.655  11.109  1.00  0.00     0.004 C 
ENDBRANCH   7   8
ENDBRANCH   6   7
ENDBRANCH   1   6
TORSDOF 5
ENDMDL
