MODEL 1
REMARK VINA RESULT:    -3.322      0.000      0.000
REMARK INTER + INTRA:          -4.058
REMARK INTER:                  -4.002
REMARK INTRA:                  -0.056
REMARK UNBOUND:                -0.056
REMARK SMILES CC[C@@H](C)[C@@H]([NH3+])C(=O)[O-]
REMARK SMILES IDX 3 1 4 2 5 3 6 4 7 8 8 9 9 10 2 11 1 12
REMARK H PARENT 6 5 6 6 6 7
REMARK Flexibility Score: inf
ROOT
ATOM      1  C   UNL     1       9.053   7.400  42.342  1.00  0.00     0.050 C 
ATOM      2  C   UNL     1       9.617   8.502  43.258  1.00  0.00     0.014 C 
ENDROOT
BRANCH   1   3
ATOM      3  C   UNL     1      10.065   7.039  41.209  1.00  0.00     0.230 C 
BRANCH   3   4
ATOM      4  N   UNL     1      10.801   5.795  41.477  1.00  0.00    -0.350 N 
ATOM      5  H   UNL     1      11.250   5.833  42.420  1.00  0.00     0.345 HD
ATOM      6  H   UNL     1      10.174   4.961  41.427  1.00  0.00     0.345 HD
ATOM      7  H   UNL     1      11.563   5.681  40.769  1.00  0.00     0.345 HD
ENDBRANCH   3   4
BRANCH   3   8
ATOM      8  C   UNL     1       9.376   6.979  39.867  1.00  0.00     0.099 C 
ATOM      9  O   UNL     1      10.003   7.302  38.824  1.00  0.00    -0.544 OA
ATOM     10  O   UNL     1       8.039   6.609  39.770  1.00  0.00    -0.544 OA
ENDBRANCH   3   8
ENDBRANCH   1   3
BRANCH   1  11
ATOM     11  C   UNL     1       8.600   6.165  43.162  1.00  0.00     0.006 C 
ATOM     12  C   UNL     1       8.095   6.536  44.557  1.00  0.00     0.004 C 
ENDBRANCH   1  11
TORSDOF 4
ENDMDL
MODEL 2
REMARK VINA RESULT:    -3.276      0.217      1.092
REMARK INTER + INTRA:          -4.003
REMARK INTER:                  -3.937
REMARK INTRA:                  -0.065
REMARK UNBOUND:                -0.056
REMARK SMILES CC[C@@H](C)[C@@H]([NH3+])C(=O)[O-]
REMARK SMILES IDX 3 1 4 2 5 3 6 4 7 8 8 9 9 10 2 11 1 12
REMARK H PARENT 6 5 6 6 6 7
REMARK Flexibility Score: inf
ROOT
ATOM      1  C   UNL     1       8.904   7.388  42.465  1.00  0.00     0.050 C 
ATOM      2  C   UNL     1       9.501   8.470  43.383  1.00  0.00     0.014 C 
ENDROOT
BRANCH   1   3
ATOM      3  C   UNL     1       9.882   7.039  41.299  1.00  0.00     0.230 C 
BRANCH   3   4
ATOM      4  N   UNL     1      10.573   5.756  41.498  1.00  0.00    -0.350 N 
ATOM      5  H   UNL     1      10.934   5.685  42.476  1.00  0.00     0.345 HD
ATOM      6  H   UNL     1       9.940   4.948  41.303  1.00  0.00     0.345 HD
ATOM      7  H   UNL     1      11.394   5.699  40.853  1.00  0.00     0.345 HD
ENDBRANCH   3   4
BRANCH   3   8
ATOM      8  C   UNL     1       9.169   7.067  39.968  1.00  0.00     0.099 C 
ATOM      9  O   UNL     1       7.924   6.891  39.920  1.00  0.00    -0.544 OA
ATOM     10  O   UNL     1       9.878   7.242  38.785  1.00  0.00    -0.544 OA
ENDBRANCH   3   8
ENDBRANCH   1   3
BRANCH   1  11
ATOM     11  C   UNL     1       8.465   6.142  43.276  1.00  0.00     0.006 C 
ATOM     12  C   UNL     1       7.987   6.495  44.686  1.00  0.00     0.004 C 
ENDBRANCH   1  11
TORSDOF 4
ENDMDL
MODEL 3
REMARK VINA RESULT:    -3.160      1.710      2.263
REMARK INTER + INTRA:          -3.863
REMARK INTER:                  -3.785
REMARK INTRA:                  -0.078
REMARK UNBOUND:                -0.056
REMARK SMILES CC[C@@H](C)[C@@H]([NH3+])C(=O)[O-]
REMARK SMILES IDX 3 1 4 2 5 3 6 4 7 8 8 9 9 10 2 11 1 12
REMARK H PARENT 6 5 6 6 6 7
REMARK Flexibility Score: inf
ROOT
ATOM      1  C   UNL     1       8.409   6.280  42.814  1.00  0.00     0.050 C 
ATOM      2  C   UNL     1       7.047   6.113  42.115  1.00  0.00     0.014 C 
ENDROOT
BRANCH   1   3
ATOM      3  C   UNL     1       9.248   7.412  42.142  1.00  0.00     0.230 C 
BRANCH   3   4
ATOM      4  N   UNL     1       9.943   8.265  43.119  1.00  0.00    -0.350 N 
ATOM      5  H   UNL     1      10.406   9.068  42.637  1.00  0.00     0.345 HD
ATOM      6  H   UNL     1       9.285   8.629  43.844  1.00  0.00     0.345 HD
ATOM      7  H   UNL     1      10.690   7.710  43.597  1.00  0.00     0.345 HD
ENDBRANCH   3   4
BRANCH   3   8
ATOM      8  C   UNL     1      10.221   6.841  41.139  1.00  0.00     0.099 C 
ATOM      9  O   UNL     1      11.326   6.380  41.528  1.00  0.00    -0.544 OA
ATOM     10  O   UNL     1       9.931   6.854  39.779  1.00  0.00    -0.544 OA
ENDBRANCH   3   8
ENDBRANCH   1   3
BRANCH   1  11
ATOM     11  C   UNL     1       8.234   6.484  44.341  1.00  0.00     0.006 C 
ATOM     12  C   UNL     1       6.846   6.077  44.836  1.00  0.00     0.004 C 
ENDBRANCH   1  11
TORSDOF 4
ENDMDL
MODEL 4
REMARK VINA RESULT:    -3.147      1.823      2.456
REMARK INTER + INTRA:          -3.847
REMARK INTER:                  -3.800
REMARK INTRA:                  -0.047
REMARK UNBOUND:                -0.056
REMARK SMILES CC[C@@H](C)[C@@H]([NH3+])C(=O)[O-]
REMARK SMILES IDX 3 1 4 2 5 3 6 4 7 8 8 9 9 10 2 11 1 12
REMARK H PARENT 6 5 6 6 6 7
REMARK Flexibility Score: inf
ROOT
ATOM      1  C   UNL     1       8.946   6.697  43.458  1.00  0.00     0.050 C 
ATOM      2  C   UNL     1       7.770   6.186  44.310  1.00  0.00     0.014 C 
ENDROOT
BRANCH   1   3
ATOM      3  C   UNL     1       8.828   6.199  41.983  1.00  0.00     0.230 C 
BRANCH   3   4
ATOM      4  N   UNL     1       7.599   6.663  41.321  1.00  0.00    -0.350 N 
ATOM      5  H   UNL     1       6.856   6.858  42.029  1.00  0.00     0.345 HD
ATOM      6  H   UNL     1       7.772   7.524  40.756  1.00  0.00     0.345 HD
ATOM      7  H   UNL     1       7.241   5.913  40.686  1.00  0.00     0.345 HD
ENDBRANCH   3   4
BRANCH   3   8
ATOM      8  C   UNL     1      10.049   6.584  41.183  1.00  0.00     0.099 C 
ATOM      9  O   UNL     1       9.920   6.986  39.997  1.00  0.00    -0.544 OA
ATOM     10  O   UNL     1      11.323   6.460  41.725  1.00  0.00    -0.544 OA
ENDBRANCH   3   8
ENDBRANCH   1   3
BRANCH   1  11
ATOM     11  C   UNL     1       9.091   8.236  43.566  1.00  0.00     0.006 C 
ATOM     12  C   UNL     1       8.821   8.757  44.978  1.00  0.00     0.004 C 
ENDBRANCH   1  11
TORSDOF 4
ENDMDL
MODEL 5
REMARK VINA RESULT:    -3.080     10.649     11.586
REMARK INTER + INTRA:          -3.766
REMARK INTER:                  -3.654
REMARK INTRA:                  -0.112
REMARK UNBOUND:                -0.056
REMARK SMILES CC[C@@H](C)[C@@H]([NH3+])C(=O)[O-]
REMARK SMILES IDX 3 1 4 2 5 3 6 4 7 8 8 9 9 10 2 11 1 12
REMARK H PARENT 6 5 6 6 6 7
REMARK Flexibility Score: inf
ROOT
ATOM      1  C   UNL     1       8.130  -1.155  35.114  1.00  0.00     0.050 C 
ATOM      2  C   UNL     1       8.572  -0.641  36.497  1.00  0.00     0.014 C 
ENDROOT
BRANCH   1   3
ATOM      3  C   UNL     1       8.974  -2.394  34.681  1.00  0.00     0.230 C 
BRANCH   3   4
ATOM      4  N   UNL     1       8.762  -3.562  35.550  1.00  0.00    -0.350 N 
ATOM      5  H   UNL     1       9.421  -4.331  35.292  1.00  0.00     0.345 HD
ATOM      6  H   UNL     1       8.895  -3.317  36.557  1.00  0.00     0.345 HD
ATOM      7  H   UNL     1       7.789  -3.921  35.419  1.00  0.00     0.345 HD
ENDBRANCH   3   4
BRANCH   3   8
ATOM      8  C   UNL     1       8.717  -2.746  33.235  1.00  0.00     0.099 C 
ATOM      9  O   UNL     1       8.117  -3.814  32.946  1.00  0.00    -0.544 OA
ATOM     10  O   UNL     1       9.171  -1.922  32.211  1.00  0.00    -0.544 OA
ENDBRANCH   3   8
ENDBRANCH   1   3
BRANCH   1  11
ATOM     11  C   UNL     1       6.603  -1.422  35.076  1.00  0.00     0.006 C 
ATOM     12  C   UNL     1       5.967  -1.408  36.467  1.00  0.00     0.004 C 
ENDBRANCH   1  11
TORSDOF 4
ENDMDL
MODEL 6
REMARK VINA RESULT:    -3.005     11.393     12.352
REMARK INTER + INTRA:          -3.676
REMARK INTER:                  -3.589
REMARK INTRA:                  -0.087
REMARK UNBOUND:                -0.056
REMARK SMILES CC[C@@H](C)[C@@H]([NH3+])C(=O)[O-]
REMARK SMILES IDX 3 1 4 2 5 3 6 4 7 8 8 9 9 10 2 11 1 12
REMARK H PARENT 6 5 6 6 6 7
REMARK Flexibility Score: inf
ROOT
ATOM      1  C   UNL     1      10.002   0.183  31.555  1.00  0.00     0.050 C 
ATOM      2  C   UNL     1      10.409  -0.433  30.204  1.00  0.00     0.014 C 
ENDROOT
BRANCH   1   3
ATOM      3  C   UNL     1      10.397  -0.754  32.740  1.00  0.00     0.230 C 
BRANCH   3   4
ATOM      4  N   UNL     1      11.112  -0.046  33.813  1.00  0.00    -0.350 N 
ATOM      5  H   UNL     1      11.914   0.496  33.420  1.00  0.00     0.345 HD
ATOM      6  H   UNL     1      10.478   0.602  34.332  1.00  0.00     0.345 HD
ATOM      7  H   UNL     1      11.502  -0.742  34.490  1.00  0.00     0.345 HD
ENDBRANCH   3   4
BRANCH   3   8
ATOM      8  C   UNL     1       9.189  -1.477  33.284  1.00  0.00     0.099 C 
ATOM      9  O   UNL     1       8.525  -0.970  34.225  1.00  0.00    -0.544 OA
ATOM     10  O   UNL     1       8.821  -2.722  32.786  1.00  0.00    -0.544 OA
ENDBRANCH   3   8
ENDBRANCH   1   3
BRANCH   1  11
ATOM     11  C   UNL     1      10.563   1.620  31.709  1.00  0.00     0.006 C 
ATOM     12  C   UNL     1      11.317   2.095  30.466  1.00  0.00     0.004 C 
ENDBRANCH   1  11
TORSDOF 4
ENDMDL
MODEL 7
REMARK VINA RESULT:    -2.981      9.169     10.489
REMARK INTER + INTRA:          -3.647
REMARK INTER:                  -3.496
REMARK INTRA:                  -0.151
REMARK UNBOUND:                -0.056
REMARK SMILES CC[C@@H](C)[C@@H]([NH3+])C(=O)[O-]
REMARK SMILES IDX 3 1 4 2 5 3 6 4 7 8 8 9 9 10 2 11 1 12
REMARK H PARENT 6 5 6 6 6 7
REMARK Flexibility Score: inf
ROOT
ATOM      1  C   UNL     1       7.742  -1.231  35.605  1.00  0.00     0.050 C 
ATOM      2  C   UNL     1       6.267  -1.280  35.163  1.00  0.00     0.014 C 
ENDROOT
BRANCH   1   3
ATOM      3  C   UNL     1       7.931  -1.902  37.002  1.00  0.00     0.230 C 
BRANCH   3   4
ATOM      4  N   UNL     1       8.743  -3.126  36.942  1.00  0.00    -0.350 N 
ATOM      5  H   UNL     1       8.566  -3.637  36.047  1.00  0.00     0.345 HD
ATOM      6  H   UNL     1       9.763  -2.913  37.022  1.00  0.00     0.345 HD
ATOM      7  H   UNL     1       8.474  -3.763  37.727  1.00  0.00     0.345 HD
ENDBRANCH   3   4
BRANCH   3   8
ATOM      8  C   UNL     1       8.504  -0.924  37.999  1.00  0.00     0.099 C 
ATOM      9  O   UNL     1       8.866  -1.326  39.136  1.00  0.00    -0.544 OA
ATOM     10  O   UNL     1       8.600   0.429  37.694  1.00  0.00    -0.544 OA
ENDBRANCH   3   8
ENDBRANCH   1   3
BRANCH   1  11
ATOM     11  C   UNL     1       8.674  -1.826  34.519  1.00  0.00     0.006 C 
ATOM     12  C   UNL     1       9.883  -0.935  34.227  1.00  0.00     0.004 C 
ENDBRANCH   1  11
TORSDOF 4
ENDMDL
MODEL 8
REMARK VINA RESULT:    -2.973     10.355     11.265
REMARK INTER + INTRA:          -3.637
REMARK INTER:                  -3.551
REMARK INTRA:                  -0.086
REMARK UNBOUND:                -0.056
REMARK SMILES CC[C@@H](C)[C@@H]([NH3+])C(=O)[O-]
REMARK SMILES IDX 3 1 4 2 5 3 6 4 7 8 8 9 9 10 2 11 1 12
REMARK H PARENT 6 5 6 6 6 7
REMARK Flexibility Score: inf
ROOT
ATOM      1  C   UNL     1       7.668  -1.594  35.788  1.00  0.00     0.050 C 
ATOM      2  C   UNL     1       6.186  -1.202  35.649  1.00  0.00     0.014 C 
ENDROOT
BRANCH   1   3
ATOM      3  C   UNL     1       8.327  -1.802  34.388  1.00  0.00     0.230 C 
BRANCH   3   4
ATOM      4  N   UNL     1       9.617  -1.108  34.256  1.00  0.00    -0.350 N 
ATOM      5  H   UNL     1      10.199  -1.559  33.514  1.00  0.00     0.345 HD
ATOM      6  H   UNL     1       9.486  -0.097  34.025  1.00  0.00     0.345 HD
ATOM      7  H   UNL     1      10.145  -1.177  35.156  1.00  0.00     0.345 HD
ENDBRANCH   3   4
BRANCH   3   8
ATOM      8  C   UNL     1       8.471  -3.270  34.070  1.00  0.00     0.099 C 
ATOM      9  O   UNL     1       8.203  -3.692  32.915  1.00  0.00    -0.544 OA
ATOM     10  O   UNL     1       8.858  -4.176  35.052  1.00  0.00    -0.544 OA
ENDBRANCH   3   8
ENDBRANCH   1   3
BRANCH   1  11
ATOM     11  C   UNL     1       8.437  -0.579  36.672  1.00  0.00     0.006 C 
ATOM     12  C   UNL     1       8.510  -1.010  38.138  1.00  0.00     0.004 C 
ENDBRANCH   1  11
TORSDOF 4
ENDMDL
MODEL 9
REMARK VINA RESULT:    -2.971      9.012     10.274
REMARK INTER + INTRA:          -3.635
REMARK INTER:                  -3.632
REMARK INTRA:                  -0.004
REMARK UNBOUND:                -0.056
REMARK SMILES CC[C@@H](C)[C@@H]([NH3+])C(=O)[O-]
REMARK SMILES IDX 3 1 4 2 5 3 6 4 7 8 8 9 9 10 2 11 1 12
REMARK H PARENT 6 5 6 6 6 7
REMARK Flexibility Score: inf
ROOT
ATOM      1  C   UNL     1       7.459  -0.591  35.926  1.00  0.00     0.050 C 
ATOM      2  C   UNL     1       6.295  -1.370  35.286  1.00  0.00     0.014 C 
ENDROOT
BRANCH   1   3
ATOM      3  C   UNL     1       7.176  -0.297  37.433  1.00  0.00     0.230 C 
BRANCH   3   4
ATOM      4  N   UNL     1       5.755  -0.034  37.706  1.00  0.00    -0.350 N 
ATOM      5  H   UNL     1       5.160  -0.410  36.932  1.00  0.00     0.345 HD
ATOM      6  H   UNL     1       5.454  -0.461  38.611  1.00  0.00     0.345 HD
ATOM      7  H   UNL     1       5.594   0.998  37.754  1.00  0.00     0.345 HD
ENDBRANCH   3   4
BRANCH   3   8
ATOM      8  C   UNL     1       7.695  -1.411  38.309  1.00  0.00     0.099 C 
ATOM      9  O   UNL     1       7.026  -2.469  38.441  1.00  0.00    -0.544 OA
ATOM     10  O   UNL     1       8.888  -1.268  39.008  1.00  0.00    -0.544 OA
ENDBRANCH   3   8
ENDBRANCH   1   3
BRANCH   1  11
ATOM     11  C   UNL     1       8.811  -1.313  35.696  1.00  0.00     0.006 C 
ATOM     12  C   UNL     1       9.372  -1.083  34.292  1.00  0.00     0.004 C 
ENDBRANCH   1  11
TORSDOF 4
ENDMDL
