MODEL 1
REMARK VINA RESULT:    -4.847      0.000      0.000
REMARK INTER + INTRA:          -8.884
REMARK INTER:                  -7.681
REMARK INTRA:                  -1.203
REMARK UNBOUND:                -1.203
REMARK SMILES CCCCCCCCCCCC(=O)[O-]
REMARK SMILES IDX 7 1 8 2 9 3 10 4 11 5 12 6 13 7 14 8 6 9 5 10 4 11 3 12 2 13
REMARK SMILES IDX 1 14
REMARK H PARENT
REMARK Flexibility Score: inf
ROOT
ATOM      1  C   UNL     1      35.494   4.010   8.019  1.00  0.00     0.000 C 
ENDROOT
BRANCH   1   2
ATOM      2  C   UNL     1      36.888   4.341   7.463  1.00  0.00     0.000 C 
BRANCH   2   3
ATOM      3  C   UNL     1      37.627   3.100   6.937  1.00  0.00     0.000 C 
BRANCH   3   4
ATOM      4  C   UNL     1      36.831   1.821   7.236  1.00  0.00     0.006 C 
BRANCH   4   5
ATOM      5  C   UNL     1      37.604   0.553   6.849  1.00  0.00     0.053 C 
BRANCH   5   6
ATOM      6  C   UNL     1      36.805  -0.329   5.939  1.00  0.00     0.041 C 
ATOM      7  O   UNL     1      35.642  -0.686   6.262  1.00  0.00    -0.550 OA
ATOM      8  O   UNL     1      37.334  -0.728   4.718  1.00  0.00    -0.550 OA
ENDBRANCH   5   6
ENDBRANCH   4   5
ENDBRANCH   3   4
ENDBRANCH   2   3
ENDBRANCH   1   2
BRANCH   1   9
ATOM      9  C   UNL     1      34.374   4.791   7.316  1.00  0.00     0.000 C 
BRANCH   9  10
ATOM     10  C   UNL     1      33.371   3.834   6.656  1.00  0.00    -0.000 C 
BRANCH  10  11
ATOM     11  C   UNL     1      33.702   3.552   5.181  1.00  0.00    -0.000 C 
BRANCH  11  12
ATOM     12  C   UNL     1      33.992   2.068   4.912  1.00  0.00    -0.000 C 
BRANCH  12  13
ATOM     13  C   UNL     1      34.693   1.882   3.562  1.00  0.00    -0.003 C 
ATOM     14  C   UNL     1      34.442   0.488   2.996  1.00  0.00     0.004 C 
ENDBRANCH  12  13
ENDBRANCH  11  12
ENDBRANCH  10  11
ENDBRANCH   9  10
ENDBRANCH   1   9
TORSDOF 10
ENDMDL
MODEL 2
REMARK VINA RESULT:    -4.835      2.348      5.190
REMARK INTER + INTRA:          -8.864
REMARK INTER:                  -7.456
REMARK INTRA:                  -1.408
REMARK UNBOUND:                -1.203
REMARK SMILES CCCCCCCCCCCC(=O)[O-]
REMARK SMILES IDX 7 1 8 2 9 3 10 4 11 5 12 6 13 7 14 8 6 9 5 10 4 11 3 12 2 13
REMARK SMILES IDX 1 14
REMARK H PARENT
REMARK Flexibility Score: inf
ROOT
ATOM      1  C   UNL     1      34.705  -0.274   4.135  1.00  0.00     0.000 C 
ENDROOT
BRANCH   1   2
ATOM      2  C   UNL     1      34.507   0.891   3.152  1.00  0.00     0.000 C 
BRANCH   2   3
ATOM      3  C   UNL     1      35.019   2.229   3.708  1.00  0.00     0.000 C 
BRANCH   3   4
ATOM      4  C   UNL     1      33.994   3.348   3.475  1.00  0.00     0.006 C 
BRANCH   4   5
ATOM      5  C   UNL     1      33.037   3.516   4.663  1.00  0.00     0.053 C 
BRANCH   5   6
ATOM      6  C   UNL     1      33.738   4.072   5.866  1.00  0.00     0.041 C 
ATOM      7  O   UNL     1      33.611   3.515   6.988  1.00  0.00    -0.550 OA
ATOM      8  O   UNL     1      34.558   5.185   5.739  1.00  0.00    -0.550 OA
ENDBRANCH   5   6
ENDBRANCH   4   5
ENDBRANCH   3   4
ENDBRANCH   2   3
ENDBRANCH   1   2
BRANCH   1   9
ATOM      9  C   UNL     1      34.178   0.041   5.543  1.00  0.00     0.000 C 
BRANCH   9  10
ATOM     10  C   UNL     1      35.204  -0.357   6.614  1.00  0.00    -0.000 C 
BRANCH  10  11
ATOM     11  C   UNL     1      36.648  -0.339   6.088  1.00  0.00    -0.000 C 
BRANCH  11  12
ATOM     12  C   UNL     1      37.554   0.617   6.878  1.00  0.00    -0.000 C 
BRANCH  12  13
ATOM     13  C   UNL     1      36.845   1.949   7.146  1.00  0.00    -0.003 C 
ATOM     14  C   UNL     1      37.517   3.093   6.393  1.00  0.00     0.004 C 
ENDBRANCH  12  13
ENDBRANCH  11  12
ENDBRANCH  10  11
ENDBRANCH   9  10
ENDBRANCH   1   9
TORSDOF 10
ENDMDL
MODEL 3
REMARK VINA RESULT:    -4.818      1.563      3.654
REMARK INTER + INTRA:          -8.837
REMARK INTER:                  -7.687
REMARK INTRA:                  -1.150
REMARK UNBOUND:                -1.203
REMARK SMILES CCCCCCCCCCCC(=O)[O-]
REMARK SMILES IDX 7 1 8 2 9 3 10 4 11 5 12 6 13 7 14 8 6 9 5 10 4 11 3 12 2 13
REMARK SMILES IDX 1 14
REMARK H PARENT
REMARK Flexibility Score: inf
ROOT
ATOM      1  C   UNL     1      33.103   3.724   4.991  1.00  0.00     0.000 C 
ENDROOT
BRANCH   1   2
ATOM      2  C   UNL     1      33.653   2.766   3.922  1.00  0.00     0.000 C 
BRANCH   2   3
ATOM      3  C   UNL     1      34.360   1.543   4.529  1.00  0.00     0.000 C 
BRANCH   3   4
ATOM      4  C   UNL     1      34.542   0.438   3.479  1.00  0.00     0.006 C 
BRANCH   4   5
ATOM      5  C   UNL     1      34.837  -0.926   4.117  1.00  0.00     0.053 C 
BRANCH   5   6
ATOM      6  C   UNL     1      36.163  -0.938   4.813  1.00  0.00     0.041 C 
ATOM      7  O   UNL     1      37.230  -0.971   4.145  1.00  0.00    -0.550 OA
ATOM      8  O   UNL     1      36.221  -0.879   6.200  1.00  0.00    -0.550 OA
ENDBRANCH   5   6
ENDBRANCH   4   5
ENDBRANCH   3   4
ENDBRANCH   2   3
ENDBRANCH   1   2
BRANCH   1   9
ATOM      9  C   UNL     1      34.209   4.519   5.701  1.00  0.00     0.000 C 
BRANCH   9  10
ATOM     10  C   UNL     1      34.152   4.298   7.220  1.00  0.00    -0.000 C 
BRANCH  10  11
ATOM     11  C   UNL     1      35.429   3.648   7.773  1.00  0.00    -0.000 C 
BRANCH  11  12
ATOM     12  C   UNL     1      35.279   2.134   7.985  1.00  0.00    -0.000 C 
BRANCH  12  13
ATOM     13  C   UNL     1      33.901   1.796   8.564  1.00  0.00    -0.003 C 
ATOM     14  C   UNL     1      33.367   0.487   7.991  1.00  0.00     0.004 C 
ENDBRANCH  12  13
ENDBRANCH  11  12
ENDBRANCH  10  11
ENDBRANCH   9  10
ENDBRANCH   1   9
TORSDOF 10
ENDMDL
MODEL 4
REMARK VINA RESULT:    -4.799     19.374     20.494
REMARK INTER + INTRA:          -8.807
REMARK INTER:                  -7.623
REMARK INTRA:                  -1.184
REMARK UNBOUND:                -1.203
REMARK SMILES CCCCCCCCCCCC(=O)[O-]
REMARK SMILES IDX 7 1 8 2 9 3 10 4 11 5 12 6 13 7 14 8 6 9 5 10 4 11 3 12 2 13
REMARK SMILES IDX 1 14
REMARK H PARENT
REMARK Flexibility Score: inf
ROOT
ATOM      1  C   UNL     1      48.153  12.065  -4.756  1.00  0.00     0.000 C 
ENDROOT
BRANCH   1   2
ATOM      2  C   UNL     1      47.143  11.829  -5.890  1.00  0.00     0.000 C 
BRANCH   2   3
ATOM      3  C   UNL     1      46.017  12.875  -5.907  1.00  0.00     0.000 C 
BRANCH   3   4
ATOM      4  C   UNL     1      45.776  13.398  -7.331  1.00  0.00     0.006 C 
BRANCH   4   5
ATOM      5  C   UNL     1      46.412  12.495  -8.396  1.00  0.00     0.053 C 
BRANCH   5   6
ATOM      6  C   UNL     1      45.376  11.819  -9.241  1.00  0.00     0.041 C 
ATOM      7  O   UNL     1      45.703  11.264 -10.323  1.00  0.00    -0.550 OA
ATOM      8  O   UNL     1      44.054  11.772  -8.816  1.00  0.00    -0.550 OA
ENDBRANCH   5   6
ENDBRANCH   4   5
ENDBRANCH   3   4
ENDBRANCH   2   3
ENDBRANCH   1   2
BRANCH   1   9
ATOM      9  C   UNL     1      49.595  11.729  -5.166  1.00  0.00     0.000 C 
BRANCH   9  10
ATOM     10  C   UNL     1      49.712  11.591  -6.691  1.00  0.00    -0.000 C 
BRANCH  10  11
ATOM     11  C   UNL     1      50.324  10.249  -7.121  1.00  0.00    -0.000 C 
BRANCH  11  12
ATOM     12  C   UNL     1      49.526   9.042  -6.606  1.00  0.00    -0.000 C 
BRANCH  12  13
ATOM     13  C   UNL     1      48.912   8.254  -7.769  1.00  0.00    -0.003 C 
ATOM     14  C   UNL     1      47.754   9.019  -8.404  1.00  0.00     0.004 C 
ENDBRANCH  12  13
ENDBRANCH  11  12
ENDBRANCH  10  11
ENDBRANCH   9  10
ENDBRANCH   1   9
TORSDOF 10
ENDMDL
MODEL 5
REMARK VINA RESULT:    -4.795     19.277     20.636
REMARK INTER + INTRA:          -8.801
REMARK INTER:                  -7.223
REMARK INTRA:                  -1.577
REMARK UNBOUND:                -1.203
REMARK SMILES CCCCCCCCCCCC(=O)[O-]
REMARK SMILES IDX 7 1 8 2 9 3 10 4 11 5 12 6 13 7 14 8 6 9 5 10 4 11 3 12 2 13
REMARK SMILES IDX 1 14
REMARK H PARENT
REMARK Flexibility Score: inf
ROOT
ATOM      1  C   UNL     1      49.031   8.432  -7.755  1.00  0.00     0.000 C 
ENDROOT
BRANCH   1   2
ATOM      2  C   UNL     1      47.524   8.165  -7.895  1.00  0.00     0.000 C 
BRANCH   2   3
ATOM      3  C   UNL     1      46.720   9.442  -8.184  1.00  0.00     0.000 C 
BRANCH   3   4
ATOM      4  C   UNL     1      47.406  10.289  -9.266  1.00  0.00     0.006 C 
BRANCH   4   5
ATOM      5  C   UNL     1      47.419  11.782  -8.914  1.00  0.00     0.053 C 
BRANCH   5   6
ATOM      6  C   UNL     1      46.037  12.361  -8.899  1.00  0.00     0.041 C 
ATOM      7  O   UNL     1      45.212  12.059  -9.802  1.00  0.00    -0.550 OA
ATOM      8  O   UNL     1      45.649  13.207  -7.868  1.00  0.00    -0.550 OA
ENDBRANCH   5   6
ENDBRANCH   4   5
ENDBRANCH   3   4
ENDBRANCH   2   3
ENDBRANCH   1   2
BRANCH   1   9
ATOM      9  C   UNL     1      49.405   9.018  -6.385  1.00  0.00     0.000 C 
BRANCH   9  10
ATOM     10  C   UNL     1      50.436  10.146  -6.536  1.00  0.00    -0.000 C 
BRANCH  10  11
ATOM     11  C   UNL     1      49.896  11.509  -6.073  1.00  0.00    -0.000 C 
BRANCH  11  12
ATOM     12  C   UNL     1      48.953  11.393  -4.866  1.00  0.00    -0.000 C 
BRANCH  12  13
ATOM     13  C   UNL     1      47.648  12.158  -5.114  1.00  0.00    -0.003 C 
ATOM     14  C   UNL     1      46.441  11.227  -5.048  1.00  0.00     0.004 C 
ENDBRANCH  12  13
ENDBRANCH  11  12
ENDBRANCH  10  11
ENDBRANCH   9  10
ENDBRANCH   1   9
TORSDOF 10
ENDMDL
MODEL 6
REMARK VINA RESULT:    -4.780     19.252     20.431
REMARK INTER + INTRA:          -8.778
REMARK INTER:                  -7.241
REMARK INTRA:                  -1.537
REMARK UNBOUND:                -1.203
REMARK SMILES CCCCCCCCCCCC(=O)[O-]
REMARK SMILES IDX 7 1 8 2 9 3 10 4 11 5 12 6 13 7 14 8 6 9 5 10 4 11 3 12 2 13
REMARK SMILES IDX 1 14
REMARK H PARENT
REMARK Flexibility Score: inf
ROOT
ATOM      1  C   UNL     1      48.417  10.136  -4.548  1.00  0.00     0.000 C 
ENDROOT
BRANCH   1   2
ATOM      2  C   UNL     1      48.470  11.623  -4.933  1.00  0.00     0.000 C 
BRANCH   2   3
ATOM      3  C   UNL     1      47.179  12.105  -5.614  1.00  0.00     0.000 C 
BRANCH   3   4
ATOM      4  C   UNL     1      47.418  12.388  -7.104  1.00  0.00     0.006 C 
BRANCH   4   5
ATOM      5  C   UNL     1      46.140  12.843  -7.821  1.00  0.00     0.053 C 
BRANCH   5   6
ATOM      6  C   UNL     1      46.036  12.257  -9.196  1.00  0.00     0.041 C 
ATOM      7  O   UNL     1      47.064  12.132  -9.912  1.00  0.00    -0.550 OA
ATOM      8  O   UNL     1      44.807  11.818  -9.673  1.00  0.00    -0.550 OA
ENDBRANCH   5   6
ENDBRANCH   4   5
ENDBRANCH   3   4
ENDBRANCH   2   3
ENDBRANCH   1   2
BRANCH   1   9
ATOM      9  C   UNL     1      49.586   9.330  -5.133  1.00  0.00     0.000 C 
BRANCH   9  10
ATOM     10  C   UNL     1      50.358  10.160  -6.171  1.00  0.00    -0.000 C 
BRANCH  10  11
ATOM     11  C   UNL     1      50.088   9.705  -7.614  1.00  0.00    -0.000 C 
BRANCH  11  12
ATOM     12  C   UNL     1      49.091   8.538  -7.690  1.00  0.00    -0.000 C 
BRANCH  12  13
ATOM     13  C   UNL     1      47.829   8.946  -8.458  1.00  0.00    -0.003 C 
ATOM     14  C   UNL     1      46.570   8.666  -7.643  1.00  0.00     0.004 C 
ENDBRANCH  12  13
ENDBRANCH  11  12
ENDBRANCH  10  11
ENDBRANCH   9  10
ENDBRANCH   1   9
TORSDOF 10
ENDMDL
MODEL 7
REMARK VINA RESULT:    -4.769     18.875     20.002
REMARK INTER + INTRA:          -8.760
REMARK INTER:                  -7.496
REMARK INTRA:                  -1.264
REMARK UNBOUND:                -1.203
REMARK SMILES CCCCCCCCCCCC(=O)[O-]
REMARK SMILES IDX 7 1 8 2 9 3 10 4 11 5 12 6 13 7 14 8 6 9 5 10 4 11 3 12 2 13
REMARK SMILES IDX 1 14
REMARK H PARENT
REMARK Flexibility Score: inf
ROOT
ATOM      1  C   UNL     1      44.364   9.769  -8.662  1.00  0.00     0.000 C 
ENDROOT
BRANCH   1   2
ATOM      2  C   UNL     1      45.700   9.468  -9.361  1.00  0.00     0.000 C 
BRANCH   2   3
ATOM      3  C   UNL     1      46.650   8.633  -8.489  1.00  0.00     0.000 C 
BRANCH   3   4
ATOM      4  C   UNL     1      48.068   9.222  -8.502  1.00  0.00     0.006 C 
BRANCH   4   5
ATOM      5  C   UNL     1      49.047   8.398  -7.656  1.00  0.00     0.053 C 
BRANCH   5   6
ATOM      6  C   UNL     1      49.606   9.197  -6.518  1.00  0.00     0.041 C 
ATOM      7  O   UNL     1      50.374  10.169  -6.742  1.00  0.00    -0.550 OA
ATOM      8  O   UNL     1      49.250   8.888  -5.212  1.00  0.00    -0.550 OA
ENDBRANCH   5   6
ENDBRANCH   4   5
ENDBRANCH   3   4
ENDBRANCH   2   3
ENDBRANCH   1   2
BRANCH   1   9
ATOM      9  C   UNL     1      44.103  11.275  -8.503  1.00  0.00     0.000 C 
BRANCH   9  10
ATOM     10  C   UNL     1      45.340  12.090  -8.909  1.00  0.00    -0.000 C 
BRANCH  10  11
ATOM     11  C   UNL     1      45.892  12.943  -7.756  1.00  0.00    -0.000 C 
BRANCH  11  12
ATOM     12  C   UNL     1      47.189  12.370  -7.163  1.00  0.00    -0.000 C 
BRANCH  12  13
ATOM     13  C   UNL     1      46.967  11.889  -5.725  1.00  0.00    -0.003 C 
ATOM     14  C   UNL     1      48.155  12.242  -4.835  1.00  0.00     0.004 C 
ENDBRANCH  12  13
ENDBRANCH  11  12
ENDBRANCH  10  11
ENDBRANCH   9  10
ENDBRANCH   1   9
TORSDOF 10
ENDMDL
MODEL 8
REMARK VINA RESULT:    -4.742      1.256      3.843
REMARK INTER + INTRA:          -8.717
REMARK INTER:                  -7.641
REMARK INTRA:                  -1.077
REMARK UNBOUND:                -1.203
REMARK SMILES CCCCCCCCCCCC(=O)[O-]
REMARK SMILES IDX 7 1 8 2 9 3 10 4 11 5 12 6 13 7 14 8 6 9 5 10 4 11 3 12 2 13
REMARK SMILES IDX 1 14
REMARK H PARENT
REMARK Flexibility Score: inf
ROOT
ATOM      1  C   UNL     1      33.192   3.287   4.727  1.00  0.00     0.000 C 
ENDROOT
BRANCH   1   2
ATOM      2  C   UNL     1      34.143   3.212   3.521  1.00  0.00     0.000 C 
BRANCH   2   3
ATOM      3  C   UNL     1      35.060   1.980   3.565  1.00  0.00     0.000 C 
BRANCH   3   4
ATOM      4  C   UNL     1      34.319   0.727   3.076  1.00  0.00     0.006 C 
BRANCH   4   5
ATOM      5  C   UNL     1      34.963  -0.566   3.593  1.00  0.00     0.053 C 
BRANCH   5   6
ATOM      6  C   UNL     1      35.024  -0.596   5.090  1.00  0.00     0.041 C 
ATOM      7  O   UNL     1      33.973  -0.465   5.771  1.00  0.00    -0.550 OA
ATOM      8  O   UNL     1      36.238  -0.803   5.732  1.00  0.00    -0.550 OA
ENDBRANCH   5   6
ENDBRANCH   4   5
ENDBRANCH   3   4
ENDBRANCH   2   3
ENDBRANCH   1   2
BRANCH   1   9
ATOM      9  C   UNL     1      33.809   4.025   5.924  1.00  0.00     0.000 C 
BRANCH   9  10
ATOM     10  C   UNL     1      33.623   3.219   7.219  1.00  0.00    -0.000 C 
BRANCH  10  11
ATOM     11  C   UNL     1      34.929   3.067   8.015  1.00  0.00    -0.000 C 
BRANCH  11  12
ATOM     12  C   UNL     1      36.045   2.395   7.202  1.00  0.00    -0.000 C 
BRANCH  12  13
ATOM     13  C   UNL     1      37.307   3.263   7.181  1.00  0.00    -0.003 C 
ATOM     14  C   UNL     1      37.131   4.515   8.036  1.00  0.00     0.004 C 
ENDBRANCH  12  13
ENDBRANCH  11  12
ENDBRANCH  10  11
ENDBRANCH   9  10
ENDBRANCH   1   9
TORSDOF 10
ENDMDL
MODEL 9
REMARK VINA RESULT:    -4.724      2.269      4.938
REMARK INTER + INTRA:          -8.689
REMARK INTER:                  -7.493
REMARK INTRA:                  -1.196
REMARK UNBOUND:                -1.203
REMARK SMILES CCCCCCCCCCCC(=O)[O-]
REMARK SMILES IDX 7 1 8 2 9 3 10 4 11 5 12 6 13 7 14 8 6 9 5 10 4 11 3 12 2 13
REMARK SMILES IDX 1 14
REMARK H PARENT
REMARK Flexibility Score: inf
ROOT
ATOM      1  C   UNL     1      34.829   1.955   3.754  1.00  0.00     0.000 C 
ENDROOT
BRANCH   1   2
ATOM      2  C   UNL     1      33.747   2.993   3.418  1.00  0.00     0.000 C 
BRANCH   2   3
ATOM      3  C   UNL     1      33.062   3.562   4.671  1.00  0.00     0.000 C 
BRANCH   3   4
ATOM      4  C   UNL     1      33.824   3.162   5.942  1.00  0.00     0.006 C 
BRANCH   4   5
ATOM      5  C   UNL     1      34.020   4.346   6.898  1.00  0.00     0.053 C 
BRANCH   5   6
ATOM      6  C   UNL     1      34.821   3.959   8.104  1.00  0.00     0.041 C 
ATOM      7  O   UNL     1      35.011   2.745   8.377  1.00  0.00    -0.550 OA
ATOM      8  O   UNL     1      35.385   4.942   8.907  1.00  0.00    -0.550 OA
ENDBRANCH   5   6
ENDBRANCH   4   5
ENDBRANCH   3   4
ENDBRANCH   2   3
ENDBRANCH   1   2
BRANCH   1   9
ATOM      9  C   UNL     1      34.572   0.594   3.090  1.00  0.00     0.000 C 
BRANCH   9  10
ATOM     10  C   UNL     1      34.928  -0.557   4.043  1.00  0.00    -0.000 C 
BRANCH  10  11
ATOM     11  C   UNL     1      34.241  -0.426   5.412  1.00  0.00    -0.000 C 
BRANCH  11  12
ATOM     12  C   UNL     1      35.243  -0.393   6.576  1.00  0.00    -0.000 C 
BRANCH  12  13
ATOM     13  C   UNL     1      36.684  -0.345   6.057  1.00  0.00    -0.003 C 
ATOM     14  C   UNL     1      37.408   0.905   6.551  1.00  0.00     0.004 C 
ENDBRANCH  12  13
ENDBRANCH  11  12
ENDBRANCH  10  11
ENDBRANCH   9  10
ENDBRANCH   1   9
TORSDOF 10
ENDMDL
