MODEL 1
REMARK VINA RESULT:    -4.054      0.000      0.000
REMARK INTER + INTRA:          -5.615
REMARK INTER:                  -5.238
REMARK INTRA:                  -0.376
REMARK UNBOUND:                -0.376
REMARK SMILES C=CC(=O)CCCCC
REMARK SMILES IDX 6 1 7 2 8 3 9 4 5 5 3 6 4 7 2 8 1 9
REMARK H PARENT
REMARK Flexibility Score: inf
ROOT
ATOM      1  C   UNL     1       3.042  21.320  -8.890  1.00  0.00     0.008 C 
ENDROOT
BRANCH   1   2
ATOM      2  C   UNL     1       1.786  22.205  -8.858  1.00  0.00     0.000 C 
BRANCH   2   3
ATOM      3  C   UNL     1       1.055  22.142  -7.508  1.00  0.00    -0.003 C 
ATOM      4  C   UNL     1       0.036  23.267  -7.334  1.00  0.00     0.004 C 
ENDBRANCH   2   3
ENDBRANCH   1   2
BRANCH   1   5
ATOM      5  C   UNL     1       2.663  19.837  -8.978  1.00  0.00     0.080 C 
BRANCH   5   6
ATOM      6  C   UNL     1       3.609  19.003  -8.165  1.00  0.00     0.155 C 
ATOM      7  O   UNL     1       4.231  18.056  -8.720  1.00  0.00    -0.295 OA
BRANCH   6   8
ATOM      8  C   UNL     1       3.769  19.263  -6.721  1.00  0.00     0.039 C 
ATOM      9  C   UNL     1       2.786  19.060  -5.846  1.00  0.00     0.012 C 
ENDBRANCH   6   8
ENDBRANCH   5   6
ENDBRANCH   1   5
TORSDOF 5
ENDMDL
MODEL 2
REMARK VINA RESULT:    -3.923      1.817      2.444
REMARK INTER + INTRA:          -5.446
REMARK INTER:                  -5.089
REMARK INTRA:                  -0.357
REMARK UNBOUND:                -0.376
REMARK SMILES C=CC(=O)CCCCC
REMARK SMILES IDX 6 1 7 2 8 3 9 4 5 5 3 6 4 7 2 8 1 9
REMARK H PARENT
REMARK Flexibility Score: inf
ROOT
ATOM      1  C   UNL     1       3.713  19.528  -7.883  1.00  0.00     0.008 C 
ENDROOT
BRANCH   1   2
ATOM      2  C   UNL     1       2.920  20.716  -8.449  1.00  0.00     0.000 C 
BRANCH   2   3
ATOM      3  C   UNL     1       1.468  20.749  -7.944  1.00  0.00    -0.003 C 
ATOM      4  C   UNL     1       1.022  22.147  -7.518  1.00  0.00     0.004 C 
ENDBRANCH   2   3
ENDBRANCH   1   2
BRANCH   1   5
ATOM      5  C   UNL     1       3.678  19.527  -6.351  1.00  0.00     0.080 C 
BRANCH   5   6
ATOM      6  C   UNL     1       3.623  18.123  -5.826  1.00  0.00     0.155 C 
ATOM      7  O   UNL     1       4.452  17.759  -4.948  1.00  0.00    -0.295 OA
BRANCH   6   8
ATOM      8  C   UNL     1       2.637  17.170  -6.370  1.00  0.00     0.039 C 
ATOM      9  C   UNL     1       1.503  16.875  -5.736  1.00  0.00     0.012 C 
ENDBRANCH   6   8
ENDBRANCH   5   6
ENDBRANCH   1   5
TORSDOF 5
ENDMDL
MODEL 3
REMARK VINA RESULT:    -3.921      1.578      1.956
REMARK INTER + INTRA:          -5.443
REMARK INTER:                  -5.092
REMARK INTRA:                  -0.351
REMARK UNBOUND:                -0.376
REMARK SMILES C=CC(=O)CCCCC
REMARK SMILES IDX 6 1 7 2 8 3 9 4 5 5 3 6 4 7 2 8 1 9
REMARK H PARENT
REMARK Flexibility Score: inf
ROOT
ATOM      1  C   UNL     1       3.039  20.968  -8.736  1.00  0.00     0.008 C 
ENDROOT
BRANCH   1   2
ATOM      2  C   UNL     1       2.043  22.135  -8.670  1.00  0.00     0.000 C 
BRANCH   2   3
ATOM      3  C   UNL     1       1.151  22.079  -7.420  1.00  0.00    -0.003 C 
ATOM      4  C   UNL     1       0.110  23.198  -7.385  1.00  0.00     0.004 C 
ENDBRANCH   2   3
ENDBRANCH   1   2
BRANCH   1   5
ATOM      5  C   UNL     1       2.708  19.906  -7.681  1.00  0.00     0.080 C 
BRANCH   5   6
ATOM      6  C   UNL     1       2.259  18.634  -8.338  1.00  0.00     0.155 C 
ATOM      7  O   UNL     1       3.077  17.682  -8.464  1.00  0.00    -0.295 OA
BRANCH   6   8
ATOM      8  C   UNL     1       0.888  18.522  -8.872  1.00  0.00     0.039 C 
ATOM      9  C   UNL     1      -0.065  17.827  -8.252  1.00  0.00     0.012 C 
ENDBRANCH   6   8
ENDBRANCH   5   6
ENDBRANCH   1   5
TORSDOF 5
ENDMDL
MODEL 4
REMARK VINA RESULT:    -3.882      2.571      3.739
REMARK INTER + INTRA:          -5.393
REMARK INTER:                  -5.184
REMARK INTRA:                  -0.209
REMARK UNBOUND:                -0.376
REMARK SMILES C=CC(=O)CCCCC
REMARK SMILES IDX 6 1 7 2 8 3 9 4 5 5 3 6 4 7 2 8 1 9
REMARK H PARENT
REMARK Flexibility Score: inf
ROOT
ATOM      1  C   UNL     1       3.803  19.037  -6.040  1.00  0.00     0.008 C 
ENDROOT
BRANCH   1   2
ATOM      2  C   UNL     1       2.861  19.996  -6.784  1.00  0.00     0.000 C 
BRANCH   2   3
ATOM      3  C   UNL     1       3.294  20.237  -8.238  1.00  0.00    -0.003 C 
ATOM      4  C   UNL     1       2.688  21.507  -8.834  1.00  0.00     0.004 C 
ENDBRANCH   2   3
ENDBRANCH   1   2
BRANCH   1   5
ATOM      5  C   UNL     1       3.111  17.699  -5.757  1.00  0.00     0.080 C 
BRANCH   5   6
ATOM      6  C   UNL     1       4.124  16.636  -5.451  1.00  0.00     0.155 C 
ATOM      7  O   UNL     1       4.707  16.641  -4.332  1.00  0.00    -0.295 OA
BRANCH   6   8
ATOM      8  C   UNL     1       4.466  15.626  -6.472  1.00  0.00     0.039 C 
ATOM      9  C   UNL     1       4.021  15.699  -7.726  1.00  0.00     0.012 C 
ENDBRANCH   6   8
ENDBRANCH   5   6
ENDBRANCH   1   5
TORSDOF 5
ENDMDL
MODEL 5
REMARK VINA RESULT:    -3.829      1.416      1.652
REMARK INTER + INTRA:          -5.325
REMARK INTER:                  -5.066
REMARK INTRA:                  -0.258
REMARK UNBOUND:                -0.376
REMARK SMILES C=CC(=O)CCCCC
REMARK SMILES IDX 6 1 7 2 8 3 9 4 5 5 3 6 4 7 2 8 1 9
REMARK H PARENT
REMARK Flexibility Score: inf
ROOT
ATOM      1  C   UNL     1       2.473  20.140  -8.782  1.00  0.00     0.008 C 
ENDROOT
BRANCH   1   2
ATOM      2  C   UNL     1       2.190  21.624  -8.506  1.00  0.00     0.000 C 
BRANCH   2   3
ATOM      3  C   UNL     1       1.270  21.832  -7.292  1.00  0.00    -0.003 C 
ATOM      4  C   UNL     1       0.328  23.023  -7.461  1.00  0.00     0.004 C 
ENDBRANCH   2   3
ENDBRANCH   1   2
BRANCH   1   5
ATOM      5  C   UNL     1       3.740  19.679  -8.052  1.00  0.00     0.080 C 
BRANCH   5   6
ATOM      6  C   UNL     1       3.385  18.962  -6.783  1.00  0.00     0.155 C 
ATOM      7  O   UNL     1       4.098  19.132  -5.757  1.00  0.00    -0.295 OA
BRANCH   6   8
ATOM      8  C   UNL     1       2.239  18.032  -6.756  1.00  0.00     0.039 C 
ATOM      9  C   UNL     1       2.011  17.208  -5.735  1.00  0.00     0.012 C 
ENDBRANCH   6   8
ENDBRANCH   5   6
ENDBRANCH   1   5
TORSDOF 5
ENDMDL
MODEL 6
REMARK VINA RESULT:    -3.793      1.690      3.951
REMARK INTER + INTRA:          -5.278
REMARK INTER:                  -4.889
REMARK INTRA:                  -0.389
REMARK UNBOUND:                -0.376
REMARK SMILES C=CC(=O)CCCCC
REMARK SMILES IDX 6 1 7 2 8 3 9 4 5 5 3 6 4 7 2 8 1 9
REMARK H PARENT
REMARK Flexibility Score: inf
ROOT
ATOM      1  C   UNL     1       2.482  18.927  -8.439  1.00  0.00     0.008 C 
ENDROOT
BRANCH   1   2
ATOM      2  C   UNL     1       1.826  18.164  -7.278  1.00  0.00     0.000 C 
BRANCH   2   3
ATOM      3  C   UNL     1       2.598  18.321  -5.959  1.00  0.00    -0.003 C 
ATOM      4  C   UNL     1       3.758  19.310  -6.066  1.00  0.00     0.004 C 
ENDBRANCH   2   3
ENDBRANCH   1   2
BRANCH   1   5
ATOM      5  C   UNL     1       1.535  19.998  -8.994  1.00  0.00     0.080 C 
BRANCH   5   6
ATOM      6  C   UNL     1       1.911  21.354  -8.474  1.00  0.00     0.155 C 
ATOM      7  O   UNL     1       2.875  21.973  -9.003  1.00  0.00    -0.295 OA
BRANCH   6   8
ATOM      8  C   UNL     1       1.188  21.931  -7.324  1.00  0.00     0.039 C 
ATOM      9  C   UNL     1       0.377  22.982  -7.445  1.00  0.00     0.012 C 
ENDBRANCH   6   8
ENDBRANCH   5   6
ENDBRANCH   1   5
TORSDOF 5
ENDMDL
MODEL 7
REMARK VINA RESULT:    -3.503      1.835      4.726
REMARK INTER + INTRA:          -4.904
REMARK INTER:                  -4.579
REMARK INTRA:                  -0.324
REMARK UNBOUND:                -0.376
REMARK SMILES C=CC(=O)CCCCC
REMARK SMILES IDX 6 1 7 2 8 3 9 4 5 5 3 6 4 7 2 8 1 9
REMARK H PARENT
REMARK Flexibility Score: inf
ROOT
ATOM      1  C   UNL     1       2.720  18.253  -5.707  1.00  0.00     0.008 C 
ENDROOT
BRANCH   1   2
ATOM      2  C   UNL     1       3.839  17.250  -5.387  1.00  0.00     0.000 C 
BRANCH   2   3
ATOM      3  C   UNL     1       3.995  16.175  -6.474  1.00  0.00    -0.003 C 
ATOM      4  C   UNL     1       2.784  16.093  -7.403  1.00  0.00     0.004 C 
ENDBRANCH   2   3
ENDBRANCH   1   2
BRANCH   1   5
ATOM      5  C   UNL     1       3.299  19.641  -6.005  1.00  0.00     0.080 C 
BRANCH   5   6
ATOM      6  C   UNL     1       3.274  19.917  -7.479  1.00  0.00     0.155 C 
ATOM      7  O   UNL     1       4.116  19.350  -8.228  1.00  0.00    -0.295 OA
BRANCH   6   8
ATOM      8  C   UNL     1       2.301  20.878  -8.034  1.00  0.00     0.039 C 
ATOM      9  C   UNL     1       2.636  21.783  -8.952  1.00  0.00     0.012 C 
ENDBRANCH   6   8
ENDBRANCH   5   6
ENDBRANCH   1   5
TORSDOF 5
ENDMDL
MODEL 8
REMARK VINA RESULT:    -3.444      4.790      7.348
REMARK INTER + INTRA:          -4.827
REMARK INTER:                  -4.615
REMARK INTRA:                  -0.212
REMARK UNBOUND:                -0.376
REMARK SMILES C=CC(=O)CCCCC
REMARK SMILES IDX 6 1 7 2 8 3 9 4 5 5 3 6 4 7 2 8 1 9
REMARK H PARENT
REMARK Flexibility Score: inf
ROOT
ATOM      1  C   UNL     1       4.159  14.205  -6.438  1.00  0.00     0.008 C 
ENDROOT
BRANCH   1   2
ATOM      2  C   UNL     1       5.490  13.443  -6.522  1.00  0.00     0.000 C 
BRANCH   2   3
ATOM      3  C   UNL     1       5.848  13.039  -7.962  1.00  0.00    -0.003 C 
ATOM      4  C   UNL     1       5.021  11.857  -8.467  1.00  0.00     0.004 C 
ENDBRANCH   2   3
ENDBRANCH   1   2
BRANCH   1   5
ATOM      5  C   UNL     1       4.358  15.690  -6.766  1.00  0.00     0.080 C 
BRANCH   5   6
ATOM      6  C   UNL     1       4.007  16.542  -5.582  1.00  0.00     0.155 C 
ATOM      7  O   UNL     1       4.739  16.504  -4.555  1.00  0.00    -0.295 OA
BRANCH   6   8
ATOM      8  C   UNL     1       2.791  17.378  -5.608  1.00  0.00     0.039 C 
ATOM      9  C   UNL     1       1.592  16.885  -5.917  1.00  0.00     0.012 C 
ENDBRANCH   6   8
ENDBRANCH   5   6
ENDBRANCH   1   5
TORSDOF 5
ENDMDL
MODEL 9
REMARK VINA RESULT:    -3.347      3.311      4.528
REMARK INTER + INTRA:          -4.702
REMARK INTER:                  -4.413
REMARK INTRA:                  -0.288
REMARK UNBOUND:                -0.376
REMARK SMILES C=CC(=O)CCCCC
REMARK SMILES IDX 6 1 7 2 8 3 9 4 5 5 3 6 4 7 2 8 1 9
REMARK H PARENT
REMARK Flexibility Score: inf
ROOT
ATOM      1  C   UNL     1       3.149  17.205  -7.817  1.00  0.00     0.008 C 
ENDROOT
BRANCH   1   2
ATOM      2  C   UNL     1       3.817  18.516  -8.256  1.00  0.00     0.000 C 
BRANCH   2   3
ATOM      3  C   UNL     1       3.412  19.709  -7.375  1.00  0.00    -0.003 C 
ATOM      4  C   UNL     1       3.588  19.428  -5.883  1.00  0.00     0.004 C 
ENDBRANCH   2   3
ENDBRANCH   1   2
BRANCH   1   5
ATOM      5  C   UNL     1       4.195  16.112  -7.574  1.00  0.00     0.080 C 
BRANCH   5   6
ATOM      6  C   UNL     1       4.054  15.546  -6.191  1.00  0.00     0.155 C 
ATOM      7  O   UNL     1       4.835  15.938  -5.281  1.00  0.00    -0.295 OA
BRANCH   6   8
ATOM      8  C   UNL     1       3.042  14.507  -5.918  1.00  0.00     0.039 C 
ATOM      9  C   UNL     1       2.936  13.402  -6.655  1.00  0.00     0.012 C 
ENDBRANCH   6   8
ENDBRANCH   5   6
ENDBRANCH   1   5
TORSDOF 5
ENDMDL
