MODEL 1
REMARK VINA RESULT:    -2.630      0.000      0.000
REMARK INTER + INTRA:          -4.462
REMARK INTER:                  -3.859
REMARK INTRA:                  -0.603
REMARK UNBOUND:                -0.603
REMARK SMILES C=C1C=C[C@@H](C(C)C)CCC(C)=CCC1
REMARK SMILES IDX 3 1 4 2 5 3 9 4 10 5 11 6 12 7 13 8 6 10 7 11 8 12 2 13 1 14
REMARK SMILES IDX 15 15 14 16
REMARK H PARENT
REMARK Flexibility Score: 70.00
ROOT
ATOM      1  C   UNL     1      55.252  30.493  26.510  1.00  0.00    -0.001 C 
ATOM      2  C   UNL     1      55.479  29.293  27.077  1.00  0.00    -0.023 C 
ENDROOT
BRANCH   2   3
ATOM      3  C   UNL     1      55.037  27.953  26.517  1.00  0.00     0.014 C 
BRANCH   3   4
ATOM      4  C   UNL     1      54.119  27.195  27.518  1.00  0.00     0.012 C 
BRANCH   4   5
ATOM      5  C   UNL     1      52.805  27.921  27.886  1.00  0.00     0.031 C 
BRANCH   5   6
ATOM      6  C   UNL     1      51.812  28.122  26.747  1.00  0.00    -0.077 C 
ATOM      7  C   UNL     1      51.060  26.924  26.222  1.00  0.00     0.039 C 
ATOM      8  C   UNL     1      51.557  29.322  26.171  1.00  0.00    -0.028 CG0
ATOM      9  G   UNL     1      52.264  30.617  26.481  1.00  0.00     0.000 G0
ENDBRANCH   5   6
ENDBRANCH   4   5
ENDBRANCH   3   4
BRANCH   3  10
ATOM     10  C   UNL     1      56.223  27.066  26.015  1.00  0.00    -0.010 C 
ATOM     11  C   UNL     1      56.207  26.930  24.483  1.00  0.00     0.008 C 
ATOM     12  C   UNL     1      57.616  27.525  26.489  1.00  0.00     0.008 C 
ENDBRANCH   3  10
ENDBRANCH   2   3
BRANCH   1  13
ATOM     13  C   UNL     1      54.497  30.757  25.255  1.00  0.00    -0.055 C 
ATOM     14  C   UNL     1      55.093  30.482  24.091  1.00  0.00     0.012 C 
BRANCH  13  15
ATOM     15  C   UNL     1      53.040  31.167  25.251  1.00  0.00     0.039 C 
BRANCH  15  16
ATOM     16  C   UNL     1      52.258  30.638  26.481  1.00  0.00     0.032 CG0
ATOM     17  G   UNL     1      51.574  29.328  26.183  1.00  0.00     0.000 G0
ENDBRANCH  15  16
ENDBRANCH  13  15
ENDBRANCH   1  13
TORSDOF 1
ENDMDL
MODEL 2
REMARK VINA RESULT:    -2.274      4.069      6.743
REMARK INTER + INTRA:          -3.940
REMARK INTER:                  -3.419
REMARK INTRA:                  -0.521
REMARK UNBOUND:                -0.603
REMARK SMILES C=C1C=C[C@@H](C(C)C)CCC(C)=CCC1
REMARK SMILES IDX 3 1 4 2 5 3 9 4 10 5 11 6 12 7 13 8 6 10 7 11 8 12 2 13 1 14
REMARK SMILES IDX 15 15 14 16
REMARK H PARENT
REMARK Flexibility Score: 70.00
ROOT
ATOM      1  C   UNL     1      50.878  34.059  28.979  1.00  0.00    -0.001 C 
ATOM      2  C   UNL     1      50.822  33.984  27.636  1.00  0.00    -0.023 C 
ENDROOT
BRANCH   2   3
ATOM      3  C   UNL     1      49.828  33.160  26.838  1.00  0.00     0.014 C 
BRANCH   3   4
ATOM      4  C   UNL     1      50.481  31.859  26.291  1.00  0.00     0.012 C 
BRANCH   4   5
ATOM      5  C   UNL     1      49.827  30.542  26.767  1.00  0.00     0.031 C 
BRANCH   5   6
ATOM      6  C   UNL     1      50.634  29.718  27.764  1.00  0.00    -0.077 C 
ATOM      7  C   UNL     1      51.572  28.660  27.238  1.00  0.00     0.039 C 
ATOM      8  C   UNL     1      50.562  29.878  29.108  1.00  0.00    -0.028 CG0
ATOM      9  G   UNL     1      49.624  30.807  29.837  1.00  0.00     0.000 G0
ENDBRANCH   5   6
ENDBRANCH   4   5
ENDBRANCH   3   4
BRANCH   3  10
ATOM     10  C   UNL     1      49.101  33.973  25.718  1.00  0.00    -0.010 C 
ATOM     11  C   UNL     1      48.268  33.052  24.811  1.00  0.00     0.008 C 
ATOM     12  C   UNL     1      48.230  35.137  26.229  1.00  0.00     0.008 C 
ENDBRANCH   3  10
ENDBRANCH   2   3
BRANCH   1  13
ATOM     13  C   UNL     1      50.018  33.328  29.950  1.00  0.00    -0.055 C 
ATOM     14  C   UNL     1      48.807  33.827  30.218  1.00  0.00     0.012 C 
BRANCH  13  15
ATOM     15  C   UNL     1      50.393  31.974  30.514  1.00  0.00     0.039 C 
BRANCH  15  16
ATOM     16  C   UNL     1      49.622  30.806  29.849  1.00  0.00     0.032 CG0
ATOM     17  G   UNL     1      50.551  29.874  29.113  1.00  0.00     0.000 G0
ENDBRANCH  15  16
ENDBRANCH  13  15
ENDBRANCH   1  13
TORSDOF 1
ENDMDL
MODEL 3
REMARK VINA RESULT:    -2.260      3.783      6.173
REMARK INTER + INTRA:          -3.920
REMARK INTER:                  -3.419
REMARK INTRA:                  -0.501
REMARK UNBOUND:                -0.603
REMARK SMILES C=C1C=C[C@@H](C(C)C)CCC(C)=CCC1
REMARK SMILES IDX 3 1 4 2 5 3 9 4 10 5 11 6 12 7 13 8 6 10 7 11 8 12 2 13 1 14
REMARK SMILES IDX 15 15 14 16
REMARK H PARENT
REMARK Flexibility Score: 70.00
ROOT
ATOM      1  C   UNL     1      48.871  31.752  30.700  1.00  0.00    -0.001 C 
ATOM      2  C   UNL     1      48.928  30.562  30.073  1.00  0.00    -0.023 C 
ENDROOT
BRANCH   2   3
ATOM      3  C   UNL     1      49.532  30.313  28.703  1.00  0.00     0.014 C 
BRANCH   3   4
ATOM      4  C   UNL     1      48.575  30.782  27.570  1.00  0.00     0.012 C 
BRANCH   4   5
ATOM      5  C   UNL     1      49.146  31.873  26.634  1.00  0.00     0.031 C 
BRANCH   5   6
ATOM      6  C   UNL     1      50.666  31.976  26.578  1.00  0.00    -0.077 C 
ATOM      7  C   UNL     1      51.424  31.018  25.692  1.00  0.00     0.039 C 
ATOM      8  C   UNL     1      51.388  32.884  27.278  1.00  0.00    -0.028 CG0
ATOM      9  G   UNL     1      50.837  33.861  28.285  1.00  0.00     0.000 G0
ENDBRANCH   5   6
ENDBRANCH   4   5
ENDBRANCH   3   4
BRANCH   3  10
ATOM     10  C   UNL     1      50.020  28.843  28.494  1.00  0.00    -0.010 C 
ATOM     11  C   UNL     1      49.294  28.177  27.313  1.00  0.00     0.008 C 
ATOM     12  C   UNL     1      51.545  28.687  28.331  1.00  0.00     0.008 C 
ENDBRANCH   3  10
ENDBRANCH   2   3
BRANCH   1  13
ATOM     13  C   UNL     1      49.342  33.062  30.172  1.00  0.00    -0.055 C 
ATOM     14  C   UNL     1      48.514  34.108  30.251  1.00  0.00     0.012 C 
BRANCH  13  15
ATOM     15  C   UNL     1      50.764  33.288  29.705  1.00  0.00     0.039 C 
BRANCH  15  16
ATOM     16  C   UNL     1      50.845  33.891  28.279  1.00  0.00     0.032 CG0
ATOM     17  G   UNL     1      51.370  32.890  27.281  1.00  0.00     0.000 G0
ENDBRANCH  15  16
ENDBRANCH  13  15
ENDBRANCH   1  13
TORSDOF 1
ENDMDL
MODEL 4
REMARK VINA RESULT:    -2.214      3.025      5.573
REMARK INTER + INTRA:          -3.852
REMARK INTER:                  -3.249
REMARK INTRA:                  -0.603
REMARK UNBOUND:                -0.603
REMARK SMILES C=C1C=C[C@@H](C(C)C)CCC(C)=CCC1
REMARK SMILES IDX 3 1 4 2 5 3 9 4 10 5 11 6 12 7 13 8 6 10 7 11 8 12 2 13 1 14
REMARK SMILES IDX 15 15 14 16
REMARK H PARENT
REMARK Flexibility Score: 70.00
ROOT
ATOM      1  C   UNL     1      50.099  32.436  26.831  1.00  0.00    -0.001 C 
ATOM      2  C   UNL     1      49.529  31.686  27.793  1.00  0.00    -0.023 C 
ENDROOT
BRANCH   2   3
ATOM      3  C   UNL     1      50.217  31.193  29.053  1.00  0.00     0.014 C 
BRANCH   3   4
ATOM      4  C   UNL     1      50.386  29.647  29.038  1.00  0.00     0.012 C 
BRANCH   4   5
ATOM      5  C   UNL     1      50.578  29.019  27.639  1.00  0.00     0.031 C 
BRANCH   5   6
ATOM      6  C   UNL     1      52.019  28.769  27.210  1.00  0.00    -0.077 C 
ATOM      7  C   UNL     1      52.782  27.641  27.859  1.00  0.00     0.039 C 
ATOM      8  C   UNL     1      52.665  29.503  26.273  1.00  0.00    -0.028 CG0
ATOM      9  G   UNL     1      52.119  30.725  25.578  1.00  0.00     0.000 G0
ENDBRANCH   5   6
ENDBRANCH   4   5
ENDBRANCH   3   4
BRANCH   3  10
ATOM     10  C   UNL     1      49.545  31.702  30.370  1.00  0.00    -0.010 C 
ATOM     11  C   UNL     1      49.277  33.215  30.309  1.00  0.00     0.008 C 
ATOM     12  C   UNL     1      48.257  30.953  30.766  1.00  0.00     0.008 C 
ENDBRANCH   3  10
ENDBRANCH   2   3
BRANCH   1  13
ATOM     13  C   UNL     1      51.513  32.898  26.781  1.00  0.00    -0.055 C 
ATOM     14  C   UNL     1      51.822  34.048  27.388  1.00  0.00     0.012 C 
BRANCH  13  15
ATOM     15  C   UNL     1      52.630  32.046  26.216  1.00  0.00     0.039 C 
BRANCH  15  16
ATOM     16  C   UNL     1      52.122  30.734  25.564  1.00  0.00     0.032 CG0
ATOM     17  G   UNL     1      52.673  29.517  26.263  1.00  0.00     0.000 G0
ENDBRANCH  15  16
ENDBRANCH  13  15
ENDBRANCH   1  13
TORSDOF 1
ENDMDL
MODEL 5
REMARK VINA RESULT:    -2.150      4.875      6.410
REMARK INTER + INTRA:          -3.759
REMARK INTER:                  -3.385
REMARK INTRA:                  -0.373
REMARK UNBOUND:                -0.603
REMARK SMILES C=C1C=C[C@@H](C(C)C)CCC(C)=CCC1
REMARK SMILES IDX 3 1 4 2 5 3 9 4 10 5 11 6 12 7 13 8 6 10 7 11 8 12 2 13 1 14
REMARK SMILES IDX 15 15 14 16
REMARK H PARENT
REMARK Flexibility Score: 70.00
ROOT
ATOM      1  C   UNL     1      50.819  33.974  28.199  1.00  0.00    -0.001 C 
ATOM      2  C   UNL     1      50.770  33.187  27.106  1.00  0.00    -0.023 C 
ENDROOT
BRANCH   2   3
ATOM      3  C   UNL     1      50.053  31.852  27.010  1.00  0.00     0.014 C 
BRANCH   3   4
ATOM      4  C   UNL     1      50.903  30.708  27.632  1.00  0.00     0.012 C 
BRANCH   4   5
ATOM      5  C   UNL     1      50.301  30.052  28.896  1.00  0.00     0.031 C 
BRANCH   5   6
ATOM      6  C   UNL     1      48.779  30.024  28.973  1.00  0.00    -0.077 C 
ATOM      7  C   UNL     1      48.031  29.003  28.152  1.00  0.00     0.039 C 
ATOM      8  C   UNL     1      48.047  30.866  29.742  1.00  0.00    -0.028 CG0
ATOM      9  G   UNL     1      48.589  32.012  30.558  1.00  0.00     0.000 G0
ENDBRANCH   5   6
ENDBRANCH   4   5
ENDBRANCH   3   4
BRANCH   3  10
ATOM     10  C   UNL     1      49.567  31.509  25.564  1.00  0.00    -0.010 C 
ATOM     11  C   UNL     1      48.051  31.258  25.531  1.00  0.00     0.008 C 
ATOM     12  C   UNL     1      49.953  32.547  24.492  1.00  0.00     0.008 C 
ENDBRANCH   3  10
ENDBRANCH   2   3
BRANCH   1  13
ATOM     13  C   UNL     1      50.225  33.684  29.533  1.00  0.00    -0.055 C 
ATOM     14  C   UNL     1      50.971  33.915  30.618  1.00  0.00     0.012 C 
BRANCH  13  15
ATOM     15  C   UNL     1      48.772  33.298  29.712  1.00  0.00     0.039 C 
BRANCH  15  16
ATOM     16  C   UNL     1      48.586  32.018  30.566  1.00  0.00     0.032 CG0
ATOM     17  G   UNL     1      48.045  30.875  29.745  1.00  0.00     0.000 G0
ENDBRANCH  15  16
ENDBRANCH  13  15
ENDBRANCH   1  13
TORSDOF 1
ENDMDL
MODEL 6
REMARK VINA RESULT:    -2.123     22.125     23.936
REMARK INTER + INTRA:          -3.719
REMARK INTER:                  -3.197
REMARK INTRA:                  -0.522
REMARK UNBOUND:                -0.603
REMARK SMILES C=C1C=C[C@@H](C(C)C)CCC(C)=CCC1
REMARK SMILES IDX 3 1 4 2 5 3 9 4 10 5 11 6 12 7 13 8 6 10 7 11 8 12 2 13 1 14
REMARK SMILES IDX 15 15 14 16
REMARK H PARENT
REMARK Flexibility Score: 70.00
ROOT
ATOM      1  C   UNL     1      62.155  41.036  44.000  1.00  0.00    -0.001 C 
ATOM      2  C   UNL     1      61.615  42.263  44.125  1.00  0.00    -0.023 C 
ENDROOT
BRANCH   2   3
ATOM      3  C   UNL     1      61.524  43.306  43.025  1.00  0.00     0.014 C 
BRANCH   3   4
ATOM      4  C   UNL     1      62.404  44.547  43.348  1.00  0.00     0.012 C 
BRANCH   4   5
ATOM      5  C   UNL     1      63.834  44.230  43.840  1.00  0.00     0.031 C 
BRANCH   5   6
ATOM      6  C   UNL     1      64.845  43.856  42.762  1.00  0.00    -0.077 C 
ATOM      7  C   UNL     1      65.255  44.905  41.759  1.00  0.00     0.039 C 
ATOM      8  C   UNL     1      65.405  42.627  42.647  1.00  0.00    -0.028 CG0
ATOM      9  G   UNL     1      65.064  41.420  43.483  1.00  0.00     0.000 G0
ENDBRANCH   5   6
ENDBRANCH   4   5
ENDBRANCH   3   4
BRANCH   3  10
ATOM     10  C   UNL     1      60.056  43.700  42.659  1.00  0.00    -0.010 C 
ATOM     11  C   UNL     1      59.700  43.259  41.230  1.00  0.00     0.008 C 
ATOM     12  C   UNL     1      58.988  43.194  43.648  1.00  0.00     0.008 C 
ENDBRANCH   3  10
ENDBRANCH   2   3
BRANCH   1  13
ATOM     13  C   UNL     1      62.806  40.468  42.787  1.00  0.00    -0.055 C 
ATOM     14  C   UNL     1      62.036  40.195  41.729  1.00  0.00     0.012 C 
BRANCH  13  15
ATOM     15  C   UNL     1      64.308  40.341  42.652  1.00  0.00     0.039 C 
BRANCH  15  16
ATOM     16  C   UNL     1      65.083  41.402  43.474  1.00  0.00     0.032 CG0
ATOM     17  G   UNL     1      65.402  42.623  42.647  1.00  0.00     0.000 G0
ENDBRANCH  15  16
ENDBRANCH  13  15
ENDBRANCH   1  13
TORSDOF 1
ENDMDL
MODEL 7
REMARK VINA RESULT:    -2.098      3.108      6.439
REMARK INTER + INTRA:          -3.683
REMARK INTER:                  -3.171
REMARK INTRA:                  -0.512
REMARK UNBOUND:                -0.603
REMARK SMILES C=C1C=C[C@@H](C(C)C)CCC(C)=CCC1
REMARK SMILES IDX 3 1 4 2 5 3 9 4 10 5 11 6 12 7 13 8 6 10 7 11 8 12 2 13 1 14
REMARK SMILES IDX 15 15 14 16
REMARK H PARENT
REMARK Flexibility Score: 70.00
ROOT
ATOM      1  C   UNL     1      49.951  30.444  29.937  1.00  0.00    -0.001 C 
ATOM      2  C   UNL     1      50.093  31.720  29.531  1.00  0.00    -0.023 C 
ENDROOT
BRANCH   2   3
ATOM      3  C   UNL     1      49.971  32.211  28.100  1.00  0.00     0.014 C 
BRANCH   3   4
ATOM      4  C   UNL     1      51.360  32.585  27.509  1.00  0.00     0.012 C 
BRANCH   4   5
ATOM      5  C   UNL     1      51.760  31.817  26.229  1.00  0.00     0.031 C 
BRANCH   5   6
ATOM      6  C   UNL     1      52.778  30.697  26.411  1.00  0.00    -0.077 C 
ATOM      7  C   UNL     1      54.238  31.000  26.184  1.00  0.00     0.039 C 
ATOM      8  C   UNL     1      52.451  29.432  26.771  1.00  0.00    -0.028 CG0
ATOM      9  G   UNL     1      51.052  28.900  26.953  1.00  0.00     0.000 G0
ENDBRANCH   5   6
ENDBRANCH   4   5
ENDBRANCH   3   4
BRANCH   3  10
ATOM     10  C   UNL     1      48.924  33.358  27.922  1.00  0.00    -0.010 C 
ATOM     11  C   UNL     1      48.472  33.916  29.281  1.00  0.00     0.008 C 
ATOM     12  C   UNL     1      49.381  34.510  27.005  1.00  0.00     0.008 C 
ENDBRANCH   3  10
ENDBRANCH   2   3
BRANCH   1  13
ATOM     13  C   UNL     1      49.690  29.258  29.076  1.00  0.00    -0.055 C 
ATOM     14  C   UNL     1      48.422  28.975  28.762  1.00  0.00     0.012 C 
BRANCH  13  15
ATOM     15  C   UNL     1      50.801  28.467  28.420  1.00  0.00     0.039 C 
BRANCH  15  16
ATOM     16  C   UNL     1      51.055  28.884  26.948  1.00  0.00     0.032 CG0
ATOM     17  G   UNL     1      52.446  29.434  26.759  1.00  0.00     0.000 G0
ENDBRANCH  15  16
ENDBRANCH  13  15
ENDBRANCH   1  13
TORSDOF 1
ENDMDL
MODEL 8
REMARK VINA RESULT:    -2.033      4.463      6.782
REMARK INTER + INTRA:          -3.586
REMARK INTER:                  -3.328
REMARK INTRA:                  -0.258
REMARK UNBOUND:                -0.603
REMARK SMILES C=C1C=C[C@@H](C(C)C)CCC(C)=CCC1
REMARK SMILES IDX 3 1 4 2 5 3 9 4 10 5 11 6 12 7 13 8 6 10 7 11 8 12 2 13 1 14
REMARK SMILES IDX 15 15 14 16
REMARK H PARENT
REMARK Flexibility Score: 70.00
ROOT
ATOM      1  C   UNL     1      50.993  34.118  30.616  1.00  0.00    -0.001 C 
ATOM      2  C   UNL     1      51.949  34.666  29.842  1.00  0.00    -0.023 C 
ENDROOT
BRANCH   2   3
ATOM      3  C   UNL     1      51.890  34.808  28.331  1.00  0.00     0.014 C 
BRANCH   3   4
ATOM      4  C   UNL     1      52.002  33.426  27.628  1.00  0.00     0.012 C 
BRANCH   4   5
ATOM      5  C   UNL     1      50.819  33.058  26.704  1.00  0.00     0.031 C 
BRANCH   5   6
ATOM      6  C   UNL     1      50.427  31.585  26.675  1.00  0.00    -0.077 C 
ATOM      7  C   UNL     1      51.053  30.690  25.634  1.00  0.00     0.039 C 
ATOM      8  C   UNL     1      49.544  31.022  27.534  1.00  0.00    -0.028 CG0
ATOM      9  G   UNL     1      48.741  31.754  28.580  1.00  0.00     0.000 G0
ENDBRANCH   5   6
ENDBRANCH   4   5
ENDBRANCH   3   4
BRANCH   3  10
ATOM     10  C   UNL     1      52.911  35.846  27.762  1.00  0.00    -0.010 C 
ATOM     11  C   UNL     1      53.252  36.922  28.807  1.00  0.00     0.008 C 
ATOM     12  C   UNL     1      54.206  35.232  27.195  1.00  0.00     0.008 C 
ENDBRANCH   3  10
ENDBRANCH   2   3
BRANCH   1  13
ATOM     13  C   UNL     1      49.715  33.508  30.157  1.00  0.00    -0.055 C 
ATOM     14  C   UNL     1      48.695  34.323  29.873  1.00  0.00     0.012 C 
BRANCH  13  15
ATOM     15  C   UNL     1      49.581  32.032  29.848  1.00  0.00     0.039 C 
BRANCH  15  16
ATOM     16  C   UNL     1      48.731  31.752  28.583  1.00  0.00     0.032 CG0
ATOM     17  G   UNL     1      49.526  31.024  27.529  1.00  0.00     0.000 G0
ENDBRANCH  15  16
ENDBRANCH  13  15
ENDBRANCH   1  13
TORSDOF 1
ENDMDL
MODEL 9
REMARK VINA RESULT:    -2.008      4.019      6.109
REMARK INTER + INTRA:          -3.551
REMARK INTER:                  -3.114
REMARK INTRA:                  -0.437
REMARK UNBOUND:                -0.603
REMARK SMILES C=C1C=C[C@@H](C(C)C)CCC(C)=CCC1
REMARK SMILES IDX 3 1 4 2 5 3 9 4 10 5 11 6 12 7 13 8 6 10 7 11 8 12 2 13 1 14
REMARK SMILES IDX 15 15 14 16
REMARK H PARENT
REMARK Flexibility Score: 70.00
ROOT
ATOM      1  C   UNL     1      49.736  29.791  28.784  1.00  0.00    -0.001 C 
ATOM      2  C   UNL     1      50.526  29.836  27.695  1.00  0.00    -0.023 C 
ENDROOT
BRANCH   2   3
ATOM      3  C   UNL     1      51.389  31.013  27.277  1.00  0.00     0.014 C 
BRANCH   3   4
ATOM      4  C   UNL     1      50.577  32.041  26.438  1.00  0.00     0.012 C 
BRANCH   4   5
ATOM      5  C   UNL     1      50.417  33.437  27.081  1.00  0.00     0.031 C 
BRANCH   5   6
ATOM      6  C   UNL     1      48.991  33.968  27.180  1.00  0.00    -0.077 C 
ATOM      7  C   UNL     1      48.391  34.658  25.980  1.00  0.00     0.039 C 
ATOM      8  C   UNL     1      48.221  33.858  28.289  1.00  0.00    -0.028 CG0
ATOM      9  G   UNL     1      48.660  33.293  29.616  1.00  0.00     0.000 G0
ENDBRANCH   5   6
ENDBRANCH   4   5
ENDBRANCH   3   4
BRANCH   3  10
ATOM     10  C   UNL     1      52.718  30.592  26.570  1.00  0.00    -0.010 C 
ATOM     11  C   UNL     1      52.473  29.473  25.545  1.00  0.00     0.008 C 
ATOM     12  C   UNL     1      53.493  31.750  25.912  1.00  0.00     0.008 C 
ENDBRANCH   3  10
ENDBRANCH   2   3
BRANCH   1  13
ATOM     13  C   UNL     1      49.514  30.884  29.771  1.00  0.00    -0.055 C 
ATOM     14  C   UNL     1      50.501  31.171  30.625  1.00  0.00     0.012 C 
BRANCH  13  15
ATOM     15  C   UNL     1      48.293  31.777  29.736  1.00  0.00     0.039 C 
BRANCH  15  16
ATOM     16  C   UNL     1      48.645  33.283  29.623  1.00  0.00     0.032 CG0
ATOM     17  G   UNL     1      48.215  33.856  28.297  1.00  0.00     0.000 G0
ENDBRANCH  15  16
ENDBRANCH  13  15
ENDBRANCH   1  13
TORSDOF 1
ENDMDL
