MODEL 1
REMARK VINA RESULT:    -3.897      0.000      0.000
REMARK INTER + INTRA:          -7.202
REMARK INTER:                  -6.176
REMARK INTRA:                  -1.026
REMARK UNBOUND:                -1.026
REMARK SMILES CCCCCCCCCCCC(=O)[O-]
REMARK SMILES IDX 7 1 8 2 9 3 10 4 11 5 12 6 13 7 14 8 6 9 5 10 4 11 3 12 2 13
REMARK SMILES IDX 1 14
REMARK H PARENT
REMARK Flexibility Score: inf
ROOT
ATOM      1  C   UNL     1     160.549 177.756 185.107  1.00  0.00     0.000 C 
ENDROOT
BRANCH   1   2
ATOM      2  C   UNL     1     160.812 176.244 185.060  1.00  0.00     0.000 C 
BRANCH   2   3
ATOM      3  C   UNL     1     161.498 175.796 183.756  1.00  0.00     0.000 C 
BRANCH   3   4
ATOM      4  C   UNL     1     160.871 176.354 182.462  1.00  0.00     0.006 C 
BRANCH   4   5
ATOM      5  C   UNL     1     161.888 176.828 181.413  1.00  0.00     0.053 C 
BRANCH   5   6
ATOM      6  C   UNL     1     162.276 178.261 181.615  1.00  0.00     0.041 C 
ATOM      7  O   UNL     1     161.586 179.182 181.102  1.00  0.00    -0.550 OA
ATOM      8  O   UNL     1     163.378 178.580 182.397  1.00  0.00    -0.550 OA
ENDBRANCH   5   6
ENDBRANCH   4   5
ENDBRANCH   3   4
ENDBRANCH   2   3
ENDBRANCH   1   2
BRANCH   1   9
ATOM      9  C   UNL     1     160.587 178.274 186.550  1.00  0.00     0.000 C 
BRANCH   9  10
ATOM     10  C   UNL     1     160.913 177.144 187.534  1.00  0.00    -0.000 C 
BRANCH  10  11
ATOM     11  C   UNL     1     162.273 177.377 188.208  1.00  0.00    -0.000 C 
BRANCH  11  12
ATOM     12  C   UNL     1     163.407 176.552 187.570  1.00  0.00    -0.000 C 
BRANCH  12  13
ATOM     13  C   UNL     1     164.550 177.386 186.963  1.00  0.00    -0.003 C 
ATOM     14  C   UNL     1     164.189 178.861 186.791  1.00  0.00     0.004 C 
ENDBRANCH  12  13
ENDBRANCH  11  12
ENDBRANCH  10  11
ENDBRANCH   9  10
ENDBRANCH   1   9
TORSDOF 10
ENDMDL
MODEL 2
REMARK VINA RESULT:    -3.815      1.640      2.913
REMARK INTER + INTRA:          -7.072
REMARK INTER:                  -5.925
REMARK INTRA:                  -1.147
REMARK UNBOUND:                -1.026
REMARK SMILES CCCCCCCCCCCC(=O)[O-]
REMARK SMILES IDX 7 1 8 2 9 3 10 4 11 5 12 6 13 7 14 8 6 9 5 10 4 11 3 12 2 13
REMARK SMILES IDX 1 14
REMARK H PARENT
REMARK Flexibility Score: inf
ROOT
ATOM      1  C   UNL     1     161.298 177.913 185.704  1.00  0.00     0.000 C 
ENDROOT
BRANCH   1   2
ATOM      2  C   UNL     1     160.198 177.886 184.633  1.00  0.00     0.000 C 
BRANCH   2   3
ATOM      3  C   UNL     1     160.412 176.782 183.582  1.00  0.00     0.000 C 
BRANCH   3   4
ATOM      4  C   UNL     1     161.817 176.146 183.579  1.00  0.00     0.006 C 
BRANCH   4   5
ATOM      5  C   UNL     1     162.624 176.387 182.293  1.00  0.00     0.053 C 
BRANCH   5   6
ATOM      6  C   UNL     1     162.667 177.836 181.920  1.00  0.00     0.041 C 
ATOM      7  O   UNL     1     163.337 178.648 182.612  1.00  0.00    -0.550 OA
ATOM      8  O   UNL     1     161.997 178.285 180.789  1.00  0.00    -0.550 OA
ENDBRANCH   5   6
ENDBRANCH   4   5
ENDBRANCH   3   4
ENDBRANCH   2   3
ENDBRANCH   1   2
BRANCH   1   9
ATOM      9  C   UNL     1     160.730 178.343 187.063  1.00  0.00     0.000 C 
BRANCH   9  10
ATOM     10  C   UNL     1     161.037 177.298 188.144  1.00  0.00    -0.000 C 
BRANCH  10  11
ATOM     11  C   UNL     1     161.354 175.933 187.515  1.00  0.00    -0.000 C 
BRANCH  11  12
ATOM     12  C   UNL     1     160.161 174.959 187.566  1.00  0.00    -0.000 C 
BRANCH  12  13
ATOM     13  C   UNL     1     160.467 173.537 187.064  1.00  0.00    -0.003 C 
ATOM     14  C   UNL     1     160.041 173.311 185.614  1.00  0.00     0.004 C 
ENDBRANCH  12  13
ENDBRANCH  11  12
ENDBRANCH  10  11
ENDBRANCH   9  10
ENDBRANCH   1   9
TORSDOF 10
ENDMDL
MODEL 3
REMARK VINA RESULT:    -3.807      3.472      4.840
REMARK INTER + INTRA:          -7.058
REMARK INTER:                  -6.196
REMARK INTRA:                  -0.862
REMARK UNBOUND:                -1.026
REMARK SMILES CCCCCCCCCCCC(=O)[O-]
REMARK SMILES IDX 7 1 8 2 9 3 10 4 11 5 12 6 13 7 14 8 6 9 5 10 4 11 3 12 2 13
REMARK SMILES IDX 1 14
REMARK H PARENT
REMARK Flexibility Score: inf
ROOT
ATOM      1  C   UNL     1     161.951 174.977 187.275  1.00  0.00     0.000 C 
ENDROOT
BRANCH   1   2
ATOM      2  C   UNL     1     162.563 176.243 187.895  1.00  0.00     0.000 C 
BRANCH   2   3
ATOM      3  C   UNL     1     161.585 177.431 187.916  1.00  0.00     0.000 C 
BRANCH   3   4
ATOM      4  C   UNL     1     161.583 178.300 186.641  1.00  0.00     0.006 C 
BRANCH   4   5
ATOM      5  C   UNL     1     160.330 178.143 185.765  1.00  0.00     0.053 C 
BRANCH   5   6
ATOM      6  C   UNL     1     160.632 177.450 184.472  1.00  0.00     0.041 C 
ATOM      7  O   UNL     1     161.397 177.988 183.629  1.00  0.00    -0.550 OA
ATOM      8  O   UNL     1     160.098 176.194 184.214  1.00  0.00    -0.550 OA
ENDBRANCH   5   6
ENDBRANCH   4   5
ENDBRANCH   3   4
ENDBRANCH   2   3
ENDBRANCH   1   2
BRANCH   1   9
ATOM      9  C   UNL     1     160.427 174.965 187.445  1.00  0.00     0.000 C 
BRANCH   9  10
ATOM     10  C   UNL     1     159.875 173.535 187.372  1.00  0.00    -0.000 C 
BRANCH  10  11
ATOM     11  C   UNL     1     161.015 172.510 187.291  1.00  0.00    -0.000 C 
BRANCH  11  12
ATOM     12  C   UNL     1     160.802 171.302 188.224  1.00  0.00    -0.000 C 
BRANCH  12  13
ATOM     13  C   UNL     1     161.992 170.978 189.145  1.00  0.00    -0.003 C 
ATOM     14  C   UNL     1     163.336 171.407 188.559  1.00  0.00     0.004 C 
ENDBRANCH  12  13
ENDBRANCH  11  12
ENDBRANCH  10  11
ENDBRANCH   9  10
ENDBRANCH   1   9
TORSDOF 10
ENDMDL
MODEL 4
REMARK VINA RESULT:    -3.753      4.532      6.087
REMARK INTER + INTRA:          -6.973
REMARK INTER:                  -5.732
REMARK INTRA:                  -1.241
REMARK UNBOUND:                -1.026
REMARK SMILES CCCCCCCCCCCC(=O)[O-]
REMARK SMILES IDX 7 1 8 2 9 3 10 4 11 5 12 6 13 7 14 8 6 9 5 10 4 11 3 12 2 13
REMARK SMILES IDX 1 14
REMARK H PARENT
REMARK Flexibility Score: inf
ROOT
ATOM      1  C   UNL     1     161.481 175.955 187.575  1.00  0.00     0.000 C 
ENDROOT
BRANCH   1   2
ATOM      2  C   UNL     1     160.152 175.185 187.596  1.00  0.00     0.000 C 
BRANCH   2   3
ATOM      3  C   UNL     1     160.193 173.896 186.755  1.00  0.00     0.000 C 
BRANCH   3   4
ATOM      4  C   UNL     1     161.596 173.283 186.566  1.00  0.00     0.006 C 
BRANCH   4   5
ATOM      5  C   UNL     1     161.997 172.264 187.644  1.00  0.00     0.053 C 
BRANCH   5   6
ATOM      6  C   UNL     1     160.936 171.229 187.860  1.00  0.00     0.041 C 
ATOM      7  O   UNL     1     160.658 170.406 186.948  1.00  0.00    -0.550 OA
ATOM      8  O   UNL     1     160.279 171.151 189.081  1.00  0.00    -0.550 OA
ENDBRANCH   5   6
ENDBRANCH   4   5
ENDBRANCH   3   4
ENDBRANCH   2   3
ENDBRANCH   1   2
BRANCH   1   9
ATOM      9  C   UNL     1     161.281 177.406 188.028  1.00  0.00     0.000 C 
BRANCH   9  10
ATOM     10  C   UNL     1     160.637 178.247 186.919  1.00  0.00    -0.000 C 
BRANCH  10  11
ATOM     11  C   UNL     1     161.215 177.879 185.545  1.00  0.00    -0.000 C 
BRANCH  11  12
ATOM     12  C   UNL     1     160.126 177.564 184.502  1.00  0.00    -0.000 C 
BRANCH  12  13
ATOM     13  C   UNL     1     160.485 176.443 183.511  1.00  0.00    -0.003 C 
ATOM     14  C   UNL     1     161.813 175.760 183.835  1.00  0.00     0.004 C 
ENDBRANCH  12  13
ENDBRANCH  11  12
ENDBRANCH  10  11
ENDBRANCH   9  10
ENDBRANCH   1   9
TORSDOF 10
ENDMDL
MODEL 5
REMARK VINA RESULT:    -3.743      2.840      4.844
REMARK INTER + INTRA:          -6.958
REMARK INTER:                  -6.299
REMARK INTRA:                  -0.659
REMARK UNBOUND:                -1.026
REMARK SMILES CCCCCCCCCCCC(=O)[O-]
REMARK SMILES IDX 7 1 8 2 9 3 10 4 11 5 12 6 13 7 14 8 6 9 5 10 4 11 3 12 2 13
REMARK SMILES IDX 1 14
REMARK H PARENT
REMARK Flexibility Score: inf
ROOT
ATOM      1  C   UNL     1     163.966 176.876 186.361  1.00  0.00     0.000 C 
ENDROOT
BRANCH   1   2
ATOM      2  C   UNL     1     163.463 177.993 187.288  1.00  0.00     0.000 C 
BRANCH   2   3
ATOM      3  C   UNL     1     162.342 177.527 188.234  1.00  0.00     0.000 C 
BRANCH   3   4
ATOM      4  C   UNL     1     160.991 177.232 187.551  1.00  0.00     0.006 C 
BRANCH   4   5
ATOM      5  C   UNL     1     160.560 178.277 186.509  1.00  0.00     0.053 C 
BRANCH   5   6
ATOM      6  C   UNL     1     160.357 177.670 185.156  1.00  0.00     0.041 C 
ATOM      7  O   UNL     1     160.289 178.405 184.135  1.00  0.00    -0.550 OA
ATOM      8  O   UNL     1     160.278 176.290 185.016  1.00  0.00    -0.550 OA
ENDBRANCH   5   6
ENDBRANCH   4   5
ENDBRANCH   3   4
ENDBRANCH   2   3
ENDBRANCH   1   2
BRANCH   1   9
ATOM      9  C   UNL     1     165.476 176.665 186.525  1.00  0.00     0.000 C 
BRANCH   9  10
ATOM     10  C   UNL     1     166.157 177.936 187.048  1.00  0.00    -0.000 C 
BRANCH  10  11
ATOM     11  C   UNL     1     167.678 177.744 187.147  1.00  0.00    -0.000 C 
BRANCH  11  12
ATOM     12  C   UNL     1     168.204 177.869 188.589  1.00  0.00    -0.000 C 
BRANCH  12  13
ATOM     13  C   UNL     1     168.962 176.635 189.110  1.00  0.00    -0.003 C 
ATOM     14  C   UNL     1     168.452 175.323 188.515  1.00  0.00     0.004 C 
ENDBRANCH  12  13
ENDBRANCH  11  12
ENDBRANCH  10  11
ENDBRANCH   9  10
ENDBRANCH   1   9
TORSDOF 10
ENDMDL
MODEL 6
REMARK VINA RESULT:    -3.716      2.148      4.883
REMARK INTER + INTRA:          -6.914
REMARK INTER:                  -5.904
REMARK INTRA:                  -1.010
REMARK UNBOUND:                -1.026
REMARK SMILES CCCCCCCCCCCC(=O)[O-]
REMARK SMILES IDX 7 1 8 2 9 3 10 4 11 5 12 6 13 7 14 8 6 9 5 10 4 11 3 12 2 13
REMARK SMILES IDX 1 14
REMARK H PARENT
REMARK Flexibility Score: inf
ROOT
ATOM      1  C   UNL     1     160.267 178.036 185.308  1.00  0.00     0.000 C 
ENDROOT
BRANCH   1   2
ATOM      2  C   UNL     1     160.759 178.289 186.741  1.00  0.00     0.000 C 
BRANCH   2   3
ATOM      3  C   UNL     1     161.515 177.087 187.335  1.00  0.00     0.000 C 
BRANCH   3   4
ATOM      4  C   UNL     1     162.916 177.407 187.894  1.00  0.00     0.006 C 
BRANCH   4   5
ATOM      5  C   UNL     1     164.070 177.148 186.913  1.00  0.00     0.053 C 
BRANCH   5   6
ATOM      6  C   UNL     1     164.814 178.404 186.578  1.00  0.00     0.041 C 
ATOM      7  O   UNL     1     165.825 178.359 185.828  1.00  0.00    -0.550 OA
ATOM      8  O   UNL     1     164.371 179.627 187.064  1.00  0.00    -0.550 OA
ENDBRANCH   5   6
ENDBRANCH   4   5
ENDBRANCH   3   4
ENDBRANCH   2   3
ENDBRANCH   1   2
BRANCH   1   9
ATOM      9  C   UNL     1     160.665 176.634 184.830  1.00  0.00     0.000 C 
BRANCH   9  10
ATOM     10  C   UNL     1     160.335 176.443 183.345  1.00  0.00    -0.000 C 
BRANCH  10  11
ATOM     11  C   UNL     1     161.575 175.989 182.560  1.00  0.00    -0.000 C 
BRANCH  11  12
ATOM     12  C   UNL     1     161.911 176.921 181.380  1.00  0.00    -0.000 C 
BRANCH  12  13
ATOM     13  C   UNL     1     162.737 178.164 181.753  1.00  0.00    -0.003 C 
ATOM     14  C   UNL     1     163.714 177.912 182.901  1.00  0.00     0.004 C 
ENDBRANCH  12  13
ENDBRANCH  11  12
ENDBRANCH  10  11
ENDBRANCH   9  10
ENDBRANCH   1   9
TORSDOF 10
ENDMDL
MODEL 7
REMARK VINA RESULT:    -3.709      2.381      4.485
REMARK INTER + INTRA:          -6.904
REMARK INTER:                  -5.447
REMARK INTRA:                  -1.457
REMARK UNBOUND:                -1.026
REMARK SMILES CCCCCCCCCCCC(=O)[O-]
REMARK SMILES IDX 7 1 8 2 9 3 10 4 11 5 12 6 13 7 14 8 6 9 5 10 4 11 3 12 2 13
REMARK SMILES IDX 1 14
REMARK H PARENT
REMARK Flexibility Score: inf
ROOT
ATOM      1  C   UNL     1     160.878 178.240 186.138  1.00  0.00     0.000 C 
ENDROOT
BRANCH   1   2
ATOM      2  C   UNL     1     160.792 177.851 187.621  1.00  0.00     0.000 C 
BRANCH   2   3
ATOM      3  C   UNL     1     162.170 177.576 188.250  1.00  0.00     0.000 C 
BRANCH   3   4
ATOM      4  C   UNL     1     163.370 178.155 187.473  1.00  0.00     0.006 C 
BRANCH   4   5
ATOM      5  C   UNL     1     164.371 177.103 186.969  1.00  0.00     0.053 C 
BRANCH   5   6
ATOM      6  C   UNL     1     165.119 177.574 185.760  1.00  0.00     0.041 C 
ATOM      7  O   UNL     1     165.893 178.564 185.839  1.00  0.00    -0.550 OA
ATOM      8  O   UNL     1     164.987 176.899 184.553  1.00  0.00    -0.550 OA
ENDBRANCH   5   6
ENDBRANCH   4   5
ENDBRANCH   3   4
ENDBRANCH   2   3
ENDBRANCH   1   2
BRANCH   1   9
ATOM      9  C   UNL     1     160.393 177.094 185.241  1.00  0.00     0.000 C 
BRANCH   9  10
ATOM     10  C   UNL     1     161.553 176.167 184.854  1.00  0.00    -0.000 C 
BRANCH  10  11
ATOM     11  C   UNL     1     161.197 174.699 185.127  1.00  0.00    -0.000 C 
BRANCH  11  12
ATOM     12  C   UNL     1     160.392 174.509 186.427  1.00  0.00    -0.000 C 
BRANCH  12  13
ATOM     13  C   UNL     1     161.073 173.623 187.485  1.00  0.00    -0.003 C 
ATOM     14  C   UNL     1     162.565 173.914 187.639  1.00  0.00     0.004 C 
ENDBRANCH  12  13
ENDBRANCH  11  12
ENDBRANCH  10  11
ENDBRANCH   9  10
ENDBRANCH   1   9
TORSDOF 10
ENDMDL
MODEL 8
REMARK VINA RESULT:    -3.661      4.167      5.954
REMARK INTER + INTRA:          -6.828
REMARK INTER:                  -5.631
REMARK INTRA:                  -1.197
REMARK UNBOUND:                -1.026
REMARK SMILES CCCCCCCCCCCC(=O)[O-]
REMARK SMILES IDX 7 1 8 2 9 3 10 4 11 5 12 6 13 7 14 8 6 9 5 10 4 11 3 12 2 13
REMARK SMILES IDX 1 14
REMARK H PARENT
REMARK Flexibility Score: inf
ROOT
ATOM      1  C   UNL     1     161.399 175.956 187.505  1.00  0.00     0.000 C 
ENDROOT
BRANCH   1   2
ATOM      2  C   UNL     1     160.079 175.178 187.598  1.00  0.00     0.000 C 
BRANCH   2   3
ATOM      3  C   UNL     1     160.085 173.886 186.761  1.00  0.00     0.000 C 
BRANCH   3   4
ATOM      4  C   UNL     1     161.444 173.161 186.686  1.00  0.00     0.006 C 
BRANCH   4   5
ATOM      5  C   UNL     1     161.619 172.026 187.707  1.00  0.00     0.053 C 
BRANCH   5   6
ATOM      6  C   UNL     1     162.852 172.203 188.538  1.00  0.00     0.041 C 
ATOM      7  O   UNL     1     163.518 173.269 188.463  1.00  0.00    -0.550 OA
ATOM      8  O   UNL     1     163.246 171.206 189.420  1.00  0.00    -0.550 OA
ENDBRANCH   5   6
ENDBRANCH   4   5
ENDBRANCH   3   4
ENDBRANCH   2   3
ENDBRANCH   1   2
BRANCH   1   9
ATOM      9  C   UNL     1     161.205 177.418 187.924  1.00  0.00     0.000 C 
BRANCH   9  10
ATOM     10  C   UNL     1     160.637 178.253 186.769  1.00  0.00    -0.000 C 
BRANCH  10  11
ATOM     11  C   UNL     1     161.250 177.824 185.428  1.00  0.00    -0.000 C 
BRANCH  11  12
ATOM     12  C   UNL     1     160.188 177.525 184.353  1.00  0.00    -0.000 C 
BRANCH  12  13
ATOM     13  C   UNL     1     160.583 176.436 183.340  1.00  0.00    -0.003 C 
ATOM     14  C   UNL     1     161.705 175.529 183.843  1.00  0.00     0.004 C 
ENDBRANCH  12  13
ENDBRANCH  11  12
ENDBRANCH  10  11
ENDBRANCH   9  10
ENDBRANCH   1   9
TORSDOF 10
ENDMDL
MODEL 9
REMARK VINA RESULT:    -3.654      1.541      2.813
REMARK INTER + INTRA:          -6.816
REMARK INTER:                  -5.410
REMARK INTRA:                  -1.406
REMARK UNBOUND:                -1.026
REMARK SMILES CCCCCCCCCCCC(=O)[O-]
REMARK SMILES IDX 7 1 8 2 9 3 10 4 11 5 12 6 13 7 14 8 6 9 5 10 4 11 3 12 2 13
REMARK SMILES IDX 1 14
REMARK H PARENT
REMARK Flexibility Score: inf
ROOT
ATOM      1  C   UNL     1     160.784 177.669 187.482  1.00  0.00     0.000 C 
ENDROOT
BRANCH   1   2
ATOM      2  C   UNL     1     161.071 178.235 186.083  1.00  0.00     0.000 C 
BRANCH   2   3
ATOM      3  C   UNL     1     160.234 177.561 184.981  1.00  0.00     0.000 C 
BRANCH   3   4
ATOM      4  C   UNL     1     160.978 176.492 184.155  1.00  0.00     0.006 C 
BRANCH   4   5
ATOM      5  C   UNL     1     162.418 176.870 183.772  1.00  0.00     0.053 C 
BRANCH   5   6
ATOM      6  C   UNL     1     162.469 177.680 182.513  1.00  0.00     0.041 C 
ATOM      7  O   UNL     1     163.306 178.613 182.394  1.00  0.00    -0.550 OA
ATOM      8  O   UNL     1     161.617 177.381 181.458  1.00  0.00    -0.550 OA
ENDBRANCH   5   6
ENDBRANCH   4   5
ENDBRANCH   3   4
ENDBRANCH   2   3
ENDBRANCH   1   2
BRANCH   1   9
ATOM      9  C   UNL     1     162.082 177.494 188.280  1.00  0.00     0.000 C 
BRANCH   9  10
ATOM     10  C   UNL     1     163.309 177.576 187.363  1.00  0.00    -0.000 C 
BRANCH  10  11
ATOM     11  C   UNL     1     163.949 176.193 187.174  1.00  0.00    -0.000 C 
BRANCH  11  12
ATOM     12  C   UNL     1     163.102 175.055 187.773  1.00  0.00    -0.000 C 
BRANCH  12  13
ATOM     13  C   UNL     1     162.301 174.235 186.746  1.00  0.00    -0.003 C 
ATOM     14  C   UNL     1     161.175 173.418 187.379  1.00  0.00     0.004 C 
ENDBRANCH  12  13
ENDBRANCH  11  12
ENDBRANCH  10  11
ENDBRANCH   9  10
ENDBRANCH   1   9
TORSDOF 10
ENDMDL
