MODEL 1
REMARK VINA RESULT:    -2.949      0.000      0.000
REMARK INTER + INTRA:          -2.949
REMARK INTER:                  -2.949
REMARK INTRA:                   0.000
REMARK UNBOUND:                 0.000
REMARK SMILES c1cc[nH]c1
REMARK SMILES IDX 1 1 5 2 4 3 3 4 2 5
REMARK H PARENT 4 6
REMARK Flexibility Score: inf
ROOT
ATOM      1  C   UNL     1      -1.579  -5.295  12.095  1.00  0.00     0.019 A 
ATOM      2  C   UNL     1      -0.408  -5.905  12.494  1.00  0.00     0.082 A 
ATOM      3  N   UNL     1      -0.117  -6.925  11.665  1.00  0.00    -0.368 N 
ATOM      4  C   UNL     1      -1.092  -6.973  10.740  1.00  0.00     0.082 A 
ATOM      5  C   UNL     1      -2.016  -5.977  10.976  1.00  0.00     0.019 A 
ATOM      6  H   UNL     1       0.710  -7.558  11.729  1.00  0.00     0.165 HD
ENDROOT
TORSDOF 0
ENDMDL
MODEL 2
REMARK VINA RESULT:    -2.871     10.799     11.529
REMARK INTER + INTRA:          -2.871
REMARK INTER:                  -2.871
REMARK INTRA:                   0.000
REMARK UNBOUND:                 0.000
REMARK SMILES c1cc[nH]c1
REMARK SMILES IDX 1 1 5 2 4 3 3 4 2 5
REMARK H PARENT 4 6
REMARK Flexibility Score: inf
ROOT
ATOM      1  C   UNL     1       8.697  -1.921  16.147  1.00  0.00     0.019 A 
ATOM      2  C   UNL     1       8.936  -1.328  17.369  1.00  0.00     0.082 A 
ATOM      3  N   UNL     1       7.916  -1.583  18.210  1.00  0.00    -0.368 N 
ATOM      4  C   UNL     1       7.027  -2.334  17.536  1.00  0.00     0.082 A 
ATOM      5  C   UNL     1       7.478  -2.562  16.253  1.00  0.00     0.019 A 
ATOM      6  H   UNL     1       7.833  -1.259  19.198  1.00  0.00     0.165 HD
ENDROOT
TORSDOF 0
ENDMDL
MODEL 3
REMARK VINA RESULT:    -2.760     22.574     23.097
REMARK INTER + INTRA:          -2.760
REMARK INTER:                  -2.760
REMARK INTRA:                   0.000
REMARK UNBOUND:                 0.000
REMARK SMILES c1cc[nH]c1
REMARK SMILES IDX 1 1 5 2 4 3 3 4 2 5
REMARK H PARENT 4 6
REMARK Flexibility Score: inf
ROOT
ATOM      1  C   UNL     1      14.632   9.374   9.996  1.00  0.00     0.019 A 
ATOM      2  C   UNL     1      15.407  10.107   9.121  1.00  0.00     0.082 A 
ATOM      3  N   UNL     1      16.711   9.877   9.361  1.00  0.00    -0.368 N 
ATOM      4  C   UNL     1      16.778   9.003  10.381  1.00  0.00     0.082 A 
ATOM      5  C   UNL     1      15.506   8.669  10.800  1.00  0.00     0.019 A 
ATOM      6  H   UNL     1      17.518  10.298   8.851  1.00  0.00     0.165 HD
ENDROOT
TORSDOF 0
ENDMDL
MODEL 4
REMARK VINA RESULT:    -2.672     20.204     20.585
REMARK INTER + INTRA:          -2.672
REMARK INTER:                  -2.672
REMARK INTRA:                   0.000
REMARK UNBOUND:                 0.000
REMARK SMILES c1cc[nH]c1
REMARK SMILES IDX 1 1 5 2 4 3 3 4 2 5
REMARK H PARENT 4 6
REMARK Flexibility Score: inf
ROOT
ATOM      1  C   UNL     1      17.112  -2.102  18.710  1.00  0.00     0.019 A 
ATOM      2  C   UNL     1      17.703  -3.068  19.496  1.00  0.00     0.082 A 
ATOM      3  N   UNL     1      17.693  -2.681  20.784  1.00  0.00    -0.368 N 
ATOM      4  C   UNL     1      17.100  -1.474  20.830  1.00  0.00     0.082 A 
ATOM      5  C   UNL     1      16.727  -1.084  19.561  1.00  0.00     0.019 A 
ATOM      6  H   UNL     1      18.074  -3.216  21.595  1.00  0.00     0.165 HD
ENDROOT
TORSDOF 0
ENDMDL
MODEL 5
REMARK VINA RESULT:    -2.647      1.732      2.413
REMARK INTER + INTRA:          -2.647
REMARK INTER:                  -2.647
REMARK INTRA:                   0.000
REMARK UNBOUND:                 0.000
REMARK SMILES c1cc[nH]c1
REMARK SMILES IDX 1 1 5 2 4 3 3 4 2 5
REMARK H PARENT 4 6
REMARK Flexibility Score: inf
ROOT
ATOM      1  C   UNL     1      -0.565  -6.251   9.845  1.00  0.00     0.019 A 
ATOM      2  C   UNL     1      -0.920  -4.923   9.726  1.00  0.00     0.082 A 
ATOM      3  N   UNL     1      -1.743  -4.576  10.732  1.00  0.00    -0.368 N 
ATOM      4  C   UNL     1      -1.919  -5.670  11.494  1.00  0.00     0.082 A 
ATOM      5  C   UNL     1      -1.204  -6.728  10.973  1.00  0.00     0.019 A 
ATOM      6  H   UNL     1      -2.165  -3.635  10.890  1.00  0.00     0.165 HD
ENDROOT
TORSDOF 0
ENDMDL
MODEL 6
REMARK VINA RESULT:    -2.625     15.813     16.703
REMARK INTER + INTRA:          -2.625
REMARK INTER:                  -2.625
REMARK INTRA:                   0.000
REMARK UNBOUND:                 0.000
REMARK SMILES c1cc[nH]c1
REMARK SMILES IDX 1 1 5 2 4 3 3 4 2 5
REMARK H PARENT 4 6
REMARK Flexibility Score: inf
ROOT
ATOM      1  C   UNL     1       9.449   1.198  22.535  1.00  0.00     0.019 A 
ATOM      2  C   UNL     1       8.381   1.367  21.678  1.00  0.00     0.082 A 
ATOM      3  N   UNL     1       7.295   1.758  22.369  1.00  0.00    -0.368 N 
ATOM      4  C   UNL     1       7.659   1.841  23.662  1.00  0.00     0.082 A 
ATOM      5  C   UNL     1       8.988   1.500  23.801  1.00  0.00     0.019 A 
ATOM      6  H   UNL     1       6.350   1.958  21.976  1.00  0.00     0.165 HD
ENDROOT
TORSDOF 0
ENDMDL
MODEL 7
REMARK VINA RESULT:    -2.581     19.615     20.559
REMARK INTER + INTRA:          -2.581
REMARK INTER:                  -2.581
REMARK INTRA:                   0.000
REMARK UNBOUND:                 0.000
REMARK SMILES c1cc[nH]c1
REMARK SMILES IDX 1 1 5 2 4 3 3 4 2 5
REMARK H PARENT 4 6
REMARK Flexibility Score: inf
ROOT
ATOM      1  C   UNL     1      17.142   0.039  19.788  1.00  0.00     0.019 A 
ATOM      2  C   UNL     1      16.221  -0.638  19.015  1.00  0.00     0.082 A 
ATOM      3  N   UNL     1      16.602  -1.920  18.866  1.00  0.00    -0.368 N 
ATOM      4  C   UNL     1      17.758  -2.069  19.537  1.00  0.00     0.082 A 
ATOM      5  C   UNL     1      18.123  -0.874  20.120  1.00  0.00     0.019 A 
ATOM      6  H   UNL     1      16.094  -2.659  18.332  1.00  0.00     0.165 HD
ENDROOT
TORSDOF 0
ENDMDL
MODEL 8
REMARK VINA RESULT:    -2.556     18.076     18.640
REMARK INTER + INTRA:          -2.556
REMARK INTER:                  -2.556
REMARK INTRA:                   0.000
REMARK UNBOUND:                 0.000
REMARK SMILES c1cc[nH]c1
REMARK SMILES IDX 1 1 5 2 4 3 3 4 2 5
REMARK H PARENT 4 6
REMARK Flexibility Score: inf
ROOT
ATOM      1  C   UNL     1       9.139   1.045  26.035  1.00  0.00     0.019 A 
ATOM      2  C   UNL     1      10.415   0.709  25.632  1.00  0.00     0.082 A 
ATOM      3  N   UNL     1      10.573   0.996  24.327  1.00  0.00    -0.368 N 
ATOM      4  C   UNL     1       9.410   1.512  23.891  1.00  0.00     0.082 A 
ATOM      5  C   UNL     1       8.497   1.557  24.924  1.00  0.00     0.019 A 
ATOM      6  H   UNL     1      11.437   0.846  23.760  1.00  0.00     0.165 HD
ENDROOT
TORSDOF 0
ENDMDL
