MODEL 1
REMARK VINA RESULT:    -7.464      0.000      0.000
REMARK INTER + INTRA:          -9.053
REMARK INTER:                  -8.773
REMARK INTRA:                  -0.280
REMARK UNBOUND:                -0.280
REMARK SMILES O=c1cc(-c2ccc(O)c(O)c2)oc2cc(O)cc(O)c12
REMARK SMILES IDX 4 1 3 2 2 3 1 4 21 5 19 6 18 7 16 8 15 9 14 10 13 11 5 12
REMARK SMILES IDX 6 13 7 14 8 15 12 16 10 17 9 18 11 20 20 22 17 24
REMARK H PARENT 9 19 11 21 20 23 17 25
REMARK Flexibility Score: inf
ROOT
ATOM      1  C   UNL     1       2.487  -8.357   6.648  1.00  0.00     0.138 A 
ATOM      2  C   UNL     1       1.753  -9.542   6.797  1.00  0.00     0.100 A 
ATOM      3  C   UNL     1       1.797 -10.512   5.795  1.00  0.00     0.197 A 
ATOM      4  O   UNL     1       1.179 -11.591   5.985  1.00  0.00    -0.289 OA
ATOM      5  C   UNL     1       2.556 -10.279   4.622  1.00  0.00     0.107 A 
ATOM      6  C   UNL     1       2.640 -11.178   3.518  1.00  0.00     0.134 A 
ATOM      7  C   UNL     1       3.515 -10.893   2.462  1.00  0.00     0.093 A 
ATOM      8  C   UNL     1       4.261  -9.711   2.443  1.00  0.00     0.123 A 
ATOM      9  C   UNL     1       4.144  -8.802   3.491  1.00  0.00     0.094 A 
ATOM     10  C   UNL     1       3.306  -9.074   4.575  1.00  0.00     0.146 A 
ATOM     11  O   UNL     1       3.235  -8.187   5.562  1.00  0.00    -0.456 OA
ENDROOT
BRANCH   1  12
ATOM     12  C   UNL     1       2.476  -7.292   7.683  1.00  0.00     0.021 A 
ATOM     13  C   UNL     1       3.643  -6.590   8.032  1.00  0.00     0.016 A 
ATOM     14  C   UNL     1       3.604  -5.600   9.017  1.00  0.00     0.051 A 
ATOM     15  C   UNL     1       2.410  -5.295   9.678  1.00  0.00     0.157 A 
ATOM     16  C   UNL     1       1.280  -6.995   8.357  1.00  0.00     0.062 A 
ATOM     17  C   UNL     1       1.233  -6.004   9.345  1.00  0.00     0.158 A 
BRANCH  15  18
ATOM     18  O   UNL     1       2.441  -4.293  10.650  1.00  0.00    -0.504 OA
ATOM     19  H   UNL     1       3.174  -4.195  11.337  1.00  0.00     0.293 HD
ENDBRANCH  15  18
BRANCH  17  20
ATOM     20  O   UNL     1       0.005  -5.758   9.964  1.00  0.00    -0.504 OA
ATOM     21  H   UNL     1      -0.179  -5.928  10.942  1.00  0.00     0.293 HD
ENDBRANCH  17  20
ENDBRANCH   1  12
BRANCH   6  22
ATOM     22  O   UNL     1       1.876 -12.342   3.397  1.00  0.00    -0.507 OA
ATOM     23  H   UNL     1       1.157 -12.629   4.043  1.00  0.00     0.293 HD
ENDBRANCH   6  22
BRANCH   8  24
ATOM     24  O   UNL     1       5.117  -9.428   1.381  1.00  0.00    -0.508 OA
ATOM     25  H   UNL     1       6.020  -9.880   1.292  1.00  0.00     0.293 HD
ENDBRANCH   8  24
TORSDOF 5
ENDMDL
MODEL 2
REMARK VINA RESULT:    -6.780      1.416      7.449
REMARK INTER + INTRA:          -8.250
REMARK INTER:                  -7.971
REMARK INTRA:                  -0.279
REMARK UNBOUND:                -0.280
REMARK SMILES O=c1cc(-c2ccc(O)c(O)c2)oc2cc(O)cc(O)c12
REMARK SMILES IDX 4 1 3 2 2 3 1 4 21 5 19 6 18 7 16 8 15 9 14 10 13 11 5 12
REMARK SMILES IDX 6 13 7 14 8 15 12 16 10 17 9 18 11 20 20 22 17 24
REMARK H PARENT 9 19 11 21 20 23 17 25
REMARK Flexibility Score: inf
ROOT
ATOM      1  C   UNL     1       2.478  -8.044   6.776  1.00  0.00     0.138 A 
ATOM      2  C   UNL     1       3.669  -7.512   7.289  1.00  0.00     0.100 A 
ATOM      3  C   UNL     1       3.622  -6.628   8.368  1.00  0.00     0.197 A 
ATOM      4  O   UNL     1       4.710  -6.217   8.846  1.00  0.00    -0.289 OA
ATOM      5  C   UNL     1       2.371  -6.251   8.914  1.00  0.00     0.107 A 
ATOM      6  C   UNL     1       2.200  -5.327   9.987  1.00  0.00     0.134 A 
ATOM      7  C   UNL     1       0.922  -5.120  10.521  1.00  0.00     0.093 A 
ATOM      8  C   UNL     1      -0.198  -5.758   9.981  1.00  0.00     0.123 A 
ATOM      9  C   UNL     1      -0.047  -6.621   8.898  1.00  0.00     0.094 A 
ATOM     10  C   UNL     1       1.219  -6.875   8.365  1.00  0.00     0.146 A 
ATOM     11  O   UNL     1       1.322  -7.716   7.342  1.00  0.00    -0.456 OA
ENDROOT
BRANCH   1  12
ATOM     12  C   UNL     1       2.471  -8.988   5.629  1.00  0.00     0.021 A 
ATOM     13  C   UNL     1       1.638 -10.120   5.609  1.00  0.00     0.016 A 
ATOM     14  C   UNL     1       1.660 -10.996   4.522  1.00  0.00     0.051 A 
ATOM     15  C   UNL     1       2.514 -10.769   3.438  1.00  0.00     0.157 A 
ATOM     16  C   UNL     1       3.339  -8.769   4.547  1.00  0.00     0.062 A 
ATOM     17  C   UNL     1       3.368  -9.642   3.452  1.00  0.00     0.158 A 
BRANCH  15  18
ATOM     18  O   UNL     1       2.485 -11.682   2.382  1.00  0.00    -0.504 OA
ATOM     19  H   UNL     1       2.687 -12.667   2.481  1.00  0.00     0.293 HD
ENDBRANCH  15  18
BRANCH  17  20
ATOM     20  O   UNL     1       4.251  -9.352   2.409  1.00  0.00    -0.504 OA
ATOM     21  H   UNL     1       5.125  -9.835   2.259  1.00  0.00     0.293 HD
ENDBRANCH  17  20
ENDBRANCH   1  12
BRANCH   6  22
ATOM     22  O   UNL     1       3.237  -4.573  10.544  1.00  0.00    -0.507 OA
ATOM     23  H   UNL     1       4.010  -4.185  10.025  1.00  0.00     0.293 HD
ENDBRANCH   6  22
BRANCH   8  24
ATOM     24  O   UNL     1      -1.467  -5.534  10.508  1.00  0.00    -0.508 OA
ATOM     25  H   UNL     1      -2.305  -5.684   9.958  1.00  0.00     0.293 HD
ENDBRANCH   8  24
TORSDOF 5
ENDMDL
MODEL 3
REMARK VINA RESULT:    -6.363      1.259      2.488
REMARK INTER + INTRA:          -7.759
REMARK INTER:                  -7.442
REMARK INTRA:                  -0.317
REMARK UNBOUND:                -0.280
REMARK SMILES O=c1cc(-c2ccc(O)c(O)c2)oc2cc(O)cc(O)c12
REMARK SMILES IDX 4 1 3 2 2 3 1 4 21 5 19 6 18 7 16 8 15 9 14 10 13 11 5 12
REMARK SMILES IDX 6 13 7 14 8 15 12 16 10 17 9 18 11 20 20 22 17 24
REMARK H PARENT 9 19 11 21 20 23 17 25
REMARK Flexibility Score: inf
ROOT
ATOM      1  C   UNL     1       2.994  -8.024   6.303  1.00  0.00     0.138 A 
ATOM      2  C   UNL     1       4.273  -8.058   5.731  1.00  0.00     0.100 A 
ATOM      3  C   UNL     1       4.505  -8.847   4.604  1.00  0.00     0.197 A 
ATOM      4  O   UNL     1       5.647  -8.809   4.077  1.00  0.00    -0.289 OA
ATOM      5  C   UNL     1       3.457  -9.632   4.067  1.00  0.00     0.107 A 
ATOM      6  C   UNL     1       3.588 -10.505   2.947  1.00  0.00     0.134 A 
ATOM      7  C   UNL     1       2.452 -11.143   2.431  1.00  0.00     0.093 A 
ATOM      8  C   UNL     1       1.201 -10.985   3.035  1.00  0.00     0.123 A 
ATOM      9  C   UNL     1       1.073 -10.177   4.161  1.00  0.00     0.094 A 
ATOM     10  C   UNL     1       2.181  -9.501   4.678  1.00  0.00     0.146 A 
ATOM     11  O   UNL     1       2.013  -8.727   5.745  1.00  0.00    -0.456 OA
ENDROOT
BRANCH   1  12
ATOM     12  C   UNL     1       2.692  -7.202   7.502  1.00  0.00     0.021 A 
ATOM     13  C   UNL     1       3.713  -6.616   8.271  1.00  0.00     0.016 A 
ATOM     14  C   UNL     1       3.400  -5.856   9.401  1.00  0.00     0.051 A 
ATOM     15  C   UNL     1       2.070  -5.671   9.792  1.00  0.00     0.157 A 
ATOM     16  C   UNL     1       1.358  -7.027   7.904  1.00  0.00     0.062 A 
ATOM     17  C   UNL     1       1.035  -6.267   9.035  1.00  0.00     0.158 A 
BRANCH  15  18
ATOM     18  O   UNL     1       1.827  -4.898  10.930  1.00  0.00    -0.504 OA
ATOM     19  H   UNL     1       1.289  -5.215  11.723  1.00  0.00     0.293 HD
ENDBRANCH  15  18
BRANCH  17  20
ATOM     20  O   UNL     1      -0.315  -6.131   9.366  1.00  0.00    -0.504 OA
ATOM     21  H   UNL     1      -0.949  -5.496   8.902  1.00  0.00     0.293 HD
ENDBRANCH  17  20
ENDBRANCH   1  12
BRANCH   6  22
ATOM     22  O   UNL     1       4.804 -10.799   2.322  1.00  0.00    -0.507 OA
ATOM     23  H   UNL     1       4.902 -11.096   1.363  1.00  0.00     0.293 HD
ENDBRANCH   6  22
BRANCH   8  24
ATOM     24  O   UNL     1       0.080 -11.635   2.525  1.00  0.00    -0.508 OA
ATOM     25  H   UNL     1      -0.859 -11.314   2.730  1.00  0.00     0.293 HD
ENDBRANCH   8  24
TORSDOF 5
ENDMDL
MODEL 4
REMARK VINA RESULT:    -6.025     10.362     11.964
REMARK INTER + INTRA:          -7.362
REMARK INTER:                  -7.058
REMARK INTRA:                  -0.304
REMARK UNBOUND:                -0.280
REMARK SMILES O=c1cc(-c2ccc(O)c(O)c2)oc2cc(O)cc(O)c12
REMARK SMILES IDX 4 1 3 2 2 3 1 4 21 5 19 6 18 7 16 8 15 9 14 10 13 11 5 12
REMARK SMILES IDX 6 13 7 14 8 15 12 16 10 17 9 18 11 20 20 22 17 24
REMARK H PARENT 9 19 11 21 20 23 17 25
REMARK Flexibility Score: inf
ROOT
ATOM      1  C   UNL     1      -3.378  -0.090  10.506  1.00  0.00     0.138 A 
ATOM      2  C   UNL     1      -4.634   0.380  10.096  1.00  0.00     0.100 A 
ATOM      3  C   UNL     1      -5.762  -0.420  10.277  1.00  0.00     0.197 A 
ATOM      4  O   UNL     1      -6.883   0.053   9.957  1.00  0.00    -0.289 OA
ATOM      5  C   UNL     1      -5.627  -1.711  10.842  1.00  0.00     0.107 A 
ATOM      6  C   UNL     1      -6.701  -2.630  11.035  1.00  0.00     0.134 A 
ATOM      7  C   UNL     1      -6.466  -3.834  11.711  1.00  0.00     0.093 A 
ATOM      8  C   UNL     1      -5.182  -4.178  12.145  1.00  0.00     0.123 A 
ATOM      9  C   UNL     1      -4.117  -3.312  11.913  1.00  0.00     0.094 A 
ATOM     10  C   UNL     1      -4.326  -2.088  11.272  1.00  0.00     0.146 A 
ATOM     11  O   UNL     1      -3.286  -1.284  11.083  1.00  0.00    -0.456 OA
ENDROOT
BRANCH   1  12
ATOM     12  C   UNL     1      -2.144   0.720  10.336  1.00  0.00     0.021 A 
ATOM     13  C   UNL     1      -2.171   2.125  10.382  1.00  0.00     0.016 A 
ATOM     14  C   UNL     1      -0.997   2.861  10.208  1.00  0.00     0.051 A 
ATOM     15  C   UNL     1       0.223   2.217   9.980  1.00  0.00     0.157 A 
ATOM     16  C   UNL     1      -0.921   0.075  10.092  1.00  0.00     0.062 A 
ATOM     17  C   UNL     1       0.262   0.805   9.919  1.00  0.00     0.158 A 
BRANCH  15  18
ATOM     18  O   UNL     1       1.360   3.012   9.818  1.00  0.00    -0.504 OA
ATOM     19  H   UNL     1       1.338   4.019   9.741  1.00  0.00     0.293 HD
ENDBRANCH  15  18
BRANCH  17  20
ATOM     20  O   UNL     1       1.441   0.092   9.690  1.00  0.00    -0.504 OA
ATOM     21  H   UNL     1       1.480  -0.796   9.210  1.00  0.00     0.293 HD
ENDBRANCH  17  20
ENDBRANCH   1  12
BRANCH   6  22
ATOM     22  O   UNL     1      -8.001  -2.423  10.566  1.00  0.00    -0.507 OA
ATOM     23  H   UNL     1      -8.429  -2.933   9.809  1.00  0.00     0.293 HD
ENDBRANCH   6  22
BRANCH   8  24
ATOM     24  O   UNL     1      -4.955  -5.385  12.803  1.00  0.00    -0.508 OA
ATOM     25  H   UNL     1      -5.084  -6.276  12.337  1.00  0.00     0.293 HD
ENDBRANCH   8  24
TORSDOF 5
ENDMDL
MODEL 5
REMARK VINA RESULT:    -5.932     10.454     12.647
REMARK INTER + INTRA:          -7.252
REMARK INTER:                  -6.958
REMARK INTRA:                  -0.294
REMARK UNBOUND:                -0.280
REMARK SMILES O=c1cc(-c2ccc(O)c(O)c2)oc2cc(O)cc(O)c12
REMARK SMILES IDX 4 1 3 2 2 3 1 4 21 5 19 6 18 7 16 8 15 9 14 10 13 11 5 12
REMARK SMILES IDX 6 13 7 14 8 15 12 16 10 17 9 18 11 20 20 22 17 24
REMARK H PARENT 9 19 11 21 20 23 17 25
REMARK Flexibility Score: inf
ROOT
ATOM      1  C   UNL     1      -1.305   1.327  10.639  1.00  0.00     0.138 A 
ATOM      2  C   UNL     1      -0.380   0.391  10.156  1.00  0.00     0.100 A 
ATOM      3  C   UNL     1       0.836   0.830   9.632  1.00  0.00     0.197 A 
ATOM      4  O   UNL     1       1.671  -0.035   9.263  1.00  0.00    -0.289 OA
ATOM      5  C   UNL     1       1.113   2.217   9.564  1.00  0.00     0.107 A 
ATOM      6  C   UNL     1       2.302   2.781   9.013  1.00  0.00     0.134 A 
ATOM      7  C   UNL     1       2.518   4.162   9.106  1.00  0.00     0.093 A 
ATOM      8  C   UNL     1       1.559   5.004   9.675  1.00  0.00     0.123 A 
ATOM      9  C   UNL     1       0.372   4.469  10.167  1.00  0.00     0.094 A 
ATOM     10  C   UNL     1       0.143   3.092  10.120  1.00  0.00     0.146 A 
ATOM     11  O   UNL     1      -0.997   2.620  10.614  1.00  0.00    -0.456 OA
ENDROOT
BRANCH   1  12
ATOM     12  C   UNL     1      -2.615   0.914  11.206  1.00  0.00     0.021 A 
ATOM     13  C   UNL     1      -3.426   1.814  11.920  1.00  0.00     0.016 A 
ATOM     14  C   UNL     1      -4.648   1.395  12.451  1.00  0.00     0.051 A 
ATOM     15  C   UNL     1      -5.083   0.076  12.290  1.00  0.00     0.157 A 
ATOM     16  C   UNL     1      -3.046  -0.414  11.057  1.00  0.00     0.062 A 
ATOM     17  C   UNL     1      -4.270  -0.842  11.586  1.00  0.00     0.158 A 
BRANCH  15  18
ATOM     18  O   UNL     1      -6.317  -0.276  12.843  1.00  0.00    -0.504 OA
ATOM     19  H   UNL     1      -7.036   0.389  13.088  1.00  0.00     0.293 HD
ENDBRANCH  15  18
BRANCH  17  20
ATOM     20  O   UNL     1      -4.635  -2.176  11.388  1.00  0.00    -0.504 OA
ATOM     21  H   UNL     1      -4.073  -2.964  11.676  1.00  0.00     0.293 HD
ENDBRANCH  17  20
ENDBRANCH   1  12
BRANCH   6  22
ATOM     22  O   UNL     1       3.284   2.041   8.347  1.00  0.00    -0.507 OA
ATOM     23  H   UNL     1       3.117   1.454   7.544  1.00  0.00     0.293 HD
ENDBRANCH   6  22
BRANCH   8  24
ATOM     24  O   UNL     1       1.776   6.378   9.749  1.00  0.00    -0.508 OA
ATOM     25  H   UNL     1       2.232   6.885   8.999  1.00  0.00     0.293 HD
ENDBRANCH   8  24
TORSDOF 5
ENDMDL
MODEL 6
REMARK VINA RESULT:    -5.923      9.954     11.977
REMARK INTER + INTRA:          -7.242
REMARK INTER:                  -6.956
REMARK INTRA:                  -0.287
REMARK UNBOUND:                -0.280
REMARK SMILES O=c1cc(-c2ccc(O)c(O)c2)oc2cc(O)cc(O)c12
REMARK SMILES IDX 4 1 3 2 2 3 1 4 21 5 19 6 18 7 16 8 15 9 14 10 13 11 5 12
REMARK SMILES IDX 6 13 7 14 8 15 12 16 10 17 9 18 11 20 20 22 17 24
REMARK H PARENT 9 19 11 21 20 23 17 25
REMARK Flexibility Score: inf
ROOT
ATOM      1  C   UNL     1      -1.999   0.302  10.469  1.00  0.00     0.138 A 
ATOM      2  C   UNL     1      -3.131   1.120  10.599  1.00  0.00     0.100 A 
ATOM      3  C   UNL     1      -4.324   0.576  11.076  1.00  0.00     0.197 A 
ATOM      4  O   UNL     1      -5.304   1.347  11.241  1.00  0.00    -0.289 OA
ATOM      5  C   UNL     1      -4.391  -0.802  11.394  1.00  0.00     0.107 A 
ATOM      6  C   UNL     1      -5.565  -1.474  11.849  1.00  0.00     0.134 A 
ATOM      7  C   UNL     1      -5.483  -2.815  12.245  1.00  0.00     0.093 A 
ATOM      8  C   UNL     1      -4.283  -3.524  12.143  1.00  0.00     0.123 A 
ATOM      9  C   UNL     1      -3.145  -2.892  11.649  1.00  0.00     0.094 A 
ATOM     10  C   UNL     1      -3.187  -1.545  11.279  1.00  0.00     0.146 A 
ATOM     11  O   UNL     1      -2.075  -0.975  10.827  1.00  0.00    -0.456 OA
ENDROOT
BRANCH   1  12
ATOM     12  C   UNL     1      -0.705   0.829   9.966  1.00  0.00     0.021 A 
ATOM     13  C   UNL     1       0.230  -0.000   9.322  1.00  0.00     0.016 A 
ATOM     14  C   UNL     1       1.444   0.520   8.869  1.00  0.00     0.051 A 
ATOM     15  C   UNL     1       1.755   1.871   9.052  1.00  0.00     0.157 A 
ATOM     16  C   UNL     1      -0.385   2.183  10.162  1.00  0.00     0.062 A 
ATOM     17  C   UNL     1       0.829   2.714   9.710  1.00  0.00     0.158 A 
BRANCH  15  18
ATOM     18  O   UNL     1       2.985   2.328   8.572  1.00  0.00    -0.504 OA
ATOM     19  H   UNL     1       3.610   2.923   9.097  1.00  0.00     0.293 HD
ENDBRANCH  15  18
BRANCH  17  20
ATOM     20  O   UNL     1       1.072   4.071   9.934  1.00  0.00    -0.504 OA
ATOM     21  H   UNL     1       1.975   4.508   9.827  1.00  0.00     0.293 HD
ENDBRANCH  17  20
ENDBRANCH   1  12
BRANCH   6  22
ATOM     22  O   UNL     1      -6.831  -0.883  11.908  1.00  0.00    -0.507 OA
ATOM     23  H   UNL     1      -7.450  -0.928  12.703  1.00  0.00     0.293 HD
ENDBRANCH   6  22
BRANCH   8  24
ATOM     24  O   UNL     1      -4.214  -4.862  12.524  1.00  0.00    -0.508 OA
ATOM     25  H   UNL     1      -3.372  -5.409  12.392  1.00  0.00     0.293 HD
ENDBRANCH   8  24
TORSDOF 5
ENDMDL
MODEL 7
REMARK VINA RESULT:    -5.844     10.387     12.798
REMARK INTER + INTRA:          -7.149
REMARK INTER:                  -6.849
REMARK INTRA:                  -0.300
REMARK UNBOUND:                -0.280
REMARK SMILES O=c1cc(-c2ccc(O)c(O)c2)oc2cc(O)cc(O)c12
REMARK SMILES IDX 4 1 3 2 2 3 1 4 21 5 19 6 18 7 16 8 15 9 14 10 13 11 5 12
REMARK SMILES IDX 6 13 7 14 8 15 12 16 10 17 9 18 11 20 20 22 17 24
REMARK H PARENT 9 19 11 21 20 23 17 25
REMARK Flexibility Score: inf
ROOT
ATOM      1  C   UNL     1      -3.542  -0.165  11.115  1.00  0.00     0.138 A 
ATOM      2  C   UNL     1      -4.507   0.852  11.109  1.00  0.00     0.100 A 
ATOM      3  C   UNL     1      -4.118   2.172  10.875  1.00  0.00     0.197 A 
ATOM      4  O   UNL     1      -5.013   3.053  10.813  1.00  0.00    -0.289 OA
ATOM      5  C   UNL     1      -2.750   2.477  10.677  1.00  0.00     0.107 A 
ATOM      6  C   UNL     1      -2.233   3.791  10.471  1.00  0.00     0.134 A 
ATOM      7  C   UNL     1      -0.876   3.959  10.170  1.00  0.00     0.093 A 
ATOM      8  C   UNL     1      -0.006   2.865  10.128  1.00  0.00     0.123 A 
ATOM      9  C   UNL     1      -0.491   1.585  10.382  1.00  0.00     0.094 A 
ATOM     10  C   UNL     1      -1.846   1.381  10.651  1.00  0.00     0.146 A 
ATOM     11  O   UNL     1      -2.272   0.142  10.872  1.00  0.00    -0.456 OA
ENDROOT
BRANCH   1  12
ATOM     12  C   UNL     1      -3.901  -1.585  11.360  1.00  0.00     0.021 A 
ATOM     13  C   UNL     1      -5.103  -2.136  10.881  1.00  0.00     0.016 A 
ATOM     14  C   UNL     1      -5.419  -3.472  11.136  1.00  0.00     0.051 A 
ATOM     15  C   UNL     1      -4.553  -4.283  11.876  1.00  0.00     0.157 A 
ATOM     16  C   UNL     1      -3.039  -2.397  12.115  1.00  0.00     0.062 A 
ATOM     17  C   UNL     1      -3.348  -3.738  12.374  1.00  0.00     0.158 A 
BRANCH  15  18
ATOM     18  O   UNL     1      -4.928  -5.611  12.092  1.00  0.00    -0.504 OA
ATOM     19  H   UNL     1      -5.335  -6.205  11.383  1.00  0.00     0.293 HD
ENDBRANCH  15  18
BRANCH  17  20
ATOM     20  O   UNL     1      -2.436  -4.484  13.125  1.00  0.00    -0.504 OA
ATOM     21  H   UNL     1      -1.738  -5.092  12.722  1.00  0.00     0.293 HD
ENDBRANCH  17  20
ENDBRANCH   1  12
BRANCH   6  22
ATOM     22  O   UNL     1      -2.997   4.957  10.573  1.00  0.00    -0.507 OA
ATOM     23  H   UNL     1      -3.988   4.982  10.757  1.00  0.00     0.293 HD
ENDBRANCH   6  22
BRANCH   8  24
ATOM     24  O   UNL     1       1.346   3.044   9.844  1.00  0.00    -0.508 OA
ATOM     25  H   UNL     1       2.064   2.510  10.320  1.00  0.00     0.293 HD
ENDBRANCH   8  24
TORSDOF 5
ENDMDL
MODEL 8
REMARK VINA RESULT:    -5.717     10.320     12.809
REMARK INTER + INTRA:          -6.999
REMARK INTER:                  -6.714
REMARK INTRA:                  -0.285
REMARK UNBOUND:                -0.280
REMARK SMILES O=c1cc(-c2ccc(O)c(O)c2)oc2cc(O)cc(O)c12
REMARK SMILES IDX 4 1 3 2 2 3 1 4 21 5 19 6 18 7 16 8 15 9 14 10 13 11 5 12
REMARK SMILES IDX 6 13 7 14 8 15 12 16 10 17 9 18 11 20 20 22 17 24
REMARK H PARENT 9 19 11 21 20 23 17 25
REMARK Flexibility Score: inf
ROOT
ATOM      1  C   UNL     1      -2.554  -0.019  10.736  1.00  0.00     0.138 A 
ATOM      2  C   UNL     1      -1.197  -0.285  10.510  1.00  0.00     0.100 A 
ATOM      3  C   UNL     1      -0.307   0.775  10.328  1.00  0.00     0.197 A 
ATOM      4  O   UNL     1       0.914   0.508  10.190  1.00  0.00    -0.289 OA
ATOM      5  C   UNL     1      -0.787   2.107  10.341  1.00  0.00     0.107 A 
ATOM      6  C   UNL     1       0.021   3.263  10.125  1.00  0.00     0.134 A 
ATOM      7  C   UNL     1      -0.542   4.536  10.277  1.00  0.00     0.093 A 
ATOM      8  C   UNL     1      -1.899   4.693  10.576  1.00  0.00     0.123 A 
ATOM      9  C   UNL     1      -2.707   3.571  10.736  1.00  0.00     0.094 A 
ATOM     10  C   UNL     1      -2.167   2.287  10.624  1.00  0.00     0.146 A 
ATOM     11  O   UNL     1      -2.969   1.243  10.798  1.00  0.00    -0.456 OA
ENDROOT
BRANCH   1  12
ATOM     12  C   UNL     1      -3.544  -1.108  10.936  1.00  0.00     0.021 A 
ATOM     13  C   UNL     1      -4.894  -0.954  10.574  1.00  0.00     0.016 A 
ATOM     14  C   UNL     1      -5.805  -1.992  10.783  1.00  0.00     0.051 A 
ATOM     15  C   UNL     1      -5.395  -3.198  11.361  1.00  0.00     0.157 A 
ATOM     16  C   UNL     1      -3.136  -2.314  11.529  1.00  0.00     0.062 A 
ATOM     17  C   UNL     1      -4.043  -3.360  11.741  1.00  0.00     0.158 A 
BRANCH  15  18
ATOM     18  O   UNL     1      -6.356  -4.196  11.539  1.00  0.00    -0.504 OA
ATOM     19  H   UNL     1      -6.582  -4.892  10.844  1.00  0.00     0.293 HD
ENDBRANCH  15  18
BRANCH  17  20
ATOM     20  O   UNL     1      -3.560  -4.532  12.328  1.00  0.00    -0.504 OA
ATOM     21  H   UNL     1      -2.593  -4.820  12.302  1.00  0.00     0.293 HD
ENDBRANCH  17  20
ENDBRANCH   1  12
BRANCH   6  22
ATOM     22  O   UNL     1       1.364   3.218   9.740  1.00  0.00    -0.507 OA
ATOM     23  H   UNL     1       2.147   3.289  10.371  1.00  0.00     0.293 HD
ENDBRANCH   6  22
BRANCH   8  24
ATOM     24  O   UNL     1      -2.453   5.964  10.710  1.00  0.00    -0.508 OA
ATOM     25  H   UNL     1      -1.891   6.801  10.611  1.00  0.00     0.293 HD
ENDBRANCH   8  24
TORSDOF 5
ENDMDL
MODEL 9
REMARK VINA RESULT:    -5.693     10.265     11.799
REMARK INTER + INTRA:          -6.971
REMARK INTER:                  -6.694
REMARK INTRA:                  -0.278
REMARK UNBOUND:                -0.280
REMARK SMILES O=c1cc(-c2ccc(O)c(O)c2)oc2cc(O)cc(O)c12
REMARK SMILES IDX 4 1 3 2 2 3 1 4 21 5 19 6 18 7 16 8 15 9 14 10 13 11 5 12
REMARK SMILES IDX 6 13 7 14 8 15 12 16 10 17 9 18 11 20 20 22 17 24
REMARK H PARENT 9 19 11 21 20 23 17 25
REMARK Flexibility Score: inf
ROOT
ATOM      1  C   UNL     1      -3.558  -1.229  11.119  1.00  0.00     0.138 A 
ATOM      2  C   UNL     1      -2.827  -2.290  11.671  1.00  0.00     0.100 A 
ATOM      3  C   UNL     1      -3.477  -3.481  11.997  1.00  0.00     0.197 A 
ATOM      4  O   UNL     1      -2.785  -4.436  12.432  1.00  0.00    -0.289 OA
ATOM      5  C   UNL     1      -4.874  -3.596  11.800  1.00  0.00     0.107 A 
ATOM      6  C   UNL     1      -5.650  -4.746  12.134  1.00  0.00     0.134 A 
ATOM      7  C   UNL     1      -7.005  -4.790  11.785  1.00  0.00     0.093 A 
ATOM      8  C   UNL     1      -7.626  -3.700  11.169  1.00  0.00     0.123 A 
ATOM      9  C   UNL     1      -6.890  -2.552  10.887  1.00  0.00     0.094 A 
ATOM     10  C   UNL     1      -5.528  -2.491  11.192  1.00  0.00     0.146 A 
ATOM     11  O   UNL     1      -4.859  -1.383  10.893  1.00  0.00    -0.456 OA
ENDROOT
BRANCH   1  12
ATOM     12  C   UNL     1      -2.916   0.060  10.754  1.00  0.00     0.021 A 
ATOM     13  C   UNL     1      -3.541   1.293  11.007  1.00  0.00     0.016 A 
ATOM     14  C   UNL     1      -2.918   2.489  10.644  1.00  0.00     0.051 A 
ATOM     15  C   UNL     1      -1.669   2.483  10.016  1.00  0.00     0.157 A 
ATOM     16  C   UNL     1      -1.667   0.054  10.111  1.00  0.00     0.062 A 
ATOM     17  C   UNL     1      -1.036   1.248   9.744  1.00  0.00     0.158 A 
BRANCH  15  18
ATOM     18  O   UNL     1      -1.100   3.714   9.681  1.00  0.00    -0.504 OA
ATOM     19  H   UNL     1      -0.730   3.935   8.768  1.00  0.00     0.293 HD
ENDBRANCH  15  18
BRANCH  17  20
ATOM     20  O   UNL     1       0.209   1.161   9.116  1.00  0.00    -0.504 OA
ATOM     21  H   UNL     1       0.953   0.550   9.420  1.00  0.00     0.293 HD
ENDBRANCH  17  20
ENDBRANCH   1  12
BRANCH   6  22
ATOM     22  O   UNL     1      -5.148  -5.853  12.825  1.00  0.00    -0.507 OA
ATOM     23  H   UNL     1      -4.617  -5.806  13.681  1.00  0.00     0.293 HD
ENDBRANCH   6  22
BRANCH   8  24
ATOM     24  O   UNL     1      -8.979  -3.746  10.840  1.00  0.00    -0.508 OA
ATOM     25  H   UNL     1      -9.557  -4.542  11.084  1.00  0.00     0.293 HD
ENDBRANCH   8  24
TORSDOF 5
ENDMDL
