MODEL 1
REMARK VINA RESULT:    -8.917      0.000      0.000
REMARK INTER + INTRA:         -10.485
REMARK INTER:                 -10.220
REMARK INTRA:                  -0.265
REMARK UNBOUND:                -0.265
REMARK SMILES O=C1C[C@H](c2ccc(O)cc2)Oc2cc(O)cc(O)c21
REMARK SMILES IDX 3 1 4 2 12 3 13 4 14 5 15 6 17 7 18 8 20 9 2 10 1 11 5 12
REMARK SMILES IDX 6 13 11 14 7 15 10 16 8 17 9 18 19 20 16 22
REMARK H PARENT 9 19 19 21 16 23
REMARK Flexibility Score: inf
ROOT
ATOM      1  C   UNL     1      -7.457  28.165  15.812  1.00  0.00     0.131 C 
ATOM      2  C   UNL     1      -8.498  28.459  16.916  1.00  0.00     0.211 C 
ATOM      3  O   UNL     1      -9.704  27.737  16.623  1.00  0.00    -0.484 OA
ATOM      4  C   UNL     1     -10.240  27.728  15.316  1.00  0.00     0.138 A 
ATOM      5  C   UNL     1     -11.571  27.339  15.111  1.00  0.00     0.093 A 
ATOM      6  C   UNL     1     -12.145  27.443  13.833  1.00  0.00     0.123 A 
ATOM      7  C   UNL     1     -11.361  27.832  12.737  1.00  0.00     0.093 A 
ATOM      8  C   UNL     1      -9.998  28.116  12.903  1.00  0.00     0.133 A 
ATOM      9  C   UNL     1      -9.441  28.133  14.207  1.00  0.00     0.102 A 
ATOM     10  C   UNL     1      -8.058  28.583  14.506  1.00  0.00     0.174 C 
ATOM     11  O   UNL     1      -7.433  29.371  13.745  1.00  0.00    -0.294 OA
ENDROOT
BRANCH   2  12
ATOM     12  C   UNL     1      -7.983  28.201  18.326  1.00  0.00    -0.007 A 
ATOM     13  C   UNL     1      -6.664  27.764  18.574  1.00  0.00     0.011 A 
ATOM     14  C   UNL     1      -8.794  28.558  19.419  1.00  0.00     0.011 A 
ATOM     15  C   UNL     1      -6.120  27.895  19.852  1.00  0.00     0.046 A 
ATOM     16  C   UNL     1      -8.251  28.647  20.707  1.00  0.00     0.046 A 
ATOM     17  C   UNL     1      -6.898  28.388  20.908  1.00  0.00     0.115 A 
BRANCH  17  18
ATOM     18  O   UNL     1      -6.301  28.643  22.135  1.00  0.00    -0.508 OA
ATOM     19  H   UNL     1      -6.307  27.948  22.878  1.00  0.00     0.293 HD
ENDBRANCH  17  18
ENDBRANCH   2  12
BRANCH   8  20
ATOM     20  O   UNL     1      -9.226  28.320  11.756  1.00  0.00    -0.507 OA
ATOM     21  H   UNL     1      -9.464  27.956  10.845  1.00  0.00     0.293 HD
ENDBRANCH   8  20
BRANCH   6  22
ATOM     22  O   UNL     1     -13.498  27.162  13.625  1.00  0.00    -0.508 OA
ATOM     23  H   UNL     1     -13.932  27.213  12.702  1.00  0.00     0.293 HD
ENDBRANCH   6  22
TORSDOF 4
ENDMDL
MODEL 2
REMARK VINA RESULT:    -8.864      2.309      4.388
REMARK INTER + INTRA:         -10.425
REMARK INTER:                 -10.155
REMARK INTRA:                  -0.270
REMARK UNBOUND:                -0.265
REMARK SMILES O=C1C[C@H](c2ccc(O)cc2)Oc2cc(O)cc(O)c21
REMARK SMILES IDX 3 1 4 2 12 3 13 4 14 5 15 6 17 7 18 8 20 9 2 10 1 11 5 12
REMARK SMILES IDX 6 13 11 14 7 15 10 16 8 17 9 18 19 20 16 22
REMARK H PARENT 9 19 19 21 16 23
REMARK Flexibility Score: inf
ROOT
ATOM      1  C   UNL     1      -9.085  28.902  15.881  1.00  0.00     0.131 C 
ATOM      2  C   UNL     1      -8.046  28.575  16.976  1.00  0.00     0.211 C 
ATOM      3  O   UNL     1      -6.823  29.267  16.680  1.00  0.00    -0.484 OA
ATOM      4  C   UNL     1      -6.296  29.271  15.369  1.00  0.00     0.138 A 
ATOM      5  C   UNL     1      -4.956  29.628  15.159  1.00  0.00     0.093 A 
ATOM      6  C   UNL     1      -4.393  29.517  13.876  1.00  0.00     0.123 A 
ATOM      7  C   UNL     1      -5.194  29.154  12.782  1.00  0.00     0.093 A 
ATOM      8  C   UNL     1      -6.563  28.904  12.956  1.00  0.00     0.133 A 
ATOM      9  C   UNL     1      -7.112  28.893  14.263  1.00  0.00     0.102 A 
ATOM     10  C   UNL     1      -8.504  28.477  14.569  1.00  0.00     0.174 C 
ATOM     11  O   UNL     1      -9.153  27.709  13.807  1.00  0.00    -0.294 OA
ENDROOT
BRANCH   2  12
ATOM     12  C   UNL     1      -8.545  28.837  18.391  1.00  0.00    -0.007 A 
ATOM     13  C   UNL     1      -9.885  29.190  18.660  1.00  0.00     0.011 A 
ATOM     14  C   UNL     1      -7.687  28.568  19.473  1.00  0.00     0.011 A 
ATOM     15  C   UNL     1     -10.389  29.059  19.954  1.00  0.00     0.046 A 
ATOM     16  C   UNL     1      -8.192  28.479  20.776  1.00  0.00     0.046 A 
ATOM     17  C   UNL     1      -9.555  28.650  21.004  1.00  0.00     0.115 A 
BRANCH  17  18
ATOM     18  O   UNL     1     -10.105  28.390  22.251  1.00  0.00    -0.508 OA
ATOM     19  H   UNL     1     -10.539  27.494  22.459  1.00  0.00     0.293 HD
ENDBRANCH  17  18
ENDBRANCH   2  12
BRANCH   8  20
ATOM     20  O   UNL     1      -7.347  28.727  11.813  1.00  0.00    -0.507 OA
ATOM     21  H   UNL     1      -8.304  29.041  11.732  1.00  0.00     0.293 HD
ENDBRANCH   8  20
BRANCH   6  22
ATOM     22  O   UNL     1      -3.035  29.764  13.661  1.00  0.00    -0.508 OA
ATOM     23  H   UNL     1      -2.422  30.123  14.394  1.00  0.00     0.293 HD
ENDBRANCH   6  22
TORSDOF 4
ENDMDL
MODEL 3
REMARK VINA RESULT:    -8.530      2.243      6.556
REMARK INTER + INTRA:         -10.042
REMARK INTER:                  -9.745
REMARK INTRA:                  -0.297
REMARK UNBOUND:                -0.265
REMARK SMILES O=C1C[C@H](c2ccc(O)cc2)Oc2cc(O)cc(O)c21
REMARK SMILES IDX 3 1 4 2 12 3 13 4 14 5 15 6 17 7 18 8 20 9 2 10 1 11 5 12
REMARK SMILES IDX 6 13 11 14 7 15 10 16 8 17 9 18 19 20 16 22
REMARK H PARENT 9 19 19 21 16 23
REMARK Flexibility Score: inf
ROOT
ATOM      1  C   UNL     1      -6.493  28.567  16.961  1.00  0.00     0.131 C 
ATOM      2  C   UNL     1      -7.799  28.222  16.211  1.00  0.00     0.211 C 
ATOM      3  O   UNL     1      -8.900  28.860  16.876  1.00  0.00    -0.484 OA
ATOM      4  C   UNL     1      -9.017  28.817  18.283  1.00  0.00     0.138 A 
ATOM      5  C   UNL     1     -10.244  29.116  18.890  1.00  0.00     0.093 A 
ATOM      6  C   UNL     1     -10.399  28.956  20.278  1.00  0.00     0.123 A 
ATOM      7  C   UNL     1      -9.300  28.604  21.075  1.00  0.00     0.093 A 
ATOM      8  C   UNL     1      -8.037  28.411  20.498  1.00  0.00     0.133 A 
ATOM      9  C   UNL     1      -7.898  28.448  19.087  1.00  0.00     0.102 A 
ATOM     10  C   UNL     1      -6.646  28.093  18.372  1.00  0.00     0.174 C 
ATOM     11  O   UNL     1      -5.777  27.336  18.884  1.00  0.00    -0.294 OA
ENDROOT
BRANCH   2  12
ATOM     12  C   UNL     1      -7.749  28.533  14.720  1.00  0.00    -0.007 A 
ATOM     13  C   UNL     1      -8.919  28.749  13.961  1.00  0.00     0.011 A 
ATOM     14  C   UNL     1      -6.499  28.764  14.118  1.00  0.00     0.011 A 
ATOM     15  C   UNL     1      -8.832  29.384  12.721  1.00  0.00     0.046 A 
ATOM     16  C   UNL     1      -6.419  29.363  12.854  1.00  0.00     0.046 A 
ATOM     17  C   UNL     1      -7.585  29.741  12.192  1.00  0.00     0.115 A 
BRANCH  17  18
ATOM     18  O   UNL     1      -7.527  30.495  11.028  1.00  0.00    -0.508 OA
ATOM     19  H   UNL     1      -6.942  31.325  10.967  1.00  0.00     0.293 HD
ENDBRANCH  17  18
ENDBRANCH   2  12
BRANCH   8  20
ATOM     20  O   UNL     1      -6.944  28.241  21.353  1.00  0.00    -0.507 OA
ATOM     21  H   UNL     1      -6.899  28.615  22.290  1.00  0.00     0.293 HD
ENDBRANCH   8  20
BRANCH   6  22
ATOM     22  O   UNL     1     -11.640  29.146  20.891  1.00  0.00    -0.508 OA
ATOM     23  H   UNL     1     -12.522  28.972  20.406  1.00  0.00     0.293 HD
ENDBRANCH   6  22
TORSDOF 4
ENDMDL
MODEL 4
REMARK VINA RESULT:    -8.523      1.919      7.071
REMARK INTER + INTRA:         -10.034
REMARK INTER:                  -9.736
REMARK INTRA:                  -0.298
REMARK UNBOUND:                -0.265
REMARK SMILES O=C1C[C@H](c2ccc(O)cc2)Oc2cc(O)cc(O)c21
REMARK SMILES IDX 3 1 4 2 12 3 13 4 14 5 15 6 17 7 18 8 20 9 2 10 1 11 5 12
REMARK SMILES IDX 6 13 11 14 7 15 10 16 8 17 9 18 19 20 16 22
REMARK H PARENT 9 19 19 21 16 23
REMARK Flexibility Score: inf
ROOT
ATOM      1  C   UNL     1      -9.871  28.473  16.873  1.00  0.00     0.131 C 
ATOM      2  C   UNL     1      -8.549  28.762  16.127  1.00  0.00     0.211 C 
ATOM      3  O   UNL     1      -7.473  28.105  16.814  1.00  0.00    -0.484 OA
ATOM      4  C   UNL     1      -7.366  28.175  18.222  1.00  0.00     0.138 A 
ATOM      5  C   UNL     1      -6.153  27.852  18.845  1.00  0.00     0.093 A 
ATOM      6  C   UNL     1      -6.005  28.036  20.230  1.00  0.00     0.123 A 
ATOM      7  C   UNL     1      -7.099  28.440  21.010  1.00  0.00     0.093 A 
ATOM      8  C   UNL     1      -8.351  28.658  20.419  1.00  0.00     0.133 A 
ATOM      9  C   UNL     1      -8.479  28.595  19.008  1.00  0.00     0.102 A 
ATOM     10  C   UNL     1      -9.714  28.973  18.275  1.00  0.00     0.174 C 
ATOM     11  O   UNL     1     -10.563  29.767  18.764  1.00  0.00    -0.294 OA
ENDROOT
BRANCH   2  12
ATOM     12  C   UNL     1      -8.597  28.421  14.643  1.00  0.00    -0.007 A 
ATOM     13  C   UNL     1      -7.431  28.122  13.905  1.00  0.00     0.011 A 
ATOM     14  C   UNL     1      -9.850  28.246  14.028  1.00  0.00     0.011 A 
ATOM     15  C   UNL     1      -7.537  27.465  12.679  1.00  0.00     0.046 A 
ATOM     16  C   UNL     1      -9.947  27.624  12.777  1.00  0.00     0.046 A 
ATOM     17  C   UNL     1      -8.796  27.166  12.139  1.00  0.00     0.115 A 
BRANCH  17  18
ATOM     18  O   UNL     1      -8.881  26.391  10.992  1.00  0.00    -0.508 OA
ATOM     19  H   UNL     1      -8.771  26.803  10.069  1.00  0.00     0.293 HD
ENDBRANCH  17  18
ENDBRANCH   2  12
BRANCH   8  20
ATOM     20  O   UNL     1      -9.444  28.880  21.261  1.00  0.00    -0.507 OA
ATOM     21  H   UNL     1      -9.417  29.480  22.073  1.00  0.00     0.293 HD
ENDBRANCH   8  20
BRANCH   6  22
ATOM     22  O   UNL     1      -4.774  27.823  20.858  1.00  0.00    -0.508 OA
ATOM     23  H   UNL     1      -4.651  27.128  21.597  1.00  0.00     0.293 HD
ENDBRANCH   6  22
TORSDOF 4
ENDMDL
MODEL 5
REMARK VINA RESULT:    -7.982      1.796      3.532
REMARK INTER + INTRA:          -9.414
REMARK INTER:                  -9.126
REMARK INTRA:                  -0.288
REMARK UNBOUND:                -0.265
REMARK SMILES O=C1C[C@H](c2ccc(O)cc2)Oc2cc(O)cc(O)c21
REMARK SMILES IDX 3 1 4 2 12 3 13 4 14 5 15 6 17 7 18 8 20 9 2 10 1 11 5 12
REMARK SMILES IDX 6 13 11 14 7 15 10 16 8 17 9 18 19 20 16 22
REMARK H PARENT 9 19 19 21 16 23
REMARK Flexibility Score: inf
ROOT
ATOM      1  C   UNL     1      -9.007  28.642  16.417  1.00  0.00     0.131 C 
ATOM      2  C   UNL     1      -7.651  27.983  16.754  1.00  0.00     0.211 C 
ATOM      3  O   UNL     1      -6.609  28.674  16.046  1.00  0.00    -0.484 OA
ATOM      4  C   UNL     1      -6.764  29.008  14.681  1.00  0.00     0.138 A 
ATOM      5  C   UNL     1      -5.639  29.347  13.916  1.00  0.00     0.093 A 
ATOM      6  C   UNL     1      -5.770  29.561  12.533  1.00  0.00     0.123 A 
ATOM      7  C   UNL     1      -7.038  29.546  11.933  1.00  0.00     0.093 A 
ATOM      8  C   UNL     1      -8.187  29.321  12.705  1.00  0.00     0.133 A 
ATOM      9  C   UNL     1      -8.054  28.981  14.075  1.00  0.00     0.102 A 
ATOM     10  C   UNL     1      -9.190  28.562  14.934  1.00  0.00     0.174 C 
ATOM     11  O   UNL     1     -10.241  28.060  14.451  1.00  0.00    -0.294 OA
ENDROOT
BRANCH   2  12
ATOM     12  C   UNL     1      -7.376  27.875  18.248  1.00  0.00    -0.007 A 
ATOM     13  C   UNL     1      -6.115  27.492  18.753  1.00  0.00     0.011 A 
ATOM     14  C   UNL     1      -8.359  28.320  19.151  1.00  0.00     0.011 A 
ATOM     15  C   UNL     1      -5.791  27.758  20.084  1.00  0.00     0.046 A 
ATOM     16  C   UNL     1      -8.039  28.545  20.496  1.00  0.00     0.046 A 
ATOM     17  C   UNL     1      -6.736  28.336  20.942  1.00  0.00     0.115 A 
BRANCH  17  18
ATOM     18  O   UNL     1      -6.353  28.722  22.219  1.00  0.00    -0.508 OA
ATOM     19  H   UNL     1      -5.729  29.512  22.365  1.00  0.00     0.293 HD
ENDBRANCH  17  18
ENDBRANCH   2  12
BRANCH   8  20
ATOM     20  O   UNL     1      -9.432  29.496  12.094  1.00  0.00    -0.507 OA
ATOM     21  H   UNL     1     -10.314  29.399  12.576  1.00  0.00     0.293 HD
ENDBRANCH   8  20
BRANCH   6  22
ATOM     22  O   UNL     1      -4.650  29.795  11.731  1.00  0.00    -0.508 OA
ATOM     23  H   UNL     1      -4.354  30.736  11.466  1.00  0.00     0.293 HD
ENDBRANCH   6  22
TORSDOF 4
ENDMDL
MODEL 6
REMARK VINA RESULT:    -7.911      1.528      2.097
REMARK INTER + INTRA:          -9.332
REMARK INTER:                  -9.045
REMARK INTRA:                  -0.287
REMARK UNBOUND:                -0.265
REMARK SMILES O=C1C[C@H](c2ccc(O)cc2)Oc2cc(O)cc(O)c21
REMARK SMILES IDX 3 1 4 2 12 3 13 4 14 5 15 6 17 7 18 8 20 9 2 10 1 11 5 12
REMARK SMILES IDX 6 13 11 14 7 15 10 16 8 17 9 18 19 20 16 22
REMARK H PARENT 9 19 19 21 16 23
REMARK Flexibility Score: inf
ROOT
ATOM      1  C   UNL     1      -7.494  28.332  16.405  1.00  0.00     0.131 C 
ATOM      2  C   UNL     1      -8.840  28.986  16.789  1.00  0.00     0.211 C 
ATOM      3  O   UNL     1      -9.904  28.283  16.130  1.00  0.00    -0.484 OA
ATOM      4  C   UNL     1      -9.802  27.936  14.764  1.00  0.00     0.138 A 
ATOM      5  C   UNL     1     -10.954  27.584  14.046  1.00  0.00     0.093 A 
ATOM      6  C   UNL     1     -10.877  27.355  12.662  1.00  0.00     0.123 A 
ATOM      7  C   UNL     1      -9.634  27.372  12.012  1.00  0.00     0.093 A 
ATOM      8  C   UNL     1      -8.457  27.610  12.735  1.00  0.00     0.133 A 
ATOM      9  C   UNL     1      -8.537  27.963  14.106  1.00  0.00     0.102 A 
ATOM     10  C   UNL     1      -7.370  28.397  14.915  1.00  0.00     0.174 C 
ATOM     11  O   UNL     1      -6.342  28.900  14.386  1.00  0.00    -0.294 OA
ENDROOT
BRANCH   2  12
ATOM     12  C   UNL     1      -9.055  29.108  18.292  1.00  0.00    -0.007 A 
ATOM     13  C   UNL     1     -10.286  29.530  18.841  1.00  0.00     0.011 A 
ATOM     14  C   UNL     1      -8.053  28.640  19.160  1.00  0.00     0.011 A 
ATOM     15  C   UNL     1     -10.567  29.278  20.184  1.00  0.00     0.046 A 
ATOM     16  C   UNL     1      -8.329  28.429  20.517  1.00  0.00     0.046 A 
ATOM     17  C   UNL     1      -9.608  28.677  21.010  1.00  0.00     0.115 A 
BRANCH  17  18
ATOM     18  O   UNL     1      -9.955  28.307  22.302  1.00  0.00    -0.508 OA
ATOM     19  H   UNL     1     -10.556  28.895  22.874  1.00  0.00     0.293 HD
ENDBRANCH  17  18
ENDBRANCH   2  12
BRANCH   8  20
ATOM     20  O   UNL     1      -7.236  27.436  12.078  1.00  0.00    -0.507 OA
ATOM     21  H   UNL     1      -6.497  28.124  12.070  1.00  0.00     0.293 HD
ENDBRANCH   8  20
BRANCH   6  22
ATOM     22  O   UNL     1     -12.027  27.107  11.907  1.00  0.00    -0.508 OA
ATOM     23  H   UNL     1     -12.967  27.228  12.287  1.00  0.00     0.293 HD
ENDBRANCH   6  22
TORSDOF 4
ENDMDL
MODEL 7
REMARK VINA RESULT:    -7.850      1.991      2.583
REMARK INTER + INTRA:          -9.262
REMARK INTER:                  -8.987
REMARK INTRA:                  -0.275
REMARK UNBOUND:                -0.265
REMARK SMILES O=C1C[C@H](c2ccc(O)cc2)Oc2cc(O)cc(O)c21
REMARK SMILES IDX 3 1 4 2 12 3 13 4 14 5 15 6 17 7 18 8 20 9 2 10 1 11 5 12
REMARK SMILES IDX 6 13 11 14 7 15 10 16 8 17 9 18 19 20 16 22
REMARK H PARENT 9 19 19 21 16 23
REMARK Flexibility Score: inf
ROOT
ATOM      1  C   UNL     1      -6.916  28.412  16.488  1.00  0.00     0.131 C 
ATOM      2  C   UNL     1      -8.293  29.015  16.845  1.00  0.00     0.211 C 
ATOM      3  O   UNL     1      -9.230  28.683  15.809  1.00  0.00    -0.484 OA
ATOM      4  C   UNL     1      -8.877  28.820  14.447  1.00  0.00     0.138 A 
ATOM      5  C   UNL     1      -9.880  28.844  13.467  1.00  0.00     0.093 A 
ATOM      6  C   UNL     1      -9.545  29.101  12.127  1.00  0.00     0.123 A 
ATOM      7  C   UNL     1      -8.201  29.226  11.746  1.00  0.00     0.093 A 
ATOM      8  C   UNL     1      -7.178  29.091  12.695  1.00  0.00     0.133 A 
ATOM      9  C   UNL     1      -7.510  28.956  14.067  1.00  0.00     0.102 A 
ATOM     10  C   UNL     1      -6.508  28.976  15.163  1.00  0.00     0.174 C 
ATOM     11  O   UNL     1      -5.385  29.533  15.030  1.00  0.00    -0.294 OA
ENDROOT
BRANCH   2  12
ATOM     12  C   UNL     1      -8.788  28.631  18.233  1.00  0.00    -0.007 A 
ATOM     13  C   UNL     1      -7.901  28.291  19.278  1.00  0.00     0.011 A 
ATOM     14  C   UNL     1     -10.157  28.770  18.527  1.00  0.00     0.011 A 
ATOM     15  C   UNL     1      -8.348  28.310  20.600  1.00  0.00     0.046 A 
ATOM     16  C   UNL     1     -10.605  28.746  19.854  1.00  0.00     0.046 A 
ATOM     17  C   UNL     1      -9.689  28.592  20.892  1.00  0.00     0.115 A 
BRANCH  17  18
ATOM     18  O   UNL     1     -10.083  28.745  22.214  1.00  0.00    -0.508 OA
ATOM     19  H   UNL     1     -11.058  28.654  22.486  1.00  0.00     0.293 HD
ENDBRANCH  17  18
ENDBRANCH   2  12
BRANCH   8  20
ATOM     20  O   UNL     1      -5.859  29.043  12.235  1.00  0.00    -0.507 OA
ATOM     21  H   UNL     1      -5.605  28.921  11.265  1.00  0.00     0.293 HD
ENDBRANCH   8  20
BRANCH   6  22
ATOM     22  O   UNL     1     -10.536  29.235  11.150  1.00  0.00    -0.508 OA
ATOM     23  H   UNL     1     -11.284  29.927  11.221  1.00  0.00     0.293 HD
ENDBRANCH   6  22
TORSDOF 4
ENDMDL
MODEL 8
REMARK VINA RESULT:    -7.812      2.656      7.046
REMARK INTER + INTRA:          -9.219
REMARK INTER:                  -8.944
REMARK INTRA:                  -0.274
REMARK UNBOUND:                -0.265
REMARK SMILES O=C1C[C@H](c2ccc(O)cc2)Oc2cc(O)cc(O)c21
REMARK SMILES IDX 3 1 4 2 12 3 13 4 14 5 15 6 17 7 18 8 20 9 2 10 1 11 5 12
REMARK SMILES IDX 6 13 11 14 7 15 10 16 8 17 9 18 19 20 16 22
REMARK H PARENT 9 19 19 21 16 23
REMARK Flexibility Score: inf
ROOT
ATOM      1  C   UNL     1      -8.604  28.496  16.247  1.00  0.00     0.131 C 
ATOM      2  C   UNL     1      -7.189  29.105  16.132  1.00  0.00     0.211 C 
ATOM      3  O   UNL     1      -6.362  28.561  17.171  1.00  0.00    -0.484 OA
ATOM      4  C   UNL     1      -6.840  28.466  18.498  1.00  0.00     0.138 A 
ATOM      5  C   UNL     1      -5.935  28.280  19.553  1.00  0.00     0.093 A 
ATOM      6  C   UNL     1      -6.391  28.306  20.882  1.00  0.00     0.123 A 
ATOM      7  C   UNL     1      -7.763  28.407  21.155  1.00  0.00     0.093 A 
ATOM      8  C   UNL     1      -8.693  28.480  20.109  1.00  0.00     0.133 A 
ATOM      9  C   UNL     1      -8.235  28.579  18.771  1.00  0.00     0.102 A 
ATOM     10  C   UNL     1      -9.127  28.828  17.610  1.00  0.00     0.174 C 
ATOM     11  O   UNL     1     -10.247  29.392  17.739  1.00  0.00    -0.294 OA
ENDROOT
BRANCH   2  12
ATOM     12  C   UNL     1      -6.571  28.957  14.747  1.00  0.00    -0.007 A 
ATOM     13  C   UNL     1      -7.331  28.564  13.625  1.00  0.00     0.011 A 
ATOM     14  C   UNL     1      -5.241  29.373  14.551  1.00  0.00     0.011 A 
ATOM     15  C   UNL     1      -6.839  28.795  12.340  1.00  0.00     0.046 A 
ATOM     16  C   UNL     1      -4.739  29.563  13.258  1.00  0.00     0.046 A 
ATOM     17  C   UNL     1      -5.564  29.346  12.156  1.00  0.00     0.115 A 
BRANCH  17  18
ATOM     18  O   UNL     1      -5.149  29.699  10.879  1.00  0.00    -0.508 OA
ATOM     19  H   UNL     1      -4.387  30.356  10.736  1.00  0.00     0.293 HD
ENDBRANCH  17  18
ENDBRANCH   2  12
BRANCH   8  20
ATOM     20  O   UNL     1     -10.051  28.396  20.430  1.00  0.00    -0.507 OA
ATOM     21  H   UNL     1     -10.787  28.808  19.876  1.00  0.00     0.293 HD
ENDBRANCH   8  20
BRANCH   6  22
ATOM     22  O   UNL     1      -5.496  28.229  21.952  1.00  0.00    -0.508 OA
ATOM     23  H   UNL     1      -4.820  28.968  22.153  1.00  0.00     0.293 HD
ENDBRANCH   6  22
TORSDOF 4
ENDMDL
MODEL 9
REMARK VINA RESULT:    -7.776      1.340      3.050
REMARK INTER + INTRA:          -9.178
REMARK INTER:                  -8.905
REMARK INTRA:                  -0.272
REMARK UNBOUND:                -0.265
REMARK SMILES O=C1C[C@H](c2ccc(O)cc2)Oc2cc(O)cc(O)c21
REMARK SMILES IDX 3 1 4 2 12 3 13 4 14 5 15 6 17 7 18 8 20 9 2 10 1 11 5 12
REMARK SMILES IDX 6 13 11 14 7 15 10 16 8 17 9 18 19 20 16 22
REMARK H PARENT 9 19 19 21 16 23
REMARK Flexibility Score: inf
ROOT
ATOM      1  C   UNL     1      -9.763  28.436  16.877  1.00  0.00     0.131 C 
ATOM      2  C   UNL     1      -8.300  27.980  17.074  1.00  0.00     0.211 C 
ATOM      3  O   UNL     1      -7.514  28.442  15.965  1.00  0.00    -0.484 OA
ATOM      4  C   UNL     1      -7.985  28.305  14.640  1.00  0.00     0.138 A 
ATOM      5  C   UNL     1      -7.091  28.420  13.567  1.00  0.00     0.093 A 
ATOM      6  C   UNL     1      -7.530  28.165  12.256  1.00  0.00     0.123 A 
ATOM      7  C   UNL     1      -8.884  27.902  12.004  1.00  0.00     0.093 A 
ATOM      8  C   UNL     1      -9.814  27.895  13.053  1.00  0.00     0.133 A 
ATOM      9  C   UNL     1      -9.362  28.029  14.390  1.00  0.00     0.102 A 
ATOM     10  C   UNL     1     -10.240  27.868  15.577  1.00  0.00     0.174 C 
ATOM     11  O   UNL     1     -11.304  27.193  15.533  1.00  0.00    -0.294 OA
ENDROOT
BRANCH   2  12
ATOM     12  C   UNL     1      -7.711  28.378  18.422  1.00  0.00    -0.007 A 
ATOM     13  C   UNL     1      -8.523  28.746  19.516  1.00  0.00     0.011 A 
ATOM     14  C   UNL     1      -6.328  28.224  18.628  1.00  0.00     0.011 A 
ATOM     15  C   UNL     1      -7.992  28.741  20.806  1.00  0.00     0.046 A 
ATOM     16  C   UNL     1      -5.794  28.262  19.923  1.00  0.00     0.046 A 
ATOM     17  C   UNL     1      -6.638  28.445  21.015  1.00  0.00     0.115 A 
BRANCH  17  18
ATOM     18  O   UNL     1      -6.162  28.306  22.311  1.00  0.00    -0.508 OA
ATOM     19  H   UNL     1      -6.746  27.919  23.048  1.00  0.00     0.293 HD
ENDBRANCH  17  18
ENDBRANCH   2  12
BRANCH   8  20
ATOM     20  O   UNL     1     -11.171  27.810  12.727  1.00  0.00    -0.507 OA
ATOM     21  H   UNL     1     -11.699  26.949  12.737  1.00  0.00     0.293 HD
ENDBRANCH   8  20
BRANCH   6  22
ATOM     22  O   UNL     1      -6.635  28.168  11.183  1.00  0.00    -0.508 OA
ATOM     23  H   UNL     1      -6.005  28.952  10.999  1.00  0.00     0.293 HD
ENDBRANCH   6  22
TORSDOF 4
ENDMDL
