MODEL 1
REMARK VINA RESULT:    -4.057      0.000      0.000
REMARK INTER + INTRA:          -6.447
REMARK INTER:                  -5.717
REMARK INTRA:                  -0.730
REMARK UNBOUND:                -0.730
REMARK SMILES CCCCCCCCC(=O)[O-]
REMARK SMILES IDX 6 1 7 2 8 3 9 4 10 5 11 6 5 7 4 8 3 9 2 10 1 11
REMARK H PARENT
REMARK Flexibility Score: inf
ROOT
ATOM      1  C   UNL     1     -38.337  19.376 -31.178  1.00  0.00     0.000 C 
ENDROOT
BRANCH   1   2
ATOM      2  C   UNL     1     -38.089  20.662 -30.375  1.00  0.00     0.006 C 
BRANCH   2   3
ATOM      3  C   UNL     1     -38.990  20.717 -29.138  1.00  0.00     0.053 C 
BRANCH   3   4
ATOM      4  C   UNL     1     -39.696  22.034 -29.062  1.00  0.00     0.041 C 
ATOM      5  O   UNL     1     -39.231  22.962 -28.347  1.00  0.00    -0.550 OA
ATOM      6  O   UNL     1     -40.839  22.255 -29.818  1.00  0.00    -0.550 OA
ENDBRANCH   3   4
ENDBRANCH   2   3
ENDBRANCH   1   2
BRANCH   1   7
ATOM      7  C   UNL     1     -38.845  18.218 -30.304  1.00  0.00     0.000 C 
BRANCH   7   8
ATOM      8  C   UNL     1     -37.851  17.046 -30.242  1.00  0.00    -0.000 C 
BRANCH   8   9
ATOM      9  C   UNL     1     -36.671  17.310 -29.288  1.00  0.00    -0.000 C 
BRANCH   9  10
ATOM     10  C   UNL     1     -37.069  17.798 -27.884  1.00  0.00    -0.003 C 
ATOM     11  C   UNL     1     -36.113  18.850 -27.323  1.00  0.00     0.004 C 
ENDBRANCH   9  10
ENDBRANCH   8   9
ENDBRANCH   7   8
ENDBRANCH   1   7
TORSDOF 7
ENDMDL
MODEL 2
REMARK VINA RESULT:    -3.942      1.896      3.156
REMARK INTER + INTRA:          -6.285
REMARK INTER:                  -5.526
REMARK INTRA:                  -0.759
REMARK UNBOUND:                -0.730
REMARK SMILES CCCCCCCCC(=O)[O-]
REMARK SMILES IDX 6 1 7 2 8 3 9 4 10 5 11 6 5 7 4 8 3 9 2 10 1 11
REMARK H PARENT
REMARK Flexibility Score: inf
ROOT
ATOM      1  C   UNL     1     -39.027  19.380 -28.115  1.00  0.00     0.000 C 
ENDROOT
BRANCH   1   2
ATOM      2  C   UNL     1     -39.240  20.577 -29.055  1.00  0.00     0.006 C 
BRANCH   2   3
ATOM      3  C   UNL     1     -37.910  21.264 -29.376  1.00  0.00     0.053 C 
BRANCH   3   4
ATOM      4  C   UNL     1     -37.594  21.139 -30.833  1.00  0.00     0.041 C 
ATOM      5  O   UNL     1     -38.454  20.682 -31.632  1.00  0.00    -0.550 OA
ATOM      6  O   UNL     1     -36.366  21.571 -31.318  1.00  0.00    -0.550 OA
ENDBRANCH   3   4
ENDBRANCH   2   3
ENDBRANCH   1   2
BRANCH   1   7
ATOM      7  C   UNL     1     -37.548  19.165 -27.753  1.00  0.00     0.000 C 
BRANCH   7   8
ATOM      8  C   UNL     1     -37.046  17.762 -28.134  1.00  0.00    -0.000 C 
BRANCH   8   9
ATOM      9  C   UNL     1     -36.843  17.590 -29.651  1.00  0.00    -0.000 C 
BRANCH   9  10
ATOM     10  C   UNL     1     -37.802  16.593 -30.325  1.00  0.00    -0.003 C 
ATOM     11  C   UNL     1     -38.950  17.276 -31.067  1.00  0.00     0.004 C 
ENDBRANCH   9  10
ENDBRANCH   8   9
ENDBRANCH   7   8
ENDBRANCH   1   7
TORSDOF 7
ENDMDL
MODEL 3
REMARK VINA RESULT:    -3.885      3.065      4.575
REMARK INTER + INTRA:          -6.206
REMARK INTER:                  -5.442
REMARK INTRA:                  -0.764
REMARK UNBOUND:                -0.730
REMARK SMILES CCCCCCCCC(=O)[O-]
REMARK SMILES IDX 6 1 7 2 8 3 9 4 10 5 11 6 5 7 4 8 3 9 2 10 1 11
REMARK H PARENT
REMARK Flexibility Score: inf
ROOT
ATOM      1  C   UNL     1     -35.928  20.249 -30.032  1.00  0.00     0.000 C 
ENDROOT
BRANCH   1   2
ATOM      2  C   UNL     1     -35.646  18.739 -30.023  1.00  0.00     0.006 C 
BRANCH   2   3
ATOM      3  C   UNL     1     -36.549  18.020 -29.017  1.00  0.00     0.053 C 
BRANCH   3   4
ATOM      4  C   UNL     1     -37.381  16.984 -29.705  1.00  0.00     0.041 C 
ATOM      5  O   UNL     1     -37.253  15.767 -29.406  1.00  0.00    -0.550 OA
ATOM      6  O   UNL     1     -38.332  17.366 -30.642  1.00  0.00    -0.550 OA
ENDBRANCH   3   4
ENDBRANCH   2   3
ENDBRANCH   1   2
BRANCH   1   7
ATOM      7  C   UNL     1     -36.740  20.695 -31.259  1.00  0.00     0.000 C 
BRANCH   7   8
ATOM      8  C   UNL     1     -38.234  20.876 -30.943  1.00  0.00    -0.000 C 
BRANCH   8   9
ATOM      9  C   UNL     1     -38.495  21.232 -29.467  1.00  0.00    -0.000 C 
BRANCH   9  10
ATOM     10  C   UNL     1     -39.903  20.878 -28.954  1.00  0.00    -0.003 C 
ATOM     11  C   UNL     1     -39.964  19.515 -28.266  1.00  0.00     0.004 C 
ENDBRANCH   9  10
ENDBRANCH   8   9
ENDBRANCH   7   8
ENDBRANCH   1   7
TORSDOF 7
ENDMDL
MODEL 4
REMARK VINA RESULT:    -3.841      2.959      5.340
REMARK INTER + INTRA:          -6.143
REMARK INTER:                  -5.730
REMARK INTRA:                  -0.413
REMARK UNBOUND:                -0.730
REMARK SMILES CCCCCCCCC(=O)[O-]
REMARK SMILES IDX 6 1 7 2 8 3 9 4 10 5 11 6 5 7 4 8 3 9 2 10 1 11
REMARK H PARENT
REMARK Flexibility Score: inf
ROOT
ATOM      1  C   UNL     1     -37.740  21.189 -30.581  1.00  0.00     0.000 C 
ENDROOT
BRANCH   1   2
ATOM      2  C   UNL     1     -37.295  19.734 -30.796  1.00  0.00     0.006 C 
BRANCH   2   3
ATOM      3  C   UNL     1     -37.912  18.812 -29.740  1.00  0.00     0.053 C 
BRANCH   3   4
ATOM      4  C   UNL     1     -38.193  17.463 -30.322  1.00  0.00     0.041 C 
ATOM      5  O   UNL     1     -39.009  17.341 -31.275  1.00  0.00    -0.550 OA
ATOM      6  O   UNL     1     -37.519  16.345 -29.846  1.00  0.00    -0.550 OA
ENDBRANCH   3   4
ENDBRANCH   2   3
ENDBRANCH   1   2
BRANCH   1   7
ATOM      7  C   UNL     1     -37.849  21.563 -29.094  1.00  0.00     0.000 C 
BRANCH   7   8
ATOM      8  C   UNL     1     -39.136  22.342 -28.774  1.00  0.00    -0.000 C 
BRANCH   8   9
ATOM      9  C   UNL     1     -40.375  21.770 -29.489  1.00  0.00    -0.000 C 
BRANCH   9  10
ATOM     10  C   UNL     1     -41.182  22.793 -30.309  1.00  0.00    -0.003 C 
ATOM     11  C   UNL     1     -42.506  23.177 -29.651  1.00  0.00     0.004 C 
ENDBRANCH   9  10
ENDBRANCH   8   9
ENDBRANCH   7   8
ENDBRANCH   1   7
TORSDOF 7
ENDMDL
MODEL 5
REMARK VINA RESULT:    -3.821      1.282      2.456
REMARK INTER + INTRA:          -6.116
REMARK INTER:                  -5.342
REMARK INTRA:                  -0.774
REMARK UNBOUND:                -0.730
REMARK SMILES CCCCCCCCC(=O)[O-]
REMARK SMILES IDX 6 1 7 2 8 3 9 4 10 5 11 6 5 7 4 8 3 9 2 10 1 11
REMARK H PARENT
REMARK Flexibility Score: inf
ROOT
ATOM      1  C   UNL     1     -36.175  20.317 -29.878  1.00  0.00     0.000 C 
ENDROOT
BRANCH   1   2
ATOM      2  C   UNL     1     -37.399  21.174 -30.236  1.00  0.00     0.006 C 
BRANCH   2   3
ATOM      3  C   UNL     1     -38.146  21.614 -28.974  1.00  0.00     0.053 C 
BRANCH   3   4
ATOM      4  C   UNL     1     -39.580  21.193 -29.040  1.00  0.00     0.041 C 
ATOM      5  O   UNL     1     -39.942  20.094 -28.540  1.00  0.00    -0.550 OA
ATOM      6  O   UNL     1     -40.527  22.034 -29.609  1.00  0.00    -0.550 OA
ENDBRANCH   3   4
ENDBRANCH   2   3
ENDBRANCH   1   2
BRANCH   1   7
ATOM      7  C   UNL     1     -36.205  19.815 -28.426  1.00  0.00     0.000 C 
BRANCH   7   8
ATOM      8  C   UNL     1     -36.514  18.311 -28.328  1.00  0.00    -0.000 C 
BRANCH   8   9
ATOM      9  C   UNL     1     -36.436  17.594 -29.689  1.00  0.00    -0.000 C 
BRANCH   9  10
ATOM     10  C   UNL     1     -37.712  16.836 -30.098  1.00  0.00    -0.003 C 
ATOM     11  C   UNL     1     -38.712  17.711 -30.851  1.00  0.00     0.004 C 
ENDBRANCH   9  10
ENDBRANCH   8   9
ENDBRANCH   7   8
ENDBRANCH   1   7
TORSDOF 7
ENDMDL
MODEL 6
REMARK VINA RESULT:    -3.809      1.686      2.295
REMARK INTER + INTRA:          -6.098
REMARK INTER:                  -5.515
REMARK INTRA:                  -0.583
REMARK UNBOUND:                -0.730
REMARK SMILES CCCCCCCCC(=O)[O-]
REMARK SMILES IDX 6 1 7 2 8 3 9 4 10 5 11 6 5 7 4 8 3 9 2 10 1 11
REMARK H PARENT
REMARK Flexibility Score: inf
ROOT
ATOM      1  C   UNL     1     -38.067  17.145 -30.386  1.00  0.00     0.000 C 
ENDROOT
BRANCH   1   2
ATOM      2  C   UNL     1     -38.717  18.536 -30.309  1.00  0.00     0.006 C 
BRANCH   2   3
ATOM      3  C   UNL     1     -38.592  19.121 -28.900  1.00  0.00     0.053 C 
BRANCH   3   4
ATOM      4  C   UNL     1     -39.731  20.048 -28.614  1.00  0.00     0.041 C 
ATOM      5  O   UNL     1     -39.644  21.269 -28.912  1.00  0.00    -0.550 OA
ATOM      6  O   UNL     1     -40.907  19.556 -28.065  1.00  0.00    -0.550 OA
ENDBRANCH   3   4
ENDBRANCH   2   3
ENDBRANCH   1   2
BRANCH   1   7
ATOM      7  C   UNL     1     -36.924  16.968 -29.373  1.00  0.00     0.000 C 
BRANCH   7   8
ATOM      8  C   UNL     1     -35.539  16.966 -30.042  1.00  0.00    -0.000 C 
BRANCH   8   9
ATOM      9  C   UNL     1     -34.771  18.285 -29.831  1.00  0.00    -0.000 C 
BRANCH   9  10
ATOM     10  C   UNL     1     -34.410  18.600 -28.368  1.00  0.00    -0.003 C 
ATOM     11  C   UNL     1     -35.077  19.872 -27.847  1.00  0.00     0.004 C 
ENDBRANCH   9  10
ENDBRANCH   8   9
ENDBRANCH   7   8
ENDBRANCH   1   7
TORSDOF 7
ENDMDL
MODEL 7
REMARK VINA RESULT:    -3.782      1.722      2.107
REMARK INTER + INTRA:          -6.060
REMARK INTER:                  -5.537
REMARK INTRA:                  -0.523
REMARK UNBOUND:                -0.730
REMARK SMILES CCCCCCCCC(=O)[O-]
REMARK SMILES IDX 6 1 7 2 8 3 9 4 10 5 11 6 5 7 4 8 3 9 2 10 1 11
REMARK H PARENT
REMARK Flexibility Score: inf
ROOT
ATOM      1  C   UNL     1     -38.355  20.793 -31.028  1.00  0.00     0.000 C 
ENDROOT
BRANCH   1   2
ATOM      2  C   UNL     1     -38.433  21.245 -29.562  1.00  0.00     0.006 C 
BRANCH   2   3
ATOM      3  C   UNL     1     -39.872  21.171 -29.043  1.00  0.00     0.053 C 
BRANCH   3   4
ATOM      4  C   UNL     1     -40.078  19.923 -28.245  1.00  0.00     0.041 C 
ATOM      5  O   UNL     1     -39.095  19.336 -27.720  1.00  0.00    -0.550 OA
ATOM      6  O   UNL     1     -41.362  19.433 -28.040  1.00  0.00    -0.550 OA
ENDBRANCH   3   4
ENDBRANCH   2   3
ENDBRANCH   1   2
BRANCH   1   7
ATOM      7  C   UNL     1     -37.584  19.474 -31.203  1.00  0.00     0.000 C 
BRANCH   7   8
ATOM      8  C   UNL     1     -38.457  18.240 -30.920  1.00  0.00    -0.000 C 
BRANCH   8   9
ATOM      9  C   UNL     1     -37.700  17.133 -30.161  1.00  0.00    -0.000 C 
BRANCH   9  10
ATOM     10  C   UNL     1     -36.237  17.466 -29.816  1.00  0.00    -0.003 C 
ATOM     11  C   UNL     1     -36.070  18.042 -28.411  1.00  0.00     0.004 C 
ENDBRANCH   9  10
ENDBRANCH   8   9
ENDBRANCH   7   8
ENDBRANCH   1   7
TORSDOF 7
ENDMDL
MODEL 8
REMARK VINA RESULT:    -3.726      3.429      4.979
REMARK INTER + INTRA:          -5.981
REMARK INTER:                  -5.173
REMARK INTRA:                  -0.807
REMARK UNBOUND:                -0.730
REMARK SMILES CCCCCCCCC(=O)[O-]
REMARK SMILES IDX 6 1 7 2 8 3 9 4 10 5 11 6 5 7 4 8 3 9 2 10 1 11
REMARK H PARENT
REMARK Flexibility Score: inf
ROOT
ATOM      1  C   UNL     1     -38.371  19.030 -27.858  1.00  0.00     0.000 C 
ENDROOT
BRANCH   1   2
ATOM      2  C   UNL     1     -37.043  18.383 -28.281  1.00  0.00     0.006 C 
BRANCH   2   3
ATOM      3  C   UNL     1     -37.249  17.429 -29.460  1.00  0.00     0.053 C 
BRANCH   3   4
ATOM      4  C   UNL     1     -35.932  16.988 -30.015  1.00  0.00     0.041 C 
ATOM      5  O   UNL     1     -35.766  15.794 -30.381  1.00  0.00    -0.550 OA
ATOM      6  O   UNL     1     -34.902  17.906 -30.174  1.00  0.00    -0.550 OA
ENDBRANCH   3   4
ENDBRANCH   2   3
ENDBRANCH   1   2
BRANCH   1   7
ATOM      7  C   UNL     1     -39.267  19.382 -29.056  1.00  0.00     0.000 C 
BRANCH   7   8
ATOM      8  C   UNL     1     -39.024  20.808 -29.576  1.00  0.00    -0.000 C 
BRANCH   8   9
ATOM      9  C   UNL     1     -38.594  20.842 -31.055  1.00  0.00    -0.000 C 
BRANCH   9  10
ATOM     10  C   UNL     1     -37.083  20.673 -31.295  1.00  0.00    -0.003 C 
ATOM     11  C   UNL     1     -36.228  21.519 -30.352  1.00  0.00     0.004 C 
ENDBRANCH   9  10
ENDBRANCH   8   9
ENDBRANCH   7   8
ENDBRANCH   1   7
TORSDOF 7
ENDMDL
MODEL 9
REMARK VINA RESULT:    -3.713      3.472      4.781
REMARK INTER + INTRA:          -5.962
REMARK INTER:                  -5.244
REMARK INTRA:                  -0.718
REMARK UNBOUND:                -0.730
REMARK SMILES CCCCCCCCC(=O)[O-]
REMARK SMILES IDX 6 1 7 2 8 3 9 4 10 5 11 6 5 7 4 8 3 9 2 10 1 11
REMARK H PARENT
REMARK Flexibility Score: inf
ROOT
ATOM      1  C   UNL     1     -37.989  19.397 -31.097  1.00  0.00     0.000 C 
ENDROOT
BRANCH   1   2
ATOM      2  C   UNL     1     -38.301  18.580 -29.834  1.00  0.00     0.006 C 
BRANCH   2   3
ATOM      3  C   UNL     1     -37.012  18.132 -29.140  1.00  0.00     0.053 C 
BRANCH   3   4
ATOM      4  C   UNL     1     -36.562  16.808 -29.672  1.00  0.00     0.041 C 
ATOM      5  O   UNL     1     -35.489  16.718 -30.326  1.00  0.00    -0.550 OA
ATOM      6  O   UNL     1     -37.302  15.663 -29.404  1.00  0.00    -0.550 OA
ENDBRANCH   3   4
ENDBRANCH   2   3
ENDBRANCH   1   2
BRANCH   1   7
ATOM      7  C   UNL     1     -38.456  20.857 -30.990  1.00  0.00     0.000 C 
BRANCH   7   8
ATOM      8  C   UNL     1     -39.114  21.168 -29.635  1.00  0.00    -0.000 C 
BRANCH   8   9
ATOM      9  C   UNL     1     -38.348  22.233 -28.828  1.00  0.00    -0.000 C 
BRANCH   9  10
ATOM     10  C   UNL     1     -36.865  22.394 -29.207  1.00  0.00    -0.003 C 
ATOM     11  C   UNL     1     -35.921  21.649 -28.263  1.00  0.00     0.004 C 
ENDBRANCH   9  10
ENDBRANCH   8   9
ENDBRANCH   7   8
ENDBRANCH   1   7
TORSDOF 7
ENDMDL
