MODEL 1
REMARK VINA RESULT:    -3.136      0.000      0.000
REMARK INTER + INTRA:          -4.134
REMARK INTER:                  -4.052
REMARK INTRA:                  -0.082
REMARK UNBOUND:                -0.082
REMARK SMILES CCCCCCC(=O)[O-]
REMARK SMILES IDX 5 1 6 2 7 3 8 4 9 5 4 6 3 7 2 8 1 9
REMARK H PARENT
REMARK Flexibility Score: inf
ROOT
ATOM      1  C   UNL     1       7.953   1.656  45.204  1.00  0.00     0.006 C 
ENDROOT
BRANCH   1   2
ATOM      2  C   UNL     1       6.712   1.054  44.536  1.00  0.00     0.053 C 
BRANCH   2   3
ATOM      3  C   UNL     1       5.780   2.136  44.089  1.00  0.00     0.041 C 
ATOM      4  O   UNL     1       6.212   3.303  43.895  1.00  0.00    -0.550 OA
ATOM      5  O   UNL     1       4.446   1.844  43.839  1.00  0.00    -0.550 OA
ENDBRANCH   2   3
ENDBRANCH   1   2
BRANCH   1   6
ATOM      6  C   UNL     1       8.765   0.573  45.930  1.00  0.00     0.000 C 
BRANCH   6   7
ATOM      7  C   UNL     1       9.931   0.039  45.083  1.00  0.00    -0.000 C 
BRANCH   7   8
ATOM      8  C   UNL     1      11.262   0.026  45.850  1.00  0.00    -0.003 C 
ATOM      9  C   UNL     1      12.396  -0.493  44.972  1.00  0.00     0.004 C 
ENDBRANCH   7   8
ENDBRANCH   6   7
ENDBRANCH   1   6
TORSDOF 5
ENDMDL
MODEL 2
REMARK VINA RESULT:    -3.070      9.891     11.449
REMARK INTER + INTRA:          -4.050
REMARK INTER:                  -3.828
REMARK INTRA:                  -0.222
REMARK UNBOUND:                -0.082
REMARK SMILES CCCCCCC(=O)[O-]
REMARK SMILES IDX 5 1 6 2 7 3 8 4 9 5 4 6 3 7 2 8 1 9
REMARK H PARENT
REMARK Flexibility Score: inf
ROOT
ATOM      1  C   UNL     1      16.227   0.896  36.750  1.00  0.00     0.006 C 
ENDROOT
BRANCH   1   2
ATOM      2  C   UNL     1      15.571   0.779  38.130  1.00  0.00     0.053 C 
BRANCH   2   3
ATOM      3  C   UNL     1      14.285   1.543  38.166  1.00  0.00     0.041 C 
ATOM      4  O   UNL     1      14.297   2.803  38.159  1.00  0.00    -0.550 OA
ATOM      5  O   UNL     1      13.073   0.866  38.157  1.00  0.00    -0.550 OA
ENDBRANCH   2   3
ENDBRANCH   1   2
BRANCH   1   6
ATOM      6  C   UNL     1      15.877  -0.314  35.872  1.00  0.00     0.000 C 
BRANCH   6   7
ATOM      7  C   UNL     1      14.775  -0.003  34.846  1.00  0.00    -0.000 C 
BRANCH   7   8
ATOM      8  C   UNL     1      15.210  -0.297  33.403  1.00  0.00    -0.003 C 
ATOM      9  C   UNL     1      16.707  -0.581  33.328  1.00  0.00     0.004 C 
ENDBRANCH   7   8
ENDBRANCH   6   7
ENDBRANCH   1   6
TORSDOF 5
ENDMDL
MODEL 3
REMARK VINA RESULT:    -3.049     10.188     11.588
REMARK INTER + INTRA:          -4.022
REMARK INTER:                  -3.837
REMARK INTRA:                  -0.185
REMARK UNBOUND:                -0.082
REMARK SMILES CCCCCCC(=O)[O-]
REMARK SMILES IDX 5 1 6 2 7 3 8 4 9 5 4 6 3 7 2 8 1 9
REMARK H PARENT
REMARK Flexibility Score: inf
ROOT
ATOM      1  C   UNL     1      15.255   0.949  36.215  1.00  0.00     0.006 C 
ENDROOT
BRANCH   1   2
ATOM      2  C   UNL     1      15.670  -0.376  35.567  1.00  0.00     0.053 C 
BRANCH   2   3
ATOM      3  C   UNL     1      15.309  -0.385  34.115  1.00  0.00     0.041 C 
ATOM      4  O   UNL     1      16.179  -0.669  33.249  1.00  0.00    -0.550 OA
ATOM      5  O   UNL     1      14.002  -0.131  33.722  1.00  0.00    -0.550 OA
ENDBRANCH   2   3
ENDBRANCH   1   2
BRANCH   1   6
ATOM      6  C   UNL     1      14.479   0.704  37.518  1.00  0.00     0.000 C 
BRANCH   6   7
ATOM      7  C   UNL     1      14.017   2.009  38.186  1.00  0.00    -0.000 C 
BRANCH   7   8
ATOM      8  C   UNL     1      15.170   2.773  38.853  1.00  0.00    -0.003 C 
ATOM      9  C   UNL     1      15.967   1.862  39.783  1.00  0.00     0.004 C 
ENDBRANCH   7   8
ENDBRANCH   6   7
ENDBRANCH   1   6
TORSDOF 5
ENDMDL
MODEL 4
REMARK VINA RESULT:    -3.027     10.289     11.784
REMARK INTER + INTRA:          -3.993
REMARK INTER:                  -3.767
REMARK INTRA:                  -0.226
REMARK UNBOUND:                -0.082
REMARK SMILES CCCCCCC(=O)[O-]
REMARK SMILES IDX 5 1 6 2 7 3 8 4 9 5 4 6 3 7 2 8 1 9
REMARK H PARENT
REMARK Flexibility Score: inf
ROOT
ATOM      1  C   UNL     1      15.587   0.925  35.958  1.00  0.00     0.006 C 
ENDROOT
BRANCH   1   2
ATOM      2  C   UNL     1      15.470   0.677  37.465  1.00  0.00     0.053 C 
BRANCH   2   3
ATOM      3  C   UNL     1      14.205   1.273  37.998  1.00  0.00     0.041 C 
ATOM      4  O   UNL     1      13.264   0.526  38.377  1.00  0.00    -0.550 OA
ATOM      5  O   UNL     1      14.085   2.651  38.123  1.00  0.00    -0.550 OA
ENDBRANCH   2   3
ENDBRANCH   1   2
BRANCH   1   6
ATOM      6  C   UNL     1      14.697  -0.048  35.170  1.00  0.00     0.000 C 
BRANCH   6   7
ATOM      7  C   UNL     1      15.007  -0.047  33.665  1.00  0.00    -0.000 C 
BRANCH   7   8
ATOM      8  C   UNL     1      16.459   0.352  33.360  1.00  0.00    -0.003 C 
ATOM      9  C   UNL     1      17.327  -0.879  33.116  1.00  0.00     0.004 C 
ENDBRANCH   7   8
ENDBRANCH   6   7
ENDBRANCH   1   6
TORSDOF 5
ENDMDL
MODEL 5
REMARK VINA RESULT:    -3.002      1.113      1.526
REMARK INTER + INTRA:          -3.962
REMARK INTER:                  -3.760
REMARK INTRA:                  -0.202
REMARK UNBOUND:                -0.082
REMARK SMILES CCCCCCC(=O)[O-]
REMARK SMILES IDX 5 1 6 2 7 3 8 4 9 5 4 6 3 7 2 8 1 9
REMARK H PARENT
REMARK Flexibility Score: inf
ROOT
ATOM      1  C   UNL     1       7.784   1.081  44.608  1.00  0.00     0.006 C 
ENDROOT
BRANCH   1   2
ATOM      2  C   UNL     1       6.281   0.898  44.841  1.00  0.00     0.053 C 
BRANCH   2   3
ATOM      3  C   UNL     1       5.508   1.984  44.161  1.00  0.00     0.041 C 
ATOM      4  O   UNL     1       6.089   3.040  43.795  1.00  0.00    -0.550 OA
ATOM      5  O   UNL     1       4.158   1.809  43.886  1.00  0.00    -0.550 OA
ENDBRANCH   2   3
ENDBRANCH   1   2
BRANCH   1   6
ATOM      6  C   UNL     1       8.589   0.623  45.833  1.00  0.00     0.000 C 
BRANCH   6   7
ATOM      7  C   UNL     1       9.965   0.051  45.457  1.00  0.00    -0.000 C 
BRANCH   7   8
ATOM      8  C   UNL     1      10.259  -1.288  46.150  1.00  0.00    -0.003 C 
ATOM      9  C   UNL     1       8.978  -1.920  46.688  1.00  0.00     0.004 C 
ENDBRANCH   7   8
ENDBRANCH   6   7
ENDBRANCH   1   6
TORSDOF 5
ENDMDL
MODEL 6
REMARK VINA RESULT:    -2.920     10.437     11.888
REMARK INTER + INTRA:          -3.856
REMARK INTER:                  -3.524
REMARK INTRA:                  -0.332
REMARK UNBOUND:                -0.082
REMARK SMILES CCCCCCC(=O)[O-]
REMARK SMILES IDX 5 1 6 2 7 3 8 4 9 5 4 6 3 7 2 8 1 9
REMARK H PARENT
REMARK Flexibility Score: inf
ROOT
ATOM      1  C   UNL     1      16.437   1.750  35.846  1.00  0.00     0.006 C 
ENDROOT
BRANCH   1   2
ATOM      2  C   UNL     1      15.977   1.358  34.438  1.00  0.00     0.053 C 
BRANCH   2   3
ATOM      3  C   UNL     1      15.190   0.086  34.479  1.00  0.00     0.041 C 
ATOM      4  O   UNL     1      14.434  -0.222  33.519  1.00  0.00    -0.550 OA
ATOM      5  O   UNL     1      15.329  -0.784  35.553  1.00  0.00    -0.550 OA
ENDBRANCH   2   3
ENDBRANCH   1   2
BRANCH   1   6
ATOM      6  C   UNL     1      15.667   2.979  36.353  1.00  0.00     0.000 C 
BRANCH   6   7
ATOM      7  C   UNL     1      15.158   2.806  37.793  1.00  0.00    -0.000 C 
BRANCH   7   8
ATOM      8  C   UNL     1      15.047   1.331  38.208  1.00  0.00    -0.003 C 
ATOM      9  C   UNL     1      13.601   0.849  38.141  1.00  0.00     0.004 C 
ENDBRANCH   7   8
ENDBRANCH   6   7
ENDBRANCH   1   6
TORSDOF 5
ENDMDL
MODEL 7
REMARK VINA RESULT:    -2.874      3.547      5.592
REMARK INTER + INTRA:          -3.796
REMARK INTER:                  -3.663
REMARK INTRA:                  -0.134
REMARK UNBOUND:                -0.082
REMARK SMILES CCCCCCC(=O)[O-]
REMARK SMILES IDX 5 1 6 2 7 3 8 4 9 5 4 6 3 7 2 8 1 9
REMARK H PARENT
REMARK Flexibility Score: inf
ROOT
ATOM      1  C   UNL     1       8.543   0.240  45.829  1.00  0.00     0.006 C 
ENDROOT
BRANCH   1   2
ATOM      2  C   UNL     1      10.037   0.086  45.523  1.00  0.00     0.053 C 
BRANCH   2   3
ATOM      3  C   UNL     1      10.556  -1.202  46.078  1.00  0.00     0.041 C 
ATOM      4  O   UNL     1       9.767  -2.159  46.302  1.00  0.00    -0.550 OA
ATOM      5  O   UNL     1      11.918  -1.365  46.300  1.00  0.00    -0.550 OA
ENDBRANCH   2   3
ENDBRANCH   1   2
BRANCH   1   6
ATOM      6  C   UNL     1       7.867   1.170  44.810  1.00  0.00     0.000 C 
BRANCH   6   7
ATOM      7  C   UNL     1       6.380   0.840  44.604  1.00  0.00    -0.000 C 
BRANCH   7   8
ATOM      8  C   UNL     1       5.586   2.024  44.030  1.00  0.00    -0.003 C 
ATOM      9  C   UNL     1       6.339   3.336  44.226  1.00  0.00     0.004 C 
ENDBRANCH   7   8
ENDBRANCH   6   7
ENDBRANCH   1   6
TORSDOF 5
ENDMDL
MODEL 8
REMARK VINA RESULT:    -2.783      9.644     10.212
REMARK INTER + INTRA:          -3.678
REMARK INTER:                  -3.485
REMARK INTRA:                  -0.193
REMARK UNBOUND:                -0.082
REMARK SMILES CCCCCCC(=O)[O-]
REMARK SMILES IDX 5 1 6 2 7 3 8 4 9 5 4 6 3 7 2 8 1 9
REMARK H PARENT
REMARK Flexibility Score: inf
ROOT
ATOM      1  C   UNL     1      14.340   2.471  38.127  1.00  0.00     0.006 C 
ENDROOT
BRANCH   1   2
ATOM      2  C   UNL     1      14.584   0.990  37.819  1.00  0.00     0.053 C 
BRANCH   2   3
ATOM      3  C   UNL     1      15.095   0.822  36.423  1.00  0.00     0.041 C 
ATOM      4  O   UNL     1      15.575   1.807  35.801  1.00  0.00    -0.550 OA
ATOM      5  O   UNL     1      15.089  -0.433  35.826  1.00  0.00    -0.550 OA
ENDBRANCH   2   3
ENDBRANCH   1   2
BRANCH   1   6
ATOM      6  C   UNL     1      15.361   2.993  39.149  1.00  0.00     0.000 C 
BRANCH   6   7
ATOM      7  C   UNL     1      16.058   1.861  39.921  1.00  0.00    -0.000 C 
BRANCH   7   8
ATOM      8  C   UNL     1      16.996   2.385  41.019  1.00  0.00    -0.003 C 
ATOM      9  C   UNL     1      16.636   1.789  42.377  1.00  0.00     0.004 C 
ENDBRANCH   7   8
ENDBRANCH   6   7
ENDBRANCH   1   6
TORSDOF 5
ENDMDL
MODEL 9
REMARK VINA RESULT:    -2.741     10.836     11.904
REMARK INTER + INTRA:          -3.625
REMARK INTER:                  -3.328
REMARK INTRA:                  -0.297
REMARK UNBOUND:                -0.082
REMARK SMILES CCCCCCC(=O)[O-]
REMARK SMILES IDX 5 1 6 2 7 3 8 4 9 5 4 6 3 7 2 8 1 9
REMARK H PARENT
REMARK Flexibility Score: inf
ROOT
ATOM      1  C   UNL     1       6.725  12.658  41.035  1.00  0.00     0.006 C 
ENDROOT
BRANCH   1   2
ATOM      2  C   UNL     1       6.106  12.045  42.295  1.00  0.00     0.053 C 
BRANCH   2   3
ATOM      3  C   UNL     1       4.771  12.660  42.577  1.00  0.00     0.041 C 
ATOM      4  O   UNL     1       4.474  13.018  43.748  1.00  0.00    -0.550 OA
ATOM      5  O   UNL     1       3.875  12.883  41.540  1.00  0.00    -0.550 OA
ENDBRANCH   2   3
ENDBRANCH   1   2
BRANCH   1   6
ATOM      6  C   UNL     1       7.046  11.572  39.997  1.00  0.00     0.000 C 
BRANCH   6   7
ATOM      7  C   UNL     1       5.791  11.042  39.287  1.00  0.00    -0.000 C 
BRANCH   7   8
ATOM      8  C   UNL     1       5.739   9.508  39.244  1.00  0.00    -0.003 C 
ATOM      9  C   UNL     1       4.559   8.975  40.051  1.00  0.00     0.004 C 
ENDBRANCH   7   8
ENDBRANCH   6   7
ENDBRANCH   1   6
TORSDOF 5
ENDMDL
