MODEL 1
REMARK VINA RESULT:    -4.735      0.000      0.000
REMARK INTER + INTRA:          -6.729
REMARK INTER:                  -6.396
REMARK INTRA:                  -0.332
REMARK UNBOUND:                -0.332
REMARK SMILES O=C[C@H](O)[C@@H](O)[C@@H](O)CO
REMARK SMILES IDX 7 1 9 2 10 3 5 5 3 6 2 7 1 8 4 9 6 11 8 13
REMARK H PARENT 10 4 4 10 6 12 8 14
REMARK Flexibility Score: inf
ROOT
ATOM      1  C   UNL     1      22.758  -7.782   4.479  1.00  0.00     0.171 C 
ENDROOT
BRANCH   1   2
ATOM      2  C   UNL     1      22.991  -7.309   5.929  1.00  0.00     0.190 C 
BRANCH   2   3
ATOM      3  O   UNL     1      22.204  -6.182   6.211  1.00  0.00    -0.394 OA
ATOM      4  H   UNL     1      22.458  -5.486   5.550  1.00  0.00     0.210 HD
ENDBRANCH   2   3
ENDBRANCH   1   2
BRANCH   1   5
ATOM      5  C   UNL     1      23.622  -7.008   3.446  1.00  0.00     0.181 C 
BRANCH   5   6
ATOM      6  C   UNL     1      23.004  -6.955   2.025  1.00  0.00     0.209 C 
BRANCH   6   7
ATOM      7  C   UNL     1      23.982  -7.366   0.954  1.00  0.00     0.258 C 
ATOM      8  O   UNL     1      24.742  -8.305   1.130  1.00  0.00    -0.300 OA
ENDBRANCH   6   7
BRANCH   6   9
ATOM      9  O   UNL     1      22.504  -5.669   1.749  1.00  0.00    -0.383 OA
ATOM     10  H   UNL     1      21.519  -5.741   1.645  1.00  0.00     0.211 HD
ENDBRANCH   6   9
ENDBRANCH   5   6
BRANCH   5  11
ATOM     11  O   UNL     1      23.850  -5.693   3.891  1.00  0.00    -0.387 OA
ATOM     12  H   UNL     1      23.274  -5.096   3.346  1.00  0.00     0.211 HD
ENDBRANCH   5  11
ENDBRANCH   1   5
BRANCH   1  13
ATOM     13  O   UNL     1      23.062  -9.150   4.378  1.00  0.00    -0.388 OA
ATOM     14  H   UNL     1      22.451  -9.633   4.995  1.00  0.00     0.211 HD
ENDBRANCH   1  13
TORSDOF 8
ENDMDL
MODEL 2
REMARK VINA RESULT:    -4.617      1.280      2.002
REMARK INTER + INTRA:          -6.569
REMARK INTER:                  -6.101
REMARK INTRA:                  -0.468
REMARK UNBOUND:                -0.332
REMARK SMILES O=C[C@H](O)[C@@H](O)[C@@H](O)CO
REMARK SMILES IDX 7 1 9 2 10 3 5 5 3 6 2 7 1 8 4 9 6 11 8 13
REMARK H PARENT 10 4 4 10 6 12 8 14
REMARK Flexibility Score: inf
ROOT
ATOM      1  C   UNL     1      23.508  -7.211   4.475  1.00  0.00     0.171 C 
ENDROOT
BRANCH   1   2
ATOM      2  C   UNL     1      22.693  -7.423   5.767  1.00  0.00     0.190 C 
BRANCH   2   3
ATOM      3  O   UNL     1      22.161  -6.205   6.218  1.00  0.00    -0.394 OA
ATOM      4  H   UNL     1      21.594  -5.853   5.483  1.00  0.00     0.210 HD
ENDBRANCH   2   3
ENDBRANCH   1   2
BRANCH   1   5
ATOM      5  C   UNL     1      22.761  -7.698   3.204  1.00  0.00     0.181 C 
BRANCH   5   6
ATOM      6  C   UNL     1      23.646  -7.739   1.932  1.00  0.00     0.209 C 
BRANCH   6   7
ATOM      7  C   UNL     1      24.613  -8.896   1.938  1.00  0.00     0.258 C 
ATOM      8  O   UNL     1      24.215 -10.042   1.804  1.00  0.00    -0.300 OA
ENDBRANCH   6   7
BRANCH   6   9
ATOM      9  O   UNL     1      24.348  -6.530   1.777  1.00  0.00    -0.383 OA
ATOM     10  H   UNL     1      24.564  -6.185   2.682  1.00  0.00     0.211 HD
ENDBRANCH   6   9
ENDBRANCH   5   6
BRANCH   5  11
ATOM     11  O   UNL     1      22.217  -8.977   3.420  1.00  0.00    -0.387 OA
ATOM     12  H   UNL     1      22.654  -9.592   2.775  1.00  0.00     0.211 HD
ENDBRANCH   5  11
ENDBRANCH   1   5
BRANCH   1  13
ATOM     13  O   UNL     1      23.801  -5.845   4.325  1.00  0.00    -0.388 OA
ATOM     14  H   UNL     1      23.512  -5.389   5.159  1.00  0.00     0.211 HD
ENDBRANCH   1  13
TORSDOF 8
ENDMDL
MODEL 3
REMARK VINA RESULT:    -4.524      1.600      3.796
REMARK INTER + INTRA:          -6.443
REMARK INTER:                  -5.782
REMARK INTRA:                  -0.661
REMARK UNBOUND:                -0.332
REMARK SMILES O=C[C@H](O)[C@@H](O)[C@@H](O)CO
REMARK SMILES IDX 7 1 9 2 10 3 5 5 3 6 2 7 1 8 4 9 6 11 8 13
REMARK H PARENT 10 4 4 10 6 12 8 14
REMARK Flexibility Score: inf
ROOT
ATOM      1  C   UNL     1      23.137  -7.904   2.719  1.00  0.00     0.171 C 
ENDROOT
BRANCH   1   2
ATOM      2  C   UNL     1      23.559  -6.665   1.902  1.00  0.00     0.190 C 
BRANCH   2   3
ATOM      3  O   UNL     1      22.510  -5.734   1.844  1.00  0.00    -0.394 OA
ATOM      4  H   UNL     1      22.036  -5.785   2.715  1.00  0.00     0.210 HD
ENDBRANCH   2   3
ENDBRANCH   1   2
BRANCH   1   5
ATOM      5  C   UNL     1      22.817  -7.569   4.201  1.00  0.00     0.181 C 
BRANCH   5   6
ATOM      6  C   UNL     1      22.899  -8.790   5.152  1.00  0.00     0.209 C 
BRANCH   6   7
ATOM      7  C   UNL     1      24.292  -9.016   5.684  1.00  0.00     0.258 C 
ATOM      8  O   UNL     1      24.692  -8.409   6.665  1.00  0.00    -0.300 OA
ENDBRANCH   6   7
BRANCH   6   9
ATOM      9  O   UNL     1      22.438  -9.952   4.509  1.00  0.00    -0.383 OA
ATOM     10  H   UNL     1      23.201 -10.585   4.439  1.00  0.00     0.211 HD
ENDBRANCH   6   9
ENDBRANCH   5   6
BRANCH   5  11
ATOM     11  O   UNL     1      23.685  -6.567   4.672  1.00  0.00    -0.387 OA
ATOM     12  H   UNL     1      24.397  -7.021   5.194  1.00  0.00     0.211 HD
ENDBRANCH   5  11
ENDBRANCH   1   5
BRANCH   1  13
ATOM     13  O   UNL     1      21.996  -8.482   2.136  1.00  0.00    -0.388 OA
ATOM     14  H   UNL     1      21.850  -9.358   2.582  1.00  0.00     0.211 HD
ENDBRANCH   1  13
TORSDOF 8
ENDMDL
MODEL 4
REMARK VINA RESULT:    -4.518      1.332      2.134
REMARK INTER + INTRA:          -6.435
REMARK INTER:                  -5.823
REMARK INTRA:                  -0.612
REMARK UNBOUND:                -0.332
REMARK SMILES O=C[C@H](O)[C@@H](O)[C@@H](O)CO
REMARK SMILES IDX 7 1 9 2 10 3 5 5 3 6 2 7 1 8 4 9 6 11 8 13
REMARK H PARENT 10 4 4 10 6 12 8 14
REMARK Flexibility Score: inf
ROOT
ATOM      1  C   UNL     1      23.519  -7.067   5.238  1.00  0.00     0.171 C 
ENDROOT
BRANCH   1   2
ATOM      2  C   UNL     1      23.899  -8.168   6.249  1.00  0.00     0.190 C 
BRANCH   2   3
ATOM      3  O   UNL     1      25.280  -8.416   6.210  1.00  0.00    -0.394 OA
ATOM      4  H   UNL     1      25.444  -9.199   6.798  1.00  0.00     0.210 HD
ENDBRANCH   2   3
ENDBRANCH   1   2
BRANCH   1   5
ATOM      5  C   UNL     1      23.164  -7.632   3.835  1.00  0.00     0.181 C 
BRANCH   5   6
ATOM      6  C   UNL     1      23.298  -6.598   2.689  1.00  0.00     0.209 C 
BRANCH   6   7
ATOM      7  C   UNL     1      23.837  -7.208   1.420  1.00  0.00     0.258 C 
ATOM      8  O   UNL     1      23.286  -8.169   0.907  1.00  0.00    -0.300 OA
ENDBRANCH   6   7
BRANCH   6   9
ATOM      9  O   UNL     1      24.111  -5.520   3.085  1.00  0.00    -0.383 OA
ATOM     10  H   UNL     1      24.940  -5.895   3.484  1.00  0.00     0.211 HD
ENDBRANCH   6   9
ENDBRANCH   5   6
BRANCH   5  11
ATOM     11  O   UNL     1      23.973  -8.744   3.540  1.00  0.00    -0.387 OA
ATOM     12  H   UNL     1      24.445  -8.992   4.378  1.00  0.00     0.211 HD
ENDBRANCH   5  11
ENDBRANCH   1   5
BRANCH   1  13
ATOM     13  O   UNL     1      22.413  -6.348   5.722  1.00  0.00    -0.388 OA
ATOM     14  H   UNL     1      22.729  -5.803   6.490  1.00  0.00     0.211 HD
ENDBRANCH   1  13
TORSDOF 8
ENDMDL
MODEL 5
REMARK VINA RESULT:    -4.296      2.107      4.069
REMARK INTER + INTRA:          -6.135
REMARK INTER:                  -5.837
REMARK INTRA:                  -0.298
REMARK UNBOUND:                -0.332
REMARK SMILES O=C[C@H](O)[C@@H](O)[C@@H](O)CO
REMARK SMILES IDX 7 1 9 2 10 3 5 5 3 6 2 7 1 8 4 9 6 11 8 13
REMARK H PARENT 10 4 4 10 6 12 8 14
REMARK Flexibility Score: inf
ROOT
ATOM      1  C   UNL     1      22.712  -7.358   5.061  1.00  0.00     0.171 C 
ENDROOT
BRANCH   1   2
ATOM      2  C   UNL     1      23.427  -6.809   3.809  1.00  0.00     0.190 C 
BRANCH   2   3
ATOM      3  O   UNL     1      24.043  -5.581   4.094  1.00  0.00    -0.394 OA
ATOM      4  H   UNL     1      24.643  -5.737   4.870  1.00  0.00     0.210 HD
ENDBRANCH   2   3
ENDBRANCH   1   2
BRANCH   1   5
ATOM      5  C   UNL     1      23.591  -8.350   5.870  1.00  0.00     0.181 C 
BRANCH   5   6
ATOM      6  C   UNL     1      23.784  -9.725   5.182  1.00  0.00     0.209 C 
BRANCH   6   7
ATOM      7  C   UNL     1      22.495 -10.278   4.626  1.00  0.00     0.258 C 
ATOM      8  O   UNL     1      21.769 -10.979   5.312  1.00  0.00    -0.300 OA
ENDBRANCH   6   7
BRANCH   6   9
ATOM      9  O   UNL     1      24.356 -10.651   6.073  1.00  0.00    -0.383 OA
ATOM     10  H   UNL     1      23.749 -10.737   6.854  1.00  0.00     0.211 HD
ENDBRANCH   6   9
ENDBRANCH   5   6
BRANCH   5  11
ATOM     11  O   UNL     1      24.855  -7.787   6.120  1.00  0.00    -0.387 OA
ATOM     12  H   UNL     1      25.129  -8.074   7.030  1.00  0.00     0.211 HD
ENDBRANCH   5  11
ENDBRANCH   1   5
BRANCH   1  13
ATOM     13  O   UNL     1      22.353  -6.291   5.901  1.00  0.00    -0.388 OA
ATOM     14  H   UNL     1      21.474  -6.518   6.306  1.00  0.00     0.211 HD
ENDBRANCH   1  13
TORSDOF 8
ENDMDL
MODEL 6
REMARK VINA RESULT:    -4.287      1.425      3.937
REMARK INTER + INTRA:          -6.123
REMARK INTER:                  -5.959
REMARK INTRA:                  -0.163
REMARK UNBOUND:                -0.332
REMARK SMILES O=C[C@H](O)[C@@H](O)[C@@H](O)CO
REMARK SMILES IDX 7 1 9 2 10 3 5 5 3 6 2 7 1 8 4 9 6 11 8 13
REMARK H PARENT 10 4 4 10 6 12 8 14
REMARK Flexibility Score: inf
ROOT
ATOM      1  C   UNL     1      23.318  -6.789   2.493  1.00  0.00     0.171 C 
ENDROOT
BRANCH   1   2
ATOM      2  C   UNL     1      24.037  -7.743   1.517  1.00  0.00     0.190 C 
BRANCH   2   3
ATOM      3  O   UNL     1      24.749  -7.014   0.552  1.00  0.00    -0.394 OA
ATOM      4  H   UNL     1      25.471  -6.533   1.035  1.00  0.00     0.210 HD
ENDBRANCH   2   3
ENDBRANCH   1   2
BRANCH   1   5
ATOM      5  C   UNL     1      23.015  -7.447   3.867  1.00  0.00     0.181 C 
BRANCH   5   6
ATOM      6  C   UNL     1      23.561  -8.891   4.005  1.00  0.00     0.209 C 
BRANCH   6   7
ATOM      7  C   UNL     1      22.468  -9.902   4.248  1.00  0.00     0.258 C 
ATOM      8  O   UNL     1      21.769 -10.297   3.329  1.00  0.00    -0.300 OA
ENDBRANCH   6   7
BRANCH   6   9
ATOM      9  O   UNL     1      24.517  -8.964   5.034  1.00  0.00    -0.383 OA
ATOM     10  H   UNL     1      24.194  -8.407   5.790  1.00  0.00     0.211 HD
ENDBRANCH   6   9
ENDBRANCH   5   6
BRANCH   5  11
ATOM     11  O   UNL     1      23.539  -6.662   4.908  1.00  0.00    -0.387 OA
ATOM     12  H   UNL     1      24.120  -5.973   4.491  1.00  0.00     0.211 HD
ENDBRANCH   5  11
ENDBRANCH   1   5
BRANCH   1  13
ATOM     13  O   UNL     1      24.115  -5.652   2.710  1.00  0.00    -0.388 OA
ATOM     14  H   UNL     1      23.826  -5.250   3.571  1.00  0.00     0.211 HD
ENDBRANCH   1  13
TORSDOF 8
ENDMDL
MODEL 7
REMARK VINA RESULT:    -4.180      1.383      3.754
REMARK INTER + INTRA:          -5.979
REMARK INTER:                  -5.783
REMARK INTRA:                  -0.195
REMARK UNBOUND:                -0.332
REMARK SMILES O=C[C@H](O)[C@@H](O)[C@@H](O)CO
REMARK SMILES IDX 7 1 9 2 10 3 5 5 3 6 2 7 1 8 4 9 6 11 8 13
REMARK H PARENT 10 4 4 10 6 12 8 14
REMARK Flexibility Score: inf
ROOT
ATOM      1  C   UNL     1      23.461  -8.054   1.582  1.00  0.00     0.171 C 
ENDROOT
BRANCH   1   2
ATOM      2  C   UNL     1      22.669  -9.364   1.389  1.00  0.00     0.190 C 
BRANCH   2   3
ATOM      3  O   UNL     1      21.345  -9.208   1.829  1.00  0.00    -0.394 OA
ATOM      4  H   UNL     1      20.845 -10.005   1.513  1.00  0.00     0.210 HD
ENDBRANCH   2   3
ENDBRANCH   1   2
BRANCH   1   5
ATOM      5  C   UNL     1      22.804  -7.098   2.615  1.00  0.00     0.181 C 
BRANCH   5   6
ATOM      6  C   UNL     1      23.567  -7.009   3.961  1.00  0.00     0.209 C 
BRANCH   6   7
ATOM      7  C   UNL     1      22.759  -7.537   5.119  1.00  0.00     0.258 C 
ATOM      8  O   UNL     1      22.311  -6.778   5.965  1.00  0.00    -0.300 OA
ENDBRANCH   6   7
BRANCH   6   9
ATOM      9  O   UNL     1      23.964  -5.684   4.219  1.00  0.00    -0.383 OA
ATOM     10  H   UNL     1      24.873  -5.559   3.840  1.00  0.00     0.211 HD
ENDBRANCH   6   9
ENDBRANCH   5   6
BRANCH   5  11
ATOM     11  O   UNL     1      22.684  -5.806   2.073  1.00  0.00    -0.387 OA
ATOM     12  H   UNL     1      22.918  -5.165   2.795  1.00  0.00     0.211 HD
ENDBRANCH   5  11
ENDBRANCH   1   5
BRANCH   1  13
ATOM     13  O   UNL     1      24.763  -8.354   2.017  1.00  0.00    -0.388 OA
ATOM     14  H   UNL     1      25.306  -7.530   1.909  1.00  0.00     0.211 HD
ENDBRANCH   1  13
TORSDOF 8
ENDMDL
MODEL 8
REMARK VINA RESULT:    -4.113      1.294      4.142
REMARK INTER + INTRA:          -5.888
REMARK INTER:                  -5.198
REMARK INTRA:                  -0.690
REMARK UNBOUND:                -0.332
REMARK SMILES O=C[C@H](O)[C@@H](O)[C@@H](O)CO
REMARK SMILES IDX 7 1 9 2 10 3 5 5 3 6 2 7 1 8 4 9 6 11 8 13
REMARK H PARENT 10 4 4 10 6 12 8 14
REMARK Flexibility Score: inf
ROOT
ATOM      1  C   UNL     1      23.908  -8.609   2.187  1.00  0.00     0.171 C 
ENDROOT
BRANCH   1   2
ATOM      2  C   UNL     1      23.748  -7.920   0.816  1.00  0.00     0.190 C 
BRANCH   2   3
ATOM      3  O   UNL     1      24.715  -6.916   0.654  1.00  0.00    -0.394 OA
ATOM      4  H   UNL     1      24.395  -6.128   1.166  1.00  0.00     0.210 HD
ENDBRANCH   2   3
ENDBRANCH   1   2
BRANCH   1   5
ATOM      5  C   UNL     1      23.188  -7.846   3.333  1.00  0.00     0.181 C 
BRANCH   5   6
ATOM      6  C   UNL     1      23.313  -8.530   4.718  1.00  0.00     0.209 C 
BRANCH   6   7
ATOM      7  C   UNL     1      23.143  -7.559   5.860  1.00  0.00     0.258 C 
ATOM      8  O   UNL     1      22.231  -6.748   5.858  1.00  0.00    -0.300 OA
ENDBRANCH   6   7
BRANCH   6   9
ATOM      9  O   UNL     1      24.548  -9.194   4.834  1.00  0.00    -0.383 OA
ATOM     10  H   UNL     1      24.918  -8.993   5.733  1.00  0.00     0.211 HD
ENDBRANCH   6   9
ENDBRANCH   5   6
BRANCH   5  11
ATOM     11  O   UNL     1      23.682  -6.533   3.429  1.00  0.00    -0.387 OA
ATOM     12  H   UNL     1      23.461  -6.204   4.339  1.00  0.00     0.211 HD
ENDBRANCH   5  11
ENDBRANCH   1   5
BRANCH   1  13
ATOM     13  O   UNL     1      23.385  -9.911   2.121  1.00  0.00    -0.388 OA
ATOM     14  H   UNL     1      24.130 -10.514   1.860  1.00  0.00     0.211 HD
ENDBRANCH   1  13
TORSDOF 8
ENDMDL
MODEL 9
REMARK VINA RESULT:    -4.015      1.338      3.759
REMARK INTER + INTRA:          -5.755
REMARK INTER:                  -5.423
REMARK INTRA:                  -0.332
REMARK UNBOUND:                -0.332
REMARK SMILES O=C[C@H](O)[C@@H](O)[C@@H](O)CO
REMARK SMILES IDX 7 1 9 2 10 3 5 5 3 6 2 7 1 8 4 9 6 11 8 13
REMARK H PARENT 10 4 4 10 6 12 8 14
REMARK Flexibility Score: inf
ROOT
ATOM      1  C   UNL     1      23.126  -8.274   2.341  1.00  0.00     0.171 C 
ENDROOT
BRANCH   1   2
ATOM      2  C   UNL     1      24.046  -8.067   1.120  1.00  0.00     0.190 C 
BRANCH   2   3
ATOM      3  O   UNL     1      25.371  -8.401   1.439  1.00  0.00    -0.394 OA
ATOM      4  H   UNL     1      25.553  -9.279   1.012  1.00  0.00     0.210 HD
ENDBRANCH   2   3
ENDBRANCH   1   2
BRANCH   1   5
ATOM      5  C   UNL     1      23.056  -7.025   3.261  1.00  0.00     0.181 C 
BRANCH   5   6
ATOM      6  C   UNL     1      23.303  -7.335   4.760  1.00  0.00     0.209 C 
BRANCH   6   7
ATOM      7  C   UNL     1      23.192  -8.807   5.072  1.00  0.00     0.258 C 
ATOM      8  O   UNL     1      24.127  -9.410   5.575  1.00  0.00    -0.300 OA
ENDBRANCH   6   7
BRANCH   6   9
ATOM      9  O   UNL     1      22.415  -6.606   5.571  1.00  0.00    -0.383 OA
ATOM     10  H   UNL     1      21.793  -6.113   4.975  1.00  0.00     0.211 HD
ENDBRANCH   6   9
ENDBRANCH   5   6
BRANCH   5  11
ATOM     11  O   UNL     1      23.983  -6.057   2.839  1.00  0.00    -0.387 OA
ATOM     12  H   UNL     1      24.226  -6.275   1.901  1.00  0.00     0.211 HD
ENDBRANCH   5  11
ENDBRANCH   1   5
BRANCH   1  13
ATOM     13  O   UNL     1      21.826  -8.579   1.902  1.00  0.00    -0.388 OA
ATOM     14  H   UNL     1      21.354  -7.716   1.761  1.00  0.00     0.211 HD
ENDBRANCH   1  13
TORSDOF 8
ENDMDL
