MODEL 1
REMARK VINA RESULT:    -4.174      0.000      0.000
REMARK INTER + INTRA:         -10.651
REMARK INTER:                  -7.834
REMARK INTRA:                  -2.817
REMARK UNBOUND:                -2.817
REMARK SMILES CCCCCCCCC=CCCCCCCCC(=O)[O-]
REMARK SMILES IDX 10 1 9 2 11 3 12 4 13 5 14 6 15 7 16 8 17 9 18 10 19 11
REMARK SMILES IDX 20 12 8 13 7 14 6 15 5 16 4 17 3 18 2 19 1 20
REMARK H PARENT
REMARK Flexibility Score: inf
ROOT
ATOM      1  C   UNL     1       9.216   8.454  18.989  1.00  0.00    -0.031 C 
ATOM      2  C   UNL     1       8.621   9.532  19.527  1.00  0.00    -0.031 C 
ENDROOT
BRANCH   1   3
ATOM      3  C   UNL     1       8.631   7.076  19.127  1.00  0.00     0.027 C 
BRANCH   3   4
ATOM      4  C   UNL     1       9.553   6.008  18.517  1.00  0.00     0.004 C 
BRANCH   4   5
ATOM      5  C   UNL     1      10.898   6.552  17.992  1.00  0.00     0.000 C 
BRANCH   5   6
ATOM      6  C   UNL     1      12.147   5.997  18.703  1.00  0.00     0.000 C 
BRANCH   6   7
ATOM      7  C   UNL     1      11.912   5.506  20.144  1.00  0.00     0.000 C 
BRANCH   7   8
ATOM      8  C   UNL     1      12.559   4.137  20.448  1.00  0.00     0.006 C 
BRANCH   8   9
ATOM      9  C   UNL     1      11.918   3.440  21.655  1.00  0.00     0.053 C 
BRANCH   9  10
ATOM     10  C   UNL     1      12.888   3.359  22.791  1.00  0.00     0.041 C 
ATOM     11  O   UNL     1      12.985   4.311  23.611  1.00  0.00    -0.550 OA
ATOM     12  O   UNL     1      13.663   2.220  22.968  1.00  0.00    -0.550 OA
ENDBRANCH   9  10
ENDBRANCH   8   9
ENDBRANCH   7   8
ENDBRANCH   6   7
ENDBRANCH   5   6
ENDBRANCH   4   5
ENDBRANCH   3   4
ENDBRANCH   1   3
BRANCH   2  13
ATOM     13  C   UNL     1       9.242  10.898  19.438  1.00  0.00     0.027 C 
BRANCH  13  14
ATOM     14  C   UNL     1      10.706  10.810  18.988  1.00  0.00     0.004 C 
BRANCH  14  15
ATOM     15  C   UNL     1      11.655  10.822  20.193  1.00  0.00     0.000 C 
BRANCH  15  16
ATOM     16  C   UNL     1      12.464   9.522  20.269  1.00  0.00     0.000 C 
BRANCH  16  17
ATOM     17  C   UNL     1      12.386   8.906  21.674  1.00  0.00    -0.000 C 
BRANCH  17  18
ATOM     18  C   UNL     1      11.002   9.080  22.319  1.00  0.00    -0.000 C 
BRANCH  18  19
ATOM     19  C   UNL     1      10.262   7.747  22.502  1.00  0.00    -0.003 C 
ATOM     20  C   UNL     1       8.798   7.973  22.863  1.00  0.00     0.004 C 
ENDBRANCH  18  19
ENDBRANCH  17  18
ENDBRANCH  16  17
ENDBRANCH  15  16
ENDBRANCH  14  15
ENDBRANCH  13  14
ENDBRANCH   2  13
TORSDOF 15
ENDMDL
MODEL 2
REMARK VINA RESULT:    -4.162      3.494      5.390
REMARK INTER + INTRA:         -10.629
REMARK INTER:                  -8.720
REMARK INTRA:                  -1.908
REMARK UNBOUND:                -2.817
REMARK SMILES CCCCCCCCC=CCCCCCCCC(=O)[O-]
REMARK SMILES IDX 10 1 9 2 11 3 12 4 13 5 14 6 15 7 16 8 17 9 18 10 19 11
REMARK SMILES IDX 20 12 8 13 7 14 6 15 5 16 4 17 3 18 2 19 1 20
REMARK H PARENT
REMARK Flexibility Score: inf
ROOT
ATOM      1  C   UNL     1      11.190  11.228  20.625  1.00  0.00    -0.031 C 
ATOM      2  C   UNL     1      12.053  10.418  19.990  1.00  0.00    -0.031 C 
ENDROOT
BRANCH   1   3
ATOM      3  C   UNL     1      10.114  11.974  19.886  1.00  0.00     0.027 C 
BRANCH   3   4
ATOM      4  C   UNL     1       9.528  11.134  18.741  1.00  0.00     0.004 C 
BRANCH   4   5
ATOM      5  C   UNL     1       8.396  10.177  19.167  1.00  0.00     0.000 C 
BRANCH   5   6
ATOM      6  C   UNL     1       8.680   8.682  18.926  1.00  0.00     0.000 C 
BRANCH   6   7
ATOM      7  C   UNL     1       9.299   7.936  20.124  1.00  0.00     0.000 C 
BRANCH   7   8
ATOM      8  C   UNL     1      10.396   6.924  19.729  1.00  0.00     0.006 C 
BRANCH   8   9
ATOM      9  C   UNL     1      10.616   6.860  18.212  1.00  0.00     0.053 C 
BRANCH   9  10
ATOM     10  C   UNL     1      11.931   6.219  17.899  1.00  0.00     0.041 C 
ATOM     11  O   UNL     1      12.479   6.411  16.781  1.00  0.00    -0.550 OA
ATOM     12  O   UNL     1      12.571   5.437  18.852  1.00  0.00    -0.550 OA
ENDBRANCH   9  10
ENDBRANCH   8   9
ENDBRANCH   7   8
ENDBRANCH   6   7
ENDBRANCH   5   6
ENDBRANCH   4   5
ENDBRANCH   3   4
ENDBRANCH   1   3
BRANCH   2  13
ATOM     13  C   UNL     1      13.164   9.723  20.725  1.00  0.00     0.027 C 
BRANCH  13  14
ATOM     14  C   UNL     1      14.490  10.478  20.563  1.00  0.00     0.004 C 
BRANCH  14  15
ATOM     15  C   UNL     1      15.143  10.744  21.925  1.00  0.00     0.000 C 
BRANCH  15  16
ATOM     16  C   UNL     1      14.091  11.116  22.976  1.00  0.00     0.000 C 
BRANCH  16  17
ATOM     17  C   UNL     1      14.384  12.498  23.581  1.00  0.00    -0.000 C 
BRANCH  17  18
ATOM     18  C   UNL     1      14.948  13.487  22.549  1.00  0.00    -0.000 C 
BRANCH  18  19
ATOM     19  C   UNL     1      16.118  14.315  23.101  1.00  0.00    -0.003 C 
ATOM     20  C   UNL     1      17.177  13.418  23.735  1.00  0.00     0.004 C 
ENDBRANCH  18  19
ENDBRANCH  17  18
ENDBRANCH  16  17
ENDBRANCH  15  16
ENDBRANCH  14  15
ENDBRANCH  13  14
ENDBRANCH   2  13
TORSDOF 15
ENDMDL
MODEL 3
REMARK VINA RESULT:    -4.155      4.893      7.500
REMARK INTER + INTRA:         -10.616
REMARK INTER:                  -8.076
REMARK INTRA:                  -2.540
REMARK UNBOUND:                -2.817
REMARK SMILES CCCCCCCCC=CCCCCCCCC(=O)[O-]
REMARK SMILES IDX 10 1 9 2 11 3 12 4 13 5 14 6 15 7 16 8 17 9 18 10 19 11
REMARK SMILES IDX 20 12 8 13 7 14 6 15 5 16 4 17 3 18 2 19 1 20
REMARK H PARENT
REMARK Flexibility Score: inf
ROOT
ATOM      1  C   UNL     1      14.580  12.688  22.490  1.00  0.00    -0.031 C 
ATOM      2  C   UNL     1      14.185  11.544  23.071  1.00  0.00    -0.031 C 
ENDROOT
BRANCH   1   3
ATOM      3  C   UNL     1      15.029  13.874  23.298  1.00  0.00     0.027 C 
BRANCH   3   4
ATOM      4  C   UNL     1      16.489  14.243  22.997  1.00  0.00     0.004 C 
BRANCH   4   5
ATOM      5  C   UNL     1      17.477  13.916  24.136  1.00  0.00     0.000 C 
BRANCH   5   6
ATOM      6  C   UNL     1      16.918  12.998  25.240  1.00  0.00     0.000 C 
BRANCH   6   7
ATOM      7  C   UNL     1      17.301  11.512  25.107  1.00  0.00     0.000 C 
BRANCH   7   8
ATOM      8  C   UNL     1      18.065  11.180  23.806  1.00  0.00     0.006 C 
BRANCH   8   9
ATOM      9  C   UNL     1      17.395  10.060  23.001  1.00  0.00     0.053 C 
BRANCH   9  10
ATOM     10  C   UNL     1      17.228   8.835  23.845  1.00  0.00     0.041 C 
ATOM     11  O   UNL     1      16.079   8.362  24.053  1.00  0.00    -0.550 OA
ATOM     12  O   UNL     1      18.340   8.194  24.373  1.00  0.00    -0.550 OA
ENDBRANCH   9  10
ENDBRANCH   8   9
ENDBRANCH   7   8
ENDBRANCH   6   7
ENDBRANCH   5   6
ENDBRANCH   4   5
ENDBRANCH   3   4
ENDBRANCH   1   3
BRANCH   2  13
ATOM     13  C   UNL     1      13.680  10.384  22.260  1.00  0.00     0.027 C 
BRANCH  13  14
ATOM     14  C   UNL     1      13.864  10.639  20.759  1.00  0.00     0.004 C 
BRANCH  14  15
ATOM     15  C   UNL     1      12.527  10.543  20.015  1.00  0.00     0.000 C 
BRANCH  15  16
ATOM     16  C   UNL     1      11.347  10.620  20.991  1.00  0.00     0.000 C 
BRANCH  16  17
ATOM     17  C   UNL     1      10.554  11.922  20.794  1.00  0.00    -0.000 C 
BRANCH  17  18
ATOM     18  C   UNL     1      11.099  13.080  21.644  1.00  0.00    -0.000 C 
BRANCH  18  19
ATOM     19  C   UNL     1      10.736  12.945  23.130  1.00  0.00    -0.003 C 
ATOM     20  C   UNL     1       9.463  13.718  23.458  1.00  0.00     0.004 C 
ENDBRANCH  18  19
ENDBRANCH  17  18
ENDBRANCH  16  17
ENDBRANCH  15  16
ENDBRANCH  14  15
ENDBRANCH  13  14
ENDBRANCH   2  13
TORSDOF 15
ENDMDL
MODEL 4
REMARK VINA RESULT:    -4.131      4.790      7.630
REMARK INTER + INTRA:         -10.570
REMARK INTER:                  -7.960
REMARK INTRA:                  -2.610
REMARK UNBOUND:                -2.817
REMARK SMILES CCCCCCCCC=CCCCCCCCC(=O)[O-]
REMARK SMILES IDX 10 1 9 2 11 3 12 4 13 5 14 6 15 7 16 8 17 9 18 10 19 11
REMARK SMILES IDX 20 12 8 13 7 14 6 15 5 16 4 17 3 18 2 19 1 20
REMARK H PARENT
REMARK Flexibility Score: inf
ROOT
ATOM      1  C   UNL     1      15.037  13.805  22.391  1.00  0.00    -0.031 C 
ATOM      2  C   UNL     1      15.697  14.262  23.467  1.00  0.00    -0.031 C 
ENDROOT
BRANCH   1   3
ATOM      3  C   UNL     1      13.539  13.883  22.289  1.00  0.00     0.027 C 
BRANCH   3   4
ATOM      4  C   UNL     1      12.863  13.535  23.624  1.00  0.00     0.004 C 
BRANCH   4   5
ATOM      5  C   UNL     1      11.580  12.689  23.487  1.00  0.00     0.000 C 
BRANCH   5   6
ATOM      6  C   UNL     1      10.883  12.778  22.116  1.00  0.00     0.000 C 
BRANCH   6   7
ATOM      7  C   UNL     1      10.663  11.426  21.409  1.00  0.00     0.000 C 
BRANCH   7   8
ATOM      8  C   UNL     1      11.455  11.277  20.092  1.00  0.00     0.006 C 
BRANCH   8   9
ATOM      9  C   UNL     1      10.597  10.713  18.952  1.00  0.00     0.053 C 
BRANCH   9  10
ATOM     10  C   UNL     1      10.141   9.325  19.275  1.00  0.00     0.041 C 
ATOM     11  O   UNL     1       8.912   9.068  19.369  1.00  0.00    -0.550 OA
ATOM     12  O   UNL     1      11.070   8.306  19.439  1.00  0.00    -0.550 OA
ENDBRANCH   9  10
ENDBRANCH   8   9
ENDBRANCH   7   8
ENDBRANCH   6   7
ENDBRANCH   5   6
ENDBRANCH   4   5
ENDBRANCH   3   4
ENDBRANCH   1   3
BRANCH   2  13
ATOM     13  C   UNL     1      17.189  14.125  23.589  1.00  0.00     0.027 C 
BRANCH  13  14
ATOM     14  C   UNL     1      17.573  13.421  24.897  1.00  0.00     0.004 C 
BRANCH  14  15
ATOM     15  C   UNL     1      17.014  11.994  24.939  1.00  0.00     0.000 C 
BRANCH  15  16
ATOM     16  C   UNL     1      17.528  11.166  23.756  1.00  0.00     0.000 C 
BRANCH  16  17
ATOM     17  C   UNL     1      16.528  10.060  23.383  1.00  0.00    -0.000 C 
BRANCH  17  18
ATOM     18  C   UNL     1      15.074  10.452  23.689  1.00  0.00    -0.000 C 
BRANCH  18  19
ATOM     19  C   UNL     1      14.116  10.116  22.537  1.00  0.00    -0.003 C 
ATOM     20  C   UNL     1      14.790  10.317  21.183  1.00  0.00     0.004 C 
ENDBRANCH  18  19
ENDBRANCH  17  18
ENDBRANCH  16  17
ENDBRANCH  15  16
ENDBRANCH  14  15
ENDBRANCH  13  14
ENDBRANCH   2  13
TORSDOF 15
ENDMDL
MODEL 5
REMARK VINA RESULT:    -4.034      4.131      6.060
REMARK INTER + INTRA:         -10.389
REMARK INTER:                  -7.728
REMARK INTRA:                  -2.661
REMARK UNBOUND:                -2.817
REMARK SMILES CCCCCCCCC=CCCCCCCCC(=O)[O-]
REMARK SMILES IDX 10 1 9 2 11 3 12 4 13 5 14 6 15 7 16 8 17 9 18 10 19 11
REMARK SMILES IDX 20 12 8 13 7 14 6 15 5 16 4 17 3 18 2 19 1 20
REMARK H PARENT
REMARK Flexibility Score: inf
ROOT
ATOM      1  C   UNL     1      10.505  12.073  21.541  1.00  0.00    -0.031 C 
ATOM      2  C   UNL     1      11.259  13.074  22.025  1.00  0.00    -0.031 C 
ENDROOT
BRANCH   1   3
ATOM      3  C   UNL     1      10.126  11.997  20.088  1.00  0.00     0.027 C 
BRANCH   3   4
ATOM      4  C   UNL     1      10.861  10.855  19.371  1.00  0.00     0.004 C 
BRANCH   4   5
ATOM      5  C   UNL     1      11.412   9.762  20.311  1.00  0.00     0.000 C 
BRANCH   5   6
ATOM      6  C   UNL     1      12.919   9.476  20.165  1.00  0.00     0.000 C 
BRANCH   6   7
ATOM      7  C   UNL     1      13.844  10.634  20.585  1.00  0.00     0.000 C 
BRANCH   7   8
ATOM      8  C   UNL     1      14.908  10.233  21.630  1.00  0.00     0.006 C 
BRANCH   8   9
ATOM      9  C   UNL     1      14.336  10.158  23.052  1.00  0.00     0.053 C 
BRANCH   9  10
ATOM     10  C   UNL     1      14.583   8.808  23.647  1.00  0.00     0.041 C 
ATOM     11  O   UNL     1      15.109   7.898  22.955  1.00  0.00    -0.550 OA
ATOM     12  O   UNL     1      14.266   8.563  24.977  1.00  0.00    -0.550 OA
ENDBRANCH   9  10
ENDBRANCH   8   9
ENDBRANCH   7   8
ENDBRANCH   6   7
ENDBRANCH   5   6
ENDBRANCH   4   5
ENDBRANCH   3   4
ENDBRANCH   1   3
BRANCH   2  13
ATOM     13  C   UNL     1      11.583  13.176  23.489  1.00  0.00     0.027 C 
BRANCH  13  14
ATOM     14  C   UNL     1      13.056  13.549  23.703  1.00  0.00     0.004 C 
BRANCH  14  15
ATOM     15  C   UNL     1      13.728  13.923  22.377  1.00  0.00     0.000 C 
BRANCH  15  16
ATOM     16  C   UNL     1      15.255  13.844  22.492  1.00  0.00     0.000 C 
BRANCH  16  17
ATOM     17  C   UNL     1      15.712  14.124  23.933  1.00  0.00    -0.000 C 
BRANCH  17  18
ATOM     18  C   UNL     1      17.117  13.574  24.223  1.00  0.00    -0.000 C 
BRANCH  18  19
ATOM     19  C   UNL     1      17.092  12.125  24.731  1.00  0.00    -0.003 C 
ATOM     20  C   UNL     1      17.826  11.193  23.772  1.00  0.00     0.004 C 
ENDBRANCH  18  19
ENDBRANCH  17  18
ENDBRANCH  16  17
ENDBRANCH  15  16
ENDBRANCH  14  15
ENDBRANCH  13  14
ENDBRANCH   2  13
TORSDOF 15
ENDMDL
MODEL 6
REMARK VINA RESULT:    -4.034      4.530      7.063
REMARK INTER + INTRA:         -10.389
REMARK INTER:                  -7.380
REMARK INTRA:                  -3.009
REMARK UNBOUND:                -2.817
REMARK SMILES CCCCCCCCC=CCCCCCCCC(=O)[O-]
REMARK SMILES IDX 10 1 9 2 11 3 12 4 13 5 14 6 15 7 16 8 17 9 18 10 19 11
REMARK SMILES IDX 20 12 8 13 7 14 6 15 5 16 4 17 3 18 2 19 1 20
REMARK H PARENT
REMARK Flexibility Score: inf
ROOT
ATOM      1  C   UNL     1      10.829  11.477  21.565  1.00  0.00    -0.031 C 
ATOM      2  C   UNL     1      11.629  11.296  20.502  1.00  0.00    -0.031 C 
ENDROOT
BRANCH   1   3
ATOM      3  C   UNL     1      10.600  12.837  22.163  1.00  0.00     0.027 C 
BRANCH   3   4
ATOM      4  C   UNL     1      11.651  13.169  23.233  1.00  0.00     0.004 C 
BRANCH   4   5
ATOM      5  C   UNL     1      12.889  13.920  22.699  1.00  0.00     0.000 C 
BRANCH   5   6
ATOM      6  C   UNL     1      14.237  13.447  23.275  1.00  0.00     0.000 C 
BRANCH   6   7
ATOM      7  C   UNL     1      15.482  14.001  22.557  1.00  0.00     0.000 C 
BRANCH   7   8
ATOM      8  C   UNL     1      16.769  13.945  23.409  1.00  0.00     0.006 C 
BRANCH   8   9
ATOM      9  C   UNL     1      16.579  13.149  24.707  1.00  0.00     0.053 C 
BRANCH   9  10
ATOM     10  C   UNL     1      17.209  11.797  24.590  1.00  0.00     0.041 C 
ATOM     11  O   UNL     1      17.934  11.520  23.598  1.00  0.00    -0.550 OA
ATOM     12  O   UNL     1      17.028  10.854  25.593  1.00  0.00    -0.550 OA
ENDBRANCH   9  10
ENDBRANCH   8   9
ENDBRANCH   7   8
ENDBRANCH   6   7
ENDBRANCH   5   6
ENDBRANCH   4   5
ENDBRANCH   3   4
ENDBRANCH   1   3
BRANCH   2  13
ATOM     13  C   UNL     1      11.903   9.926  19.948  1.00  0.00     0.027 C 
BRANCH  13  14
ATOM     14  C   UNL     1      13.254   9.391  20.441  1.00  0.00     0.004 C 
BRANCH  14  15
ATOM     15  C   UNL     1      14.192  10.540  20.831  1.00  0.00     0.000 C 
BRANCH  15  16
ATOM     16  C   UNL     1      15.244  10.071  21.843  1.00  0.00     0.000 C 
BRANCH  16  17
ATOM     17  C   UNL     1      14.600   9.226  22.954  1.00  0.00    -0.000 C 
BRANCH  17  18
ATOM     18  C   UNL     1      13.912  10.086  24.026  1.00  0.00    -0.000 C 
BRANCH  18  19
ATOM     19  C   UNL     1      12.459   9.662  24.282  1.00  0.00    -0.003 C 
ATOM     20  C   UNL     1      12.216   8.226  23.828  1.00  0.00     0.004 C 
ENDBRANCH  18  19
ENDBRANCH  17  18
ENDBRANCH  16  17
ENDBRANCH  15  16
ENDBRANCH  14  15
ENDBRANCH  13  14
ENDBRANCH   2  13
TORSDOF 15
ENDMDL
MODEL 7
REMARK VINA RESULT:    -4.032      4.528      7.518
REMARK INTER + INTRA:         -10.385
REMARK INTER:                  -8.132
REMARK INTRA:                  -2.253
REMARK UNBOUND:                -2.817
REMARK SMILES CCCCCCCCC=CCCCCCCCC(=O)[O-]
REMARK SMILES IDX 10 1 9 2 11 3 12 4 13 5 14 6 15 7 16 8 17 9 18 10 19 11
REMARK SMILES IDX 20 12 8 13 7 14 6 15 5 16 4 17 3 18 2 19 1 20
REMARK H PARENT
REMARK Flexibility Score: inf
ROOT
ATOM      1  C   UNL     1      15.014  13.916  22.389  1.00  0.00    -0.031 C 
ATOM      2  C   UNL     1      13.957  13.558  23.136  1.00  0.00    -0.031 C 
ENDROOT
BRANCH   1   3
ATOM      3  C   UNL     1      16.364  14.172  22.999  1.00  0.00     0.027 C 
BRANCH   3   4
ATOM      4  C   UNL     1      16.386  13.815  24.494  1.00  0.00     0.004 C 
BRANCH   4   5
ATOM      5  C   UNL     1      17.462  12.783  24.887  1.00  0.00     0.000 C 
BRANCH   5   6
ATOM      6  C   UNL     1      17.212  11.352  24.371  1.00  0.00     0.000 C 
BRANCH   6   7
ATOM      7  C   UNL     1      15.958  10.664  24.944  1.00  0.00     0.000 C 
BRANCH   7   8
ATOM      8  C   UNL     1      14.982  10.151  23.863  1.00  0.00     0.006 C 
BRANCH   8   9
ATOM      9  C   UNL     1      15.582  10.211  22.453  1.00  0.00     0.053 C 
BRANCH   9  10
ATOM     10  C   UNL     1      14.524   9.980  21.421  1.00  0.00     0.041 C 
ATOM     11  O   UNL     1      13.756   8.986  21.514  1.00  0.00    -0.550 OA
ATOM     12  O   UNL     1      14.361  10.878  20.375  1.00  0.00    -0.550 OA
ENDBRANCH   9  10
ENDBRANCH   8   9
ENDBRANCH   7   8
ENDBRANCH   6   7
ENDBRANCH   5   6
ENDBRANCH   4   5
ENDBRANCH   3   4
ENDBRANCH   1   3
BRANCH   2  13
ATOM     13  C   UNL     1      12.596  13.363  22.529  1.00  0.00     0.027 C 
BRANCH  13  14
ATOM     14  C   UNL     1      11.884  12.153  23.146  1.00  0.00     0.004 C 
BRANCH  14  15
ATOM     15  C   UNL     1      10.654  11.756  22.321  1.00  0.00     0.000 C 
BRANCH  15  16
ATOM     16  C   UNL     1      10.813  12.182  20.857  1.00  0.00     0.000 C 
BRANCH  16  17
ATOM     17  C   UNL     1      10.732  10.967  19.919  1.00  0.00    -0.000 C 
BRANCH  17  18
ATOM     18  C   UNL     1      10.053  11.299  18.581  1.00  0.00    -0.000 C 
BRANCH  18  19
ATOM     19  C   UNL     1       8.594  11.749  18.754  1.00  0.00    -0.003 C 
ATOM     20  C   UNL     1       8.110  12.528  17.535  1.00  0.00     0.004 C 
ENDBRANCH  18  19
ENDBRANCH  17  18
ENDBRANCH  16  17
ENDBRANCH  15  16
ENDBRANCH  14  15
ENDBRANCH  13  14
ENDBRANCH   2  13
TORSDOF 15
ENDMDL
MODEL 8
REMARK VINA RESULT:    -4.018      1.299      3.888
REMARK INTER + INTRA:         -10.358
REMARK INTER:                  -8.123
REMARK INTRA:                  -2.236
REMARK UNBOUND:                -2.817
REMARK SMILES CCCCCCCCC=CCCCCCCCC(=O)[O-]
REMARK SMILES IDX 10 1 9 2 11 3 12 4 13 5 14 6 15 7 16 8 17 9 18 10 19 11
REMARK SMILES IDX 20 12 8 13 7 14 6 15 5 16 4 17 3 18 2 19 1 20
REMARK H PARENT
REMARK Flexibility Score: inf
ROOT
ATOM      1  C   UNL     1      12.134  10.867  20.221  1.00  0.00    -0.031 C 
ATOM      2  C   UNL     1      11.156  10.465  19.394  1.00  0.00    -0.031 C 
ENDROOT
BRANCH   1   3
ATOM      3  C   UNL     1      13.344  10.015  20.489  1.00  0.00     0.027 C 
BRANCH   3   4
ATOM      4  C   UNL     1      13.507   9.721  21.989  1.00  0.00     0.004 C 
BRANCH   4   5
ATOM      5  C   UNL     1      13.223   8.258  22.386  1.00  0.00     0.000 C 
BRANCH   5   6
ATOM      6  C   UNL     1      11.973   7.636  21.734  1.00  0.00     0.000 C 
BRANCH   6   7
ATOM      7  C   UNL     1      11.777   6.132  22.006  1.00  0.00     0.000 C 
BRANCH   7   8
ATOM      8  C   UNL     1      12.721   5.224  21.188  1.00  0.00     0.006 C 
BRANCH   8   9
ATOM      9  C   UNL     1      12.141   3.821  20.968  1.00  0.00     0.053 C 
BRANCH   9  10
ATOM     10  C   UNL     1      12.189   3.028  22.236  1.00  0.00     0.041 C 
ATOM     11  O   UNL     1      11.123   2.612  22.764  1.00  0.00    -0.550 OA
ATOM     12  O   UNL     1      13.410   2.716  22.819  1.00  0.00    -0.550 OA
ENDBRANCH   9  10
ENDBRANCH   8   9
ENDBRANCH   7   8
ENDBRANCH   6   7
ENDBRANCH   5   6
ENDBRANCH   4   5
ENDBRANCH   3   4
ENDBRANCH   1   3
BRANCH   2  13
ATOM     13  C   UNL     1       9.921  11.293  19.177  1.00  0.00     0.027 C 
BRANCH  13  14
ATOM     14  C   UNL     1       8.672  10.407  19.084  1.00  0.00     0.004 C 
BRANCH  14  15
ATOM     15  C   UNL     1       8.923   9.031  19.713  1.00  0.00     0.000 C 
BRANCH  15  16
ATOM     16  C   UNL     1       8.584   7.906  18.728  1.00  0.00     0.000 C 
BRANCH  16  17
ATOM     17  C   UNL     1       8.951   6.534  19.315  1.00  0.00    -0.000 C 
BRANCH  17  18
ATOM     18  C   UNL     1      10.136   5.879  18.589  1.00  0.00    -0.000 C 
BRANCH  18  19
ATOM     19  C   UNL     1      11.212   6.894  18.178  1.00  0.00    -0.003 C 
ATOM     20  C   UNL     1      12.193   6.285  17.181  1.00  0.00     0.004 C 
ENDBRANCH  18  19
ENDBRANCH  17  18
ENDBRANCH  16  17
ENDBRANCH  15  16
ENDBRANCH  14  15
ENDBRANCH  13  14
ENDBRANCH   2  13
TORSDOF 15
ENDMDL
MODEL 9
REMARK VINA RESULT:    -3.938      2.376      3.732
REMARK INTER + INTRA:         -10.209
REMARK INTER:                  -7.532
REMARK INTRA:                  -2.677
REMARK UNBOUND:                -2.817
REMARK SMILES CCCCCCCCC=CCCCCCCCC(=O)[O-]
REMARK SMILES IDX 10 1 9 2 11 3 12 4 13 5 14 6 15 7 16 8 17 9 18 10 19 11
REMARK SMILES IDX 20 12 8 13 7 14 6 15 5 16 4 17 3 18 2 19 1 20
REMARK H PARENT
REMARK Flexibility Score: inf
ROOT
ATOM      1  C   UNL     1       8.536   7.338  19.032  1.00  0.00    -0.031 C 
ATOM      2  C   UNL     1       9.162   8.526  19.000  1.00  0.00    -0.031 C 
ENDROOT
BRANCH   1   3
ATOM      3  C   UNL     1       9.272   6.048  18.792  1.00  0.00     0.027 C 
BRANCH   3   4
ATOM      4  C   UNL     1      10.518   6.263  17.919  1.00  0.00     0.004 C 
BRANCH   4   5
ATOM      5  C   UNL     1      11.835   6.399  18.711  1.00  0.00     0.000 C 
BRANCH   5   6
ATOM      6  C   UNL     1      11.747   5.998  20.196  1.00  0.00     0.000 C 
BRANCH   6   7
ATOM      7  C   UNL     1      11.898   7.161  21.195  1.00  0.00     0.000 C 
BRANCH   7   8
ATOM      8  C   UNL     1      10.715   7.295  22.178  1.00  0.00     0.006 C 
BRANCH   8   9
ATOM      9  C   UNL     1      10.342   8.757  22.452  1.00  0.00     0.053 C 
BRANCH   9  10
ATOM     10  C   UNL     1      10.539   9.088  23.898  1.00  0.00     0.041 C 
ATOM     11  O   UNL     1       9.718   9.833  24.495  1.00  0.00    -0.550 OA
ATOM     12  O   UNL     1      11.610   8.547  24.598  1.00  0.00    -0.550 OA
ENDBRANCH   9  10
ENDBRANCH   8   9
ENDBRANCH   7   8
ENDBRANCH   6   7
ENDBRANCH   5   6
ENDBRANCH   4   5
ENDBRANCH   3   4
ENDBRANCH   1   3
BRANCH   2  13
ATOM     13  C   UNL     1       8.410   9.814  19.179  1.00  0.00     0.027 C 
BRANCH  13  14
ATOM     14  C   UNL     1       9.337  11.024  19.000  1.00  0.00     0.004 C 
BRANCH  14  15
ATOM     15  C   UNL     1      10.809  10.595  19.005  1.00  0.00     0.000 C 
BRANCH  15  16
ATOM     16  C   UNL     1      11.558  11.215  20.190  1.00  0.00     0.000 C 
BRANCH  16  17
ATOM     17  C   UNL     1      10.745  12.356  20.819  1.00  0.00    -0.000 C 
BRANCH  17  18
ATOM     18  C   UNL     1      11.119  12.608  22.288  1.00  0.00    -0.000 C 
BRANCH  18  19
ATOM     19  C   UNL     1       9.928  13.095  23.126  1.00  0.00    -0.003 C 
ATOM     20  C   UNL     1       8.604  12.641  22.519  1.00  0.00     0.004 C 
ENDBRANCH  18  19
ENDBRANCH  17  18
ENDBRANCH  16  17
ENDBRANCH  15  16
ENDBRANCH  14  15
ENDBRANCH  13  14
ENDBRANCH   2  13
TORSDOF 15
ENDMDL
