MODEL 1
REMARK VINA RESULT:    -3.813      0.000      0.000
REMARK INTER + INTRA:          -5.976
REMARK INTER:                  -5.596
REMARK INTRA:                  -0.381
REMARK UNBOUND:                -0.381
REMARK SMILES O=C([O-])CCCCCCCC(=O)[O-]
REMARK SMILES IDX 7 1 6 2 5 3 4 4 2 5 1 6 3 7 8 8 9 9 10 10 11 11 12 12 13 13
REMARK H PARENT
REMARK Flexibility Score: inf
ROOT
ATOM      1  C   UNL     1      27.933  21.670  59.729  1.00  0.00     0.000 C 
ENDROOT
BRANCH   1   2
ATOM      2  C   UNL     1      27.044  21.915  58.500  1.00  0.00     0.000 C 
BRANCH   2   3
ATOM      3  C   UNL     1      26.021  20.790  58.269  1.00  0.00     0.006 C 
BRANCH   3   4
ATOM      4  C   UNL     1      26.521  19.656  57.358  1.00  0.00     0.053 C 
BRANCH   4   5
ATOM      5  C   UNL     1      26.562  20.069  55.919  1.00  0.00     0.041 C 
ATOM      6  O   UNL     1      27.660  20.346  55.370  1.00  0.00    -0.550 OA
ATOM      7  O   UNL     1      25.382  20.180  55.193  1.00  0.00    -0.550 OA
ENDBRANCH   4   5
ENDBRANCH   3   4
ENDBRANCH   2   3
ENDBRANCH   1   2
BRANCH   1   8
ATOM      8  C   UNL     1      27.149  20.954  60.839  1.00  0.00     0.000 C 
BRANCH   8   9
ATOM      9  C   UNL     1      26.606  21.922  61.906  1.00  0.00     0.006 C 
BRANCH   9  10
ATOM     10  C   UNL     1      26.660  21.374  63.342  1.00  0.00     0.053 C 
BRANCH  10  11
ATOM     11  C   UNL     1      25.481  20.507  63.658  1.00  0.00     0.041 C 
ATOM     12  O   UNL     1      24.385  21.025  63.995  1.00  0.00    -0.550 OA
ATOM     13  O   UNL     1      25.604  19.124  63.615  1.00  0.00    -0.550 OA
ENDBRANCH  10  11
ENDBRANCH   9  10
ENDBRANCH   8   9
ENDBRANCH   1   8
TORSDOF 8
ENDMDL
MODEL 2
REMARK VINA RESULT:    -3.805      1.850      2.405
REMARK INTER + INTRA:          -5.965
REMARK INTER:                  -5.402
REMARK INTRA:                  -0.563
REMARK UNBOUND:                -0.381
REMARK SMILES O=C([O-])CCCCCCCC(=O)[O-]
REMARK SMILES IDX 7 1 6 2 5 3 4 4 2 5 1 6 3 7 8 8 9 9 10 10 11 11 12 12 13 13
REMARK H PARENT
REMARK Flexibility Score: inf
ROOT
ATOM      1  C   UNL     1      24.323  21.536  59.904  1.00  0.00     0.000 C 
ENDROOT
BRANCH   1   2
ATOM      2  C   UNL     1      25.731  22.085  60.181  1.00  0.00     0.000 C 
BRANCH   2   3
ATOM      3  C   UNL     1      26.843  21.219  59.565  1.00  0.00     0.006 C 
BRANCH   3   4
ATOM      4  C   UNL     1      27.017  21.397  58.048  1.00  0.00     0.053 C 
BRANCH   4   5
ATOM      5  C   UNL     1      26.777  20.120  57.302  1.00  0.00     0.041 C 
ATOM      6  O   UNL     1      26.257  19.133  57.885  1.00  0.00    -0.550 OA
ATOM      7  O   UNL     1      27.158  20.010  55.970  1.00  0.00    -0.550 OA
ENDBRANCH   4   5
ENDBRANCH   3   4
ENDBRANCH   2   3
ENDBRANCH   1   2
BRANCH   1   8
ATOM      8  C   UNL     1      23.486  21.499  61.192  1.00  0.00     0.000 C 
BRANCH   8   9
ATOM      9  C   UNL     1      24.243  22.051  62.413  1.00  0.00     0.006 C 
BRANCH   9  10
ATOM     10  C   UNL     1      24.331  21.074  63.597  1.00  0.00     0.053 C 
BRANCH  10  11
ATOM     11  C   UNL     1      25.623  20.317  63.607  1.00  0.00     0.041 C 
ATOM     12  O   UNL     1      25.626  19.071  63.789  1.00  0.00    -0.550 OA
ATOM     13  O   UNL     1      26.827  20.993  63.452  1.00  0.00    -0.550 OA
ENDBRANCH  10  11
ENDBRANCH   9  10
ENDBRANCH   8   9
ENDBRANCH   1   8
TORSDOF 8
ENDMDL
MODEL 3
REMARK VINA RESULT:    -3.733      0.758      6.767
REMARK INTER + INTRA:          -5.860
REMARK INTER:                  -5.627
REMARK INTRA:                  -0.233
REMARK UNBOUND:                -0.381
REMARK SMILES O=C([O-])CCCCCCCC(=O)[O-]
REMARK SMILES IDX 7 1 6 2 5 3 4 4 2 5 1 6 3 7 8 8 9 9 10 10 11 11 12 12 13 13
REMARK H PARENT
REMARK Flexibility Score: inf
ROOT
ATOM      1  C   UNL     1      27.268  20.793  60.074  1.00  0.00     0.000 C 
ENDROOT
BRANCH   1   2
ATOM      2  C   UNL     1      27.239  22.108  60.867  1.00  0.00     0.000 C 
BRANCH   2   3
ATOM      3  C   UNL     1      26.231  22.083  62.029  1.00  0.00     0.006 C 
BRANCH   3   4
ATOM      4  C   UNL     1      26.639  21.176  63.202  1.00  0.00     0.053 C 
BRANCH   4   5
ATOM      5  C   UNL     1      25.495  20.344  63.692  1.00  0.00     0.041 C 
ATOM      6  O   UNL     1      25.590  19.088  63.717  1.00  0.00    -0.550 OA
ATOM      7  O   UNL     1      24.312  20.952  64.090  1.00  0.00    -0.550 OA
ENDBRANCH   4   5
ENDBRANCH   3   4
ENDBRANCH   2   3
ENDBRANCH   1   2
BRANCH   1   8
ATOM      8  C   UNL     1      27.010  21.046  58.581  1.00  0.00     0.000 C 
BRANCH   8   9
ATOM      9  C   UNL     1      26.618  19.768  57.817  1.00  0.00     0.006 C 
BRANCH   9  10
ATOM     10  C   UNL     1      25.730  20.014  56.587  1.00  0.00     0.053 C 
BRANCH  10  11
ATOM     11  C   UNL     1      26.496  20.619  55.451  1.00  0.00     0.041 C 
ATOM     12  O   UNL     1      27.692  20.285  55.244  1.00  0.00    -0.550 OA
ATOM     13  O   UNL     1      25.899  21.579  54.643  1.00  0.00    -0.550 OA
ENDBRANCH  10  11
ENDBRANCH   9  10
ENDBRANCH   8   9
ENDBRANCH   1   8
TORSDOF 8
ENDMDL
MODEL 4
REMARK VINA RESULT:    -3.733      1.927      6.151
REMARK INTER + INTRA:          -5.859
REMARK INTER:                  -5.268
REMARK INTRA:                  -0.592
REMARK UNBOUND:                -0.381
REMARK SMILES O=C([O-])CCCCCCCC(=O)[O-]
REMARK SMILES IDX 7 1 6 2 5 3 4 4 2 5 1 6 3 7 8 8 9 9 10 10 11 11 12 12 13 13
REMARK H PARENT
REMARK Flexibility Score: inf
ROOT
ATOM      1  C   UNL     1      23.966  21.394  60.058  1.00  0.00     0.000 C 
ENDROOT
BRANCH   1   2
ATOM      2  C   UNL     1      23.252  21.462  61.416  1.00  0.00     0.000 C 
BRANCH   2   3
ATOM      3  C   UNL     1      24.141  22.042  62.531  1.00  0.00     0.006 C 
BRANCH   3   4
ATOM      4  C   UNL     1      24.368  21.092  63.718  1.00  0.00     0.053 C 
BRANCH   4   5
ATOM      5  C   UNL     1      25.676  20.370  63.617  1.00  0.00     0.041 C 
ATOM      6  O   UNL     1      25.718  19.116  63.726  1.00  0.00    -0.550 OA
ATOM      7  O   UNL     1      26.853  21.085  63.435  1.00  0.00    -0.550 OA
ENDBRANCH   4   5
ENDBRANCH   3   4
ENDBRANCH   2   3
ENDBRANCH   1   2
BRANCH   1   8
ATOM      8  C   UNL     1      25.327  22.105  60.119  1.00  0.00     0.000 C 
BRANCH   8   9
ATOM      9  C   UNL     1      26.502  21.178  59.755  1.00  0.00     0.006 C 
BRANCH   9  10
ATOM     10  C   UNL     1      26.998  21.325  58.308  1.00  0.00     0.053 C 
BRANCH  10  11
ATOM     11  C   UNL     1      26.692  20.113  57.482  1.00  0.00     0.041 C 
ATOM     12  O   UNL     1      25.961  19.199  57.945  1.00  0.00    -0.550 OA
ATOM     13  O   UNL     1      27.243  19.978  56.214  1.00  0.00    -0.550 OA
ENDBRANCH  10  11
ENDBRANCH   9  10
ENDBRANCH   8   9
ENDBRANCH   1   8
TORSDOF 8
ENDMDL
MODEL 5
REMARK VINA RESULT:    -3.662      1.296      1.748
REMARK INTER + INTRA:          -5.755
REMARK INTER:                  -5.395
REMARK INTRA:                  -0.359
REMARK UNBOUND:                -0.381
REMARK SMILES O=C([O-])CCCCCCCC(=O)[O-]
REMARK SMILES IDX 7 1 6 2 5 3 4 4 2 5 1 6 3 7 8 8 9 9 10 10 11 11 12 12 13 13
REMARK H PARENT
REMARK Flexibility Score: inf
ROOT
ATOM      1  C   UNL     1      26.307  21.455  59.537  1.00  0.00     0.000 C 
ENDROOT
BRANCH   1   2
ATOM      2  C   UNL     1      27.215  21.764  58.337  1.00  0.00     0.000 C 
BRANCH   2   3
ATOM      3  C   UNL     1      26.888  20.906  57.103  1.00  0.00     0.006 C 
BRANCH   3   4
ATOM      4  C   UNL     1      26.333  19.509  57.432  1.00  0.00     0.053 C 
BRANCH   4   5
ATOM      5  C   UNL     1      24.995  19.274  56.801  1.00  0.00     0.041 C 
ATOM      6  O   UNL     1      24.297  20.248  56.415  1.00  0.00    -0.550 OA
ATOM      7  O   UNL     1      24.506  17.981  56.667  1.00  0.00    -0.550 OA
ENDBRANCH   4   5
ENDBRANCH   3   4
ENDBRANCH   2   3
ENDBRANCH   1   2
BRANCH   1   8
ATOM      8  C   UNL     1      27.136  21.238  60.812  1.00  0.00     0.000 C 
BRANCH   8   9
ATOM      9  C   UNL     1      26.513  21.906  62.051  1.00  0.00     0.006 C 
BRANCH   9  10
ATOM     10  C   UNL     1      26.699  21.116  63.356  1.00  0.00     0.053 C 
BRANCH  10  11
ATOM     11  C   UNL     1      25.472  20.340  63.725  1.00  0.00     0.041 C 
ATOM     12  O   UNL     1      25.523  19.086  63.828  1.00  0.00    -0.550 OA
ATOM     13  O   UNL     1      24.265  20.999  63.920  1.00  0.00    -0.550 OA
ENDBRANCH  10  11
ENDBRANCH   9  10
ENDBRANCH   8   9
ENDBRANCH   1   8
TORSDOF 8
ENDMDL
MODEL 6
REMARK VINA RESULT:    -3.651      1.377      1.732
REMARK INTER + INTRA:          -5.739
REMARK INTER:                  -5.487
REMARK INTRA:                  -0.252
REMARK UNBOUND:                -0.381
REMARK SMILES O=C([O-])CCCCCCCC(=O)[O-]
REMARK SMILES IDX 7 1 6 2 5 3 4 4 2 5 1 6 3 7 8 8 9 9 10 10 11 11 12 12 13 13
REMARK H PARENT
REMARK Flexibility Score: inf
ROOT
ATOM      1  C   UNL     1      27.567  20.710  59.714  1.00  0.00     0.000 C 
ENDROOT
BRANCH   1   2
ATOM      2  C   UNL     1      26.980  20.984  58.322  1.00  0.00     0.000 C 
BRANCH   2   3
ATOM      3  C   UNL     1      26.333  19.738  57.691  1.00  0.00     0.006 C 
BRANCH   3   4
ATOM      4  C   UNL     1      24.868  19.933  57.266  1.00  0.00     0.053 C 
BRANCH   4   5
ATOM      5  C   UNL     1      24.420  18.882  56.297  1.00  0.00     0.041 C 
ATOM      6  O   UNL     1      23.745  17.898  56.697  1.00  0.00    -0.550 OA
ATOM      7  O   UNL     1      24.777  18.972  54.958  1.00  0.00    -0.550 OA
ENDBRANCH   4   5
ENDBRANCH   3   4
ENDBRANCH   2   3
ENDBRANCH   1   2
BRANCH   1   8
ATOM      8  C   UNL     1      27.315  21.896  60.658  1.00  0.00     0.000 C 
BRANCH   8   9
ATOM      9  C   UNL     1      26.121  21.664  61.602  1.00  0.00     0.006 C 
BRANCH   9  10
ATOM     10  C   UNL     1      26.514  21.258  63.032  1.00  0.00     0.053 C 
BRANCH  10  11
ATOM     11  C   UNL     1      25.460  20.423  63.690  1.00  0.00     0.041 C 
ATOM     12  O   UNL     1      24.434  20.966  64.178  1.00  0.00    -0.550 OA
ATOM     13  O   UNL     1      25.627  19.048  63.796  1.00  0.00    -0.550 OA
ENDBRANCH  10  11
ENDBRANCH   9  10
ENDBRANCH   8   9
ENDBRANCH   1   8
TORSDOF 8
ENDMDL
MODEL 7
REMARK VINA RESULT:    -3.573      1.209      6.563
REMARK INTER + INTRA:          -5.624
REMARK INTER:                  -5.391
REMARK INTRA:                  -0.233
REMARK UNBOUND:                -0.381
REMARK SMILES O=C([O-])CCCCCCCC(=O)[O-]
REMARK SMILES IDX 7 1 6 2 5 3 4 4 2 5 1 6 3 7 8 8 9 9 10 10 11 11 12 12 13 13
REMARK H PARENT
REMARK Flexibility Score: inf
ROOT
ATOM      1  C   UNL     1      27.457  20.762  59.753  1.00  0.00     0.000 C 
ENDROOT
BRANCH   1   2
ATOM      2  C   UNL     1      27.301  21.974  60.683  1.00  0.00     0.000 C 
BRANCH   2   3
ATOM      3  C   UNL     1      26.122  21.830  61.661  1.00  0.00     0.006 C 
BRANCH   3   4
ATOM      4  C   UNL     1      26.516  21.322  63.058  1.00  0.00     0.053 C 
BRANCH   4   5
ATOM      5  C   UNL     1      25.457  20.450  63.657  1.00  0.00     0.041 C 
ATOM      6  O   UNL     1      24.405  20.960  64.125  1.00  0.00    -0.550 OA
ATOM      7  O   UNL     1      25.645  19.075  63.729  1.00  0.00    -0.550 OA
ENDBRANCH   4   5
ENDBRANCH   3   4
ENDBRANCH   2   3
ENDBRANCH   1   2
BRANCH   1   8
ATOM      8  C   UNL     1      26.527  20.881  58.536  1.00  0.00     0.000 C 
BRANCH   8   9
ATOM      9  C   UNL     1      26.609  19.662  57.599  1.00  0.00     0.006 C 
BRANCH   9  10
ATOM     10  C   UNL     1      26.179  19.946  56.151  1.00  0.00     0.053 C 
BRANCH  10  11
ATOM     11  C   UNL     1      24.859  19.320  55.823  1.00  0.00     0.041 C 
ATOM     12  O   UNL     1      24.188  19.731  54.840  1.00  0.00    -0.550 OA
ATOM     13  O   UNL     1      24.352  18.304  56.624  1.00  0.00    -0.550 OA
ENDBRANCH  10  11
ENDBRANCH   9  10
ENDBRANCH   8   9
ENDBRANCH   1   8
TORSDOF 8
ENDMDL
MODEL 8
REMARK VINA RESULT:    -3.438      1.695      2.050
REMARK INTER + INTRA:          -5.426
REMARK INTER:                  -4.972
REMARK INTRA:                  -0.454
REMARK UNBOUND:                -0.381
REMARK SMILES O=C([O-])CCCCCCCC(=O)[O-]
REMARK SMILES IDX 7 1 6 2 5 3 4 4 2 5 1 6 3 7 8 8 9 9 10 10 11 11 12 12 13 13
REMARK H PARENT
REMARK Flexibility Score: inf
ROOT
ATOM      1  C   UNL     1      27.657  21.411  59.821  1.00  0.00     0.000 C 
ENDROOT
BRANCH   1   2
ATOM      2  C   UNL     1      27.055  20.988  58.473  1.00  0.00     0.000 C 
BRANCH   2   3
ATOM      3  C   UNL     1      26.023  21.996  57.937  1.00  0.00     0.006 C 
BRANCH   3   4
ATOM      4  C   UNL     1      24.874  21.360  57.137  1.00  0.00     0.053 C 
BRANCH   4   5
ATOM      5  C   UNL     1      24.224  20.237  57.885  1.00  0.00     0.041 C 
ATOM      6  O   UNL     1      24.116  19.101  57.354  1.00  0.00    -0.550 OA
ATOM      7  O   UNL     1      23.708  20.454  59.156  1.00  0.00    -0.550 OA
ENDBRANCH   4   5
ENDBRANCH   3   4
ENDBRANCH   2   3
ENDBRANCH   1   2
BRANCH   1   8
ATOM      8  C   UNL     1      26.725  21.030  60.982  1.00  0.00     0.000 C 
BRANCH   8   9
ATOM      9  C   UNL     1      26.786  22.031  62.150  1.00  0.00     0.006 C 
BRANCH   9  10
ATOM     10  C   UNL     1      26.676  21.386  63.541  1.00  0.00     0.053 C 
BRANCH  10  11
ATOM     11  C   UNL     1      25.470  20.505  63.660  1.00  0.00     0.041 C 
ATOM     12  O   UNL     1      24.324  21.013  63.771  1.00  0.00    -0.550 OA
ATOM     13  O   UNL     1      25.618  19.124  63.684  1.00  0.00    -0.550 OA
ENDBRANCH  10  11
ENDBRANCH   9  10
ENDBRANCH   8   9
ENDBRANCH   1   8
TORSDOF 8
ENDMDL
MODEL 9
REMARK VINA RESULT:    -2.930      2.564      3.881
REMARK INTER + INTRA:          -4.681
REMARK INTER:                  -4.142
REMARK INTRA:                  -0.539
REMARK UNBOUND:                -0.381
REMARK SMILES O=C([O-])CCCCCCCC(=O)[O-]
REMARK SMILES IDX 7 1 6 2 5 3 4 4 2 5 1 6 3 7 8 8 9 9 10 10 11 11 12 12 13 13
REMARK H PARENT
REMARK Flexibility Score: inf
ROOT
ATOM      1  C   UNL     1      26.692  20.440  55.821  1.00  0.00     0.000 C 
ENDROOT
BRANCH   1   2
ATOM      2  C   UNL     1      25.550  21.096  55.030  1.00  0.00     0.000 C 
BRANCH   2   3
ATOM      3  C   UNL     1      24.346  20.158  54.831  1.00  0.00     0.006 C 
BRANCH   3   4
ATOM      4  C   UNL     1      23.284  20.247  55.941  1.00  0.00     0.053 C 
BRANCH   4   5
ATOM      5  C   UNL     1      23.429  19.146  56.945  1.00  0.00     0.041 C 
ATOM      6  O   UNL     1      22.943  19.273  58.099  1.00  0.00    -0.550 OA
ATOM      7  O   UNL     1      24.129  17.992  56.616  1.00  0.00    -0.550 OA
ENDBRANCH   4   5
ENDBRANCH   3   4
ENDBRANCH   2   3
ENDBRANCH   1   2
BRANCH   1   8
ATOM      8  C   UNL     1      26.952  21.195  57.134  1.00  0.00     0.000 C 
BRANCH   8   9
ATOM      9  C   UNL     1      26.643  20.346  58.381  1.00  0.00     0.006 C 
BRANCH   9  10
ATOM     10  C   UNL     1      27.518  20.674  59.602  1.00  0.00     0.053 C 
BRANCH  10  11
ATOM     11  C   UNL     1      26.747  21.380  60.674  1.00  0.00     0.041 C 
ATOM     12  O   UNL     1      27.342  22.125  61.497  1.00  0.00    -0.550 OA
ATOM     13  O   UNL     1      25.376  21.188  60.786  1.00  0.00    -0.550 OA
ENDBRANCH  10  11
ENDBRANCH   9  10
ENDBRANCH   8   9
ENDBRANCH   1   8
TORSDOF 8
ENDMDL
