MODEL 1
REMARK VINA RESULT:    -3.392      0.000      0.000
REMARK INTER + INTRA:          -4.037
REMARK INTER:                  -3.887
REMARK INTRA:                  -0.150
REMARK UNBOUND:                -0.150
REMARK SMILES COc1ccc(C(C)=O)c(O)c1
REMARK SMILES IDX 6 1 10 2 12 3 3 4 4 5 5 6 7 7 8 8 9 9 11 10 2 12 1 13
REMARK H PARENT 11 11
REMARK Flexibility Score: inf
ROOT
ATOM      1  C   UNL     1      31.923  24.966  32.542  1.00  0.00     0.059 A 
ATOM      2  C   UNL     1      32.631  24.828  31.325  1.00  0.00     0.130 A 
ATOM      3  C   UNL     1      31.933  24.751  30.110  1.00  0.00     0.093 A 
ATOM      4  C   UNL     1      30.529  24.804  30.084  1.00  0.00     0.122 A 
ATOM      5  C   UNL     1      29.832  24.936  31.287  1.00  0.00     0.047 A 
ATOM      6  C   UNL     1      30.516  25.017  32.501  1.00  0.00     0.019 A 
ENDROOT
BRANCH   1   7
ATOM      7  C   UNL     1      32.639  25.062  33.847  1.00  0.00     0.163 C 
ATOM      8  C   UNL     1      31.900  25.125  35.150  1.00  0.00     0.093 C 
ATOM      9  O   UNL     1      33.899  25.120  33.875  1.00  0.00    -0.294 OA
ENDBRANCH   1   7
BRANCH   2  10
ATOM     10  O   UNL     1      34.024  24.756  31.317  1.00  0.00    -0.507 OA
ATOM     11  H   UNL     1      34.541  24.338  32.083  1.00  0.00     0.293 HD
ENDBRANCH   2  10
BRANCH   4  12
ATOM     12  O   UNL     1      29.794  24.729  28.892  1.00  0.00    -0.497 OA
ATOM     13  C   UNL     1      29.625  23.544  28.123  1.00  0.00     0.278 C 
ENDBRANCH   4  12
TORSDOF 3
ENDMDL
MODEL 2
REMARK VINA RESULT:    -3.131      1.892      4.444
REMARK INTER + INTRA:          -3.739
REMARK INTER:                  -3.593
REMARK INTRA:                  -0.146
REMARK UNBOUND:                -0.150
REMARK SMILES COc1ccc(C(C)=O)c(O)c1
REMARK SMILES IDX 6 1 10 2 12 3 3 4 4 5 5 6 7 7 8 8 9 9 11 10 2 12 1 13
REMARK H PARENT 11 11
REMARK Flexibility Score: inf
ROOT
ATOM      1  C   UNL     1      31.785  24.978  31.764  1.00  0.00     0.059 A 
ATOM      2  C   UNL     1      32.815  24.923  30.796  1.00  0.00     0.130 A 
ATOM      3  C   UNL     1      34.160  24.965  31.196  1.00  0.00     0.093 A 
ATOM      4  C   UNL     1      34.501  25.068  32.555  1.00  0.00     0.122 A 
ATOM      5  C   UNL     1      33.482  25.125  33.508  1.00  0.00     0.047 A 
ATOM      6  C   UNL     1      32.142  25.080  33.123  1.00  0.00     0.019 A 
ENDROOT
BRANCH   1   7
ATOM      7  C   UNL     1      30.348  24.923  31.367  1.00  0.00     0.163 C 
ATOM      8  C   UNL     1      29.246  25.028  32.379  1.00  0.00     0.093 C 
ATOM      9  O   UNL     1      30.030  24.757  30.158  1.00  0.00    -0.294 OA
ENDBRANCH   1   7
BRANCH   2  10
ATOM     10  O   UNL     1      32.510  24.838  29.437  1.00  0.00    -0.507 OA
ATOM     11  H   UNL     1      32.057  25.599  28.943  1.00  0.00     0.293 HD
ENDBRANCH   2  10
BRANCH   4  12
ATOM     12  O   UNL     1      35.831  25.114  32.997  1.00  0.00    -0.497 OA
ATOM     13  C   UNL     1      36.967  24.992  32.148  1.00  0.00     0.278 C 
ENDBRANCH   4  12
TORSDOF 3
ENDMDL
MODEL 3
REMARK VINA RESULT:    -2.892      2.569      4.522
REMARK INTER + INTRA:          -3.465
REMARK INTER:                  -3.128
REMARK INTRA:                  -0.337
REMARK UNBOUND:                -0.150
REMARK SMILES COc1ccc(C(C)=O)c(O)c1
REMARK SMILES IDX 6 1 10 2 12 3 3 4 4 5 5 6 7 7 8 8 9 9 11 10 2 12 1 13
REMARK H PARENT 11 11
REMARK Flexibility Score: inf
ROOT
ATOM      1  C   UNL     1      32.122  24.515  30.132  1.00  0.00     0.059 A 
ATOM      2  C   UNL     1      32.420  23.754  28.978  1.00  0.00     0.130 A 
ATOM      3  C   UNL     1      33.750  23.614  28.551  1.00  0.00     0.093 A 
ATOM      4  C   UNL     1      34.798  24.229  29.256  1.00  0.00     0.122 A 
ATOM      5  C   UNL     1      34.501  24.982  30.394  1.00  0.00     0.047 A 
ATOM      6  C   UNL     1      33.183  25.125  30.830  1.00  0.00     0.019 A 
ENDROOT
BRANCH   1   7
ATOM      7  C   UNL     1      30.719  24.670  30.615  1.00  0.00     0.163 C 
ATOM      8  C   UNL     1      30.338  24.384  32.038  1.00  0.00     0.093 C 
ATOM      9  O   UNL     1      29.810  25.025  29.817  1.00  0.00    -0.294 OA
ENDBRANCH   1   7
BRANCH   2  10
ATOM     10  O   UNL     1      31.401  23.145  28.245  1.00  0.00    -0.507 OA
ATOM     11  H   UNL     1      31.272  23.327  27.256  1.00  0.00     0.293 HD
ENDBRANCH   2  10
BRANCH   4  12
ATOM     12  O   UNL     1      36.139  24.115  28.864  1.00  0.00    -0.497 OA
ATOM     13  C   UNL     1      36.906  22.918  28.953  1.00  0.00     0.278 C 
ENDBRANCH   4  12
TORSDOF 3
ENDMDL
MODEL 4
REMARK VINA RESULT:    -2.667      2.895      3.506
REMARK INTER + INTRA:          -3.206
REMARK INTER:                  -2.898
REMARK INTRA:                  -0.308
REMARK UNBOUND:                -0.150
REMARK SMILES COc1ccc(C(C)=O)c(O)c1
REMARK SMILES IDX 6 1 10 2 12 3 3 4 4 5 5 6 7 7 8 8 9 9 11 10 2 12 1 13
REMARK H PARENT 11 11
REMARK Flexibility Score: inf
ROOT
ATOM      1  C   UNL     1      34.451  24.535  29.884  1.00  0.00     0.059 A 
ATOM      2  C   UNL     1      34.227  23.695  28.768  1.00  0.00     0.130 A 
ATOM      3  C   UNL     1      32.921  23.468  28.308  1.00  0.00     0.093 A 
ATOM      4  C   UNL     1      31.821  24.064  28.949  1.00  0.00     0.122 A 
ATOM      5  C   UNL     1      32.044  24.889  30.052  1.00  0.00     0.047 A 
ATOM      6  C   UNL     1      33.339  25.125  30.516  1.00  0.00     0.019 A 
ENDROOT
BRANCH   1   7
ATOM      7  C   UNL     1      35.829  24.803  30.386  1.00  0.00     0.163 C 
ATOM      8  C   UNL     1      36.096  25.125  31.827  1.00  0.00     0.093 C 
ATOM      9  O   UNL     1      36.808  24.788  29.590  1.00  0.00    -0.294 OA
ENDBRANCH   1   7
BRANCH   2  10
ATOM     10  O   UNL     1      35.296  23.075  28.119  1.00  0.00    -0.507 OA
ATOM     11  H   UNL     1      35.759  22.262  28.510  1.00  0.00     0.293 HD
ENDBRANCH   2  10
BRANCH   4  12
ATOM     12  O   UNL     1      30.501  23.863  28.523  1.00  0.00    -0.497 OA
ATOM     13  C   UNL     1      29.431  24.773  28.758  1.00  0.00     0.278 C 
ENDBRANCH   4  12
TORSDOF 3
ENDMDL
MODEL 5
REMARK VINA RESULT:    -2.634      2.677      4.413
REMARK INTER + INTRA:          -3.169
REMARK INTER:                  -2.963
REMARK INTRA:                  -0.206
REMARK UNBOUND:                -0.150
REMARK SMILES COc1ccc(C(C)=O)c(O)c1
REMARK SMILES IDX 6 1 10 2 12 3 3 4 4 5 5 6 7 7 8 8 9 9 11 10 2 12 1 13
REMARK H PARENT 11 11
REMARK Flexibility Score: inf
ROOT
ATOM      1  C   UNL     1      33.779  24.029  29.262  1.00  0.00     0.059 A 
ATOM      2  C   UNL     1      32.666  23.242  28.884  1.00  0.00     0.130 A 
ATOM      3  C   UNL     1      31.433  23.409  29.533  1.00  0.00     0.093 A 
ATOM      4  C   UNL     1      31.287  24.351  30.565  1.00  0.00     0.122 A 
ATOM      5  C   UNL     1      32.387  25.125  30.939  1.00  0.00     0.047 A 
ATOM      6  C   UNL     1      33.617  24.970  30.298  1.00  0.00     0.019 A 
ENDROOT
BRANCH   1   7
ATOM      7  C   UNL     1      35.098  23.881  28.582  1.00  0.00     0.163 C 
ATOM      8  C   UNL     1      36.146  24.952  28.652  1.00  0.00     0.093 C 
ATOM      9  O   UNL     1      35.348  22.848  27.903  1.00  0.00    -0.294 OA
ENDBRANCH   1   7
BRANCH   2  10
ATOM     10  O   UNL     1      32.782  22.286  27.875  1.00  0.00    -0.507 OA
ATOM     11  H   UNL     1      33.684  22.009  27.503  1.00  0.00     0.293 HD
ENDBRANCH   2  10
BRANCH   4  12
ATOM     12  O   UNL     1      30.073  24.549  31.239  1.00  0.00    -0.497 OA
ATOM     13  C   UNL     1      29.964  24.913  32.612  1.00  0.00     0.278 C 
ENDBRANCH   4  12
TORSDOF 3
ENDMDL
MODEL 6
REMARK VINA RESULT:    -1.792      2.433      4.026
REMARK INTER + INTRA:          -2.203
REMARK INTER:                  -2.875
REMARK INTRA:                   0.672
REMARK UNBOUND:                -0.150
REMARK SMILES COc1ccc(C(C)=O)c(O)c1
REMARK SMILES IDX 6 1 10 2 12 3 3 4 4 5 5 6 7 7 8 8 9 9 11 10 2 12 1 13
REMARK H PARENT 11 11
REMARK Flexibility Score: inf
ROOT
ATOM      1  C   UNL     1      32.309  25.009  30.591  1.00  0.00     0.059 A 
ATOM      2  C   UNL     1      33.610  24.930  31.141  1.00  0.00     0.130 A 
ATOM      3  C   UNL     1      34.732  24.955  30.299  1.00  0.00     0.093 A 
ATOM      4  C   UNL     1      34.582  25.051  28.906  1.00  0.00     0.122 A 
ATOM      5  C   UNL     1      33.297  25.125  28.365  1.00  0.00     0.047 A 
ATOM      6  C   UNL     1      32.174  25.105  29.192  1.00  0.00     0.019 A 
ENDROOT
BRANCH   1   7
ATOM      7  C   UNL     1      31.099  24.997  31.463  1.00  0.00     0.163 C 
ATOM      8  C   UNL     1      31.200  24.856  32.952  1.00  0.00     0.093 C 
ATOM      9  O   UNL     1      29.949  25.080  30.951  1.00  0.00    -0.294 OA
ENDBRANCH   1   7
BRANCH   2  10
ATOM     10  O   UNL     1      33.793  24.817  32.520  1.00  0.00    -0.507 OA
ATOM     11  H   UNL     1      33.699  25.616  33.138  1.00  0.00     0.293 HD
ENDBRANCH   2  10
BRANCH   4  12
ATOM     12  O   UNL     1      35.677  25.078  28.029  1.00  0.00    -0.497 OA
ATOM     13  C   UNL     1      36.962  24.544  28.330  1.00  0.00     0.278 C 
ENDBRANCH   4  12
TORSDOF 3
ENDMDL
MODEL 7
REMARK VINA RESULT:    -1.579      1.922      2.678
REMARK INTER + INTRA:          -1.960
REMARK INTER:                  -1.814
REMARK INTRA:                  -0.145
REMARK UNBOUND:                -0.150
REMARK SMILES COc1ccc(C(C)=O)c(O)c1
REMARK SMILES IDX 6 1 10 2 12 3 3 4 4 5 5 6 7 7 8 8 9 9 11 10 2 12 1 13
REMARK H PARENT 11 11
REMARK Flexibility Score: inf
ROOT
ATOM      1  C   UNL     1      30.950  24.572  31.714  1.00  0.00     0.059 A 
ATOM      2  C   UNL     1      32.352  24.750  31.644  1.00  0.00     0.130 A 
ATOM      3  C   UNL     1      33.028  24.540  30.432  1.00  0.00     0.093 A 
ATOM      4  C   UNL     1      32.329  24.146  29.279  1.00  0.00     0.122 A 
ATOM      5  C   UNL     1      30.946  23.967  29.351  1.00  0.00     0.047 A 
ATOM      6  C   UNL     1      30.263  24.177  30.550  1.00  0.00     0.019 A 
ENDROOT
BRANCH   1   7
ATOM      7  C   UNL     1      30.205  24.799  32.985  1.00  0.00     0.163 C 
ATOM      8  C   UNL     1      28.711  24.684  33.055  1.00  0.00     0.093 C 
ATOM      9  O   UNL     1      30.825  25.124  34.034  1.00  0.00    -0.294 OA
ENDBRANCH   1   7
BRANCH   2  10
ATOM     10  O   UNL     1      33.078  25.125  32.774  1.00  0.00    -0.507 OA
ATOM     11  H   UNL     1      33.234  26.099  33.010  1.00  0.00     0.293 HD
ENDBRANCH   2  10
BRANCH   4  12
ATOM     12  O   UNL     1      32.966  23.925  28.049  1.00  0.00    -0.497 OA
ATOM     13  C   UNL     1      34.352  23.635  27.901  1.00  0.00     0.278 C 
ENDBRANCH   4  12
TORSDOF 3
ENDMDL
