MODEL 1
REMARK VINA RESULT:    -3.286      0.000      0.000
REMARK INTER + INTRA:          -4.380
REMARK INTER:                  -4.246
REMARK INTRA:                  -0.134
REMARK UNBOUND:                -0.134
REMARK SMILES CCCCCCC(=O)[O-]
REMARK SMILES IDX 5 1 6 2 7 3 8 4 9 5 4 6 3 7 2 8 1 9
REMARK H PARENT
REMARK Flexibility Score: inf
ROOT
ATOM      1  C   UNL     1      57.362  27.457  50.696  1.00  0.00     0.006 C 
ENDROOT
BRANCH   1   2
ATOM      2  C   UNL     1      58.700  26.748  50.451  1.00  0.00     0.053 C 
BRANCH   2   3
ATOM      3  C   UNL     1      59.656  27.616  49.690  1.00  0.00     0.041 C 
ATOM      4  O   UNL     1      60.832  27.225  49.473  1.00  0.00    -0.550 OA
ATOM      5  O   UNL     1      59.235  28.843  49.194  1.00  0.00    -0.550 OA
ENDBRANCH   2   3
ENDBRANCH   1   2
BRANCH   1   6
ATOM      6  C   UNL     1      56.160  26.525  50.476  1.00  0.00     0.000 C 
BRANCH   6   7
ATOM      7  C   UNL     1      54.860  27.331  50.333  1.00  0.00    -0.000 C 
BRANCH   7   8
ATOM      8  C   UNL     1      53.685  26.471  49.842  1.00  0.00    -0.003 C 
ATOM      9  C   UNL     1      54.125  25.094  49.347  1.00  0.00     0.004 C 
ENDBRANCH   7   8
ENDBRANCH   6   7
ENDBRANCH   1   6
TORSDOF 5
ENDMDL
MODEL 2
REMARK VINA RESULT:    -3.273      3.609      5.291
REMARK INTER + INTRA:          -4.363
REMARK INTER:                  -4.210
REMARK INTRA:                  -0.153
REMARK UNBOUND:                -0.134
REMARK SMILES CCCCCCC(=O)[O-]
REMARK SMILES IDX 5 1 6 2 7 3 8 4 9 5 4 6 3 7 2 8 1 9
REMARK H PARENT
REMARK Flexibility Score: inf
ROOT
ATOM      1  C   UNL     1      54.749  27.302  50.330  1.00  0.00     0.006 C 
ENDROOT
BRANCH   1   2
ATOM      2  C   UNL     1      55.187  25.882  49.946  1.00  0.00     0.053 C 
BRANCH   2   3
ATOM      3  C   UNL     1      54.013  25.011  49.615  1.00  0.00     0.041 C 
ATOM      4  O   UNL     1      53.133  25.411  48.809  1.00  0.00    -0.550 OA
ATOM      5  O   UNL     1      53.912  23.742  50.172  1.00  0.00    -0.550 OA
ENDBRANCH   2   3
ENDBRANCH   1   2
BRANCH   1   6
ATOM      6  C   UNL     1      55.905  28.131  50.908  1.00  0.00     0.000 C 
BRANCH   6   7
ATOM      7  C   UNL     1      57.255  27.446  50.651  1.00  0.00    -0.000 C 
BRANCH   7   8
ATOM      8  C   UNL     1      58.445  28.400  50.835  1.00  0.00    -0.003 C 
ATOM      9  C   UNL     1      59.263  28.580  49.557  1.00  0.00     0.004 C 
ENDBRANCH   7   8
ENDBRANCH   6   7
ENDBRANCH   1   6
TORSDOF 5
ENDMDL
MODEL 3
REMARK VINA RESULT:    -3.220      1.385      1.752
REMARK INTER + INTRA:          -4.296
REMARK INTER:                  -4.118
REMARK INTRA:                  -0.178
REMARK UNBOUND:                -0.134
REMARK SMILES CCCCCCC(=O)[O-]
REMARK SMILES IDX 5 1 6 2 7 3 8 4 9 5 4 6 3 7 2 8 1 9
REMARK H PARENT
REMARK Flexibility Score: inf
ROOT
ATOM      1  C   UNL     1      58.551  28.569  50.881  1.00  0.00     0.006 C 
ENDROOT
BRANCH   1   2
ATOM      2  C   UNL     1      59.203  28.274  49.524  1.00  0.00     0.053 C 
BRANCH   2   3
ATOM      3  C   UNL     1      60.261  27.219  49.635  1.00  0.00     0.041 C 
ATOM      4  O   UNL     1      59.956  26.001  49.539  1.00  0.00    -0.550 OA
ATOM      5  O   UNL     1      61.590  27.583  49.814  1.00  0.00    -0.550 OA
ENDBRANCH   2   3
ENDBRANCH   1   2
BRANCH   1   6
ATOM      6  C   UNL     1      57.028  28.370  50.850  1.00  0.00     0.000 C 
BRANCH   6   7
ATOM      7  C   UNL     1      56.672  26.888  50.662  1.00  0.00    -0.000 C 
BRANCH   7   8
ATOM      8  C   UNL     1      55.192  26.678  50.302  1.00  0.00    -0.003 C 
ATOM      9  C   UNL     1      54.931  25.325  49.642  1.00  0.00     0.004 C 
ENDBRANCH   7   8
ENDBRANCH   6   7
ENDBRANCH   1   6
TORSDOF 5
ENDMDL
MODEL 4
REMARK VINA RESULT:    -3.216     13.133     14.511
REMARK INTER + INTRA:          -4.290
REMARK INTER:                  -4.067
REMARK INTRA:                  -0.222
REMARK UNBOUND:                -0.134
REMARK SMILES CCCCCCC(=O)[O-]
REMARK SMILES IDX 5 1 6 2 7 3 8 4 9 5 4 6 3 7 2 8 1 9
REMARK H PARENT
REMARK Flexibility Score: inf
ROOT
ATOM      1  C   UNL     1      62.520  32.685  60.193  1.00  0.00     0.006 C 
ENDROOT
BRANCH   1   2
ATOM      2  C   UNL     1      61.774  31.537  60.886  1.00  0.00     0.053 C 
BRANCH   2   3
ATOM      3  C   UNL     1      62.715  30.473  61.363  1.00  0.00     0.041 C 
ATOM      4  O   UNL     1      62.279  29.480  62.002  1.00  0.00    -0.550 OA
ATOM      5  O   UNL     1      64.071  30.564  61.074  1.00  0.00    -0.550 OA
ENDBRANCH   2   3
ENDBRANCH   1   2
BRANCH   1   6
ATOM      6  C   UNL     1      61.896  34.055  60.500  1.00  0.00     0.000 C 
BRANCH   6   7
ATOM      7  C   UNL     1      62.945  35.018  61.075  1.00  0.00    -0.000 C 
BRANCH   7   8
ATOM      8  C   UNL     1      64.307  34.343  61.298  1.00  0.00    -0.003 C 
ATOM      9  C   UNL     1      65.315  35.260  61.990  1.00  0.00     0.004 C 
ENDBRANCH   7   8
ENDBRANCH   6   7
ENDBRANCH   1   6
TORSDOF 5
ENDMDL
MODEL 5
REMARK VINA RESULT:    -3.201     12.666     13.980
REMARK INTER + INTRA:          -4.271
REMARK INTER:                  -4.058
REMARK INTRA:                  -0.213
REMARK UNBOUND:                -0.134
REMARK SMILES CCCCCCC(=O)[O-]
REMARK SMILES IDX 5 1 6 2 7 3 8 4 9 5 4 6 3 7 2 8 1 9
REMARK H PARENT
REMARK Flexibility Score: inf
ROOT
ATOM      1  C   UNL     1      61.600  31.316  60.330  1.00  0.00     0.006 C 
ENDROOT
BRANCH   1   2
ATOM      2  C   UNL     1      61.538  30.535  61.649  1.00  0.00     0.053 C 
BRANCH   2   3
ATOM      3  C   UNL     1      62.565  29.445  61.696  1.00  0.00     0.041 C 
ATOM      4  O   UNL     1      62.210  28.238  61.671  1.00  0.00    -0.550 OA
ATOM      5  O   UNL     1      63.917  29.765  61.734  1.00  0.00    -0.550 OA
ENDBRANCH   2   3
ENDBRANCH   1   2
BRANCH   1   6
ATOM      6  C   UNL     1      61.931  32.800  60.546  1.00  0.00     0.000 C 
BRANCH   6   7
ATOM      7  C   UNL     1      63.449  33.023  60.595  1.00  0.00    -0.000 C 
BRANCH   7   8
ATOM      8  C   UNL     1      63.826  34.390  61.189  1.00  0.00    -0.003 C 
ATOM      9  C   UNL     1      62.681  35.400  61.122  1.00  0.00     0.004 C 
ENDBRANCH   7   8
ENDBRANCH   6   7
ENDBRANCH   1   6
TORSDOF 5
ENDMDL
MODEL 6
REMARK VINA RESULT:    -3.171      3.089      4.932
REMARK INTER + INTRA:          -4.232
REMARK INTER:                  -3.996
REMARK INTRA:                  -0.236
REMARK UNBOUND:                -0.134
REMARK SMILES CCCCCCC(=O)[O-]
REMARK SMILES IDX 5 1 6 2 7 3 8 4 9 5 4 6 3 7 2 8 1 9
REMARK H PARENT
REMARK Flexibility Score: inf
ROOT
ATOM      1  C   UNL     1      56.569  27.607  50.728  1.00  0.00     0.006 C 
ENDROOT
BRANCH   1   2
ATOM      2  C   UNL     1      56.175  26.158  50.409  1.00  0.00     0.053 C 
BRANCH   2   3
ATOM      3  C   UNL     1      54.783  26.070  49.864  1.00  0.00     0.041 C 
ATOM      4  O   UNL     1      53.998  27.049  49.964  1.00  0.00    -0.550 OA
ATOM      5  O   UNL     1      54.363  24.915  49.215  1.00  0.00    -0.550 OA
ENDBRANCH   2   3
ENDBRANCH   1   2
BRANCH   1   6
ATOM      6  C   UNL     1      58.046  27.734  51.131  1.00  0.00     0.000 C 
BRANCH   6   7
ATOM      7  C   UNL     1      58.849  28.467  50.047  1.00  0.00    -0.000 C 
BRANCH   7   8
ATOM      8  C   UNL     1      60.030  27.634  49.523  1.00  0.00    -0.003 C 
ATOM      9  C   UNL     1      59.903  26.150  49.862  1.00  0.00     0.004 C 
ENDBRANCH   7   8
ENDBRANCH   6   7
ENDBRANCH   1   6
TORSDOF 5
ENDMDL
MODEL 7
REMARK VINA RESULT:    -3.096      1.177      1.596
REMARK INTER + INTRA:          -4.135
REMARK INTER:                  -3.982
REMARK INTRA:                  -0.153
REMARK UNBOUND:                -0.134
REMARK SMILES CCCCCCC(=O)[O-]
REMARK SMILES IDX 5 1 6 2 7 3 8 4 9 5 4 6 3 7 2 8 1 9
REMARK H PARENT
REMARK Flexibility Score: inf
ROOT
ATOM      1  C   UNL     1      57.449  25.570  50.557  1.00  0.00     0.006 C 
ENDROOT
BRANCH   1   2
ATOM      2  C   UNL     1      58.073  26.969  50.634  1.00  0.00     0.053 C 
BRANCH   2   3
ATOM      3  C   UNL     1      59.404  27.021  49.947  1.00  0.00     0.041 C 
ATOM      4  O   UNL     1      60.024  25.958  49.683  1.00  0.00    -0.550 OA
ATOM      5  O   UNL     1      59.944  28.244  49.570  1.00  0.00    -0.550 OA
ENDBRANCH   2   3
ENDBRANCH   1   2
BRANCH   1   6
ATOM      6  C   UNL     1      55.955  25.618  50.203  1.00  0.00     0.000 C 
BRANCH   6   7
ATOM      7  C   UNL     1      55.387  27.030  50.407  1.00  0.00    -0.000 C 
BRANCH   7   8
ATOM      8  C   UNL     1      53.906  27.133  50.011  1.00  0.00    -0.003 C 
ATOM      9  C   UNL     1      53.283  28.475  50.393  1.00  0.00     0.004 C 
ENDBRANCH   7   8
ENDBRANCH   6   7
ENDBRANCH   1   6
TORSDOF 5
ENDMDL
MODEL 8
REMARK VINA RESULT:    -2.986     13.319     14.360
REMARK INTER + INTRA:          -3.992
REMARK INTER:                  -3.880
REMARK INTRA:                  -0.112
REMARK UNBOUND:                -0.134
REMARK SMILES CCCCCCC(=O)[O-]
REMARK SMILES IDX 5 1 6 2 7 3 8 4 9 5 4 6 3 7 2 8 1 9
REMARK H PARENT
REMARK Flexibility Score: inf
ROOT
ATOM      1  C   UNL     1      63.750  31.139  60.336  1.00  0.00     0.006 C 
ENDROOT
BRANCH   1   2
ATOM      2  C   UNL     1      63.901  30.097  61.452  1.00  0.00     0.053 C 
BRANCH   2   3
ATOM      3  C   UNL     1      62.607  29.395  61.732  1.00  0.00     0.041 C 
ATOM      4  O   UNL     1      62.548  28.138  61.703  1.00  0.00    -0.550 OA
ATOM      5  O   UNL     1      61.474  30.130  62.058  1.00  0.00    -0.550 OA
ENDBRANCH   2   3
ENDBRANCH   1   2
BRANCH   1   6
ATOM      6  C   UNL     1      64.354  32.497  60.723  1.00  0.00     0.000 C 
BRANCH   6   7
ATOM      7  C   UNL     1      63.274  33.589  60.758  1.00  0.00    -0.000 C 
BRANCH   7   8
ATOM      8  C   UNL     1      63.823  34.947  61.221  1.00  0.00    -0.003 C 
ATOM      9  C   UNL     1      62.746  36.030  61.285  1.00  0.00     0.004 C 
ENDBRANCH   7   8
ENDBRANCH   6   7
ENDBRANCH   1   6
TORSDOF 5
ENDMDL
MODEL 9
REMARK VINA RESULT:    -2.886     12.445     13.408
REMARK INTER + INTRA:          -3.863
REMARK INTER:                  -3.561
REMARK INTRA:                  -0.302
REMARK UNBOUND:                -0.134
REMARK SMILES CCCCCCC(=O)[O-]
REMARK SMILES IDX 5 1 6 2 7 3 8 4 9 5 4 6 3 7 2 8 1 9
REMARK H PARENT
REMARK Flexibility Score: inf
ROOT
ATOM      1  C   UNL     1      62.161  31.839  59.726  1.00  0.00     0.006 C 
ENDROOT
BRANCH   1   2
ATOM      2  C   UNL     1      62.165  33.254  60.319  1.00  0.00     0.053 C 
BRANCH   2   3
ATOM      3  C   UNL     1      63.509  33.618  60.875  1.00  0.00     0.041 C 
ATOM      4  O   UNL     1      63.706  34.763  61.358  1.00  0.00    -0.550 OA
ATOM      5  O   UNL     1      64.533  32.680  60.887  1.00  0.00    -0.550 OA
ENDBRANCH   2   3
ENDBRANCH   1   2
BRANCH   1   6
ATOM      6  C   UNL     1      61.037  30.968  60.307  1.00  0.00     0.000 C 
BRANCH   6   7
ATOM      7  C   UNL     1      61.396  30.476  61.717  1.00  0.00    -0.000 C 
BRANCH   7   8
ATOM      8  C   UNL     1      62.697  29.658  61.743  1.00  0.00    -0.003 C 
ATOM      9  C   UNL     1      62.471  28.179  61.433  1.00  0.00     0.004 C 
ENDBRANCH   7   8
ENDBRANCH   6   7
ENDBRANCH   1   6
TORSDOF 5
ENDMDL
