MODEL 1
REMARK VINA RESULT:    -2.407      0.000      0.000
REMARK INTER + INTRA:          -3.344
REMARK INTER:                  -3.251
REMARK INTRA:                  -0.092
REMARK UNBOUND:                -0.092
REMARK SMILES [NH3+]CCCC[C@H]([NH3+])C(=O)[O-]
REMARK SMILES IDX 4 1 3 2 2 3 1 4 5 8 6 9 7 10 8 14 9 15 10 16
REMARK H PARENT 1 5 1 6 1 7 7 11 7 12 7 13
REMARK Flexibility Score: inf
ROOT
ATOM      1  C   UNL     1      -1.360   2.223  -5.024  1.00  0.00     0.012 C 
ENDROOT
BRANCH   1   2
ATOM      2  C   UNL     1      -1.589   3.741  -5.081  1.00  0.00     0.061 C 
BRANCH   2   3
ATOM      3  C   UNL     1      -1.918   4.341  -3.704  1.00  0.00     0.258 C 
BRANCH   3   4
ATOM      4  N   UNL     1      -2.004   5.803  -3.743  1.00  0.00    -0.358 N 
ATOM      5  H   UNL     1      -2.895   6.103  -4.199  1.00  0.00     0.344 HD
ATOM      6  H   UNL     1      -1.944   6.197  -2.777  1.00  0.00     0.344 HD
ATOM      7  H   UNL     1      -1.201   6.175  -4.300  1.00  0.00     0.344 HD
ENDBRANCH   3   4
ENDBRANCH   2   3
ENDBRANCH   1   2
BRANCH   1   8
ATOM      8  C   UNL     1      -0.312   1.789  -6.064  1.00  0.00     0.072 C 
BRANCH   8   9
ATOM      9  C   UNL     1       0.894   1.025  -5.471  1.00  0.00     0.227 C 
BRANCH   9  10
ATOM     10  N   UNL     1       1.840   1.923  -4.795  1.00  0.00    -0.350 N 
ATOM     11  H   UNL     1       1.358   2.532  -4.095  1.00  0.00     0.345 HD
ATOM     12  H   UNL     1       2.580   1.363  -4.310  1.00  0.00     0.345 HD
ATOM     13  H   UNL     1       2.306   2.535  -5.504  1.00  0.00     0.345 HD
ENDBRANCH   9  10
BRANCH   9  14
ATOM     14  C   UNL     1       1.586   0.185  -6.515  1.00  0.00     0.099 C 
ATOM     15  O   UNL     1       2.685  -0.370  -6.246  1.00  0.00    -0.544 OA
ATOM     16  O   UNL     1       1.002  -0.027  -7.758  1.00  0.00    -0.544 OA
ENDBRANCH   9  14
ENDBRANCH   8   9
ENDBRANCH   1   8
TORSDOF 7
ENDMDL
MODEL 2
REMARK VINA RESULT:    -2.318      3.784      5.636
REMARK INTER + INTRA:          -3.223
REMARK INTER:                  -3.134
REMARK INTRA:                  -0.089
REMARK UNBOUND:                -0.092
REMARK SMILES [NH3+]CCCC[C@H]([NH3+])C(=O)[O-]
REMARK SMILES IDX 4 1 3 2 2 3 1 4 5 8 6 9 7 10 8 14 9 15 10 16
REMARK H PARENT 1 5 1 6 1 7 7 11 7 12 7 13
REMARK Flexibility Score: inf
ROOT
ATOM      1  C   UNL     1      -1.016   2.235  -5.735  1.00  0.00     0.012 C 
ENDROOT
BRANCH   1   2
ATOM      2  C   UNL     1       0.329   1.505  -5.602  1.00  0.00     0.061 C 
BRANCH   2   3
ATOM      3  C   UNL     1       0.671   0.667  -6.845  1.00  0.00     0.258 C 
BRANCH   3   4
ATOM      4  N   UNL     1       1.945  -0.041  -6.702  1.00  0.00    -0.358 N 
ATOM      5  H   UNL     1       2.636   0.552  -6.189  1.00  0.00     0.344 HD
ATOM      6  H   UNL     1       1.804  -0.946  -6.199  1.00  0.00     0.344 HD
ATOM      7  H   UNL     1       2.325  -0.250  -7.654  1.00  0.00     0.344 HD
ENDBRANCH   3   4
ENDBRANCH   2   3
ENDBRANCH   1   2
BRANCH   1   8
ATOM      8  C   UNL     1      -1.408   2.904  -4.405  1.00  0.00     0.072 C 
BRANCH   8   9
ATOM      9  C   UNL     1      -2.070   4.293  -4.563  1.00  0.00     0.227 C 
BRANCH   9  10
ATOM     10  N   UNL     1      -1.795   4.891  -5.876  1.00  0.00    -0.350 N 
ATOM     11  H   UNL     1      -2.377   5.743  -6.039  1.00  0.00     0.345 HD
ATOM     12  H   UNL     1      -0.782   5.148  -5.946  1.00  0.00     0.345 HD
ATOM     13  H   UNL     1      -2.006   4.193  -6.627  1.00  0.00     0.345 HD
ENDBRANCH   9  10
BRANCH   9  14
ATOM     14  C   UNL     1      -1.677   5.224  -3.443  1.00  0.00     0.099 C 
ATOM     15  O   UNL     1      -1.156   4.759  -2.395  1.00  0.00    -0.544 OA
ATOM     16  O   UNL     1      -1.837   6.599  -3.573  1.00  0.00    -0.544 OA
ENDBRANCH   9  14
ENDBRANCH   8   9
ENDBRANCH   1   8
TORSDOF 7
ENDMDL
MODEL 3
REMARK VINA RESULT:    -2.121      1.218      1.494
REMARK INTER + INTRA:          -2.957
REMARK INTER:                  -2.896
REMARK INTRA:                  -0.061
REMARK UNBOUND:                -0.092
REMARK SMILES [NH3+]CCCC[C@H]([NH3+])C(=O)[O-]
REMARK SMILES IDX 4 1 3 2 2 3 1 4 5 8 6 9 7 10 8 14 9 15 10 16
REMARK H PARENT 1 5 1 6 1 7 7 11 7 12 7 13
REMARK Flexibility Score: inf
ROOT
ATOM      1  C   UNL     1      -0.285   2.183  -5.084  1.00  0.00     0.012 C 
ENDROOT
BRANCH   1   2
ATOM      2  C   UNL     1      -1.489   3.136  -5.025  1.00  0.00     0.061 C 
BRANCH   2   3
ATOM      3  C   UNL     1      -1.581   3.888  -3.686  1.00  0.00     0.258 C 
BRANCH   3   4
ATOM      4  N   UNL     1      -2.249   5.184  -3.824  1.00  0.00    -0.358 N 
ATOM      5  H   UNL     1      -1.937   5.837  -3.070  1.00  0.00     0.344 HD
ATOM      6  H   UNL     1      -2.051   5.597  -4.763  1.00  0.00     0.344 HD
ATOM      7  H   UNL     1      -3.282   5.043  -3.739  1.00  0.00     0.344 HD
ENDBRANCH   3   4
ENDBRANCH   2   3
ENDBRANCH   1   2
BRANCH   1   8
ATOM      8  C   UNL     1      -0.242   1.442  -6.433  1.00  0.00     0.072 C 
BRANCH   8   9
ATOM      9  C   UNL     1       0.825   0.325  -6.510  1.00  0.00     0.227 C 
BRANCH   9  10
ATOM     10  N   UNL     1       2.023   0.648  -5.723  1.00  0.00    -0.350 N 
ATOM     11  H   UNL     1       1.820   1.372  -4.996  1.00  0.00     0.345 HD
ATOM     12  H   UNL     1       2.387  -0.215  -5.256  1.00  0.00     0.345 HD
ATOM     13  H   UNL     1       2.769   1.014  -6.359  1.00  0.00     0.345 HD
ENDBRANCH   9  10
BRANCH   9  14
ATOM     14  C   UNL     1       1.180  -0.006  -7.938  1.00  0.00     0.099 C 
ATOM     15  O   UNL     1       0.435  -0.768  -8.608  1.00  0.00    -0.544 OA
ATOM     16  O   UNL     1       2.295   0.562  -8.543  1.00  0.00    -0.544 OA
ENDBRANCH   9  14
ENDBRANCH   8   9
ENDBRANCH   1   8
TORSDOF 7
ENDMDL
MODEL 4
REMARK VINA RESULT:    -1.165      1.604      2.066
REMARK INTER + INTRA:          -1.666
REMARK INTER:                  -1.592
REMARK INTRA:                  -0.074
REMARK UNBOUND:                -0.092
REMARK SMILES [NH3+]CCCC[C@H]([NH3+])C(=O)[O-]
REMARK SMILES IDX 4 1 3 2 2 3 1 4 5 8 6 9 7 10 8 14 9 15 10 16
REMARK H PARENT 1 5 1 6 1 7 7 11 7 12 7 13
REMARK Flexibility Score: inf
ROOT
ATOM      1  C   UNL     1      -1.866   3.182  -4.357  1.00  0.00     0.012 C 
ENDROOT
BRANCH   1   2
ATOM      2  C   UNL     1      -1.865   4.471  -3.521  1.00  0.00     0.061 C 
BRANCH   2   3
ATOM      3  C   UNL     1      -2.197   5.717  -4.358  1.00  0.00     0.258 C 
BRANCH   3   4
ATOM      4  N   UNL     1      -1.834   6.958  -3.671  1.00  0.00    -0.358 N 
ATOM      5  H   UNL     1      -2.685   7.542  -3.499  1.00  0.00     0.344 HD
ATOM      6  H   UNL     1      -1.355   6.746  -2.767  1.00  0.00     0.344 HD
ATOM      7  H   UNL     1      -1.173   7.499  -4.274  1.00  0.00     0.344 HD
ENDBRANCH   3   4
ENDBRANCH   2   3
ENDBRANCH   1   2
BRANCH   1   8
ATOM      8  C   UNL     1      -0.427   2.724  -4.656  1.00  0.00     0.072 C 
BRANCH   8   9
ATOM      9  C   UNL     1      -0.263   1.985  -6.005  1.00  0.00     0.227 C 
BRANCH   9  10
ATOM     10  N   UNL     1      -1.495   1.296  -6.413  1.00  0.00    -0.350 N 
ATOM     11  H   UNL     1      -2.075   1.891  -7.047  1.00  0.00     0.345 HD
ATOM     12  H   UNL     1      -1.257   0.402  -6.903  1.00  0.00     0.345 HD
ATOM     13  H   UNL     1      -2.060   1.063  -5.564  1.00  0.00     0.345 HD
ENDBRANCH   9  10
BRANCH   9  14
ATOM     14  C   UNL     1       0.912   1.039  -5.980  1.00  0.00     0.099 C 
ATOM     15  O   UNL     1       1.088   0.233  -6.931  1.00  0.00    -0.544 OA
ATOM     16  O   UNL     1       1.835   1.080  -4.941  1.00  0.00    -0.544 OA
ENDBRANCH   9  14
ENDBRANCH   8   9
ENDBRANCH   1   8
TORSDOF 7
ENDMDL
MODEL 5
REMARK VINA RESULT:    -1.132      1.667      1.857
REMARK INTER + INTRA:          -1.621
REMARK INTER:                  -2.052
REMARK INTRA:                   0.431
REMARK UNBOUND:                -0.092
REMARK SMILES [NH3+]CCCC[C@H]([NH3+])C(=O)[O-]
REMARK SMILES IDX 4 1 3 2 2 3 1 4 5 8 6 9 7 10 8 14 9 15 10 16
REMARK H PARENT 1 5 1 6 1 7 7 11 7 12 7 13
REMARK Flexibility Score: inf
ROOT
ATOM      1  C   UNL     1      -0.078   2.333  -5.267  1.00  0.00     0.012 C 
ENDROOT
BRANCH   1   2
ATOM      2  C   UNL     1      -1.422   3.071  -5.182  1.00  0.00     0.061 C 
BRANCH   2   3
ATOM      3  C   UNL     1      -1.641   3.744  -3.816  1.00  0.00     0.258 C 
BRANCH   3   4
ATOM      4  N   UNL     1      -2.233   5.077  -3.944  1.00  0.00    -0.358 N 
ATOM      5  H   UNL     1      -2.549   5.427  -3.011  1.00  0.00     0.344 HD
ATOM      6  H   UNL     1      -1.544   5.742  -4.363  1.00  0.00     0.344 HD
ATOM      7  H   UNL     1      -3.062   5.020  -4.578  1.00  0.00     0.344 HD
ENDBRANCH   3   4
ENDBRANCH   2   3
ENDBRANCH   1   2
BRANCH   1   8
ATOM      8  C   UNL     1      -0.189   1.101  -6.184  1.00  0.00     0.072 C 
BRANCH   8   9
ATOM      9  C   UNL     1       1.112   0.759  -6.948  1.00  0.00     0.227 C 
BRANCH   9  10
ATOM     10  N   UNL     1       0.892  -0.257  -7.987  1.00  0.00    -0.350 N 
ATOM     11  H   UNL     1       1.730  -0.362  -8.603  1.00  0.00     0.345 HD
ATOM     12  H   UNL     1       0.675  -1.179  -7.543  1.00  0.00     0.345 HD
ATOM     13  H   UNL     1       0.075   0.022  -8.578  1.00  0.00     0.345 HD
ENDBRANCH   9  10
BRANCH   9  14
ATOM     14  C   UNL     1       2.217   0.350  -6.006  1.00  0.00     0.099 C 
ATOM     15  O   UNL     1       3.139  -0.406  -6.412  1.00  0.00    -0.544 OA
ATOM     16  O   UNL     1       2.258   0.837  -4.704  1.00  0.00    -0.544 OA
ENDBRANCH   9  14
ENDBRANCH   8   9
ENDBRANCH   1   8
TORSDOF 7
ENDMDL
MODEL 6
REMARK VINA RESULT:    -0.732      2.318      2.934
REMARK INTER + INTRA:          -1.081
REMARK INTER:                  -0.947
REMARK INTRA:                  -0.134
REMARK UNBOUND:                -0.092
REMARK SMILES [NH3+]CCCC[C@H]([NH3+])C(=O)[O-]
REMARK SMILES IDX 4 1 3 2 2 3 1 4 5 8 6 9 7 10 8 14 9 15 10 16
REMARK H PARENT 1 5 1 6 1 7 7 11 7 12 7 13
REMARK Flexibility Score: inf
ROOT
ATOM      1  C   UNL     1       1.083   1.136  -5.574  1.00  0.00     0.012 C 
ENDROOT
BRANCH   1   2
ATOM      2  C   UNL     1      -0.252   1.680  -6.106  1.00  0.00     0.061 C 
BRANCH   2   3
ATOM      3  C   UNL     1      -1.042   2.454  -5.037  1.00  0.00     0.258 C 
BRANCH   3   4
ATOM      4  N   UNL     1      -1.535   3.739  -5.536  1.00  0.00    -0.358 N 
ATOM      5  H   UNL     1      -2.483   3.625  -5.963  1.00  0.00     0.344 HD
ATOM      6  H   UNL     1      -1.572   4.440  -4.761  1.00  0.00     0.344 HD
ATOM      7  H   UNL     1      -0.878   4.093  -6.268  1.00  0.00     0.344 HD
ENDBRANCH   3   4
ENDBRANCH   2   3
ENDBRANCH   1   2
BRANCH   1   8
ATOM      8  C   UNL     1       1.605  -0.002  -6.470  1.00  0.00     0.072 C 
BRANCH   8   9
ATOM      9  C   UNL     1       1.286   0.176  -7.973  1.00  0.00     0.227 C 
BRANCH   9  10
ATOM     10  N   UNL     1       0.409  -0.887  -8.482  1.00  0.00    -0.350 N 
ATOM     11  H   UNL     1       0.616  -1.108  -9.483  1.00  0.00     0.345 HD
ATOM     12  H   UNL     1       0.529  -1.754  -7.907  1.00  0.00     0.345 HD
ATOM     13  H   UNL     1      -0.589  -0.582  -8.407  1.00  0.00     0.345 HD
ENDBRANCH   9  10
BRANCH   9  14
ATOM     14  C   UNL     1       2.545   0.290  -8.796  1.00  0.00     0.099 C 
ATOM     15  O   UNL     1       3.634   0.587  -8.238  1.00  0.00    -0.544 OA
ATOM     16  O   UNL     1       2.529   0.022 -10.160  1.00  0.00    -0.544 OA
ENDBRANCH   9  14
ENDBRANCH   8   9
ENDBRANCH   1   8
TORSDOF 7
ENDMDL
MODEL 7
REMARK VINA RESULT:    -0.211      2.973      5.227
REMARK INTER + INTRA:          -0.377
REMARK INTER:                  -0.290
REMARK INTRA:                  -0.087
REMARK UNBOUND:                -0.092
REMARK SMILES [NH3+]CCCC[C@H]([NH3+])C(=O)[O-]
REMARK SMILES IDX 4 1 3 2 2 3 1 4 5 8 6 9 7 10 8 14 9 15 10 16
REMARK H PARENT 1 5 1 6 1 7 7 11 7 12 7 13
REMARK Flexibility Score: inf
ROOT
ATOM      1  C   UNL     1       1.123   0.134  -6.955  1.00  0.00     0.012 C 
ENDROOT
BRANCH   1   2
ATOM      2  C   UNL     1       1.081  -0.279  -8.434  1.00  0.00     0.061 C 
BRANCH   2   3
ATOM      3  C   UNL     1       2.208   0.364  -9.259  1.00  0.00     0.258 C 
BRANCH   3   4
ATOM      4  N   UNL     1       3.491   0.344  -8.553  1.00  0.00    -0.358 N 
ATOM      5  H   UNL     1       3.798  -0.641  -8.382  1.00  0.00     0.344 HD
ATOM      6  H   UNL     1       4.217   0.857  -9.103  1.00  0.00     0.344 HD
ATOM      7  H   UNL     1       3.378   0.824  -7.631  1.00  0.00     0.344 HD
ENDBRANCH   3   4
ENDBRANCH   2   3
ENDBRANCH   1   2
BRANCH   1   8
ATOM      8  C   UNL     1      -0.165   0.877  -6.558  1.00  0.00     0.072 C 
BRANCH   8   9
ATOM      9  C   UNL     1       0.071   2.150  -5.710  1.00  0.00     0.227 C 
BRANCH   9  10
ATOM     10  N   UNL     1       1.218   2.005  -4.803  1.00  0.00    -0.350 N 
ATOM     11  H   UNL     1       0.970   2.280  -3.825  1.00  0.00     0.345 HD
ATOM     12  H   UNL     1       1.552   1.014  -4.807  1.00  0.00     0.345 HD
ATOM     13  H   UNL     1       2.001   2.615  -5.133  1.00  0.00     0.345 HD
ENDBRANCH   9  10
BRANCH   9  14
ATOM     14  C   UNL     1      -1.174   2.554  -4.961  1.00  0.00     0.099 C 
ATOM     15  O   UNL     1      -1.375   3.768  -4.690  1.00  0.00    -0.544 OA
ATOM     16  O   UNL     1      -2.130   1.609  -4.607  1.00  0.00    -0.544 OA
ENDBRANCH   9  14
ENDBRANCH   8   9
ENDBRANCH   1   8
TORSDOF 7
ENDMDL
MODEL 8
REMARK VINA RESULT:     0.193      4.629      6.385
REMARK INTER + INTRA:           0.168
REMARK INTER:                   0.274
REMARK INTRA:                  -0.107
REMARK UNBOUND:                -0.092
REMARK SMILES [NH3+]CCCC[C@H]([NH3+])C(=O)[O-]
REMARK SMILES IDX 4 1 3 2 2 3 1 4 5 8 6 9 7 10 8 14 9 15 10 16
REMARK H PARENT 1 5 1 6 1 7 7 11 7 12 7 13
REMARK Flexibility Score: inf
ROOT
ATOM      1  C   UNL     1      -0.610  -1.489  -9.190  1.00  0.00     0.012 C 
ENDROOT
BRANCH   1   2
ATOM      2  C   UNL     1      -0.907  -2.596 -10.214  1.00  0.00     0.061 C 
BRANCH   2   3
ATOM      3  C   UNL     1      -2.230  -3.325  -9.927  1.00  0.00     0.258 C 
BRANCH   3   4
ATOM      4  N   UNL     1      -2.373  -4.545 -10.724  1.00  0.00    -0.358 N 
ATOM      5  H   UNL     1      -2.033  -4.386 -11.699  1.00  0.00     0.344 HD
ATOM      6  H   UNL     1      -1.845  -5.332 -10.283  1.00  0.00     0.344 HD
ATOM      7  H   UNL     1      -3.385  -4.809 -10.761  1.00  0.00     0.344 HD
ENDBRANCH   3   4
ENDBRANCH   2   3
ENDBRANCH   1   2
BRANCH   1   8
ATOM      8  C   UNL     1       0.905  -1.236  -9.084  1.00  0.00     0.072 C 
BRANCH   8   9
ATOM      9  C   UNL     1       1.279   0.183  -8.595  1.00  0.00     0.227 C 
BRANCH   9  10
ATOM     10  N   UNL     1       2.604   0.602  -9.075  1.00  0.00    -0.350 N 
ATOM     11  H   UNL     1       3.283   0.701  -8.287  1.00  0.00     0.345 HD
ATOM     12  H   UNL     1       2.972  -0.099  -9.761  1.00  0.00     0.345 HD
ATOM     13  H   UNL     1       2.521   1.524  -9.563  1.00  0.00     0.345 HD
ENDBRANCH   9  10
BRANCH   9  14
ATOM     14  C   UNL     1       1.178   0.298  -7.095  1.00  0.00     0.099 C 
ATOM     15  O   UNL     1       2.006  -0.306  -6.363  1.00  0.00    -0.544 OA
ATOM     16  O   UNL     1       0.210   1.104  -6.508  1.00  0.00    -0.544 OA
ENDBRANCH   9  14
ENDBRANCH   8   9
ENDBRANCH   1   8
TORSDOF 7
ENDMDL
