MODEL 1
REMARK VINA RESULT:    -5.064      0.000      0.000
REMARK INTER + INTRA:         -16.446
REMARK INTER:                 -12.762
REMARK INTRA:                  -3.684
REMARK UNBOUND:                -3.684
REMARK SMILES CCCCCCCCCCCCCCCCCCCCCCCCCCCC(=O)[O-]
REMARK SMILES IDX 15 1 16 2 17 3 18 4 19 5 20 6 21 7 22 8 23 9 24 10 25 11
REMARK SMILES IDX 26 12 27 13 28 14 29 15 30 16 14 17 13 18 12 19 11 20 10 21
REMARK SMILES IDX 9 22 8 23 7 24 6 25 5 26 4 27 3 28 2 29 1 30
REMARK H PARENT
REMARK Flexibility Score: inf
ROOT
ATOM      1  C   UNL     1     -26.824 -26.027  42.450  1.00  0.00     0.000 C 
ENDROOT
BRANCH   1   2
ATOM      2  C   UNL     1     -28.241 -26.291  41.911  1.00  0.00     0.000 C 
BRANCH   2   3
ATOM      3  C   UNL     1     -29.331 -26.142  42.987  1.00  0.00     0.000 C 
BRANCH   3   4
ATOM      4  C   UNL     1     -30.772 -26.358  42.493  1.00  0.00     0.000 C 
BRANCH   4   5
ATOM      5  C   UNL     1     -31.017 -25.791  41.085  1.00  0.00     0.000 C 
BRANCH   5   6
ATOM      6  C   UNL     1     -31.822 -24.487  41.151  1.00  0.00     0.000 C 
BRANCH   6   7
ATOM      7  C   UNL     1     -30.907 -23.262  41.002  1.00  0.00     0.000 C 
BRANCH   7   8
ATOM      8  C   UNL     1     -30.979 -22.311  42.212  1.00  0.00     0.000 C 
BRANCH   8   9
ATOM      9  C   UNL     1     -29.627 -22.022  42.896  1.00  0.00     0.000 C 
BRANCH   9  10
ATOM     10  C   UNL     1     -28.383 -22.483  42.110  1.00  0.00     0.000 C 
BRANCH  10  11
ATOM     11  C   UNL     1     -27.661 -21.371  41.329  1.00  0.00     0.000 C 
BRANCH  11  12
ATOM     12  C   UNL     1     -26.325 -21.836  40.730  1.00  0.00     0.006 C 
BRANCH  12  13
ATOM     13  C   UNL     1     -25.232 -20.766  40.859  1.00  0.00     0.053 C 
BRANCH  13  14
ATOM     14  C   UNL     1     -24.547 -20.512  39.553  1.00  0.00     0.041 C 
ATOM     15  O   UNL     1     -24.098 -21.472  38.875  1.00  0.00    -0.550 OA
ATOM     16  O   UNL     1     -24.421 -19.214  39.075  1.00  0.00    -0.550 OA
ENDBRANCH  13  14
ENDBRANCH  12  13
ENDBRANCH  11  12
ENDBRANCH  10  11
ENDBRANCH   9  10
ENDBRANCH   8   9
ENDBRANCH   7   8
ENDBRANCH   6   7
ENDBRANCH   5   6
ENDBRANCH   4   5
ENDBRANCH   3   4
ENDBRANCH   2   3
ENDBRANCH   1   2
BRANCH   1  17
ATOM     17  C   UNL     1     -25.957 -25.195  41.484  1.00  0.00     0.000 C 
BRANCH  17  18
ATOM     18  C   UNL     1     -24.432 -25.345  41.664  1.00  0.00     0.000 C 
BRANCH  18  19
ATOM     19  C   UNL     1     -23.599 -24.141  41.194  1.00  0.00     0.000 C 
BRANCH  19  20
ATOM     20  C   UNL     1     -22.091 -24.438  41.162  1.00  0.00     0.000 C 
BRANCH  20  21
ATOM     21  C   UNL     1     -21.371 -23.696  40.025  1.00  0.00     0.000 C 
BRANCH  21  22
ATOM     22  C   UNL     1     -20.186 -24.500  39.457  1.00  0.00    -0.000 C 
BRANCH  22  23
ATOM     23  C   UNL     1     -20.326 -26.014  39.717  1.00  0.00    -0.000 C 
BRANCH  23  24
ATOM     24  C   UNL     1     -20.632 -26.835  38.453  1.00  0.00    -0.000 C 
BRANCH  24  25
ATOM     25  C   UNL     1     -21.902 -27.687  38.584  1.00  0.00    -0.000 C 
BRANCH  25  26
ATOM     26  C   UNL     1     -22.338 -27.810  40.051  1.00  0.00    -0.000 C 
BRANCH  26  27
ATOM     27  C   UNL     1     -22.896 -29.204  40.391  1.00  0.00    -0.000 C 
BRANCH  27  28
ATOM     28  C   UNL     1     -24.182 -29.204  41.241  1.00  0.00    -0.000 C 
BRANCH  28  29
ATOM     29  C   UNL     1     -25.478 -28.919  40.459  1.00  0.00    -0.003 C 
ATOM     30  C   UNL     1     -25.771 -29.967  39.387  1.00  0.00     0.004 C 
ENDBRANCH  28  29
ENDBRANCH  27  28
ENDBRANCH  26  27
ENDBRANCH  25  26
ENDBRANCH  24  25
ENDBRANCH  23  24
ENDBRANCH  22  23
ENDBRANCH  21  22
ENDBRANCH  20  21
ENDBRANCH  19  20
ENDBRANCH  18  19
ENDBRANCH  17  18
ENDBRANCH   1  17
TORSDOF 26
ENDMDL
MODEL 2
REMARK VINA RESULT:    -4.916      1.960      4.660
REMARK INTER + INTRA:         -16.072
REMARK INTER:                 -12.317
REMARK INTRA:                  -3.756
REMARK UNBOUND:                -3.684
REMARK SMILES CCCCCCCCCCCCCCCCCCCCCCCCCCCC(=O)[O-]
REMARK SMILES IDX 15 1 16 2 17 3 18 4 19 5 20 6 21 7 22 8 23 9 24 10 25 11
REMARK SMILES IDX 26 12 27 13 28 14 29 15 30 16 14 17 13 18 12 19 11 20 10 21
REMARK SMILES IDX 9 22 8 23 7 24 6 25 5 26 4 27 3 28 2 29 1 30
REMARK H PARENT
REMARK Flexibility Score: inf
ROOT
ATOM      1  C   UNL     1     -24.836 -26.949  42.378  1.00  0.00     0.000 C 
ENDROOT
BRANCH   1   2
ATOM      2  C   UNL     1     -25.158 -25.736  41.487  1.00  0.00     0.000 C 
BRANCH   2   3
ATOM      3  C   UNL     1     -26.603 -25.236  41.654  1.00  0.00     0.000 C 
BRANCH   3   4
ATOM      4  C   UNL     1     -27.666 -26.341  41.799  1.00  0.00     0.000 C 
BRANCH   4   5
ATOM      5  C   UNL     1     -28.778 -25.978  42.796  1.00  0.00     0.000 C 
BRANCH   5   6
ATOM      6  C   UNL     1     -30.125 -26.561  42.350  1.00  0.00     0.000 C 
BRANCH   6   7
ATOM      7  C   UNL     1     -30.873 -25.585  41.428  1.00  0.00     0.000 C 
BRANCH   7   8
ATOM      8  C   UNL     1     -32.231 -25.141  42.003  1.00  0.00     0.000 C 
BRANCH   8   9
ATOM      9  C   UNL     1     -32.333 -25.180  43.542  1.00  0.00     0.000 C 
BRANCH   9  10
ATOM     10  C   UNL     1     -32.050 -23.841  44.252  1.00  0.00     0.000 C 
BRANCH  10  11
ATOM     11  C   UNL     1     -31.391 -22.767  43.369  1.00  0.00     0.000 C 
BRANCH  11  12
ATOM     12  C   UNL     1     -29.900 -22.570  43.685  1.00  0.00     0.006 C 
BRANCH  12  13
ATOM     13  C   UNL     1     -29.057 -22.405  42.414  1.00  0.00     0.053 C 
BRANCH  13  14
ATOM     14  C   UNL     1     -29.479 -21.210  41.619  1.00  0.00     0.041 C 
ATOM     15  O   UNL     1     -29.301 -20.051  42.073  1.00  0.00    -0.550 OA
ATOM     16  O   UNL     1     -30.052 -21.377  40.364  1.00  0.00    -0.550 OA
ENDBRANCH  13  14
ENDBRANCH  12  13
ENDBRANCH  11  12
ENDBRANCH  10  11
ENDBRANCH   9  10
ENDBRANCH   8   9
ENDBRANCH   7   8
ENDBRANCH   6   7
ENDBRANCH   5   6
ENDBRANCH   4   5
ENDBRANCH   3   4
ENDBRANCH   2   3
ENDBRANCH   1   2
BRANCH   1  17
ATOM     17  C   UNL     1     -24.260 -28.142  41.587  1.00  0.00     0.000 C 
BRANCH  17  18
ATOM     18  C   UNL     1     -25.026 -28.518  40.303  1.00  0.00     0.000 C 
BRANCH  18  19
ATOM     19  C   UNL     1     -24.145 -28.991  39.133  1.00  0.00     0.000 C 
BRANCH  19  20
ATOM     20  C   UNL     1     -22.649 -28.734  39.375  1.00  0.00     0.000 C 
BRANCH  20  21
ATOM     21  C   UNL     1     -21.950 -28.133  38.145  1.00  0.00     0.000 C 
BRANCH  21  22
ATOM     22  C   UNL     1     -21.118 -26.884  38.493  1.00  0.00    -0.000 C 
BRANCH  22  23
ATOM     23  C   UNL     1     -21.220 -26.510  39.986  1.00  0.00    -0.000 C 
BRANCH  23  24
ATOM     24  C   UNL     1     -20.949 -25.023  40.273  1.00  0.00    -0.000 C 
BRANCH  24  25
ATOM     25  C   UNL     1     -21.847 -24.453  41.379  1.00  0.00    -0.000 C 
BRANCH  25  26
ATOM     26  C   UNL     1     -22.273 -23.013  41.061  1.00  0.00    -0.000 C 
BRANCH  26  27
ATOM     27  C   UNL     1     -22.747 -22.841  39.606  1.00  0.00    -0.000 C 
BRANCH  27  28
ATOM     28  C   UNL     1     -23.868 -21.802  39.402  1.00  0.00    -0.000 C 
BRANCH  28  29
ATOM     29  C   UNL     1     -24.985 -21.835  40.461  1.00  0.00    -0.003 C 
ATOM     30  C   UNL     1     -26.343 -21.404  39.910  1.00  0.00     0.004 C 
ENDBRANCH  28  29
ENDBRANCH  27  28
ENDBRANCH  26  27
ENDBRANCH  25  26
ENDBRANCH  24  25
ENDBRANCH  23  24
ENDBRANCH  22  23
ENDBRANCH  21  22
ENDBRANCH  20  21
ENDBRANCH  19  20
ENDBRANCH  18  19
ENDBRANCH  17  18
ENDBRANCH   1  17
TORSDOF 26
ENDMDL
MODEL 3
REMARK VINA RESULT:    -4.898      2.559      8.882
REMARK INTER + INTRA:         -16.028
REMARK INTER:                 -12.325
REMARK INTRA:                  -3.703
REMARK UNBOUND:                -3.684
REMARK SMILES CCCCCCCCCCCCCCCCCCCCCCCCCCCC(=O)[O-]
REMARK SMILES IDX 15 1 16 2 17 3 18 4 19 5 20 6 21 7 22 8 23 9 24 10 25 11
REMARK SMILES IDX 26 12 27 13 28 14 29 15 30 16 14 17 13 18 12 19 11 20 10 21
REMARK SMILES IDX 9 22 8 23 7 24 6 25 5 26 4 27 3 28 2 29 1 30
REMARK H PARENT
REMARK Flexibility Score: inf
ROOT
ATOM      1  C   UNL     1     -26.788 -25.501  41.543  1.00  0.00     0.000 C 
ENDROOT
BRANCH   1   2
ATOM      2  C   UNL     1     -25.674 -26.546  41.734  1.00  0.00     0.000 C 
BRANCH   2   3
ATOM      3  C   UNL     1     -24.324 -25.920  42.125  1.00  0.00     0.000 C 
BRANCH   3   4
ATOM      4  C   UNL     1     -23.891 -24.712  41.274  1.00  0.00     0.000 C 
BRANCH   4   5
ATOM      5  C   UNL     1     -22.437 -24.286  41.530  1.00  0.00     0.000 C 
BRANCH   5   6
ATOM      6  C   UNL     1     -21.973 -23.263  40.485  1.00  0.00     0.000 C 
BRANCH   6   7
ATOM      7  C   UNL     1     -21.260 -23.953  39.312  1.00  0.00     0.000 C 
BRANCH   7   8
ATOM      8  C   UNL     1     -20.013 -24.743  39.751  1.00  0.00     0.000 C 
BRANCH   8   9
ATOM      9  C   UNL     1     -19.945 -26.196  39.236  1.00  0.00     0.000 C 
BRANCH   9  10
ATOM     10  C   UNL     1     -21.298 -26.807  38.818  1.00  0.00     0.000 C 
BRANCH  10  11
ATOM     11  C   UNL     1     -22.023 -27.592  39.925  1.00  0.00     0.000 C 
BRANCH  11  12
ATOM     12  C   UNL     1     -22.609 -28.922  39.424  1.00  0.00     0.006 C 
BRANCH  12  13
ATOM     13  C   UNL     1     -24.107 -29.044  39.733  1.00  0.00     0.053 C 
BRANCH  13  14
ATOM     14  C   UNL     1     -24.876 -29.555  38.555  1.00  0.00     0.041 C 
ATOM     15  O   UNL     1     -24.534 -29.236  37.388  1.00  0.00    -0.550 OA
ATOM     16  O   UNL     1     -25.962 -30.400  38.748  1.00  0.00    -0.550 OA
ENDBRANCH  13  14
ENDBRANCH  12  13
ENDBRANCH  11  12
ENDBRANCH  10  11
ENDBRANCH   9  10
ENDBRANCH   8   9
ENDBRANCH   7   8
ENDBRANCH   6   7
ENDBRANCH   5   6
ENDBRANCH   4   5
ENDBRANCH   3   4
ENDBRANCH   2   3
ENDBRANCH   1   2
BRANCH   1  17
ATOM     17  C   UNL     1     -27.689 -25.347  42.784  1.00  0.00     0.000 C 
BRANCH  17  18
ATOM     18  C   UNL     1     -28.964 -26.216  42.790  1.00  0.00     0.000 C 
BRANCH  18  19
ATOM     19  C   UNL     1     -29.969 -25.905  41.668  1.00  0.00     0.000 C 
BRANCH  19  20
ATOM     20  C   UNL     1     -31.261 -25.258  42.191  1.00  0.00     0.000 C 
BRANCH  20  21
ATOM     21  C   UNL     1     -31.288 -25.155  43.725  1.00  0.00     0.000 C 
BRANCH  21  22
ATOM     22  C   UNL     1     -31.477 -23.707  44.215  1.00  0.00    -0.000 C 
BRANCH  22  23
ATOM     23  C   UNL     1     -31.054 -22.670  43.154  1.00  0.00    -0.000 C 
BRANCH  23  24
ATOM     24  C   UNL     1     -30.101 -21.588  43.690  1.00  0.00    -0.000 C 
BRANCH  24  25
ATOM     25  C   UNL     1     -28.634 -21.845  43.318  1.00  0.00    -0.000 C 
BRANCH  25  26
ATOM     26  C   UNL     1     -28.480 -22.097  41.811  1.00  0.00    -0.000 C 
BRANCH  26  27
ATOM     27  C   UNL     1     -28.191 -20.809  41.019  1.00  0.00    -0.000 C 
BRANCH  27  28
ATOM     28  C   UNL     1     -26.708 -20.389  40.973  1.00  0.00    -0.000 C 
BRANCH  28  29
ATOM     29  C   UNL     1     -25.712 -21.542  40.749  1.00  0.00    -0.003 C 
ATOM     30  C   UNL     1     -24.939 -21.417  39.437  1.00  0.00     0.004 C 
ENDBRANCH  28  29
ENDBRANCH  27  28
ENDBRANCH  26  27
ENDBRANCH  25  26
ENDBRANCH  24  25
ENDBRANCH  23  24
ENDBRANCH  22  23
ENDBRANCH  21  22
ENDBRANCH  20  21
ENDBRANCH  19  20
ENDBRANCH  18  19
ENDBRANCH  17  18
ENDBRANCH   1  17
TORSDOF 26
ENDMDL
MODEL 4
REMARK VINA RESULT:    -4.897      4.371      8.751
REMARK INTER + INTRA:         -16.024
REMARK INTER:                 -12.513
REMARK INTRA:                  -3.511
REMARK UNBOUND:                -3.684
REMARK SMILES CCCCCCCCCCCCCCCCCCCCCCCCCCCC(=O)[O-]
REMARK SMILES IDX 15 1 16 2 17 3 18 4 19 5 20 6 21 7 22 8 23 9 24 10 25 11
REMARK SMILES IDX 26 12 27 13 28 14 29 15 30 16 14 17 13 18 12 19 11 20 10 21
REMARK SMILES IDX 9 22 8 23 7 24 6 25 5 26 4 27 3 28 2 29 1 30
REMARK H PARENT
REMARK Flexibility Score: inf
ROOT
ATOM      1  C   UNL     1     -26.541 -26.728  41.293  1.00  0.00     0.000 C 
ENDROOT
BRANCH   1   2
ATOM      2  C   UNL     1     -25.525 -27.880  41.188  1.00  0.00     0.000 C 
BRANCH   2   3
ATOM      3  C   UNL     1     -25.497 -28.531  39.794  1.00  0.00     0.000 C 
BRANCH   3   4
ATOM      4  C   UNL     1     -24.443 -29.638  39.609  1.00  0.00     0.000 C 
BRANCH   4   5
ATOM      5  C   UNL     1     -23.035 -29.206  40.049  1.00  0.00     0.000 C 
BRANCH   5   6
ATOM      6  C   UNL     1     -22.413 -28.245  39.028  1.00  0.00     0.000 C 
BRANCH   6   7
ATOM      7  C   UNL     1     -21.512 -27.209  39.719  1.00  0.00     0.000 C 
BRANCH   7   8
ATOM      8  C   UNL     1     -20.544 -26.513  38.744  1.00  0.00     0.000 C 
BRANCH   8   9
ATOM      9  C   UNL     1     -19.409 -25.710  39.413  1.00  0.00     0.000 C 
BRANCH   9  10
ATOM     10  C   UNL     1     -17.989 -26.036  38.908  1.00  0.00     0.000 C 
BRANCH  10  11
ATOM     11  C   UNL     1     -17.937 -26.819  37.584  1.00  0.00     0.000 C 
BRANCH  11  12
ATOM     12  C   UNL     1     -16.671 -27.678  37.451  1.00  0.00     0.006 C 
BRANCH  12  13
ATOM     13  C   UNL     1     -16.163 -27.738  36.004  1.00  0.00     0.053 C 
BRANCH  13  14
ATOM     14  C   UNL     1     -15.285 -28.927  35.772  1.00  0.00     0.041 C 
ATOM     15  O   UNL     1     -15.485 -29.996  36.404  1.00  0.00    -0.550 OA
ATOM     16  O   UNL     1     -14.256 -28.860  34.841  1.00  0.00    -0.550 OA
ENDBRANCH  13  14
ENDBRANCH  12  13
ENDBRANCH  11  12
ENDBRANCH  10  11
ENDBRANCH   9  10
ENDBRANCH   8   9
ENDBRANCH   7   8
ENDBRANCH   6   7
ENDBRANCH   5   6
ENDBRANCH   4   5
ENDBRANCH   3   4
ENDBRANCH   2   3
ENDBRANCH   1   2
BRANCH   1  17
ATOM     17  C   UNL     1     -25.877 -25.361  41.551  1.00  0.00     0.000 C 
BRANCH  17  18
ATOM     18  C   UNL     1     -24.388 -25.412  41.952  1.00  0.00     0.000 C 
BRANCH  18  19
ATOM     19  C   UNL     1     -23.414 -24.822  40.917  1.00  0.00     0.000 C 
BRANCH  19  20
ATOM     20  C   UNL     1     -22.291 -23.995  41.562  1.00  0.00     0.000 C 
BRANCH  20  21
ATOM     21  C   UNL     1     -21.853 -22.812  40.684  1.00  0.00     0.000 C 
BRANCH  21  22
ATOM     22  C   UNL     1     -22.040 -23.094  39.181  1.00  0.00    -0.000 C 
BRANCH  22  23
ATOM     23  C   UNL     1     -21.333 -22.046  38.297  1.00  0.00    -0.000 C 
BRANCH  23  24
ATOM     24  C   UNL     1     -21.990 -20.656  38.336  1.00  0.00    -0.000 C 
BRANCH  24  25
ATOM     25  C   UNL     1     -21.137 -19.611  39.067  1.00  0.00    -0.000 C 
BRANCH  25  26
ATOM     26  C   UNL     1     -21.783 -19.199  40.398  1.00  0.00    -0.000 C 
BRANCH  26  27
ATOM     27  C   UNL     1     -23.312 -19.055  40.297  1.00  0.00    -0.000 C 
BRANCH  27  28
ATOM     28  C   UNL     1     -24.117 -19.882  41.319  1.00  0.00    -0.000 C 
BRANCH  28  29
ATOM     29  C   UNL     1     -25.465 -20.419  40.803  1.00  0.00    -0.003 C 
ATOM     30  C   UNL     1     -25.338 -21.759  40.081  1.00  0.00     0.004 C 
ENDBRANCH  28  29
ENDBRANCH  27  28
ENDBRANCH  26  27
ENDBRANCH  25  26
ENDBRANCH  24  25
ENDBRANCH  23  24
ENDBRANCH  22  23
ENDBRANCH  21  22
ENDBRANCH  20  21
ENDBRANCH  19  20
ENDBRANCH  18  19
ENDBRANCH  17  18
ENDBRANCH   1  17
TORSDOF 26
ENDMDL
MODEL 5
REMARK VINA RESULT:    -4.856      3.054      7.443
REMARK INTER + INTRA:         -15.922
REMARK INTER:                 -12.327
REMARK INTRA:                  -3.595
REMARK UNBOUND:                -3.684
REMARK SMILES CCCCCCCCCCCCCCCCCCCCCCCCCCCC(=O)[O-]
REMARK SMILES IDX 15 1 16 2 17 3 18 4 19 5 20 6 21 7 22 8 23 9 24 10 25 11
REMARK SMILES IDX 26 12 27 13 28 14 29 15 30 16 14 17 13 18 12 19 11 20 10 21
REMARK SMILES IDX 9 22 8 23 7 24 6 25 5 26 4 27 3 28 2 29 1 30
REMARK H PARENT
REMARK Flexibility Score: inf
ROOT
ATOM      1  C   UNL     1     -21.074 -27.280  37.774  1.00  0.00     0.000 C 
ENDROOT
BRANCH   1   2
ATOM      2  C   UNL     1     -22.233 -28.189  38.222  1.00  0.00     0.000 C 
BRANCH   2   3
ATOM      3  C   UNL     1     -22.450 -28.178  39.745  1.00  0.00     0.000 C 
BRANCH   3   4
ATOM      4  C   UNL     1     -23.118 -29.440  40.320  1.00  0.00     0.000 C 
BRANCH   4   5
ATOM      5  C   UNL     1     -24.653 -29.384  40.268  1.00  0.00     0.000 C 
BRANCH   5   6
ATOM      6  C   UNL     1     -25.165 -27.993  40.664  1.00  0.00     0.000 C 
BRANCH   6   7
ATOM      7  C   UNL     1     -24.859 -27.690  42.139  1.00  0.00     0.000 C 
BRANCH   7   8
ATOM      8  C   UNL     1     -24.737 -26.182  42.427  1.00  0.00     0.000 C 
BRANCH   8   9
ATOM      9  C   UNL     1     -25.426 -25.263  41.397  1.00  0.00     0.000 C 
BRANCH   9  10
ATOM     10  C   UNL     1     -26.650 -24.488  41.925  1.00  0.00     0.000 C 
BRANCH  10  11
ATOM     11  C   UNL     1     -27.449 -25.210  43.023  1.00  0.00     0.000 C 
BRANCH  11  12
ATOM     12  C   UNL     1     -28.967 -25.022  42.876  1.00  0.00     0.006 C 
BRANCH  12  13
ATOM     13  C   UNL     1     -29.587 -26.056  41.926  1.00  0.00     0.053 C 
BRANCH  13  14
ATOM     14  C   UNL     1     -30.971 -26.438  42.351  1.00  0.00     0.041 C 
ATOM     15  O   UNL     1     -31.737 -25.582  42.862  1.00  0.00    -0.550 OA
ATOM     16  O   UNL     1     -31.420 -27.739  42.162  1.00  0.00    -0.550 OA
ENDBRANCH  13  14
ENDBRANCH  12  13
ENDBRANCH  11  12
ENDBRANCH  10  11
ENDBRANCH   9  10
ENDBRANCH   8   9
ENDBRANCH   7   8
ENDBRANCH   6   7
ENDBRANCH   5   6
ENDBRANCH   4   5
ENDBRANCH   3   4
ENDBRANCH   2   3
ENDBRANCH   1   2
BRANCH   1  17
ATOM     17  C   UNL     1     -20.382 -26.562  38.950  1.00  0.00     0.000 C 
BRANCH  17  18
ATOM     18  C   UNL     1     -20.771 -25.082  39.144  1.00  0.00     0.000 C 
BRANCH  18  19
ATOM     19  C   UNL     1     -21.430 -24.754  40.495  1.00  0.00     0.000 C 
BRANCH  19  20
ATOM     20  C   UNL     1     -22.486 -23.642  40.386  1.00  0.00     0.000 C 
BRANCH  20  21
ATOM     21  C   UNL     1     -22.134 -22.412  41.238  1.00  0.00     0.000 C 
BRANCH  21  22
ATOM     22  C   UNL     1     -23.306 -21.418  41.348  1.00  0.00    -0.000 C 
BRANCH  22  23
ATOM     23  C   UNL     1     -24.505 -21.827  40.468  1.00  0.00    -0.000 C 
BRANCH  23  24
ATOM     24  C   UNL     1     -25.029 -20.694  39.569  1.00  0.00    -0.000 C 
BRANCH  24  25
ATOM     25  C   UNL     1     -24.482 -19.315  39.963  1.00  0.00    -0.000 C 
BRANCH  25  26
ATOM     26  C   UNL     1     -23.743 -18.656  38.789  1.00  0.00    -0.000 C 
BRANCH  26  27
ATOM     27  C   UNL     1     -22.214 -18.800  38.892  1.00  0.00    -0.000 C 
BRANCH  27  28
ATOM     28  C   UNL     1     -21.543 -19.519  37.704  1.00  0.00    -0.000 C 
BRANCH  28  29
ATOM     29  C   UNL     1     -21.535 -21.056  37.796  1.00  0.00    -0.003 C 
ATOM     30  C   UNL     1     -20.169 -21.624  38.179  1.00  0.00     0.004 C 
ENDBRANCH  28  29
ENDBRANCH  27  28
ENDBRANCH  26  27
ENDBRANCH  25  26
ENDBRANCH  24  25
ENDBRANCH  23  24
ENDBRANCH  22  23
ENDBRANCH  21  22
ENDBRANCH  20  21
ENDBRANCH  19  20
ENDBRANCH  18  19
ENDBRANCH  17  18
ENDBRANCH   1  17
TORSDOF 26
ENDMDL
MODEL 6
REMARK VINA RESULT:    -4.833      4.168      7.160
REMARK INTER + INTRA:         -15.863
REMARK INTER:                 -13.458
REMARK INTRA:                  -2.406
REMARK UNBOUND:                -3.684
REMARK SMILES CCCCCCCCCCCCCCCCCCCCCCCCCCCC(=O)[O-]
REMARK SMILES IDX 15 1 16 2 17 3 18 4 19 5 20 6 21 7 22 8 23 9 24 10 25 11
REMARK SMILES IDX 26 12 27 13 28 14 29 15 30 16 14 17 13 18 12 19 11 20 10 21
REMARK SMILES IDX 9 22 8 23 7 24 6 25 5 26 4 27 3 28 2 29 1 30
REMARK H PARENT
REMARK Flexibility Score: inf
ROOT
ATOM      1  C   UNL     1     -22.946 -22.635  41.130  1.00  0.00     0.000 C 
ENDROOT
BRANCH   1   2
ATOM      2  C   UNL     1     -23.680 -22.508  39.783  1.00  0.00     0.000 C 
BRANCH   2   3
ATOM      3  C   UNL     1     -24.502 -21.212  39.667  1.00  0.00     0.000 C 
BRANCH   3   4
ATOM      4  C   UNL     1     -26.028 -21.394  39.760  1.00  0.00     0.000 C 
BRANCH   4   5
ATOM      5  C   UNL     1     -26.595 -21.018  41.138  1.00  0.00     0.000 C 
BRANCH   5   6
ATOM      6  C   UNL     1     -27.446 -22.159  41.711  1.00  0.00     0.000 C 
BRANCH   6   7
ATOM      7  C   UNL     1     -26.755 -23.517  41.513  1.00  0.00     0.000 C 
BRANCH   7   8
ATOM      8  C   UNL     1     -27.345 -24.624  42.408  1.00  0.00     0.000 C 
BRANCH   8   9
ATOM      9  C   UNL     1     -26.406 -25.820  42.671  1.00  0.00     0.000 C 
BRANCH   9  10
ATOM     10  C   UNL     1     -25.208 -25.937  41.708  1.00  0.00     0.000 C 
BRANCH  10  11
ATOM     11  C   UNL     1     -24.567 -27.334  41.640  1.00  0.00     0.000 C 
BRANCH  11  12
ATOM     12  C   UNL     1     -25.280 -28.269  40.652  1.00  0.00     0.006 C 
BRANCH  12  13
ATOM     13  C   UNL     1     -24.290 -29.111  39.836  1.00  0.00     0.053 C 
BRANCH  13  14
ATOM     14  C   UNL     1     -24.923 -29.671  38.601  1.00  0.00     0.041 C 
ATOM     15  O   UNL     1     -25.845 -30.521  38.692  1.00  0.00    -0.550 OA
ATOM     16  O   UNL     1     -24.506 -29.239  37.349  1.00  0.00    -0.550 OA
ENDBRANCH  13  14
ENDBRANCH  12  13
ENDBRANCH  11  12
ENDBRANCH  10  11
ENDBRANCH   9  10
ENDBRANCH   8   9
ENDBRANCH   7   8
ENDBRANCH   6   7
ENDBRANCH   5   6
ENDBRANCH   4   5
ENDBRANCH   3   4
ENDBRANCH   2   3
ENDBRANCH   1   2
BRANCH   1  17
ATOM     17  C   UNL     1     -22.208 -23.979  41.290  1.00  0.00     0.000 C 
BRANCH  17  18
ATOM     18  C   UNL     1     -21.077 -24.240  40.274  1.00  0.00     0.000 C 
BRANCH  18  19
ATOM     19  C   UNL     1     -21.213 -25.544  39.469  1.00  0.00     0.000 C 
BRANCH  19  20
ATOM     20  C   UNL     1     -19.869 -26.262  39.271  1.00  0.00     0.000 C 
BRANCH  20  21
ATOM     21  C   UNL     1     -18.667 -25.326  39.474  1.00  0.00     0.000 C 
BRANCH  21  22
ATOM     22  C   UNL     1     -17.471 -25.701  38.579  1.00  0.00    -0.000 C 
BRANCH  22  23
ATOM     23  C   UNL     1     -17.726 -26.990  37.771  1.00  0.00    -0.000 C 
BRANCH  23  24
ATOM     24  C   UNL     1     -16.601 -27.334  36.780  1.00  0.00    -0.000 C 
BRANCH  24  25
ATOM     25  C   UNL     1     -16.291 -26.191  35.805  1.00  0.00    -0.000 C 
BRANCH  25  26
ATOM     26  C   UNL     1     -15.397 -26.672  34.653  1.00  0.00    -0.000 C 
BRANCH  26  27
ATOM     27  C   UNL     1     -14.218 -27.536  35.136  1.00  0.00    -0.000 C 
BRANCH  27  28
ATOM     28  C   UNL     1     -13.764 -28.633  34.152  1.00  0.00    -0.000 C 
BRANCH  28  29
ATOM     29  C   UNL     1     -14.818 -29.714  33.853  1.00  0.00    -0.003 C 
ATOM     30  C   UNL     1     -15.323 -30.420  35.110  1.00  0.00     0.004 C 
ENDBRANCH  28  29
ENDBRANCH  27  28
ENDBRANCH  26  27
ENDBRANCH  25  26
ENDBRANCH  24  25
ENDBRANCH  23  24
ENDBRANCH  22  23
ENDBRANCH  21  22
ENDBRANCH  20  21
ENDBRANCH  19  20
ENDBRANCH  18  19
ENDBRANCH  17  18
ENDBRANCH   1  17
TORSDOF 26
ENDMDL
MODEL 7
REMARK VINA RESULT:    -4.811      2.875      7.671
REMARK INTER + INTRA:         -15.809
REMARK INTER:                 -11.830
REMARK INTRA:                  -3.978
REMARK UNBOUND:                -3.684
REMARK SMILES CCCCCCCCCCCCCCCCCCCCCCCCCCCC(=O)[O-]
REMARK SMILES IDX 15 1 16 2 17 3 18 4 19 5 20 6 21 7 22 8 23 9 24 10 25 11
REMARK SMILES IDX 26 12 27 13 28 14 29 15 30 16 14 17 13 18 12 19 11 20 10 21
REMARK SMILES IDX 9 22 8 23 7 24 6 25 5 26 4 27 3 28 2 29 1 30
REMARK H PARENT
REMARK Flexibility Score: inf
ROOT
ATOM      1  C   UNL     1     -22.053 -24.556  41.170  1.00  0.00     0.000 C 
ENDROOT
BRANCH   1   2
ATOM      2  C   UNL     1     -21.207 -24.952  39.947  1.00  0.00     0.000 C 
BRANCH   2   3
ATOM      3  C   UNL     1     -21.066 -26.475  39.782  1.00  0.00     0.000 C 
BRANCH   3   4
ATOM      4  C   UNL     1     -21.124 -26.984  38.330  1.00  0.00     0.000 C 
BRANCH   4   5
ATOM      5  C   UNL     1     -22.071 -28.182  38.151  1.00  0.00     0.000 C 
BRANCH   5   6
ATOM      6  C   UNL     1     -22.680 -28.605  39.494  1.00  0.00     0.000 C 
BRANCH   6   7
ATOM      7  C   UNL     1     -24.161 -28.982  39.338  1.00  0.00     0.000 C 
BRANCH   7   8
ATOM      8  C   UNL     1     -25.044 -28.417  40.466  1.00  0.00     0.000 C 
BRANCH   8   9
ATOM      9  C   UNL     1     -24.274 -27.783  41.643  1.00  0.00     0.000 C 
BRANCH   9  10
ATOM     10  C   UNL     1     -25.021 -26.655  42.383  1.00  0.00     0.000 C 
BRANCH  10  11
ATOM     11  C   UNL     1     -26.398 -26.298  41.797  1.00  0.00     0.000 C 
BRANCH  11  12
ATOM     12  C   UNL     1     -27.324 -25.624  42.822  1.00  0.00     0.006 C 
BRANCH  12  13
ATOM     13  C   UNL     1     -27.627 -24.165  42.454  1.00  0.00     0.053 C 
BRANCH  13  14
ATOM     14  C   UNL     1     -28.957 -23.725  42.980  1.00  0.00     0.041 C 
ATOM     15  O   UNL     1     -29.990 -24.402  42.739  1.00  0.00    -0.550 OA
ATOM     16  O   UNL     1     -29.053 -22.576  43.755  1.00  0.00    -0.550 OA
ENDBRANCH  13  14
ENDBRANCH  12  13
ENDBRANCH  11  12
ENDBRANCH  10  11
ENDBRANCH   9  10
ENDBRANCH   8   9
ENDBRANCH   7   8
ENDBRANCH   6   7
ENDBRANCH   5   6
ENDBRANCH   4   5
ENDBRANCH   3   4
ENDBRANCH   2   3
ENDBRANCH   1   2
BRANCH   1  17
ATOM     17  C   UNL     1     -22.839 -23.245  40.962  1.00  0.00     0.000 C 
BRANCH  17  18
ATOM     18  C   UNL     1     -24.367 -23.403  40.826  1.00  0.00     0.000 C 
BRANCH  18  19
ATOM     19  C   UNL     1     -25.142 -22.088  40.630  1.00  0.00     0.000 C 
BRANCH  19  20
ATOM     20  C   UNL     1     -24.667 -21.297  39.401  1.00  0.00     0.000 C 
BRANCH  20  21
ATOM     21  C   UNL     1     -24.249 -19.861  39.753  1.00  0.00     0.000 C 
BRANCH  21  22
ATOM     22  C   UNL     1     -24.378 -19.562  41.258  1.00  0.00    -0.000 C 
BRANCH  22  23
ATOM     23  C   UNL     1     -23.014 -19.262  41.914  1.00  0.00    -0.000 C 
BRANCH  23  24
ATOM     24  C   UNL     1     -21.808 -19.637  41.037  1.00  0.00    -0.000 C 
BRANCH  24  25
ATOM     25  C   UNL     1     -20.779 -18.505  40.917  1.00  0.00    -0.000 C 
BRANCH  25  26
ATOM     26  C   UNL     1     -20.250 -18.387  39.480  1.00  0.00    -0.000 C 
BRANCH  26  27
ATOM     27  C   UNL     1     -21.317 -18.724  38.423  1.00  0.00    -0.000 C 
BRANCH  27  28
ATOM     28  C   UNL     1     -20.911 -19.808  37.405  1.00  0.00    -0.000 C 
BRANCH  28  29
ATOM     29  C   UNL     1     -21.191 -21.256  37.851  1.00  0.00    -0.003 C 
ATOM     30  C   UNL     1     -20.005 -21.900  38.567  1.00  0.00     0.004 C 
ENDBRANCH  28  29
ENDBRANCH  27  28
ENDBRANCH  26  27
ENDBRANCH  25  26
ENDBRANCH  24  25
ENDBRANCH  23  24
ENDBRANCH  22  23
ENDBRANCH  21  22
ENDBRANCH  20  21
ENDBRANCH  19  20
ENDBRANCH  18  19
ENDBRANCH  17  18
ENDBRANCH   1  17
TORSDOF 26
ENDMDL
MODEL 8
REMARK VINA RESULT:    -4.807      1.337      7.828
REMARK INTER + INTRA:         -15.798
REMARK INTER:                 -12.346
REMARK INTRA:                  -3.452
REMARK UNBOUND:                -3.684
REMARK SMILES CCCCCCCCCCCCCCCCCCCCCCCCCCCC(=O)[O-]
REMARK SMILES IDX 15 1 16 2 17 3 18 4 19 5 20 6 21 7 22 8 23 9 24 10 25 11
REMARK SMILES IDX 26 12 27 13 28 14 29 15 30 16 14 17 13 18 12 19 11 20 10 21
REMARK SMILES IDX 9 22 8 23 7 24 6 25 5 26 4 27 3 28 2 29 1 30
REMARK H PARENT
REMARK Flexibility Score: inf
ROOT
ATOM      1  C   UNL     1     -25.521 -28.010  40.783  1.00  0.00     0.000 C 
ENDROOT
BRANCH   1   2
ATOM      2  C   UNL     1     -24.876 -29.402  40.656  1.00  0.00     0.000 C 
BRANCH   2   3
ATOM      3  C   UNL     1     -23.915 -29.511  39.460  1.00  0.00     0.000 C 
BRANCH   3   4
ATOM      4  C   UNL     1     -22.624 -28.681  39.579  1.00  0.00     0.000 C 
BRANCH   4   5
ATOM      5  C   UNL     1     -22.164 -28.087  38.238  1.00  0.00     0.000 C 
BRANCH   5   6
ATOM      6  C   UNL     1     -21.139 -26.967  38.457  1.00  0.00     0.000 C 
BRANCH   6   7
ATOM      7  C   UNL     1     -20.921 -26.701  39.955  1.00  0.00     0.000 C 
BRANCH   7   8
ATOM      8  C   UNL     1     -21.410 -25.308  40.392  1.00  0.00     0.000 C 
BRANCH   8   9
ATOM      9  C   UNL     1     -21.423 -24.241  39.278  1.00  0.00     0.000 C 
BRANCH   9  10
ATOM     10  C   UNL     1     -21.425 -22.779  39.770  1.00  0.00     0.000 C 
BRANCH  10  11
ATOM     11  C   UNL     1     -22.323 -22.508  40.989  1.00  0.00     0.000 C 
BRANCH  11  12
ATOM     12  C   UNL     1     -23.798 -22.307  40.609  1.00  0.00     0.006 C 
BRANCH  12  13
ATOM     13  C   UNL     1     -23.954 -21.575  39.269  1.00  0.00     0.053 C 
BRANCH  13  14
ATOM     14  C   UNL     1     -24.577 -20.226  39.443  1.00  0.00     0.041 C 
ATOM     15  O   UNL     1     -24.003 -19.200  38.997  1.00  0.00    -0.550 OA
ATOM     16  O   UNL     1     -25.804 -20.105  40.084  1.00  0.00    -0.550 OA
ENDBRANCH  13  14
ENDBRANCH  12  13
ENDBRANCH  11  12
ENDBRANCH  10  11
ENDBRANCH   9  10
ENDBRANCH   8   9
ENDBRANCH   7   8
ENDBRANCH   6   7
ENDBRANCH   5   6
ENDBRANCH   4   5
ENDBRANCH   3   4
ENDBRANCH   2   3
ENDBRANCH   1   2
BRANCH   1  17
ATOM     17  C   UNL     1     -24.891 -27.153  41.899  1.00  0.00     0.000 C 
BRANCH  17  18
ATOM     18  C   UNL     1     -24.894 -25.631  41.649  1.00  0.00     0.000 C 
BRANCH  18  19
ATOM     19  C   UNL     1     -26.278 -24.963  41.713  1.00  0.00     0.000 C 
BRANCH  19  20
ATOM     20  C   UNL     1     -27.212 -25.630  42.735  1.00  0.00     0.000 C 
BRANCH  20  21
ATOM     21  C   UNL     1     -28.471 -26.221  42.081  1.00  0.00     0.000 C 
BRANCH  21  22
ATOM     22  C   UNL     1     -29.755 -25.880  42.861  1.00  0.00    -0.000 C 
BRANCH  22  23
ATOM     23  C   UNL     1     -29.945 -24.360  43.038  1.00  0.00    -0.000 C 
BRANCH  23  24
ATOM     24  C   UNL     1     -30.615 -23.674  41.835  1.00  0.00    -0.000 C 
BRANCH  24  25
ATOM     25  C   UNL     1     -30.000 -22.307  41.506  1.00  0.00    -0.000 C 
BRANCH  25  26
ATOM     26  C   UNL     1     -28.583 -22.183  42.085  1.00  0.00    -0.000 C 
BRANCH  26  27
ATOM     27  C   UNL     1     -28.302 -20.790  42.676  1.00  0.00    -0.000 C 
BRANCH  27  28
ATOM     28  C   UNL     1     -29.155 -20.416  43.905  1.00  0.00    -0.000 C 
BRANCH  28  29
ATOM     29  C   UNL     1     -29.021 -21.371  45.105  1.00  0.00    -0.003 C 
ATOM     30  C   UNL     1     -30.368 -21.775  45.701  1.00  0.00     0.004 C 
ENDBRANCH  28  29
ENDBRANCH  27  28
ENDBRANCH  26  27
ENDBRANCH  25  26
ENDBRANCH  24  25
ENDBRANCH  23  24
ENDBRANCH  22  23
ENDBRANCH  21  22
ENDBRANCH  20  21
ENDBRANCH  19  20
ENDBRANCH  18  19
ENDBRANCH  17  18
ENDBRANCH   1  17
TORSDOF 26
ENDMDL
MODEL 9
REMARK VINA RESULT:    -4.755      1.078      3.335
REMARK INTER + INTRA:         -15.667
REMARK INTER:                 -11.930
REMARK INTRA:                  -3.736
REMARK UNBOUND:                -3.684
REMARK SMILES CCCCCCCCCCCCCCCCCCCCCCCCCCCC(=O)[O-]
REMARK SMILES IDX 15 1 16 2 17 3 18 4 19 5 20 6 21 7 22 8 23 9 24 10 25 11
REMARK SMILES IDX 26 12 27 13 28 14 29 15 30 16 14 17 13 18 12 19 11 20 10 21
REMARK SMILES IDX 9 22 8 23 7 24 6 25 5 26 4 27 3 28 2 29 1 30
REMARK H PARENT
REMARK Flexibility Score: inf
ROOT
ATOM      1  C   UNL     1     -28.111 -25.826  42.998  1.00  0.00     0.000 C 
ENDROOT
BRANCH   1   2
ATOM      2  C   UNL     1     -28.961 -26.277  41.796  1.00  0.00     0.000 C 
BRANCH   2   3
ATOM      3  C   UNL     1     -30.472 -26.101  42.029  1.00  0.00     0.000 C 
BRANCH   3   4
ATOM      4  C   UNL     1     -31.252 -25.512  40.840  1.00  0.00     0.000 C 
BRANCH   4   5
ATOM      5  C   UNL     1     -31.882 -24.144  41.153  1.00  0.00     0.000 C 
BRANCH   5   6
ATOM      6  C   UNL     1     -30.837 -23.025  41.054  1.00  0.00     0.000 C 
BRANCH   6   7
ATOM      7  C   UNL     1     -30.880 -22.116  42.292  1.00  0.00     0.000 C 
BRANCH   7   8
ATOM      8  C   UNL     1     -29.729 -22.393  43.278  1.00  0.00     0.000 C 
BRANCH   8   9
ATOM      9  C   UNL     1     -28.652 -21.291  43.349  1.00  0.00     0.000 C 
BRANCH   9  10
ATOM     10  C   UNL     1     -28.720 -20.233  42.230  1.00  0.00     0.000 C 
BRANCH  10  11
ATOM     11  C   UNL     1     -27.491 -20.189  41.305  1.00  0.00     0.000 C 
BRANCH  11  12
ATOM     12  C   UNL     1     -26.860 -21.573  41.088  1.00  0.00     0.006 C 
BRANCH  12  13
ATOM     13  C   UNL     1     -25.951 -21.605  39.852  1.00  0.00     0.053 C 
BRANCH  13  14
ATOM     14  C   UNL     1     -24.730 -20.760  40.039  1.00  0.00     0.041 C 
ATOM     15  O   UNL     1     -24.527 -19.766  39.295  1.00  0.00    -0.550 OA
ATOM     16  O   UNL     1     -23.825 -21.060  41.049  1.00  0.00    -0.550 OA
ENDBRANCH  13  14
ENDBRANCH  12  13
ENDBRANCH  11  12
ENDBRANCH  10  11
ENDBRANCH   9  10
ENDBRANCH   8   9
ENDBRANCH   7   8
ENDBRANCH   6   7
ENDBRANCH   5   6
ENDBRANCH   4   5
ENDBRANCH   3   4
ENDBRANCH   2   3
ENDBRANCH   1   2
BRANCH   1  17
ATOM     17  C   UNL     1     -27.079 -24.740  42.633  1.00  0.00     0.000 C 
BRANCH  17  18
ATOM     18  C   UNL     1     -26.079 -25.122  41.522  1.00  0.00     0.000 C 
BRANCH  18  19
ATOM     19  C   UNL     1     -24.779 -25.781  42.014  1.00  0.00     0.000 C 
BRANCH  19  20
ATOM     20  C   UNL     1     -24.818 -27.314  41.919  1.00  0.00     0.000 C 
BRANCH  20  21
ATOM     21  C   UNL     1     -25.625 -27.808  40.707  1.00  0.00     0.000 C 
BRANCH  21  22
ATOM     22  C   UNL     1     -25.244 -29.241  40.291  1.00  0.00    -0.000 C 
BRANCH  22  23
ATOM     23  C   UNL     1     -24.303 -29.265  39.069  1.00  0.00    -0.000 C 
BRANCH  23  24
ATOM     24  C   UNL     1     -22.865 -28.820  39.385  1.00  0.00    -0.000 C 
BRANCH  24  25
ATOM     25  C   UNL     1     -22.166 -28.160  38.189  1.00  0.00    -0.000 C 
BRANCH  25  26
ATOM     26  C   UNL     1     -21.329 -26.951  38.633  1.00  0.00    -0.000 C 
BRANCH  26  27
ATOM     27  C   UNL     1     -21.496 -26.630  40.130  1.00  0.00    -0.000 C 
BRANCH  27  28
ATOM     28  C   UNL     1     -21.468 -25.130  40.484  1.00  0.00    -0.000 C 
BRANCH  28  29
ATOM     29  C   UNL     1     -20.864 -24.217  39.400  1.00  0.00    -0.003 C 
ATOM     30  C   UNL     1     -21.863 -23.198  38.853  1.00  0.00     0.004 C 
ENDBRANCH  28  29
ENDBRANCH  27  28
ENDBRANCH  26  27
ENDBRANCH  25  26
ENDBRANCH  24  25
ENDBRANCH  23  24
ENDBRANCH  22  23
ENDBRANCH  21  22
ENDBRANCH  20  21
ENDBRANCH  19  20
ENDBRANCH  18  19
ENDBRANCH  17  18
ENDBRANCH   1  17
TORSDOF 26
ENDMDL
