MODEL 1
REMARK VINA RESULT:    -3.468      0.000      0.000
REMARK INTER + INTRA:          -4.479
REMARK INTER:                  -4.076
REMARK INTRA:                  -0.404
REMARK UNBOUND:                -0.404
REMARK SMILES [NH3+][C@H](CO)C(=O)[O-]
REMARK SMILES IDX 3 1 2 2 1 3 5 7 6 8 7 9 4 10
REMARK H PARENT 1 4 1 5 1 6 4 11
REMARK Flexibility Score: inf
ROOT
ATOM      1  C   UNL     1     191.377 193.060  84.616  1.00  0.00     0.227 C 
ENDROOT
BRANCH   1   2
ATOM      2  C   UNL     1     190.742 193.787  83.418  1.00  0.00     0.253 C 
BRANCH   2   3
ATOM      3  N   UNL     1     189.661 194.681  83.850  1.00  0.00    -0.348 N 
ATOM      4  H   UNL     1     188.808 194.124  84.085  1.00  0.00     0.345 HD
ATOM      5  H   UNL     1     189.951 195.236  84.688  1.00  0.00     0.345 HD
ATOM      6  H   UNL     1     189.413 195.338  83.073  1.00  0.00     0.345 HD
ENDBRANCH   2   3
BRANCH   2   7
ATOM      7  C   UNL     1     191.796 194.564  82.676  1.00  0.00     0.102 C 
ATOM      8  O   UNL     1     192.017 195.769  82.966  1.00  0.00    -0.544 OA
ATOM      9  O   UNL     1     192.521 193.962  81.654  1.00  0.00    -0.544 OA
ENDBRANCH   2   7
ENDBRANCH   1   2
BRANCH   1  10
ATOM     10  O   UNL     1     192.736 193.390  84.729  1.00  0.00    -0.390 OA
ATOM     11  H   UNL     1     193.075 192.942  85.548  1.00  0.00     0.210 HD
ENDBRANCH   1  10
TORSDOF 4
ENDMDL
MODEL 2
REMARK VINA RESULT:    -3.374      1.438      2.647
REMARK INTER + INTRA:          -4.370
REMARK INTER:                  -4.047
REMARK INTRA:                  -0.323
REMARK UNBOUND:                -0.404
REMARK SMILES [NH3+][C@H](CO)C(=O)[O-]
REMARK SMILES IDX 3 1 2 2 1 3 5 7 6 8 7 9 4 10
REMARK H PARENT 1 4 1 5 1 6 4 11
REMARK Flexibility Score: inf
ROOT
ATOM      1  C   UNL     1     192.376 195.364  81.608  1.00  0.00     0.227 C 
ENDROOT
BRANCH   1   2
ATOM      2  C   UNL     1     191.730 195.398  83.005  1.00  0.00     0.253 C 
BRANCH   2   3
ATOM      3  N   UNL     1     190.517 196.224  83.011  1.00  0.00    -0.348 N 
ATOM      4  H   UNL     1     189.760 195.743  83.548  1.00  0.00     0.345 HD
ATOM      5  H   UNL     1     190.706 197.157  83.445  1.00  0.00     0.345 HD
ATOM      6  H   UNL     1     190.178 196.364  82.031  1.00  0.00     0.345 HD
ENDBRANCH   2   3
BRANCH   2   7
ATOM      7  C   UNL     1     191.410 193.997  83.453  1.00  0.00     0.102 C 
ATOM      8  O   UNL     1     192.025 193.487  84.425  1.00  0.00    -0.544 OA
ATOM      9  O   UNL     1     190.443 193.252  82.787  1.00  0.00    -0.544 OA
ENDBRANCH   2   7
ENDBRANCH   1   2
BRANCH   1  10
ATOM     10  O   UNL     1     193.125 194.189  81.440  1.00  0.00    -0.390 OA
ATOM     11  H   UNL     1     194.059 194.467  81.252  1.00  0.00     0.210 HD
ENDBRANCH   1  10
TORSDOF 4
ENDMDL
MODEL 3
REMARK VINA RESULT:    -3.331      2.032      3.160
REMARK INTER + INTRA:          -4.319
REMARK INTER:                  -4.079
REMARK INTRA:                  -0.240
REMARK UNBOUND:                -0.404
REMARK SMILES [NH3+][C@H](CO)C(=O)[O-]
REMARK SMILES IDX 3 1 2 2 1 3 5 7 6 8 7 9 4 10
REMARK H PARENT 1 4 1 5 1 6 4 11
REMARK Flexibility Score: inf
ROOT
ATOM      1  C   UNL     1     191.678 196.105  82.730  1.00  0.00     0.227 C 
ENDROOT
BRANCH   1   2
ATOM      2  C   UNL     1     191.579 194.595  82.456  1.00  0.00     0.253 C 
BRANCH   2   3
ATOM      3  N   UNL     1     192.822 194.076  81.872  1.00  0.00    -0.348 N 
ATOM      4  H   UNL     1     193.083 194.638  81.030  1.00  0.00     0.345 HD
ATOM      5  H   UNL     1     193.603 194.116  82.567  1.00  0.00     0.345 HD
ATOM      6  H   UNL     1     192.684 193.084  81.568  1.00  0.00     0.345 HD
ENDBRANCH   2   3
BRANCH   2   7
ATOM      7  C   UNL     1     191.259 193.864  83.733  1.00  0.00     0.102 C 
ATOM      8  O   UNL     1     192.174 193.291  84.381  1.00  0.00    -0.544 OA
ATOM      9  O   UNL     1     189.950 193.804  84.196  1.00  0.00    -0.544 OA
ENDBRANCH   2   7
ENDBRANCH   1   2
BRANCH   1  10
ATOM     10  O   UNL     1     190.489 196.582  83.303  1.00  0.00    -0.390 OA
ATOM     11  H   UNL     1     190.624 197.547  83.488  1.00  0.00     0.210 HD
ENDBRANCH   1  10
TORSDOF 4
ENDMDL
MODEL 4
REMARK VINA RESULT:    -3.299     14.374     15.100
REMARK INTER + INTRA:          -4.281
REMARK INTER:                  -3.897
REMARK INTRA:                  -0.384
REMARK UNBOUND:                -0.404
REMARK SMILES [NH3+][C@H](CO)C(=O)[O-]
REMARK SMILES IDX 3 1 2 2 1 3 5 7 6 8 7 9 4 10
REMARK H PARENT 1 4 1 5 1 6 4 11
REMARK Flexibility Score: inf
ROOT
ATOM      1  C   UNL     1     180.879 202.306  86.156  1.00  0.00     0.227 C 
ENDROOT
BRANCH   1   2
ATOM      2  C   UNL     1     179.870 202.507  87.300  1.00  0.00     0.253 C 
BRANCH   2   3
ATOM      3  N   UNL     1     179.965 201.427  88.290  1.00  0.00    -0.348 N 
ATOM      4  H   UNL     1     179.737 201.793  89.242  1.00  0.00     0.345 HD
ATOM      5  H   UNL     1     179.306 200.649  88.054  1.00  0.00     0.345 HD
ATOM      6  H   UNL     1     180.942 201.053  88.313  1.00  0.00     0.345 HD
ENDBRANCH   2   3
BRANCH   2   7
ATOM      7  C   UNL     1     180.104 203.840  87.959  1.00  0.00     0.102 C 
ATOM      8  O   UNL     1     180.793 203.914  89.010  1.00  0.00    -0.544 OA
ATOM      9  O   UNL     1     179.550 204.995  87.420  1.00  0.00    -0.544 OA
ENDBRANCH   2   7
ENDBRANCH   1   2
BRANCH   1  10
ATOM     10  O   UNL     1     181.618 203.479  85.939  1.00  0.00    -0.390 OA
ATOM     11  H   UNL     1     181.679 203.947  86.812  1.00  0.00     0.210 HD
ENDBRANCH   1  10
TORSDOF 4
ENDMDL
MODEL 5
REMARK VINA RESULT:    -3.253     14.020     14.632
REMARK INTER + INTRA:          -4.227
REMARK INTER:                  -3.977
REMARK INTRA:                  -0.250
REMARK UNBOUND:                -0.404
REMARK SMILES [NH3+][C@H](CO)C(=O)[O-]
REMARK SMILES IDX 3 1 2 2 1 3 5 7 6 8 7 9 4 10
REMARK H PARENT 1 4 1 5 1 6 4 11
REMARK Flexibility Score: inf
ROOT
ATOM      1  C   UNL     1     180.284 204.143  88.022  1.00  0.00     0.227 C 
ENDROOT
BRANCH   1   2
ATOM      2  C   UNL     1     180.290 203.201  86.805  1.00  0.00     0.253 C 
BRANCH   2   3
ATOM      3  N   UNL     1     181.464 203.434  85.956  1.00  0.00    -0.348 N 
ATOM      4  H   UNL     1     182.340 203.302  86.511  1.00  0.00     0.345 HD
ATOM      5  H   UNL     1     181.470 202.776  85.143  1.00  0.00     0.345 HD
ATOM      6  H   UNL     1     181.454 204.418  85.600  1.00  0.00     0.345 HD
ENDBRANCH   2   3
BRANCH   2   7
ATOM      7  C   UNL     1     180.259 201.769  87.268  1.00  0.00     0.102 C 
ATOM      8  O   UNL     1     179.487 201.421  88.201  1.00  0.00    -0.544 OA
ATOM      9  O   UNL     1     181.092 200.824  86.680  1.00  0.00    -0.544 OA
ENDBRANCH   2   7
ENDBRANCH   1   2
BRANCH   1  10
ATOM     10  O   UNL     1     181.148 203.666  89.019  1.00  0.00    -0.390 OA
ATOM     11  H   UNL     1     180.845 202.749  89.251  1.00  0.00     0.210 HD
ENDBRANCH   1  10
TORSDOF 4
ENDMDL
MODEL 6
REMARK VINA RESULT:    -3.214      2.765      3.268
REMARK INTER + INTRA:          -4.181
REMARK INTER:                  -3.790
REMARK INTRA:                  -0.391
REMARK UNBOUND:                -0.404
REMARK SMILES [NH3+][C@H](CO)C(=O)[O-]
REMARK SMILES IDX 3 1 2 2 1 3 5 7 6 8 7 9 4 10
REMARK H PARENT 1 4 1 5 1 6 4 11
REMARK Flexibility Score: inf
ROOT
ATOM      1  C   UNL     1     192.109 196.189  82.533  1.00  0.00     0.227 C 
ENDROOT
BRANCH   1   2
ATOM      2  C   UNL     1     191.984 195.196  81.364  1.00  0.00     0.253 C 
BRANCH   2   3
ATOM      3  N   UNL     1     193.124 194.273  81.325  1.00  0.00    -0.348 N 
ATOM      4  H   UNL     1     193.176 193.730  82.217  1.00  0.00     0.345 HD
ATOM      5  H   UNL     1     193.035 193.607  80.523  1.00  0.00     0.345 HD
ATOM      6  H   UNL     1     194.015 194.813  81.224  1.00  0.00     0.345 HD
ENDBRANCH   2   3
BRANCH   2   7
ATOM      7  C   UNL     1     190.695 194.428  81.483  1.00  0.00     0.102 C 
ATOM      8  O   UNL     1     189.710 194.728  80.759  1.00  0.00    -0.544 OA
ATOM      9  O   UNL     1     190.579 193.392  82.403  1.00  0.00    -0.544 OA
ENDBRANCH   2   7
ENDBRANCH   1   2
BRANCH   1  10
ATOM     10  O   UNL     1     190.857 196.410  83.129  1.00  0.00    -0.390 OA
ATOM     11  H   UNL     1     190.989 196.344  84.110  1.00  0.00     0.210 HD
ENDBRANCH   1  10
TORSDOF 4
ENDMDL
MODEL 7
REMARK VINA RESULT:    -3.155     17.663     18.113
REMARK INTER + INTRA:          -4.112
REMARK INTER:                  -3.717
REMARK INTRA:                  -0.396
REMARK UNBOUND:                -0.404
REMARK SMILES [NH3+][C@H](CO)C(=O)[O-]
REMARK SMILES IDX 3 1 2 2 1 3 5 7 6 8 7 9 4 10
REMARK H PARENT 1 4 1 5 1 6 4 11
REMARK Flexibility Score: inf
ROOT
ATOM      1  C   UNL     1     185.545 206.353  94.951  1.00  0.00     0.227 C 
ENDROOT
BRANCH   1   2
ATOM      2  C   UNL     1     185.387 207.859  94.677  1.00  0.00     0.253 C 
BRANCH   2   3
ATOM      3  N   UNL     1     186.535 208.618  95.189  1.00  0.00    -0.348 N 
ATOM      4  H   UNL     1     187.092 209.004  94.393  1.00  0.00     0.345 HD
ATOM      5  H   UNL     1     186.215 209.406  95.799  1.00  0.00     0.345 HD
ATOM      6  H   UNL     1     187.159 207.986  95.743  1.00  0.00     0.345 HD
ENDBRANCH   2   3
BRANCH   2   7
ATOM      7  C   UNL     1     185.225 208.094  93.199  1.00  0.00     0.102 C 
ATOM      8  O   UNL     1     184.076 208.209  92.698  1.00  0.00    -0.544 OA
ATOM      9  O   UNL     1     186.343 208.170  92.375  1.00  0.00    -0.544 OA
ENDBRANCH   2   7
ENDBRANCH   1   2
BRANCH   1  10
ATOM     10  O   UNL     1     185.194 205.605  93.817  1.00  0.00    -0.390 OA
ATOM     11  H   UNL     1     186.026 205.464  93.295  1.00  0.00     0.210 HD
ENDBRANCH   1  10
TORSDOF 4
ENDMDL
MODEL 8
REMARK VINA RESULT:    -3.111     17.680     18.079
REMARK INTER + INTRA:          -4.060
REMARK INTER:                  -3.833
REMARK INTRA:                  -0.227
REMARK UNBOUND:                -0.404
REMARK SMILES [NH3+][C@H](CO)C(=O)[O-]
REMARK SMILES IDX 3 1 2 2 1 3 5 7 6 8 7 9 4 10
REMARK H PARENT 1 4 1 5 1 6 4 11
REMARK Flexibility Score: inf
ROOT
ATOM      1  C   UNL     1     186.184 208.138  93.426  1.00  0.00     0.227 C 
ENDROOT
BRANCH   1   2
ATOM      2  C   UNL     1     185.121 207.167  93.968  1.00  0.00     0.253 C 
BRANCH   2   3
ATOM      3  N   UNL     1     184.590 206.308  92.903  1.00  0.00    -0.348 N 
ATOM      4  H   UNL     1     185.328 206.134  92.183  1.00  0.00     0.345 HD
ATOM      5  H   UNL     1     184.268 205.392  93.292  1.00  0.00     0.345 HD
ATOM      6  H   UNL     1     183.785 206.783  92.432  1.00  0.00     0.345 HD
ENDBRANCH   2   3
BRANCH   2   7
ATOM      7  C   UNL     1     185.711 206.328  95.069  1.00  0.00     0.102 C 
ATOM      8  O   UNL     1     184.980 205.544  95.730  1.00  0.00    -0.544 OA
ATOM      9  O   UNL     1     187.064 206.423  95.374  1.00  0.00    -0.544 OA
ENDBRANCH   2   7
ENDBRANCH   1   2
BRANCH   1  10
ATOM     10  O   UNL     1     186.438 209.160  94.354  1.00  0.00    -0.390 OA
ATOM     11  H   UNL     1     186.072 208.856  95.225  1.00  0.00     0.210 HD
ENDBRANCH   1  10
TORSDOF 4
ENDMDL
MODEL 9
REMARK VINA RESULT:    -3.090      2.768      3.742
REMARK INTER + INTRA:          -4.035
REMARK INTER:                  -3.631
REMARK INTRA:                  -0.405
REMARK UNBOUND:                -0.404
REMARK SMILES [NH3+][C@H](CO)C(=O)[O-]
REMARK SMILES IDX 3 1 2 2 1 3 5 7 6 8 7 9 4 10
REMARK H PARENT 1 4 1 5 1 6 4 11
REMARK Flexibility Score: inf
ROOT
ATOM      1  C   UNL     1     191.240 195.347  79.954  1.00  0.00     0.227 C 
ENDROOT
BRANCH   1   2
ATOM      2  C   UNL     1     191.711 194.604  81.217  1.00  0.00     0.253 C 
BRANCH   2   3
ATOM      3  N   UNL     1     193.125 194.223  81.115  1.00  0.00    -0.348 N 
ATOM      4  H   UNL     1     193.206 193.195  80.944  1.00  0.00     0.345 HD
ATOM      5  H   UNL     1     193.592 194.739  80.334  1.00  0.00     0.345 HD
ATOM      6  H   UNL     1     193.616 194.441  82.012  1.00  0.00     0.345 HD
ENDBRANCH   2   3
BRANCH   2   7
ATOM      7  C   UNL     1     191.490 195.468  82.429  1.00  0.00     0.102 C 
ATOM      8  O   UNL     1     192.428 196.175  82.882  1.00  0.00    -0.544 OA
ATOM      9  O   UNL     1     190.255 195.480  83.066  1.00  0.00    -0.544 OA
ENDBRANCH   2   7
ENDBRANCH   1   2
BRANCH   1  10
ATOM     10  O   UNL     1     190.900 196.674  80.261  1.00  0.00    -0.390 OA
ATOM     11  H   UNL     1     190.000 196.652  80.678  1.00  0.00     0.210 HD
ENDBRANCH   1  10
TORSDOF 4
ENDMDL
