MODEL 1
REMARK VINA RESULT:    -1.314      0.000      0.000
REMARK INTER + INTRA:          -2.091
REMARK INTER:                  -1.774
REMARK INTRA:                  -0.317
REMARK UNBOUND:                -0.317
REMARK SMILES CC[C@@H](CC[C@H](C)[C@H]1CC[C@H]2[C@@H]3CC(=O)C4=CC(=O)CC[C@]4(C)[C@@H]3CC[C@]12C)C(C)C
REMARK SMILES IDX 4 1 3 2 2 3 1 4 29 5 30 6 31 7 5 8 6 9 7 10 8 11 9 12 27 13
REMARK SMILES IDX 10 14 11 15 26 16 28 17 12 18 25 19 24 20 13 21 22 22 14 23
REMARK SMILES IDX 16 24 21 25 23 26 15 27 17 28 20 29 18 30 19 31
REMARK H PARENT
REMARK Flexibility Score: inf
ROOT
ATOM      1  C   UNL     1      -9.905 -14.152  35.991  1.00  0.00     0.004 C 
ENDROOT
BRANCH   1   2
ATOM      2  C   UNL     1     -10.826 -12.902  35.821  1.00  0.00    -0.009 C 
BRANCH   2   3
ATOM      3  C   UNL     1     -10.043 -11.621  36.276  1.00  0.00     0.000 C 
ATOM      4  C   UNL     1     -10.039 -10.521  35.212  1.00  0.00     0.004 C 
ENDBRANCH   2   3
BRANCH   2   5
ATOM      5  C   UNL     1     -12.201 -13.071  36.570  1.00  0.00    -0.014 C 
ATOM      6  C   UNL     1     -13.347 -13.462  35.610  1.00  0.00     0.007 C 
ATOM      7  C   UNL     1     -12.128 -14.151  37.680  1.00  0.00     0.007 C 
ENDBRANCH   2   5
ENDBRANCH   1   2
BRANCH   1   8
ATOM      8  C   UNL     1     -10.410 -15.358  35.159  1.00  0.00     0.004 C 
BRANCH   8   9
ATOM      9  C   UNL     1      -9.875 -15.436  33.703  1.00  0.00    -0.011 C 
ATOM     10  C   UNL     1      -9.875 -14.045  33.051  1.00  0.00     0.008 C 
BRANCH   9  11
ATOM     11  C   UNL     1     -10.618 -16.570  32.900  1.00  0.00    -0.002 C 
ATOM     12  C   UNL     1     -10.595 -17.999  33.507  1.00  0.00     0.005 C 
ATOM     13  C   UNL     1     -12.094 -16.427  32.406  1.00  0.00    -0.026 C 
ATOM     14  C   UNL     1     -11.693 -18.793  32.771  1.00  0.00     0.005 C 
ATOM     15  C   UNL     1     -12.249 -17.805  31.736  1.00  0.00    -0.001 C 
ATOM     16  C   UNL     1     -12.322 -15.355  31.323  1.00  0.00     0.007 C 
ATOM     17  C   UNL     1     -13.111 -16.238  33.591  1.00  0.00     0.012 C 
ATOM     18  C   UNL     1     -13.650 -18.076  31.126  1.00  0.00     0.004 C 
ATOM     19  C   UNL     1     -13.722 -15.514  30.683  1.00  0.00     0.005 C 
ATOM     20  C   UNL     1     -14.035 -16.942  30.101  1.00  0.00     0.003 C 
ATOM     21  C   UNL     1     -13.734 -19.472  30.490  1.00  0.00     0.085 C 
ATOM     22  C   UNL     1     -13.616 -17.216  28.565  1.00  0.00    -0.000 C 
ATOM     23  C   UNL     1     -12.818 -19.572  29.317  1.00  0.00     0.159 C 
ATOM     24  C   UNL     1     -12.639 -18.398  28.432  1.00  0.00     0.005 C 
ATOM     25  C   UNL     1     -13.011 -15.947  27.867  1.00  0.00     0.020 C 
ATOM     26  C   UNL     1     -14.895 -17.616  27.777  1.00  0.00     0.017 C 
ATOM     27  O   UNL     1     -12.228 -20.665  29.088  1.00  0.00    -0.295 OA
ATOM     28  C   UNL     1     -11.725 -18.463  27.440  1.00  0.00     0.055 C 
ATOM     29  C   UNL     1     -12.480 -16.209  26.453  1.00  0.00     0.081 C 
ATOM     30  C   UNL     1     -11.571 -17.393  26.441  1.00  0.00     0.156 C 
ATOM     31  O   UNL     1     -10.712 -17.515  25.526  1.00  0.00    -0.295 OA
ENDBRANCH   9  11
ENDBRANCH   8   9
ENDBRANCH   1   8
TORSDOF 6
ENDMDL
MODEL 2
REMARK VINA RESULT:    -0.713      2.648      6.490
REMARK INTER + INTRA:          -1.280
REMARK INTER:                  -0.299
REMARK INTRA:                  -0.980
REMARK UNBOUND:                -0.317
REMARK SMILES CC[C@@H](CC[C@H](C)[C@H]1CC[C@H]2[C@@H]3CC(=O)C4=CC(=O)CC[C@]4(C)[C@@H]3CC[C@]12C)C(C)C
REMARK SMILES IDX 4 1 3 2 2 3 1 4 29 5 30 6 31 7 5 8 6 9 7 10 8 11 9 12 27 13
REMARK SMILES IDX 10 14 11 15 26 16 28 17 12 18 25 19 24 20 13 21 22 22 14 23
REMARK SMILES IDX 16 24 21 25 23 26 15 27 17 28 20 29 18 30 19 31
REMARK H PARENT
REMARK Flexibility Score: inf
ROOT
ATOM      1  C   UNL     1     -13.977 -14.093  28.299  1.00  0.00     0.004 C 
ENDROOT
BRANCH   1   2
ATOM      2  C   UNL     1     -15.131 -14.142  29.351  1.00  0.00    -0.009 C 
BRANCH   2   3
ATOM      3  C   UNL     1     -15.886 -12.768  29.349  1.00  0.00     0.000 C 
ATOM      4  C   UNL     1     -17.384 -12.917  29.074  1.00  0.00     0.004 C 
ENDBRANCH   2   3
BRANCH   2   5
ATOM      5  C   UNL     1     -14.614 -14.549  30.782  1.00  0.00    -0.014 C 
ATOM      6  C   UNL     1     -15.672 -14.298  31.881  1.00  0.00     0.007 C 
ATOM      7  C   UNL     1     -14.210 -16.044  30.850  1.00  0.00     0.007 C 
ENDBRANCH   2   5
ENDBRANCH   1   2
BRANCH   1   8
ATOM      8  C   UNL     1     -14.449 -14.567  26.902  1.00  0.00     0.004 C 
BRANCH   8   9
ATOM      9  C   UNL     1     -13.877 -15.933  26.431  1.00  0.00    -0.011 C 
ATOM     10  C   UNL     1     -14.717 -16.504  25.280  1.00  0.00     0.008 C 
BRANCH   9  11
ATOM     11  C   UNL     1     -13.655 -16.893  27.661  1.00  0.00    -0.002 C 
ATOM     12  C   UNL     1     -14.367 -18.272  27.620  1.00  0.00     0.005 C 
ATOM     13  C   UNL     1     -12.234 -17.253  28.206  1.00  0.00    -0.026 C 
ATOM     14  C   UNL     1     -13.682 -19.138  28.697  1.00  0.00     0.005 C 
ATOM     15  C   UNL     1     -12.656 -18.199  29.346  1.00  0.00    -0.001 C 
ATOM     16  C   UNL     1     -11.458 -16.080  28.836  1.00  0.00     0.007 C 
ATOM     17  C   UNL     1     -11.346 -17.990  27.136  1.00  0.00     0.012 C 
ATOM     18  C   UNL     1     -11.478 -18.820  30.143  1.00  0.00     0.004 C 
ATOM     19  C   UNL     1     -10.229 -16.599  29.620  1.00  0.00     0.005 C 
ATOM     20  C   UNL     1     -10.539 -17.688  30.712  1.00  0.00     0.003 C 
ATOM     21  C   UNL     1     -11.973 -19.760  31.251  1.00  0.00     0.085 C 
ATOM     22  C   UNL     1     -10.902 -17.158  32.195  1.00  0.00    -0.000 C 
ATOM     23  C   UNL     1     -12.733 -19.001  32.287  1.00  0.00     0.159 C 
ATOM     24  C   UNL     1     -12.290 -17.638  32.658  1.00  0.00     0.005 C 
ATOM     25  C   UNL     1     -10.813 -15.596  32.317  1.00  0.00     0.020 C 
ATOM     26  C   UNL     1      -9.876 -17.763  33.192  1.00  0.00     0.017 C 
ATOM     27  O   UNL     1     -13.728 -19.544  32.843  1.00  0.00    -0.295 OA
ATOM     28  C   UNL     1     -13.047 -16.916  33.513  1.00  0.00     0.055 C 
ATOM     29  C   UNL     1     -11.281 -15.051  33.671  1.00  0.00     0.081 C 
ATOM     30  C   UNL     1     -12.620 -15.607  34.030  1.00  0.00     0.156 C 
ATOM     31  O   UNL     1     -13.360 -14.986  34.840  1.00  0.00    -0.295 OA
ENDBRANCH   9  11
ENDBRANCH   8   9
ENDBRANCH   1   8
TORSDOF 6
ENDMDL
MODEL 3
REMARK VINA RESULT:     0.255      3.367      8.180
REMARK INTER + INTRA:           0.028
REMARK INTER:                   0.522
REMARK INTRA:                  -0.494
REMARK UNBOUND:                -0.317
REMARK SMILES CC[C@@H](CC[C@H](C)[C@H]1CC[C@H]2[C@@H]3CC(=O)C4=CC(=O)CC[C@]4(C)[C@@H]3CC[C@]12C)C(C)C
REMARK SMILES IDX 4 1 3 2 2 3 1 4 29 5 30 6 31 7 5 8 6 9 7 10 8 11 9 12 27 13
REMARK SMILES IDX 10 14 11 15 26 16 28 17 12 18 25 19 24 20 13 21 22 22 14 23
REMARK SMILES IDX 16 24 21 25 23 26 15 27 17 28 20 29 18 30 19 31
REMARK H PARENT
REMARK Flexibility Score: inf
ROOT
ATOM      1  C   UNL     1     -11.628 -16.866  28.886  1.00  0.00     0.004 C 
ENDROOT
BRANCH   1   2
ATOM      2  C   UNL     1     -12.262 -18.293  28.921  1.00  0.00    -0.009 C 
BRANCH   2   3
ATOM      3  C   UNL     1     -13.503 -18.328  27.963  1.00  0.00     0.000 C 
ATOM      4  C   UNL     1     -13.448 -17.243  26.885  1.00  0.00     0.004 C 
ENDBRANCH   2   3
BRANCH   2   5
ATOM      5  C   UNL     1     -12.613 -18.751  30.386  1.00  0.00    -0.014 C 
ATOM      6  C   UNL     1     -13.879 -19.638  30.436  1.00  0.00     0.007 C 
ATOM      7  C   UNL     1     -11.455 -19.548  31.040  1.00  0.00     0.007 C 
ENDBRANCH   2   5
ENDBRANCH   1   2
BRANCH   1   8
ATOM      8  C   UNL     1     -11.874 -16.093  30.206  1.00  0.00     0.004 C 
BRANCH   8   9
ATOM      9  C   UNL     1     -13.365 -15.889  30.593  1.00  0.00    -0.011 C 
ATOM     10  C   UNL     1     -14.080 -15.018  29.550  1.00  0.00     0.008 C 
BRANCH   9  11
ATOM     11  C   UNL     1     -13.489 -15.410  32.089  1.00  0.00    -0.002 C 
ATOM     12  C   UNL     1     -14.769 -15.828  32.863  1.00  0.00     0.005 C 
ATOM     13  C   UNL     1     -12.357 -15.634  33.144  1.00  0.00    -0.026 C 
ATOM     14  C   UNL     1     -14.460 -15.593  34.356  1.00  0.00     0.005 C 
ATOM     15  C   UNL     1     -13.047 -14.994  34.363  1.00  0.00    -0.001 C 
ATOM     16  C   UNL     1     -11.054 -14.854  32.883  1.00  0.00     0.007 C 
ATOM     17  C   UNL     1     -12.049 -17.158  33.383  1.00  0.00     0.012 C 
ATOM     18  C   UNL     1     -12.222 -15.048  35.677  1.00  0.00     0.004 C 
ATOM     19  C   UNL     1     -10.138 -14.890  34.129  1.00  0.00     0.005 C 
ATOM     20  C   UNL     1     -10.804 -14.394  35.466  1.00  0.00     0.003 C 
ATOM     21  C   UNL     1     -12.978 -14.406  36.850  1.00  0.00     0.085 C 
ATOM     22  C   UNL     1     -10.706 -12.815  35.793  1.00  0.00    -0.000 C 
ATOM     23  C   UNL     1     -13.168 -12.944  36.617  1.00  0.00     0.159 C 
ATOM     24  C   UNL     1     -12.094 -12.169  35.954  1.00  0.00     0.005 C 
ATOM     25  C   UNL     1      -9.875 -12.026  34.721  1.00  0.00     0.020 C 
ATOM     26  C   UNL     1      -9.985 -12.645  37.159  1.00  0.00     0.017 C 
ATOM     27  O   UNL     1     -14.232 -12.391  37.010  1.00  0.00    -0.295 OA
ATOM     28  C   UNL     1     -12.320 -10.873  35.648  1.00  0.00     0.055 C 
ATOM     29  C   UNL     1      -9.876 -10.507  34.928  1.00  0.00     0.081 C 
ATOM     30  C   UNL     1     -11.269  -9.999  35.103  1.00  0.00     0.156 C 
ATOM     31  O   UNL     1     -11.532  -8.791  34.852  1.00  0.00    -0.295 OA
ENDBRANCH   9  11
ENDBRANCH   8   9
ENDBRANCH   1   8
TORSDOF 6
ENDMDL
MODEL 4
REMARK VINA RESULT:     0.445      2.021      4.353
REMARK INTER + INTRA:           0.285
REMARK INTER:                   2.468
REMARK INTRA:                  -2.183
REMARK UNBOUND:                -0.317
REMARK SMILES CC[C@@H](CC[C@H](C)[C@H]1CC[C@H]2[C@@H]3CC(=O)C4=CC(=O)CC[C@]4(C)[C@@H]3CC[C@]12C)C(C)C
REMARK SMILES IDX 4 1 3 2 2 3 1 4 29 5 30 6 31 7 5 8 6 9 7 10 8 11 9 12 27 13
REMARK SMILES IDX 10 14 11 15 26 16 28 17 12 18 25 19 24 20 13 21 22 22 14 23
REMARK SMILES IDX 16 24 21 25 23 26 15 27 17 28 20 29 18 30 19 31
REMARK H PARENT
REMARK Flexibility Score: inf
ROOT
ATOM      1  C   UNL     1     -14.254 -13.947  33.084  1.00  0.00     0.004 C 
ENDROOT
BRANCH   1   2
ATOM      2  C   UNL     1     -15.490 -14.634  32.417  1.00  0.00    -0.009 C 
BRANCH   2   3
ATOM      3  C   UNL     1     -15.752 -16.012  33.117  1.00  0.00     0.000 C 
ATOM      4  C   UNL     1     -17.147 -16.104  33.740  1.00  0.00     0.004 C 
ENDBRANCH   2   3
BRANCH   2   5
ATOM      5  C   UNL     1     -15.325 -14.767  30.857  1.00  0.00    -0.014 C 
ATOM      6  C   UNL     1     -15.955 -13.578  30.097  1.00  0.00     0.007 C 
ATOM      7  C   UNL     1     -13.835 -14.856  30.437  1.00  0.00     0.007 C 
ENDBRANCH   2   5
ENDBRANCH   1   2
BRANCH   1   8
ATOM      8  C   UNL     1     -14.032 -14.444  34.535  1.00  0.00     0.004 C 
BRANCH   8   9
ATOM      9  C   UNL     1     -12.632 -15.050  34.826  1.00  0.00    -0.011 C 
ATOM     10  C   UNL     1     -11.831 -14.135  35.765  1.00  0.00     0.008 C 
BRANCH   9  11
ATOM     11  C   UNL     1     -11.913 -15.454  33.483  1.00  0.00    -0.002 C 
ATOM     12  C   UNL     1     -10.470 -14.923  33.265  1.00  0.00     0.005 C 
ATOM     13  C   UNL     1     -11.817 -16.934  32.988  1.00  0.00    -0.026 C 
ATOM     14  C   UNL     1      -9.875 -15.766  32.118  1.00  0.00     0.005 C 
ATOM     15  C   UNL     1     -11.022 -16.693  31.692  1.00  0.00    -0.001 C 
ATOM     16  C   UNL     1     -13.160 -17.582  32.598  1.00  0.00     0.007 C 
ATOM     17  C   UNL     1     -11.031 -17.856  33.992  1.00  0.00     0.012 C 
ATOM     18  C   UNL     1     -10.681 -17.979  30.892  1.00  0.00     0.004 C 
ATOM     19  C   UNL     1     -12.924 -18.905  31.831  1.00  0.00     0.005 C 
ATOM     20  C   UNL     1     -11.993 -18.791  30.567  1.00  0.00     0.003 C 
ATOM     21  C   UNL     1      -9.876 -17.664  29.623  1.00  0.00     0.085 C 
ATOM     22  C   UNL     1     -12.705 -18.435  29.161  1.00  0.00    -0.000 C 
ATOM     23  C   UNL     1     -10.695 -16.864  28.665  1.00  0.00     0.159 C 
ATOM     24  C   UNL     1     -12.143 -17.145  28.536  1.00  0.00     0.005 C 
ATOM     25  C   UNL     1     -14.266 -18.329  29.283  1.00  0.00     0.020 C 
ATOM     26  C   UNL     1     -12.394 -19.579  28.156  1.00  0.00     0.017 C 
ATOM     27  O   UNL     1     -10.132 -15.976  27.966  1.00  0.00    -0.295 OA
ATOM     28  C   UNL     1     -12.895 -16.344  27.751  1.00  0.00     0.055 C 
ATOM     29  C   UNL     1     -14.960 -17.861  27.999  1.00  0.00     0.081 C 
ATOM     30  C   UNL     1     -14.312 -16.624  27.469  1.00  0.00     0.156 C 
ATOM     31  O   UNL     1     -14.961 -15.851  26.714  1.00  0.00    -0.295 OA
ENDBRANCH   9  11
ENDBRANCH   8   9
ENDBRANCH   1   8
TORSDOF 6
ENDMDL
MODEL 5
REMARK VINA RESULT:     0.495      1.753      4.049
REMARK INTER + INTRA:           0.352
REMARK INTER:                  -0.832
REMARK INTRA:                   1.184
REMARK UNBOUND:                -0.317
REMARK SMILES CC[C@@H](CC[C@H](C)[C@H]1CC[C@H]2[C@@H]3CC(=O)C4=CC(=O)CC[C@]4(C)[C@@H]3CC[C@]12C)C(C)C
REMARK SMILES IDX 4 1 3 2 2 3 1 4 29 5 30 6 31 7 5 8 6 9 7 10 8 11 9 12 27 13
REMARK SMILES IDX 10 14 11 15 26 16 28 17 12 18 25 19 24 20 13 21 22 22 14 23
REMARK SMILES IDX 16 24 21 25 23 26 15 27 17 28 20 29 18 30 19 31
REMARK H PARENT
REMARK Flexibility Score: inf
ROOT
ATOM      1  C   UNL     1     -13.624 -13.940  34.991  1.00  0.00     0.004 C 
ENDROOT
BRANCH   1   2
ATOM      2  C   UNL     1     -12.668 -14.011  36.225  1.00  0.00    -0.009 C 
BRANCH   2   3
ATOM      3  C   UNL     1     -12.919 -12.763  37.141  1.00  0.00     0.000 C 
ATOM      4  C   UNL     1     -11.909 -11.638  36.897  1.00  0.00     0.004 C 
ENDBRANCH   2   3
BRANCH   2   5
ATOM      5  C   UNL     1     -11.160 -14.159  35.800  1.00  0.00    -0.014 C 
ATOM      6  C   UNL     1     -10.266 -14.637  36.967  1.00  0.00     0.007 C 
ATOM      7  C   UNL     1     -10.981 -15.161  34.631  1.00  0.00     0.007 C 
ENDBRANCH   2   5
ENDBRANCH   1   2
BRANCH   1   8
ATOM      8  C   UNL     1     -14.439 -15.246  34.817  1.00  0.00     0.004 C 
BRANCH   8   9
ATOM      9  C   UNL     1     -15.634 -15.161  33.828  1.00  0.00    -0.011 C 
ATOM     10  C   UNL     1     -16.741 -16.146  34.231  1.00  0.00     0.008 C 
BRANCH   9  11
ATOM     11  C   UNL     1     -15.130 -15.267  32.339  1.00  0.00    -0.002 C 
ATOM     12  C   UNL     1     -15.516 -14.111  31.376  1.00  0.00     0.005 C 
ATOM     13  C   UNL     1     -13.635 -15.539  31.971  1.00  0.00    -0.026 C 
ATOM     14  C   UNL     1     -14.591 -14.251  30.150  1.00  0.00     0.005 C 
ATOM     15  C   UNL     1     -13.765 -15.512  30.437  1.00  0.00    -0.001 C 
ATOM     16  C   UNL     1     -13.105 -16.930  32.370  1.00  0.00     0.007 C 
ATOM     17  C   UNL     1     -12.670 -14.411  32.494  1.00  0.00     0.012 C 
ATOM     18  C   UNL     1     -12.432 -15.720  29.669  1.00  0.00     0.004 C 
ATOM     19  C   UNL     1     -11.746 -17.213  31.686  1.00  0.00     0.005 C 
ATOM     20  C   UNL     1     -11.739 -17.062  30.119  1.00  0.00     0.003 C 
ATOM     21  C   UNL     1     -12.637 -15.666  28.148  1.00  0.00     0.085 C 
ATOM     22  C   UNL     1     -12.122 -18.372  29.255  1.00  0.00    -0.000 C 
ATOM     23  C   UNL     1     -13.484 -16.805  27.690  1.00  0.00     0.159 C 
ATOM     24  C   UNL     1     -13.337 -18.127  28.340  1.00  0.00     0.005 C 
ATOM     25  C   UNL     1     -12.378 -19.634  30.150  1.00  0.00     0.020 C 
ATOM     26  C   UNL     1     -10.928 -18.700  28.315  1.00  0.00     0.017 C 
ATOM     27  O   UNL     1     -14.297 -16.626  26.740  1.00  0.00    -0.295 OA
ATOM     28  C   UNL     1     -14.184 -19.121  27.996  1.00  0.00     0.055 C 
ATOM     29  C   UNL     1     -12.875 -20.858  29.372  1.00  0.00     0.081 C 
ATOM     30  C   UNL     1     -14.031 -20.496  28.499  1.00  0.00     0.156 C 
ATOM     31  O   UNL     1     -14.841 -21.388  28.130  1.00  0.00    -0.295 OA
ENDBRANCH   9  11
ENDBRANCH   8   9
ENDBRANCH   1   8
TORSDOF 6
ENDMDL
MODEL 6
REMARK VINA RESULT:     1.352      3.429      8.162
REMARK INTER + INTRA:           1.510
REMARK INTER:                   1.372
REMARK INTRA:                   0.138
REMARK UNBOUND:                -0.317
REMARK SMILES CC[C@@H](CC[C@H](C)[C@H]1CC[C@H]2[C@@H]3CC(=O)C4=CC(=O)CC[C@]4(C)[C@@H]3CC[C@]12C)C(C)C
REMARK SMILES IDX 4 1 3 2 2 3 1 4 29 5 30 6 31 7 5 8 6 9 7 10 8 11 9 12 27 13
REMARK SMILES IDX 10 14 11 15 26 16 28 17 12 18 25 19 24 20 13 21 22 22 14 23
REMARK SMILES IDX 16 24 21 25 23 26 15 27 17 28 20 29 18 30 19 31
REMARK H PARENT
REMARK Flexibility Score: inf
ROOT
ATOM      1  C   UNL     1     -12.532 -17.169  29.634  1.00  0.00     0.004 C 
ENDROOT
BRANCH   1   2
ATOM      2  C   UNL     1     -11.734 -17.468  28.324  1.00  0.00    -0.009 C 
BRANCH   2   3
ATOM      3  C   UNL     1     -10.204 -17.260  28.595  1.00  0.00     0.000 C 
ATOM      4  C   UNL     1      -9.933 -16.234  29.697  1.00  0.00     0.004 C 
ENDBRANCH   2   3
BRANCH   2   5
ATOM      5  C   UNL     1     -12.255 -16.619  27.104  1.00  0.00    -0.014 C 
ATOM      6  C   UNL     1     -11.487 -16.933  25.800  1.00  0.00     0.007 C 
ATOM      7  C   UNL     1     -13.762 -16.859  26.831  1.00  0.00     0.007 C 
ENDBRANCH   2   5
ENDBRANCH   1   2
BRANCH   1   8
ATOM      8  C   UNL     1     -12.915 -15.672  29.746  1.00  0.00     0.004 C 
BRANCH   8   9
ATOM      9  C   UNL     1     -14.319 -15.386  30.346  1.00  0.00    -0.011 C 
ATOM     10  C   UNL     1     -15.057 -14.327  29.515  1.00  0.00     0.008 C 
BRANCH   9  11
ATOM     11  C   UNL     1     -14.212 -15.095  31.892  1.00  0.00    -0.002 C 
ATOM     12  C   UNL     1     -15.413 -15.523  32.778  1.00  0.00     0.005 C 
ATOM     13  C   UNL     1     -12.978 -15.526  32.749  1.00  0.00    -0.026 C 
ATOM     14  C   UNL     1     -14.899 -15.501  34.232  1.00  0.00     0.005 C 
ATOM     15  C   UNL     1     -13.451 -15.003  34.117  1.00  0.00    -0.001 C 
ATOM     16  C   UNL     1     -11.658 -14.807  32.406  1.00  0.00     0.007 C 
ATOM     17  C   UNL     1     -12.768 -17.085  32.762  1.00  0.00     0.012 C 
ATOM     18  C   UNL     1     -12.474 -15.278  35.291  1.00  0.00     0.004 C 
ATOM     19  C   UNL     1     -10.597 -15.062  33.502  1.00  0.00     0.005 C 
ATOM     20  C   UNL     1     -11.045 -14.697  34.967  1.00  0.00     0.003 C 
ATOM     21  C   UNL     1     -13.018 -14.743  36.623  1.00  0.00     0.085 C 
ATOM     22  C   UNL     1     -10.776 -13.183  35.460  1.00  0.00    -0.000 C 
ATOM     23  C   UNL     1     -13.115 -13.254  36.592  1.00  0.00     0.159 C 
ATOM     24  C   UNL     1     -12.075 -12.473  35.885  1.00  0.00     0.005 C 
ATOM     25  C   UNL     1     -10.027 -12.320  34.386  1.00  0.00     0.020 C 
ATOM     26  C   UNL     1      -9.875 -13.237  36.726  1.00  0.00     0.017 C 
ATOM     27  O   UNL     1     -14.072 -12.686  37.189  1.00  0.00    -0.295 OA
ATOM     28  C   UNL     1     -12.230 -11.136  35.766  1.00  0.00     0.055 C 
ATOM     29  C   UNL     1      -9.876 -10.843  34.769  1.00  0.00     0.081 C 
ATOM     30  C   UNL     1     -11.189 -10.271  35.190  1.00  0.00     0.156 C 
ATOM     31  O   UNL     1     -11.382  -9.027  35.122  1.00  0.00    -0.295 OA
ENDBRANCH   9  11
ENDBRANCH   8   9
ENDBRANCH   1   8
TORSDOF 6
ENDMDL
