MODEL 1
REMARK VINA RESULT:    -4.359      0.000      0.000
REMARK INTER + INTRA:          -7.951
REMARK INTER:                  -6.907
REMARK INTRA:                  -1.044
REMARK UNBOUND:                -1.044
REMARK SMILES CCCCCCCCCCCC(=O)[O-]
REMARK SMILES IDX 7 1 8 2 9 3 10 4 11 5 12 6 13 7 14 8 6 9 5 10 4 11 3 12 2 13
REMARK SMILES IDX 1 14
REMARK H PARENT
REMARK Flexibility Score: inf
ROOT
ATOM      1  C   UNL     1      27.835   5.362   8.548  1.00  0.00     0.000 C 
ENDROOT
BRANCH   1   2
ATOM      2  C   UNL     1      28.045   6.883   8.453  1.00  0.00     0.000 C 
BRANCH   2   3
ATOM      3  C   UNL     1      27.135   7.675   9.410  1.00  0.00     0.000 C 
BRANCH   3   4
ATOM      4  C   UNL     1      26.315   8.799   8.750  1.00  0.00     0.006 C 
BRANCH   4   5
ATOM      5  C   UNL     1      25.821   9.848   9.755  1.00  0.00     0.053 C 
BRANCH   5   6
ATOM      6  C   UNL     1      26.246  11.218   9.330  1.00  0.00     0.041 C 
ATOM      7  O   UNL     1      25.447  12.186   9.420  1.00  0.00    -0.550 OA
ATOM      8  O   UNL     1      27.510  11.416   8.788  1.00  0.00    -0.550 OA
ENDBRANCH   5   6
ENDBRANCH   4   5
ENDBRANCH   3   4
ENDBRANCH   2   3
ENDBRANCH   1   2
BRANCH   1   9
ATOM      9  C   UNL     1      26.983   4.814   7.391  1.00  0.00     0.000 C 
BRANCH   9  10
ATOM     10  C   UNL     1      27.200   5.590   6.081  1.00  0.00    -0.000 C 
BRANCH  10  11
ATOM     11  C   UNL     1      25.918   6.264   5.568  1.00  0.00    -0.000 C 
BRANCH  11  12
ATOM     12  C   UNL     1      24.822   6.416   6.644  1.00  0.00    -0.000 C 
BRANCH  12  13
ATOM     13  C   UNL     1      23.622   7.232   6.142  1.00  0.00    -0.003 C 
ATOM     14  C   UNL     1      24.045   8.639   5.732  1.00  0.00     0.004 C 
ENDBRANCH  12  13
ENDBRANCH  11  12
ENDBRANCH  10  11
ENDBRANCH   9  10
ENDBRANCH   1   9
TORSDOF 10
ENDMDL
MODEL 2
REMARK VINA RESULT:    -4.265     14.661     16.366
REMARK INTER + INTRA:          -7.803
REMARK INTER:                  -6.741
REMARK INTRA:                  -1.062
REMARK UNBOUND:                -1.044
REMARK SMILES CCCCCCCCCCCC(=O)[O-]
REMARK SMILES IDX 7 1 8 2 9 3 10 4 11 5 12 6 13 7 14 8 6 9 5 10 4 11 3 12 2 13
REMARK SMILES IDX 1 14
REMARK H PARENT
REMARK Flexibility Score: inf
ROOT
ATOM      1  C   UNL     1      15.491   2.744   0.398  1.00  0.00     0.000 C 
ENDROOT
BRANCH   1   2
ATOM      2  C   UNL     1      15.053   3.187   1.805  1.00  0.00     0.000 C 
BRANCH   2   3
ATOM      3  C   UNL     1      14.003   4.312   1.779  1.00  0.00     0.000 C 
BRANCH   3   4
ATOM      4  C   UNL     1      12.542   3.845   1.914  1.00  0.00     0.006 C 
BRANCH   4   5
ATOM      5  C   UNL     1      11.530   4.985   1.738  1.00  0.00     0.053 C 
BRANCH   5   6
ATOM      6  C   UNL     1      10.297   4.487   1.054  1.00  0.00     0.041 C 
ATOM      7  O   UNL     1       9.337   4.032   1.729  1.00  0.00    -0.550 OA
ATOM      8  O   UNL     1      10.227   4.480  -0.334  1.00  0.00    -0.550 OA
ENDBRANCH   5   6
ENDBRANCH   4   5
ENDBRANCH   3   4
ENDBRANCH   2   3
ENDBRANCH   1   2
BRANCH   1   9
ATOM      9  C   UNL     1      15.558   3.919  -0.592  1.00  0.00     0.000 C 
BRANCH   9  10
ATOM     10  C   UNL     1      14.739   3.659  -1.868  1.00  0.00    -0.000 C 
BRANCH  10  11
ATOM     11  C   UNL     1      13.401   2.957  -1.585  1.00  0.00    -0.000 C 
BRANCH  11  12
ATOM     12  C   UNL     1      13.116   1.764  -2.521  1.00  0.00    -0.000 C 
BRANCH  12  13
ATOM     13  C   UNL     1      13.634   0.437  -1.946  1.00  0.00    -0.003 C 
ATOM     14  C   UNL     1      14.905  -0.014  -2.660  1.00  0.00     0.004 C 
ENDBRANCH  12  13
ENDBRANCH  11  12
ENDBRANCH  10  11
ENDBRANCH   9  10
ENDBRANCH   1   9
TORSDOF 10
ENDMDL
MODEL 3
REMARK VINA RESULT:    -4.228     15.506     18.486
REMARK INTER + INTRA:          -7.744
REMARK INTER:                  -6.824
REMARK INTRA:                  -0.920
REMARK UNBOUND:                -1.044
REMARK SMILES CCCCCCCCCCCC(=O)[O-]
REMARK SMILES IDX 7 1 8 2 9 3 10 4 11 5 12 6 13 7 14 8 6 9 5 10 4 11 3 12 2 13
REMARK SMILES IDX 1 14
REMARK H PARENT
REMARK Flexibility Score: inf
ROOT
ATOM      1  C   UNL     1      14.348  18.524  -0.572  1.00  0.00     0.000 C 
ENDROOT
BRANCH   1   2
ATOM      2  C   UNL     1      15.088  19.125  -1.780  1.00  0.00     0.000 C 
BRANCH   2   3
ATOM      3  C   UNL     1      14.424  18.775  -3.125  1.00  0.00     0.000 C 
BRANCH   3   4
ATOM      4  C   UNL     1      13.982  17.307  -3.271  1.00  0.00     0.006 C 
BRANCH   4   5
ATOM      5  C   UNL     1      13.534  16.956  -4.696  1.00  0.00     0.053 C 
BRANCH   5   6
ATOM      6  C   UNL     1      12.243  16.201  -4.665  1.00  0.00     0.041 C 
ATOM      7  O   UNL     1      11.167  16.795  -4.393  1.00  0.00    -0.550 OA
ATOM      8  O   UNL     1      12.234  14.830  -4.889  1.00  0.00    -0.550 OA
ENDBRANCH   5   6
ENDBRANCH   4   5
ENDBRANCH   3   4
ENDBRANCH   2   3
ENDBRANCH   1   2
BRANCH   1   9
ATOM      9  C   UNL     1      14.972  18.946   0.768  1.00  0.00     0.000 C 
BRANCH   9  10
ATOM     10  C   UNL     1      15.294  17.744   1.671  1.00  0.00    -0.000 C 
BRANCH  10  11
ATOM     11  C   UNL     1      16.794  17.619   1.986  1.00  0.00    -0.000 C 
BRANCH  11  12
ATOM     12  C   UNL     1      17.706  17.844   0.761  1.00  0.00    -0.000 C 
BRANCH  12  13
ATOM     13  C   UNL     1      18.168  16.522   0.130  1.00  0.00    -0.003 C 
ATOM     14  C   UNL     1      17.255  16.111  -1.021  1.00  0.00     0.004 C 
ENDBRANCH  12  13
ENDBRANCH  11  12
ENDBRANCH  10  11
ENDBRANCH   9  10
ENDBRANCH   1   9
TORSDOF 10
ENDMDL
MODEL 4
REMARK VINA RESULT:    -4.183     14.624     16.108
REMARK INTER + INTRA:          -7.673
REMARK INTER:                  -6.256
REMARK INTRA:                  -1.417
REMARK UNBOUND:                -1.044
REMARK SMILES CCCCCCCCCCCC(=O)[O-]
REMARK SMILES IDX 7 1 8 2 9 3 10 4 11 5 12 6 13 7 14 8 6 9 5 10 4 11 3 12 2 13
REMARK SMILES IDX 1 14
REMARK H PARENT
REMARK Flexibility Score: inf
ROOT
ATOM      1  C   UNL     1      15.438   4.001  -0.297  1.00  0.00     0.000 C 
ENDROOT
BRANCH   1   2
ATOM      2  C   UNL     1      15.421   3.079   0.935  1.00  0.00     0.000 C 
BRANCH   2   3
ATOM      3  C   UNL     1      14.226   3.348   1.868  1.00  0.00     0.000 C 
BRANCH   3   4
ATOM      4  C   UNL     1      13.532   4.707   1.663  1.00  0.00     0.006 C 
BRANCH   4   5
ATOM      5  C   UNL     1      12.002   4.596   1.615  1.00  0.00     0.053 C 
BRANCH   5   6
ATOM      6  C   UNL     1      11.588   3.492   0.695  1.00  0.00     0.041 C 
ATOM      7  O   UNL     1      11.809   3.580  -0.541  1.00  0.00    -0.550 OA
ATOM      8  O   UNL     1      10.912   2.386   1.196  1.00  0.00    -0.550 OA
ENDBRANCH   5   6
ENDBRANCH   4   5
ENDBRANCH   3   4
ENDBRANCH   2   3
ENDBRANCH   1   2
BRANCH   1   9
ATOM      9  C   UNL     1      15.272   3.224  -1.614  1.00  0.00     0.000 C 
BRANCH   9  10
ATOM     10  C   UNL     1      16.133   1.951  -1.658  1.00  0.00    -0.000 C 
BRANCH  10  11
ATOM     11  C   UNL     1      15.310   0.684  -1.941  1.00  0.00    -0.000 C 
BRANCH  11  12
ATOM     12  C   UNL     1      13.841   0.970  -2.320  1.00  0.00    -0.000 C 
BRANCH  12  13
ATOM     13  C   UNL     1      12.851   0.244  -1.397  1.00  0.00    -0.003 C 
ATOM     14  C   UNL     1      13.435   0.057  -0.001  1.00  0.00     0.004 C 
ENDBRANCH  12  13
ENDBRANCH  11  12
ENDBRANCH  10  11
ENDBRANCH   9  10
ENDBRANCH   1   9
TORSDOF 10
ENDMDL
MODEL 5
REMARK VINA RESULT:    -4.138     14.716     16.850
REMARK INTER + INTRA:          -7.602
REMARK INTER:                  -6.027
REMARK INTRA:                  -1.575
REMARK UNBOUND:                -1.044
REMARK SMILES CCCCCCCCCCCC(=O)[O-]
REMARK SMILES IDX 7 1 8 2 9 3 10 4 11 5 12 6 13 7 14 8 6 9 5 10 4 11 3 12 2 13
REMARK SMILES IDX 1 14
REMARK H PARENT
REMARK Flexibility Score: inf
ROOT
ATOM      1  C   UNL     1      14.632   0.838  -2.122  1.00  0.00     0.000 C 
ENDROOT
BRANCH   1   2
ATOM      2  C   UNL     1      13.223   1.451  -2.053  1.00  0.00     0.000 C 
BRANCH   2   3
ATOM      3  C   UNL     1      12.426   0.986  -0.821  1.00  0.00     0.000 C 
BRANCH   3   4
ATOM      4  C   UNL     1      11.583   2.078  -0.138  1.00  0.00     0.006 C 
BRANCH   4   5
ATOM      5  C   UNL     1      11.450   3.349  -0.988  1.00  0.00     0.053 C 
BRANCH   5   6
ATOM      6  C   UNL     1      10.231   4.119  -0.587  1.00  0.00     0.041 C 
ATOM      7  O   UNL     1      10.250   4.847   0.439  1.00  0.00    -0.550 OA
ATOM      8  O   UNL     1       9.058   3.993  -1.320  1.00  0.00    -0.550 OA
ENDBRANCH   5   6
ENDBRANCH   4   5
ENDBRANCH   3   4
ENDBRANCH   2   3
ENDBRANCH   1   2
BRANCH   1   9
ATOM      9  C   UNL     1      15.720   1.811  -1.640  1.00  0.00     0.000 C 
BRANCH   9  10
ATOM     10  C   UNL     1      15.249   3.275  -1.655  1.00  0.00    -0.000 C 
BRANCH  10  11
ATOM     11  C   UNL     1      15.425   3.972  -0.296  1.00  0.00    -0.000 C 
BRANCH  11  12
ATOM     12  C   UNL     1      15.408   3.004   0.906  1.00  0.00    -0.000 C 
BRANCH  12  13
ATOM     13  C   UNL     1      14.336   3.379   1.940  1.00  0.00    -0.003 C 
ATOM     14  C   UNL     1      13.676   4.710   1.592  1.00  0.00     0.004 C 
ENDBRANCH  12  13
ENDBRANCH  11  12
ENDBRANCH  10  11
ENDBRANCH   9  10
ENDBRANCH   1   9
TORSDOF 10
ENDMDL
MODEL 6
REMARK VINA RESULT:    -4.083     14.448     17.125
REMARK INTER + INTRA:          -7.514
REMARK INTER:                  -6.215
REMARK INTRA:                  -1.300
REMARK UNBOUND:                -1.044
REMARK SMILES CCCCCCCCCCCC(=O)[O-]
REMARK SMILES IDX 7 1 8 2 9 3 10 4 11 5 12 6 13 7 14 8 6 9 5 10 4 11 3 12 2 13
REMARK SMILES IDX 1 14
REMARK H PARENT
REMARK Flexibility Score: inf
ROOT
ATOM      1  C   UNL     1      15.147  16.481  -0.886  1.00  0.00     0.000 C 
ENDROOT
BRANCH   1   2
ATOM      2  C   UNL     1      14.465  17.368   0.170  1.00  0.00     0.000 C 
BRANCH   2   3
ATOM      3  C   UNL     1      15.279  17.484   1.471  1.00  0.00     0.000 C 
BRANCH   3   4
ATOM      4  C   UNL     1      16.010  18.824   1.666  1.00  0.00     0.006 C 
BRANCH   4   5
ATOM      5  C   UNL     1      17.341  18.896   0.905  1.00  0.00     0.053 C 
BRANCH   5   6
ATOM      6  C   UNL     1      18.230  17.760   1.300  1.00  0.00     0.041 C 
ATOM      7  O   UNL     1      18.759  17.736   2.442  1.00  0.00    -0.550 OA
ATOM      8  O   UNL     1      18.514  16.750   0.389  1.00  0.00    -0.550 OA
ENDBRANCH   5   6
ENDBRANCH   4   5
ENDBRANCH   3   4
ENDBRANCH   2   3
ENDBRANCH   1   2
BRANCH   1   9
ATOM      9  C   UNL     1      15.667  17.291  -2.086  1.00  0.00     0.000 C 
BRANCH   9  10
ATOM     10  C   UNL     1      15.173  18.747  -2.070  1.00  0.00    -0.000 C 
BRANCH  10  11
ATOM     11  C   UNL     1      14.149  19.041  -3.179  1.00  0.00    -0.000 C 
BRANCH  11  12
ATOM     12  C   UNL     1      13.829  17.821  -4.068  1.00  0.00    -0.000 C 
BRANCH  12  13
ATOM     13  C   UNL     1      12.389  17.322  -3.874  1.00  0.00    -0.003 C 
ATOM     14  C   UNL     1      12.361  15.831  -3.555  1.00  0.00     0.004 C 
ENDBRANCH  12  13
ENDBRANCH  11  12
ENDBRANCH  10  11
ENDBRANCH   9  10
ENDBRANCH   1   9
TORSDOF 10
ENDMDL
MODEL 7
REMARK VINA RESULT:    -4.043     14.921     16.498
REMARK INTER + INTRA:          -7.451
REMARK INTER:                  -6.281
REMARK INTRA:                  -1.170
REMARK UNBOUND:                -1.044
REMARK SMILES CCCCCCCCCCCC(=O)[O-]
REMARK SMILES IDX 7 1 8 2 9 3 10 4 11 5 12 6 13 7 14 8 6 9 5 10 4 11 3 12 2 13
REMARK SMILES IDX 1 14
REMARK H PARENT
REMARK Flexibility Score: inf
ROOT
ATOM      1  C   UNL     1      16.080   2.281  -0.521  1.00  0.00     0.000 C 
ENDROOT
BRANCH   1   2
ATOM      2  C   UNL     1      16.345   1.531  -1.838  1.00  0.00     0.000 C 
BRANCH   2   3
ATOM      3  C   UNL     1      15.298   0.439  -2.127  1.00  0.00     0.000 C 
BRANCH   3   4
ATOM      4  C   UNL     1      13.913   0.960  -2.552  1.00  0.00     0.006 C 
BRANCH   4   5
ATOM      5  C   UNL     1      12.783   0.469  -1.637  1.00  0.00     0.053 C 
BRANCH   5   6
ATOM      6  C   UNL     1      12.129   1.626  -0.950  1.00  0.00     0.041 C 
ATOM      7  O   UNL     1      11.454   1.443   0.097  1.00  0.00    -0.550 OA
ATOM      8  O   UNL     1      12.223   2.901  -1.494  1.00  0.00    -0.550 OA
ENDBRANCH   5   6
ENDBRANCH   4   5
ENDBRANCH   3   4
ENDBRANCH   2   3
ENDBRANCH   1   2
BRANCH   1   9
ATOM      9  C   UNL     1      15.553   3.707  -0.753  1.00  0.00     0.000 C 
BRANCH   9  10
ATOM     10  C   UNL     1      14.879   4.295   0.498  1.00  0.00    -0.000 C 
BRANCH  10  11
ATOM     11  C   UNL     1      14.576   3.233   1.567  1.00  0.00    -0.000 C 
BRANCH  11  12
ATOM     12  C   UNL     1      13.206   3.418   2.254  1.00  0.00    -0.000 C 
BRANCH  12  13
ATOM     13  C   UNL     1      12.580   4.786   1.945  1.00  0.00    -0.003 C 
ATOM     14  C   UNL     1      11.117   4.643   1.540  1.00  0.00     0.004 C 
ENDBRANCH  12  13
ENDBRANCH  11  12
ENDBRANCH  10  11
ENDBRANCH   9  10
ENDBRANCH   1   9
TORSDOF 10
ENDMDL
MODEL 8
REMARK VINA RESULT:    -4.040     13.668     15.514
REMARK INTER + INTRA:          -7.447
REMARK INTER:                  -5.977
REMARK INTRA:                  -1.470
REMARK UNBOUND:                -1.044
REMARK SMILES CCCCCCCCCCCC(=O)[O-]
REMARK SMILES IDX 7 1 8 2 9 3 10 4 11 5 12 6 13 7 14 8 6 9 5 10 4 11 3 12 2 13
REMARK SMILES IDX 1 14
REMARK H PARENT
REMARK Flexibility Score: inf
ROOT
ATOM      1  C   UNL     1      15.363   3.039  -1.738  1.00  0.00     0.000 C 
ENDROOT
BRANCH   1   2
ATOM      2  C   UNL     1      15.476   3.778  -0.394  1.00  0.00     0.000 C 
BRANCH   2   3
ATOM      3  C   UNL     1      15.434   2.829   0.818  1.00  0.00     0.000 C 
BRANCH   3   4
ATOM      4  C   UNL     1      14.666   3.365   2.040  1.00  0.00     0.006 C 
BRANCH   4   5
ATOM      5  C   UNL     1      14.013   2.252   2.871  1.00  0.00     0.053 C 
BRANCH   5   6
ATOM      6  C   UNL     1      15.042   1.540   3.689  1.00  0.00     0.041 C 
ATOM      7  O   UNL     1      15.072   0.281   3.715  1.00  0.00    -0.550 OA
ATOM      8  O   UNL     1      15.940   2.265   4.463  1.00  0.00    -0.550 OA
ENDBRANCH   5   6
ENDBRANCH   4   5
ENDBRANCH   3   4
ENDBRANCH   2   3
ENDBRANCH   1   2
BRANCH   1   9
ATOM      9  C   UNL     1      15.779   1.562  -1.633  1.00  0.00     0.000 C 
BRANCH   9  10
ATOM     10  C   UNL     1      14.679   0.605  -2.123  1.00  0.00    -0.000 C 
BRANCH  10  11
ATOM     11  C   UNL     1      13.378   1.334  -2.496  1.00  0.00    -0.000 C 
BRANCH  11  12
ATOM     12  C   UNL     1      12.157   0.892  -1.661  1.00  0.00    -0.000 C 
BRANCH  12  13
ATOM     13  C   UNL     1      12.060   1.649  -0.328  1.00  0.00    -0.003 C 
ATOM     14  C   UNL     1      11.825   3.138  -0.555  1.00  0.00     0.004 C 
ENDBRANCH  12  13
ENDBRANCH  11  12
ENDBRANCH  10  11
ENDBRANCH   9  10
ENDBRANCH   1   9
TORSDOF 10
ENDMDL
MODEL 9
REMARK VINA RESULT:    -4.006     14.780     17.441
REMARK INTER + INTRA:          -7.393
REMARK INTER:                  -6.167
REMARK INTRA:                  -1.226
REMARK UNBOUND:                -1.044
REMARK SMILES CCCCCCCCCCCC(=O)[O-]
REMARK SMILES IDX 7 1 8 2 9 3 10 4 11 5 12 6 13 7 14 8 6 9 5 10 4 11 3 12 2 13
REMARK SMILES IDX 1 14
REMARK H PARENT
REMARK Flexibility Score: inf
ROOT
ATOM      1  C   UNL     1      14.778  16.451  -0.900  1.00  0.00     0.000 C 
ENDROOT
BRANCH   1   2
ATOM      2  C   UNL     1      14.197  17.378   0.182  1.00  0.00     0.000 C 
BRANCH   2   3
ATOM      3  C   UNL     1      14.901  18.746   0.241  1.00  0.00     0.000 C 
BRANCH   3   4
ATOM      4  C   UNL     1      15.725  19.000   1.516  1.00  0.00     0.006 C 
BRANCH   4   5
ATOM      5  C   UNL     1      16.438  17.742   2.029  1.00  0.00     0.053 C 
BRANCH   5   6
ATOM      6  C   UNL     1      17.812  17.647   1.446  1.00  0.00     0.041 C 
ATOM      7  O   UNL     1      18.005  17.013   0.376  1.00  0.00    -0.550 OA
ATOM      8  O   UNL     1      18.890  18.218   2.111  1.00  0.00    -0.550 OA
ENDBRANCH   5   6
ENDBRANCH   4   5
ENDBRANCH   3   4
ENDBRANCH   2   3
ENDBRANCH   1   2
BRANCH   1   9
ATOM      9  C   UNL     1      15.280  17.226  -2.129  1.00  0.00     0.000 C 
BRANCH   9  10
ATOM     10  C   UNL     1      14.139  17.622  -3.081  1.00  0.00    -0.000 C 
BRANCH  10  11
ATOM     11  C   UNL     1      12.997  16.593  -3.103  1.00  0.00    -0.000 C 
BRANCH  11  12
ATOM     12  C   UNL     1      11.614  17.193  -2.769  1.00  0.00    -0.000 C 
BRANCH  12  13
ATOM     13  C   UNL     1      11.714  18.644  -2.274  1.00  0.00    -0.003 C 
ATOM     14  C   UNL     1      10.994  18.822  -0.941  1.00  0.00     0.004 C 
ENDBRANCH  12  13
ENDBRANCH  11  12
ENDBRANCH  10  11
ENDBRANCH   9  10
ENDBRANCH   1   9
TORSDOF 10
ENDMDL
