MODEL 1
REMARK VINA RESULT:    -6.554      0.000      0.000
REMARK INTER + INTRA:          -9.546
REMARK INTER:                  -8.661
REMARK INTRA:                  -0.886
REMARK UNBOUND:                -0.886
REMARK SMILES CC[C@@H](C=C[C@H](C)[C@@H]1CC[C@@H]2[C@@H]3CC=C4C[C@H](O)CC[C@@]4(C)[C@H]3CC[C@]21C)C(C)C
REMARK SMILES IDX 6 1 7 2 5 3 4 4 3 5 2 6 1 7 28 8 29 9 30 10 8 11 9 12 26 13
REMARK SMILES IDX 10 14 11 15 25 16 27 17 12 18 24 19 23 20 13 21 21 22 14 23
REMARK SMILES IDX 15 24 20 25 22 26 16 27 19 28 17 29 18 30
REMARK H PARENT 18 31
REMARK Flexibility Score: inf
ROOT
ATOM      1  C   UNL     1     129.038 145.033 123.331  1.00  0.00     0.012 C 
ATOM      2  C   UNL     1     128.386 143.646 123.499  1.00  0.00     0.012 C 
ENDROOT
BRANCH   1   3
ATOM      3  C   UNL     1     128.245 145.833 122.318  1.00  0.00    -0.028 C 
ATOM      4  C   UNL     1     128.522 145.916 121.001  1.00  0.00    -0.027 C 
BRANCH   4   5
ATOM      5  C   UNL     1     129.630 145.155 120.291  1.00  0.00     0.014 C 
BRANCH   5   6
ATOM      6  C   UNL     1     130.639 146.148 119.659  1.00  0.00     0.004 C 
ATOM      7  C   UNL     1     131.548 146.790 120.709  1.00  0.00     0.004 C 
ENDBRANCH   5   6
BRANCH   5   8
ATOM      8  C   UNL     1     129.014 144.163 119.257  1.00  0.00    -0.011 C 
ATOM      9  C   UNL     1     127.792 144.762 118.543  1.00  0.00     0.008 C 
ATOM     10  C   UNL     1     128.662 142.794 119.862  1.00  0.00     0.008 C 
ENDBRANCH   5   8
ENDBRANCH   4   5
ENDBRANCH   1   3
BRANCH   1  11
ATOM     11  C   UNL     1     129.306 145.876 124.627  1.00  0.00     0.002 C 
ATOM     12  C   UNL     1     130.628 146.690 124.634  1.00  0.00     0.005 C 
ATOM     13  C   UNL     1     129.230 145.218 126.041  1.00  0.00    -0.026 C 
ATOM     14  C   UNL     1     131.025 146.875 126.110  1.00  0.00     0.005 C 
ATOM     15  C   UNL     1     129.814 146.370 126.882  1.00  0.00    -0.001 C 
ATOM     16  C   UNL     1     127.776 144.916 126.549  1.00  0.00     0.007 C 
ATOM     17  C   UNL     1     130.113 143.936 126.083  1.00  0.00     0.012 C 
ATOM     18  C   UNL     1     129.891 146.142 128.419  1.00  0.00     0.000 C 
ATOM     19  C   UNL     1     127.525 145.266 128.047  1.00  0.00     0.005 C 
ATOM     20  C   UNL     1     128.812 145.139 128.906  1.00  0.00     0.003 C 
ATOM     21  C   UNL     1     131.243 145.717 128.998  1.00  0.00     0.031 C 
ATOM     22  C   UNL     1     128.625 145.225 130.467  1.00  0.00    -0.008 C 
ATOM     23  C   UNL     1     131.145 145.657 130.502  1.00  0.00    -0.027 C 
ATOM     24  C   UNL     1     129.981 145.448 131.173  1.00  0.00    -0.065 C 
ATOM     25  C   UNL     1     127.679 146.399 130.868  1.00  0.00     0.014 C 
ATOM     26  C   UNL     1     128.024 143.879 130.959  1.00  0.00     0.016 C 
ATOM     27  C   UNL     1     129.954 145.674 132.669  1.00  0.00     0.063 C 
ATOM     28  C   UNL     1     127.634 146.660 132.387  1.00  0.00     0.033 C 
ATOM     29  C   UNL     1     129.041 146.866 132.984  1.00  0.00     0.118 C 
BRANCH  29  30
ATOM     30  O   UNL     1     128.954 147.019 134.376  1.00  0.00    -0.393 OA
ATOM     31  H   UNL     1     129.010 147.992 134.561  1.00  0.00     0.210 HD
ENDBRANCH  29  30
ENDBRANCH   1  11
TORSDOF 6
ENDMDL
MODEL 2
REMARK VINA RESULT:    -6.530      1.759      3.441
REMARK INTER + INTRA:          -9.515
REMARK INTER:                  -7.910
REMARK INTRA:                  -1.605
REMARK UNBOUND:                -0.886
REMARK SMILES CC[C@@H](C=C[C@H](C)[C@@H]1CC[C@@H]2[C@@H]3CC=C4C[C@H](O)CC[C@@]4(C)[C@H]3CC[C@]21C)C(C)C
REMARK SMILES IDX 6 1 7 2 5 3 4 4 3 5 2 6 1 7 28 8 29 9 30 10 8 11 9 12 26 13
REMARK SMILES IDX 10 14 11 15 25 16 27 17 12 18 24 19 23 20 13 21 21 22 14 23
REMARK SMILES IDX 15 24 20 25 22 26 16 27 19 28 17 29 18 30
REMARK H PARENT 18 31
REMARK Flexibility Score: inf
ROOT
ATOM      1  C   UNL     1     131.134 143.229 121.017  1.00  0.00     0.012 C 
ATOM      2  C   UNL     1     131.180 141.753 121.459  1.00  0.00     0.012 C 
ENDROOT
BRANCH   1   3
ATOM      3  C   UNL     1     130.470 143.318 119.658  1.00  0.00    -0.028 C 
ATOM      4  C   UNL     1     129.140 143.347 119.441  1.00  0.00    -0.027 C 
BRANCH   4   5
ATOM      5  C   UNL     1     128.077 143.379 120.528  1.00  0.00     0.014 C 
BRANCH   5   6
ATOM      6  C   UNL     1     127.252 142.066 120.506  1.00  0.00     0.004 C 
ATOM      7  C   UNL     1     127.658 141.113 121.632  1.00  0.00     0.004 C 
ENDBRANCH   5   6
BRANCH   5   8
ATOM      8  C   UNL     1     127.200 144.659 120.375  1.00  0.00    -0.011 C 
ATOM      9  C   UNL     1     127.602 145.489 119.146  1.00  0.00     0.008 C 
ATOM     10  C   UNL     1     127.183 145.541 121.634  1.00  0.00     0.008 C 
ENDBRANCH   5   8
ENDBRANCH   4   5
ENDBRANCH   1   3
BRANCH   1  11
ATOM     11  C   UNL     1     130.515 144.271 122.014  1.00  0.00     0.002 C 
ATOM     12  C   UNL     1     130.878 145.755 121.739  1.00  0.00     0.005 C 
ATOM     13  C   UNL     1     130.673 144.096 123.557  1.00  0.00    -0.026 C 
ATOM     14  C   UNL     1     130.774 146.492 123.086  1.00  0.00     0.005 C 
ATOM     15  C   UNL     1     130.141 145.467 124.017  1.00  0.00    -0.001 C 
ATOM     16  C   UNL     1     129.774 142.974 124.187  1.00  0.00     0.007 C 
ATOM     17  C   UNL     1     132.171 143.880 123.921  1.00  0.00     0.012 C 
ATOM     18  C   UNL     1     130.087 145.715 125.552  1.00  0.00     0.000 C 
ATOM     19  C   UNL     1     129.098 143.364 125.536  1.00  0.00     0.005 C 
ATOM     20  C   UNL     1     129.940 144.388 126.343  1.00  0.00     0.003 C 
ATOM     21  C   UNL     1     131.229 146.524 126.172  1.00  0.00     0.031 C 
ATOM     22  C   UNL     1     129.480 144.662 127.824  1.00  0.00    -0.008 C 
ATOM     23  C   UNL     1     130.943 146.752 127.635  1.00  0.00    -0.027 C 
ATOM     24  C   UNL     1     130.155 145.934 128.384  1.00  0.00    -0.065 C 
ATOM     25  C   UNL     1     127.936 144.861 127.918  1.00  0.00     0.014 C 
ATOM     26  C   UNL     1     129.905 143.449 128.697  1.00  0.00     0.016 C 
ATOM     27  C   UNL     1     129.721 146.401 129.757  1.00  0.00     0.063 C 
ATOM     28  C   UNL     1     127.461 145.342 129.304  1.00  0.00     0.033 C 
ATOM     29  C   UNL     1     128.203 146.615 129.762  1.00  0.00     0.118 C 
BRANCH  29  30
ATOM     30  O   UNL     1     127.796 146.967 131.058  1.00  0.00    -0.393 OA
ATOM     31  H   UNL     1     127.004 146.409 131.271  1.00  0.00     0.210 HD
ENDBRANCH  29  30
ENDBRANCH   1  11
TORSDOF 6
ENDMDL
MODEL 3
REMARK VINA RESULT:    -6.385      1.362      2.339
REMARK INTER + INTRA:          -9.323
REMARK INTER:                  -7.858
REMARK INTRA:                  -1.465
REMARK UNBOUND:                -0.886
REMARK SMILES CC[C@@H](C=C[C@H](C)[C@@H]1CC[C@@H]2[C@@H]3CC=C4C[C@H](O)CC[C@@]4(C)[C@H]3CC[C@]21C)C(C)C
REMARK SMILES IDX 6 1 7 2 5 3 4 4 3 5 2 6 1 7 28 8 29 9 30 10 8 11 9 12 26 13
REMARK SMILES IDX 10 14 11 15 25 16 27 17 12 18 24 19 23 20 13 21 21 22 14 23
REMARK SMILES IDX 15 24 20 25 22 26 16 27 19 28 17 29 18 30
REMARK H PARENT 18 31
REMARK Flexibility Score: inf
ROOT
ATOM      1  C   UNL     1     128.051 145.346 123.386  1.00  0.00     0.012 C 
ATOM      2  C   UNL     1     127.009 146.175 122.609  1.00  0.00     0.012 C 
ENDROOT
BRANCH   1   3
ATOM      3  C   UNL     1     129.105 144.844 122.419  1.00  0.00    -0.028 C 
ATOM      4  C   UNL     1     129.166 143.597 121.912  1.00  0.00    -0.027 C 
BRANCH   4   5
ATOM      5  C   UNL     1     128.141 142.501 122.158  1.00  0.00     0.014 C 
BRANCH   5   6
ATOM      6  C   UNL     1     128.856 141.160 122.463  1.00  0.00     0.004 C 
ATOM      7  C   UNL     1     128.615 140.693 123.900  1.00  0.00     0.004 C 
ENDBRANCH   5   6
BRANCH   5   8
ATOM      8  C   UNL     1     127.157 142.414 120.951  1.00  0.00    -0.011 C 
ATOM      9  C   UNL     1     126.885 140.961 120.535  1.00  0.00     0.008 C 
ATOM     10  C   UNL     1     127.609 143.243 119.737  1.00  0.00     0.008 C 
ENDBRANCH   5   8
ENDBRANCH   4   5
ENDBRANCH   1   3
BRANCH   1  11
ATOM     11  C   UNL     1     128.713 146.004 124.647  1.00  0.00     0.002 C 
ATOM     12  C   UNL     1     130.160 146.530 124.444  1.00  0.00     0.005 C 
ATOM     13  C   UNL     1     128.744 145.258 126.018  1.00  0.00    -0.026 C 
ATOM     14  C   UNL     1     130.837 146.504 125.826  1.00  0.00     0.005 C 
ATOM     15  C   UNL     1     129.699 146.191 126.787  1.00  0.00    -0.001 C 
ATOM     16  C   UNL     1     127.369 145.215 126.775  1.00  0.00     0.007 C 
ATOM     17  C   UNL     1     129.324 143.825 125.834  1.00  0.00     0.012 C 
ATOM     18  C   UNL     1     129.990 145.823 128.270  1.00  0.00     0.000 C 
ATOM     19  C   UNL     1     127.463 145.480 128.308  1.00  0.00     0.005 C 
ATOM     20  C   UNL     1     128.821 145.022 128.903  1.00  0.00     0.003 C 
ATOM     21  C   UNL     1     131.298 145.085 128.565  1.00  0.00     0.031 C 
ATOM     22  C   UNL     1     128.930 145.011 130.474  1.00  0.00    -0.008 C 
ATOM     23  C   UNL     1     131.452 144.918 130.056  1.00  0.00    -0.027 C 
ATOM     24  C   UNL     1     130.404 144.893 130.923  1.00  0.00    -0.065 C 
ATOM     25  C   UNL     1     128.343 146.314 131.099  1.00  0.00     0.014 C 
ATOM     26  C   UNL     1     128.149 143.778 131.006  1.00  0.00     0.016 C 
ATOM     27  C   UNL     1     130.686 144.992 132.407  1.00  0.00     0.063 C 
ATOM     28  C   UNL     1     128.619 146.448 132.611  1.00  0.00     0.033 C 
ATOM     29  C   UNL     1     130.119 146.313 132.942  1.00  0.00     0.118 C 
BRANCH  29  30
ATOM     30  O   UNL     1     130.310 146.362 134.331  1.00  0.00    -0.393 OA
ATOM     31  H   UNL     1     131.200 146.771 134.485  1.00  0.00     0.210 HD
ENDBRANCH  29  30
ENDBRANCH   1  11
TORSDOF 6
ENDMDL
MODEL 4
REMARK VINA RESULT:    -6.344      1.407      3.199
REMARK INTER + INTRA:          -9.270
REMARK INTER:                  -7.969
REMARK INTRA:                  -1.300
REMARK UNBOUND:                -0.886
REMARK SMILES CC[C@@H](C=C[C@H](C)[C@@H]1CC[C@@H]2[C@@H]3CC=C4C[C@H](O)CC[C@@]4(C)[C@H]3CC[C@]21C)C(C)C
REMARK SMILES IDX 6 1 7 2 5 3 4 4 3 5 2 6 1 7 28 8 29 9 30 10 8 11 9 12 26 13
REMARK SMILES IDX 10 14 11 15 25 16 27 17 12 18 24 19 23 20 13 21 21 22 14 23
REMARK SMILES IDX 15 24 20 25 22 26 16 27 19 28 17 29 18 30
REMARK H PARENT 18 31
REMARK Flexibility Score: inf
ROOT
ATOM      1  C   UNL     1     129.900 144.329 125.105  1.00  0.00     0.012 C 
ATOM      2  C   UNL     1     131.313 143.751 125.316  1.00  0.00     0.012 C 
ENDROOT
BRANCH   1   3
ATOM      3  C   UNL     1     129.285 143.697 123.872  1.00  0.00    -0.028 C 
ATOM      4  C   UNL     1     129.027 144.338 122.715  1.00  0.00    -0.027 C 
BRANCH   4   5
ATOM      5  C   UNL     1     129.383 145.786 122.419  1.00  0.00     0.014 C 
BRANCH   5   6
ATOM      6  C   UNL     1     128.283 146.730 122.969  1.00  0.00     0.004 C 
ATOM      7  C   UNL     1     126.911 146.430 122.361  1.00  0.00     0.004 C 
ENDBRANCH   5   6
BRANCH   5   8
ATOM      8  C   UNL     1     129.641 145.967 120.891  1.00  0.00    -0.011 C 
ATOM      9  C   UNL     1     129.390 144.669 120.108  1.00  0.00     0.008 C 
ATOM     10  C   UNL     1     131.038 146.523 120.571  1.00  0.00     0.008 C 
ENDBRANCH   5   8
ENDBRANCH   4   5
ENDBRANCH   1   3
BRANCH   1  11
ATOM     11  C   UNL     1     128.904 144.281 126.317  1.00  0.00     0.002 C 
ATOM     12  C   UNL     1     127.461 144.769 126.014  1.00  0.00     0.005 C 
ATOM     13  C   UNL     1     129.273 144.937 127.685  1.00  0.00    -0.026 C 
ATOM     14  C   UNL     1     126.875 145.267 127.348  1.00  0.00     0.005 C 
ATOM     15  C   UNL     1     127.904 144.838 128.384  1.00  0.00    -0.001 C 
ATOM     16  C   UNL     1     130.327 144.141 128.533  1.00  0.00     0.007 C 
ATOM     17  C   UNL     1     129.730 146.409 127.466  1.00  0.00     0.012 C 
ATOM     18  C   UNL     1     127.827 145.366 129.845  1.00  0.00     0.000 C 
ATOM     19  C   UNL     1     130.004 144.055 130.055  1.00  0.00     0.005 C 
ATOM     20  C   UNL     1     129.203 145.285 130.558  1.00  0.00     0.003 C 
ATOM     21  C   UNL     1     127.256 146.771 130.053  1.00  0.00     0.031 C 
ATOM     22  C   UNL     1     129.039 145.424 132.118  1.00  0.00    -0.008 C 
ATOM     23  C   UNL     1     127.160 147.057 131.531  1.00  0.00    -0.027 C 
ATOM     24  C   UNL     1     127.942 146.456 132.467  1.00  0.00    -0.065 C 
ATOM     25  C   UNL     1     128.645 144.067 132.778  1.00  0.00     0.014 C 
ATOM     26  C   UNL     1     130.390 145.918 132.706  1.00  0.00     0.016 C 
ATOM     27  C   UNL     1     127.581 146.614 133.928  1.00  0.00     0.063 C 
ATOM     28  C   UNL     1     128.263 144.195 134.267  1.00  0.00     0.033 C 
ATOM     29  C   UNL     1     127.164 145.253 134.497  1.00  0.00     0.118 C 
BRANCH  29  30
ATOM     30  O   UNL     1     126.909 145.389 135.869  1.00  0.00    -0.393 OA
ATOM     31  H   UNL     1     126.259 144.680 136.113  1.00  0.00     0.210 HD
ENDBRANCH  29  30
ENDBRANCH   1  11
TORSDOF 6
ENDMDL
MODEL 5
REMARK VINA RESULT:    -6.344      2.506      4.468
REMARK INTER + INTRA:          -9.269
REMARK INTER:                  -7.539
REMARK INTRA:                  -1.730
REMARK UNBOUND:                -0.886
REMARK SMILES CC[C@@H](C=C[C@H](C)[C@@H]1CC[C@@H]2[C@@H]3CC=C4C[C@H](O)CC[C@@]4(C)[C@H]3CC[C@]21C)C(C)C
REMARK SMILES IDX 6 1 7 2 5 3 4 4 3 5 2 6 1 7 28 8 29 9 30 10 8 11 9 12 26 13
REMARK SMILES IDX 10 14 11 15 25 16 27 17 12 18 24 19 23 20 13 21 21 22 14 23
REMARK SMILES IDX 15 24 20 25 22 26 16 27 19 28 17 29 18 30
REMARK H PARENT 18 31
REMARK Flexibility Score: inf
ROOT
ATOM      1  C   UNL     1     133.503 143.870 122.224  1.00  0.00     0.012 C 
ATOM      2  C   UNL     1     134.940 143.315 122.264  1.00  0.00     0.012 C 
ENDROOT
BRANCH   1   3
ATOM      3  C   UNL     1     132.933 143.670 120.834  1.00  0.00    -0.028 C 
ATOM      4  C   UNL     1     132.731 144.646 119.926  1.00  0.00    -0.027 C 
BRANCH   4   5
ATOM      5  C   UNL     1     133.117 146.105 120.111  1.00  0.00     0.014 C 
BRANCH   5   6
ATOM      6  C   UNL     1     131.973 147.026 119.617  1.00  0.00     0.004 C 
ATOM      7  C   UNL     1     130.607 146.343 119.702  1.00  0.00     0.004 C 
ENDBRANCH   5   6
BRANCH   5   8
ATOM      8  C   UNL     1     134.480 146.386 119.407  1.00  0.00    -0.011 C 
ATOM      9  C   UNL     1     134.801 145.334 118.334  1.00  0.00     0.008 C 
ATOM     10  C   UNL     1     135.656 146.525 120.389  1.00  0.00     0.008 C 
ENDBRANCH   5   8
ENDBRANCH   4   5
ENDBRANCH   1   3
BRANCH   1  11
ATOM     11  C   UNL     1     132.497 143.372 123.320  1.00  0.00     0.002 C 
ATOM     12  C   UNL     1     131.319 142.503 122.801  1.00  0.00     0.005 C 
ATOM     13  C   UNL     1     131.846 144.373 124.327  1.00  0.00    -0.026 C 
ATOM     14  C   UNL     1     130.166 142.677 123.806  1.00  0.00     0.005 C 
ATOM     15  C   UNL     1     130.797 143.440 124.962  1.00  0.00    -0.001 C 
ATOM     16  C   UNL     1     132.807 144.888 125.456  1.00  0.00     0.007 C 
ATOM     17  C   UNL     1     131.203 145.563 123.556  1.00  0.00     0.012 C 
ATOM     18  C   UNL     1     129.914 144.047 126.088  1.00  0.00     0.000 C 
ATOM     19  C   UNL     1     132.166 144.950 126.876  1.00  0.00     0.005 C 
ATOM     20  C   UNL     1     130.637 145.209 126.821  1.00  0.00     0.003 C 
ATOM     21  C   UNL     1     128.510 144.518 125.702  1.00  0.00     0.031 C 
ATOM     22  C   UNL     1     129.932 145.538 128.190  1.00  0.00    -0.008 C 
ATOM     23  C   UNL     1     127.775 144.967 126.940  1.00  0.00    -0.027 C 
ATOM     24  C   UNL     1     128.397 145.416 128.063  1.00  0.00    -0.065 C 
ATOM     25  C   UNL     1     130.395 144.569 129.322  1.00  0.00     0.014 C 
ATOM     26  C   UNL     1     130.284 147.001 128.578  1.00  0.00     0.016 C 
ATOM     27  C   UNL     1     127.582 145.583 129.328  1.00  0.00     0.063 C 
ATOM     28  C   UNL     1     129.580 144.709 130.623  1.00  0.00     0.033 C 
ATOM     29  C   UNL     1     128.063 144.573 130.376  1.00  0.00     0.118 C 
BRANCH  29  30
ATOM     30  O   UNL     1     127.362 144.786 131.572  1.00  0.00    -0.393 OA
ATOM     31  H   UNL     1     128.030 145.066 132.251  1.00  0.00     0.210 HD
ENDBRANCH  29  30
ENDBRANCH   1  11
TORSDOF 6
ENDMDL
MODEL 6
REMARK VINA RESULT:    -6.304      1.592      3.397
REMARK INTER + INTRA:          -9.217
REMARK INTER:                  -8.127
REMARK INTRA:                  -1.090
REMARK UNBOUND:                -0.886
REMARK SMILES CC[C@@H](C=C[C@H](C)[C@@H]1CC[C@@H]2[C@@H]3CC=C4C[C@H](O)CC[C@@]4(C)[C@H]3CC[C@]21C)C(C)C
REMARK SMILES IDX 6 1 7 2 5 3 4 4 3 5 2 6 1 7 28 8 29 9 30 10 8 11 9 12 26 13
REMARK SMILES IDX 10 14 11 15 25 16 27 17 12 18 24 19 23 20 13 21 21 22 14 23
REMARK SMILES IDX 15 24 20 25 22 26 16 27 19 28 17 29 18 30
REMARK H PARENT 18 31
REMARK Flexibility Score: inf
ROOT
ATOM      1  C   UNL     1     131.231 143.516 121.897  1.00  0.00     0.012 C 
ATOM      2  C   UNL     1     132.758 143.307 121.889  1.00  0.00     0.012 C 
ENDROOT
BRANCH   1   3
ATOM      3  C   UNL     1     130.631 142.826 120.688  1.00  0.00    -0.028 C 
ATOM      4  C   UNL     1     129.844 143.416 119.766  1.00  0.00    -0.027 C 
BRANCH   4   5
ATOM      5  C   UNL     1     129.491 144.894 119.734  1.00  0.00     0.014 C 
BRANCH   5   6
ATOM      6  C   UNL     1     130.666 145.737 120.293  1.00  0.00     0.004 C 
ATOM      7  C   UNL     1     131.006 146.921 119.387  1.00  0.00     0.004 C 
ENDBRANCH   5   6
BRANCH   5   8
ATOM      8  C   UNL     1     128.147 145.134 120.489  1.00  0.00    -0.011 C 
ATOM      9  C   UNL     1     127.232 143.902 120.441  1.00  0.00     0.008 C 
ATOM     10  C   UNL     1     127.391 146.383 120.005  1.00  0.00     0.008 C 
ENDBRANCH   5   8
ENDBRANCH   4   5
ENDBRANCH   1   3
BRANCH   1  11
ATOM     11  C   UNL     1     130.449 143.139 123.204  1.00  0.00     0.002 C 
ATOM     12  C   UNL     1     129.067 142.466 122.986  1.00  0.00     0.005 C 
ATOM     13  C   UNL     1     130.211 144.195 124.329  1.00  0.00    -0.026 C 
ATOM     14  C   UNL     1     128.222 142.778 124.234  1.00  0.00     0.005 C 
ATOM     15  C   UNL     1     129.215 143.407 125.202  1.00  0.00    -0.001 C 
ATOM     16  C   UNL     1     131.476 144.532 125.194  1.00  0.00     0.007 C 
ATOM     17  C   UNL     1     129.588 145.488 123.725  1.00  0.00     0.012 C 
ATOM     18  C   UNL     1     128.723 144.105 126.501  1.00  0.00     0.000 C 
ATOM     19  C   UNL     1     131.205 144.646 126.725  1.00  0.00     0.005 C 
ATOM     20  C   UNL     1     129.762 145.128 127.033  1.00  0.00     0.003 C 
ATOM     21  C   UNL     1     127.353 144.787 126.456  1.00  0.00     0.031 C 
ATOM     22  C   UNL     1     129.457 145.516 128.528  1.00  0.00    -0.008 C 
ATOM     23  C   UNL     1     127.006 145.303 127.830  1.00  0.00    -0.027 C 
ATOM     24  C   UNL     1     127.934 145.624 128.770  1.00  0.00    -0.065 C 
ATOM     25  C   UNL     1     130.025 144.459 129.524  1.00  0.00     0.014 C 
ATOM     26  C   UNL     1     130.103 146.901 128.811  1.00  0.00     0.016 C 
ATOM     27  C   UNL     1     127.475 145.872 130.191  1.00  0.00     0.063 C 
ATOM     28  C   UNL     1     129.570 144.679 130.981  1.00  0.00     0.033 C 
ATOM     29  C   UNL     1     128.035 144.773 131.102  1.00  0.00     0.118 C 
BRANCH  29  30
ATOM     30  O   UNL     1     127.675 145.052 132.429  1.00  0.00    -0.393 OA
ATOM     31  H   UNL     1     126.717 144.813 132.523  1.00  0.00     0.210 HD
ENDBRANCH  29  30
ENDBRANCH   1  11
TORSDOF 6
ENDMDL
MODEL 7
REMARK VINA RESULT:    -6.260      6.769     10.701
REMARK INTER + INTRA:          -9.158
REMARK INTER:                  -8.144
REMARK INTRA:                  -1.013
REMARK UNBOUND:                -0.886
REMARK SMILES CC[C@@H](C=C[C@H](C)[C@@H]1CC[C@@H]2[C@@H]3CC=C4C[C@H](O)CC[C@@]4(C)[C@H]3CC[C@]21C)C(C)C
REMARK SMILES IDX 6 1 7 2 5 3 4 4 3 5 2 6 1 7 28 8 29 9 30 10 8 11 9 12 26 13
REMARK SMILES IDX 10 14 11 15 25 16 27 17 12 18 24 19 23 20 13 21 21 22 14 23
REMARK SMILES IDX 15 24 20 25 22 26 16 27 19 28 17 29 18 30
REMARK H PARENT 18 31
REMARK Flexibility Score: inf
ROOT
ATOM      1  C   UNL     1     131.851 145.536 120.699  1.00  0.00     0.012 C 
ATOM      2  C   UNL     1     131.852 146.385 121.987  1.00  0.00     0.012 C 
ENDROOT
BRANCH   1   3
ATOM      3  C   UNL     1     130.782 146.061 119.762  1.00  0.00    -0.028 C 
ATOM      4  C   UNL     1     129.508 145.623 119.710  1.00  0.00    -0.027 C 
BRANCH   4   5
ATOM      5  C   UNL     1     128.902 144.584 120.640  1.00  0.00     0.014 C 
BRANCH   5   6
ATOM      6  C   UNL     1     128.788 143.219 119.913  1.00  0.00     0.004 C 
ATOM      7  C   UNL     1     130.026 142.346 120.132  1.00  0.00     0.004 C 
ENDBRANCH   5   6
BRANCH   5   8
ATOM      8  C   UNL     1     127.539 145.100 121.196  1.00  0.00    -0.011 C 
ATOM      9  C   UNL     1     126.875 146.108 120.246  1.00  0.00     0.008 C 
ATOM     10  C   UNL     1     127.643 145.688 122.613  1.00  0.00     0.008 C 
ENDBRANCH   5   8
ENDBRANCH   4   5
ENDBRANCH   1   3
BRANCH   1  11
ATOM     11  C   UNL     1     133.215 145.349 119.947  1.00  0.00     0.002 C 
ATOM     12  C   UNL     1     133.296 144.116 119.006  1.00  0.00     0.005 C 
ATOM     13  C   UNL     1     134.568 145.352 120.726  1.00  0.00    -0.026 C 
ATOM     14  C   UNL     1     134.783 143.733 118.907  1.00  0.00     0.005 C 
ATOM     15  C   UNL     1     135.505 144.883 119.596  1.00  0.00    -0.001 C 
ATOM     16  C   UNL     1     135.043 146.765 121.215  1.00  0.00     0.007 C 
ATOM     17  C   UNL     1     134.504 144.343 121.911  1.00  0.00     0.012 C 
ATOM     18  C   UNL     1     137.017 144.776 119.944  1.00  0.00     0.000 C 
ATOM     19  C   UNL     1     136.564 147.043 121.020  1.00  0.00     0.005 C 
ATOM     20  C   UNL     1     137.413 145.746 121.089  1.00  0.00     0.003 C 
ATOM     21  C   UNL     1     137.564 143.385 120.277  1.00  0.00     0.031 C 
ATOM     22  C   UNL     1     138.976 145.933 121.154  1.00  0.00    -0.008 C 
ATOM     23  C   UNL     1     139.057 143.469 120.474  1.00  0.00    -0.027 C 
ATOM     24  C   UNL     1     139.703 144.602 120.856  1.00  0.00    -0.065 C 
ATOM     25  C   UNL     1     139.471 146.990 120.121  1.00  0.00     0.014 C 
ATOM     26  C   UNL     1     139.350 146.391 122.591  1.00  0.00     0.016 C 
ATOM     27  C   UNL     1     141.213 144.646 120.761  1.00  0.00     0.063 C 
ATOM     28  C   UNL     1     141.007 147.055 119.995  1.00  0.00     0.033 C 
ATOM     29  C   UNL     1     141.624 145.672 119.699  1.00  0.00     0.118 C 
BRANCH  29  30
ATOM     30  O   UNL     1     143.024 145.768 119.673  1.00  0.00    -0.393 OA
ATOM     31  H   UNL     1     143.330 145.273 118.870  1.00  0.00     0.210 HD
ENDBRANCH  29  30
ENDBRANCH   1  11
TORSDOF 6
ENDMDL
MODEL 8
REMARK VINA RESULT:    -6.223      4.903      8.864
REMARK INTER + INTRA:          -9.109
REMARK INTER:                  -7.663
REMARK INTRA:                  -1.446
REMARK UNBOUND:                -0.886
REMARK SMILES CC[C@@H](C=C[C@H](C)[C@@H]1CC[C@@H]2[C@@H]3CC=C4C[C@H](O)CC[C@@]4(C)[C@H]3CC[C@]21C)C(C)C
REMARK SMILES IDX 6 1 7 2 5 3 4 4 3 5 2 6 1 7 28 8 29 9 30 10 8 11 9 12 26 13
REMARK SMILES IDX 10 14 11 15 25 16 27 17 12 18 24 19 23 20 13 21 21 22 14 23
REMARK SMILES IDX 15 24 20 25 22 26 16 27 19 28 17 29 18 30
REMARK H PARENT 18 31
REMARK Flexibility Score: inf
ROOT
ATOM      1  C   UNL     1     129.245 143.730 120.075  1.00  0.00     0.012 C 
ATOM      2  C   UNL     1     129.516 142.250 120.411  1.00  0.00     0.012 C 
ENDROOT
BRANCH   1   3
ATOM      3  C   UNL     1     127.893 144.125 120.634  1.00  0.00    -0.028 C 
ATOM      4  C   UNL     1     127.629 144.374 121.932  1.00  0.00    -0.027 C 
BRANCH   4   5
ATOM      5  C   UNL     1     128.661 144.380 123.049  1.00  0.00     0.014 C 
BRANCH   5   6
ATOM      6  C   UNL     1     128.366 143.239 124.056  1.00  0.00     0.004 C 
ATOM      7  C   UNL     1     127.901 143.774 125.411  1.00  0.00     0.004 C 
ENDBRANCH   5   6
BRANCH   5   8
ATOM      8  C   UNL     1     128.714 145.789 123.715  1.00  0.00    -0.011 C 
ATOM      9  C   UNL     1     127.760 146.783 123.034  1.00  0.00     0.008 C 
ATOM     10  C   UNL     1     130.134 146.375 123.789  1.00  0.00     0.008 C 
ENDBRANCH   5   8
ENDBRANCH   4   5
ENDBRANCH   1   3
BRANCH   1  11
ATOM     11  C   UNL     1     130.343 144.781 120.465  1.00  0.00     0.002 C 
ATOM     12  C   UNL     1     130.266 146.138 119.715  1.00  0.00     0.005 C 
ATOM     13  C   UNL     1     131.857 144.400 120.456  1.00  0.00    -0.026 C 
ATOM     14  C   UNL     1     131.690 146.722 119.711  1.00  0.00     0.005 C 
ATOM     15  C   UNL     1     132.467 145.803 120.644  1.00  0.00    -0.001 C 
ATOM     16  C   UNL     1     132.315 143.491 121.651  1.00  0.00     0.007 C 
ATOM     17  C   UNL     1     132.238 143.758 119.089  1.00  0.00     0.012 C 
ATOM     18  C   UNL     1     134.017 145.883 120.728  1.00  0.00     0.000 C 
ATOM     19  C   UNL     1     133.680 143.894 122.287  1.00  0.00     0.005 C 
ATOM     20  C   UNL     1     134.633 144.562 121.261  1.00  0.00     0.003 C 
ATOM     21  C   UNL     1     134.768 146.289 119.457  1.00  0.00     0.031 C 
ATOM     22  C   UNL     1     136.121 144.782 121.727  1.00  0.00    -0.008 C 
ATOM     23  C   UNL     1     136.239 146.420 119.766  1.00  0.00    -0.027 C 
ATOM     24  C   UNL     1     136.856 145.760 120.783  1.00  0.00    -0.065 C 
ATOM     25  C   UNL     1     136.191 145.368 123.171  1.00  0.00     0.014 C 
ATOM     26  C   UNL     1     136.850 143.410 121.685  1.00  0.00     0.016 C 
ATOM     27  C   UNL     1     138.262 146.169 121.168  1.00  0.00     0.063 C 
ATOM     28  C   UNL     1     137.610 145.801 123.591  1.00  0.00     0.033 C 
ATOM     29  C   UNL     1     138.246 146.774 122.576  1.00  0.00     0.118 C 
BRANCH  29  30
ATOM     30  O   UNL     1     139.561 147.075 122.959  1.00  0.00    -0.393 OA
ATOM     31  H   UNL     1     139.513 147.867 123.555  1.00  0.00     0.210 HD
ENDBRANCH  29  30
ENDBRANCH   1  11
TORSDOF 6
ENDMDL
MODEL 9
REMARK VINA RESULT:    -6.092      1.887      3.738
REMARK INTER + INTRA:          -8.936
REMARK INTER:                  -7.340
REMARK INTRA:                  -1.596
REMARK UNBOUND:                -0.886
REMARK SMILES CC[C@@H](C=C[C@H](C)[C@@H]1CC[C@@H]2[C@@H]3CC=C4C[C@H](O)CC[C@@]4(C)[C@H]3CC[C@]21C)C(C)C
REMARK SMILES IDX 6 1 7 2 5 3 4 4 3 5 2 6 1 7 28 8 29 9 30 10 8 11 9 12 26 13
REMARK SMILES IDX 10 14 11 15 25 16 27 17 12 18 24 19 23 20 13 21 21 22 14 23
REMARK SMILES IDX 15 24 20 25 22 26 16 27 19 28 17 29 18 30
REMARK H PARENT 18 31
REMARK Flexibility Score: inf
ROOT
ATOM      1  C   UNL     1     129.424 144.495 125.470  1.00  0.00     0.012 C 
ATOM      2  C   UNL     1     129.493 143.223 124.602  1.00  0.00     0.012 C 
ENDROOT
BRANCH   1   3
ATOM      3  C   UNL     1     129.002 145.664 124.602  1.00  0.00    -0.028 C 
ATOM      4  C   UNL     1     129.841 146.471 123.922  1.00  0.00    -0.027 C 
BRANCH   4   5
ATOM      5  C   UNL     1     131.349 146.298 123.842  1.00  0.00     0.014 C 
BRANCH   5   6
ATOM      6  C   UNL     1     132.041 147.125 124.956  1.00  0.00     0.004 C 
ATOM      7  C   UNL     1     132.837 146.241 125.918  1.00  0.00     0.004 C 
ENDBRANCH   5   6
BRANCH   5   8
ATOM      8  C   UNL     1     131.849 146.657 122.409  1.00  0.00    -0.011 C 
ATOM      9  C   UNL     1     130.916 146.107 121.320  1.00  0.00     0.008 C 
ATOM     10  C   UNL     1     133.299 146.221 122.142  1.00  0.00     0.008 C 
ENDBRANCH   5   8
ENDBRANCH   4   5
ENDBRANCH   1   3
BRANCH   1  11
ATOM     11  C   UNL     1     128.571 144.436 126.785  1.00  0.00     0.002 C 
ATOM     12  C   UNL     1     127.215 145.192 126.737  1.00  0.00     0.005 C 
ATOM     13  C   UNL     1     129.196 144.816 128.164  1.00  0.00    -0.026 C 
ATOM     14  C   UNL     1     126.875 145.581 128.187  1.00  0.00     0.005 C 
ATOM     15  C   UNL     1     127.914 144.842 129.019  1.00  0.00    -0.001 C 
ATOM     16  C   UNL     1     130.173 143.743 128.762  1.00  0.00     0.007 C 
ATOM     17  C   UNL     1     129.885 146.209 128.073  1.00  0.00     0.012 C 
ATOM     18  C   UNL     1     128.090 145.158 130.531  1.00  0.00     0.000 C 
ATOM     19  C   UNL     1     130.005 143.490 130.291  1.00  0.00     0.005 C 
ATOM     20  C   UNL     1     129.497 144.749 131.044  1.00  0.00     0.003 C 
ATOM     21  C   UNL     1     127.808 146.592 130.986  1.00  0.00     0.031 C 
ATOM     22  C   UNL     1     129.529 144.685 132.617  1.00  0.00    -0.008 C 
ATOM     23  C   UNL     1     127.923 146.672 132.488  1.00  0.00    -0.027 C 
ATOM     24  C   UNL     1     128.680 145.821 133.231  1.00  0.00    -0.065 C 
ATOM     25  C   UNL     1     128.969 143.330 133.148  1.00  0.00     0.014 C 
ATOM     26  C   UNL     1     131.001 144.860 133.080  1.00  0.00     0.016 C 
ATOM     27  C   UNL     1     128.511 145.822 134.736  1.00  0.00     0.063 C 
ATOM     28  C   UNL     1     128.778 143.301 134.678  1.00  0.00     0.033 C 
ATOM     29  C   UNL     1     127.918 144.480 135.179  1.00  0.00     0.118 C 
BRANCH  29  30
ATOM     30  O   UNL     1     127.840 144.455 136.579  1.00  0.00    -0.393 OA
ATOM     31  H   UNL     1     128.765 144.328 136.916  1.00  0.00     0.210 HD
ENDBRANCH  29  30
ENDBRANCH   1  11
TORSDOF 6
ENDMDL
