MODEL 1
REMARK VINA RESULT:    -5.215      0.000      0.000
REMARK INTER + INTRA:          -8.799
REMARK INTER:                  -8.112
REMARK INTRA:                  -0.687
REMARK UNBOUND:                -0.687
REMARK SMILES COc1cc(CNC(=O)CCCCC=CC(C)C)ccc1O
REMARK SMILES IDX 11 1 12 2 13 3 14 4 15 5 16 6 17 7 18 8 10 9 8 10 9 11 7 12
REMARK SMILES IDX 6 14 5 15 4 16 19 17 3 18 20 19 21 20 2 21 1 22 22 23
REMARK H PARENT 7 13 22 24
REMARK Flexibility Score: inf
ROOT
ATOM      1  C   UNL     1      -0.712  -8.971 -38.636  1.00  0.00     0.010 C 
ENDROOT
BRANCH   1   2
ATOM      2  C   UNL     1      -1.764  -8.432 -39.618  1.00  0.00     0.005 C 
BRANCH   2   3
ATOM      3  C   UNL     1      -1.645  -9.068 -41.013  1.00  0.00     0.027 C 
BRANCH   3   4
ATOM      4  C   UNL     1      -0.218  -9.428 -41.323  1.00  0.00    -0.031 C 
ATOM      5  C   UNL     1       0.137  -9.929 -42.519  1.00  0.00    -0.028 C 
BRANCH   5   6
ATOM      6  C   UNL     1       1.564 -10.296 -42.860  1.00  0.00     0.005 C 
ATOM      7  C   UNL     1       2.461 -10.261 -41.617  1.00  0.00     0.012 C 
ATOM      8  C   UNL     1       1.639 -11.657 -43.562  1.00  0.00     0.012 C 
ENDBRANCH   5   6
ENDBRANCH   3   4
ENDBRANCH   2   3
ENDBRANCH   1   2
BRANCH   1   9
ATOM      9  C   UNL     1      -0.361  -7.961 -37.536  1.00  0.00     0.100 C 
BRANCH   9  10
ATOM     10  C   UNL     1      -0.910  -8.417 -36.217  1.00  0.00     0.220 C 
ATOM     11  O   UNL     1      -1.498  -7.587 -35.471  1.00  0.00    -0.275 OA
ATOM     12  N   UNL     1      -0.722  -9.773 -35.791  1.00  0.00    -0.352 N 
ATOM     13  H   UNL     1      -0.193 -10.430 -36.408  1.00  0.00     0.163 HD
BRANCH  12  14
ATOM     14  C   UNL     1      -1.204 -10.264 -34.502  1.00  0.00     0.151 C 
BRANCH  14  15
ATOM     15  C   UNL     1      -0.421 -11.477 -34.077  1.00  0.00    -0.025 A 
ATOM     16  C   UNL     1      -0.968 -12.401 -33.173  1.00  0.00     0.056 A 
ATOM     17  C   UNL     1       0.858 -11.705 -34.607  1.00  0.00     0.009 A 
ATOM     18  C   UNL     1      -0.241 -13.545 -32.790  1.00  0.00     0.160 A 
ATOM     19  C   UNL     1       1.583 -12.836 -34.231  1.00  0.00     0.050 A 
ATOM     20  C   UNL     1       1.039 -13.755 -33.324  1.00  0.00     0.157 A 
BRANCH  18  21
ATOM     21  O   UNL     1      -0.754 -14.492 -31.890  1.00  0.00    -0.493 OA
ATOM     22  C   UNL     1      -1.924 -15.271 -32.120  1.00  0.00     0.278 C 
ENDBRANCH  18  21
BRANCH  20  23
ATOM     23  O   UNL     1       1.765 -14.884 -32.947  1.00  0.00    -0.504 OA
ATOM     24  H   UNL     1       1.820 -15.182 -31.979  1.00  0.00     0.293 HD
ENDBRANCH  20  23
ENDBRANCH  14  15
ENDBRANCH  12  14
ENDBRANCH   9  10
ENDBRANCH   1   9
TORSDOF 10
ENDMDL
MODEL 2
REMARK VINA RESULT:    -5.205      2.716      4.735
REMARK INTER + INTRA:          -8.784
REMARK INTER:                  -7.228
REMARK INTRA:                  -1.555
REMARK UNBOUND:                -0.687
REMARK SMILES COc1cc(CNC(=O)CCCCC=CC(C)C)ccc1O
REMARK SMILES IDX 11 1 12 2 13 3 14 4 15 5 16 6 17 7 18 8 10 9 8 10 9 11 7 12
REMARK SMILES IDX 6 14 5 15 4 16 19 17 3 18 20 19 21 20 2 21 1 22 22 23
REMARK H PARENT 7 13 22 24
REMARK Flexibility Score: inf
ROOT
ATOM      1  C   UNL     1      -3.325 -10.669 -42.700  1.00  0.00     0.010 C 
ENDROOT
BRANCH   1   2
ATOM      2  C   UNL     1      -3.012  -9.201 -43.029  1.00  0.00     0.005 C 
BRANCH   2   3
ATOM      3  C   UNL     1      -1.610  -8.779 -42.559  1.00  0.00     0.027 C 
BRANCH   3   4
ATOM      4  C   UNL     1      -0.743  -9.980 -42.301  1.00  0.00    -0.031 C 
ATOM      5  C   UNL     1       0.595  -9.923 -42.426  1.00  0.00    -0.028 C 
BRANCH   5   6
ATOM      6  C   UNL     1       1.492 -11.112 -42.167  1.00  0.00     0.005 C 
ATOM      7  C   UNL     1       2.918 -10.669 -41.817  1.00  0.00     0.012 C 
ATOM      8  C   UNL     1       0.911 -12.025 -41.081  1.00  0.00     0.012 C 
ENDBRANCH   5   6
ENDBRANCH   3   4
ENDBRANCH   2   3
ENDBRANCH   1   2
BRANCH   1   9
ATOM      9  C   UNL     1      -4.545 -10.820 -41.783  1.00  0.00     0.100 C 
BRANCH   9  10
ATOM     10  C   UNL     1      -4.120 -11.286 -40.423  1.00  0.00     0.220 C 
ATOM     11  O   UNL     1      -4.911 -11.159 -39.449  1.00  0.00    -0.275 OA
ATOM     12  N   UNL     1      -2.806 -11.824 -40.226  1.00  0.00    -0.352 N 
ATOM     13  H   UNL     1      -2.152 -11.878 -41.041  1.00  0.00     0.163 HD
BRANCH  12  14
ATOM     14  C   UNL     1      -2.324 -12.262 -38.918  1.00  0.00     0.151 C 
BRANCH  14  15
ATOM     15  C   UNL     1      -1.715 -11.106 -38.171  1.00  0.00    -0.025 A 
ATOM     16  C   UNL     1      -1.669 -11.107 -36.768  1.00  0.00     0.056 A 
ATOM     17  C   UNL     1      -1.161 -10.029 -38.879  1.00  0.00     0.009 A 
ATOM     18  C   UNL     1      -1.083 -10.032 -36.070  1.00  0.00     0.160 A 
ATOM     19  C   UNL     1      -0.580  -8.962 -38.193  1.00  0.00     0.050 A 
ATOM     20  C   UNL     1      -0.540  -8.959 -36.792  1.00  0.00     0.157 A 
BRANCH  18  21
ATOM     21  O   UNL     1      -1.018  -9.997 -34.668  1.00  0.00    -0.493 OA
ATOM     22  C   UNL     1      -0.639 -11.100 -33.851  1.00  0.00     0.278 C 
ENDBRANCH  18  21
BRANCH  20  23
ATOM     23  O   UNL     1       0.040  -7.892 -36.107  1.00  0.00    -0.504 OA
ATOM     24  H   UNL     1       0.956  -7.536 -36.357  1.00  0.00     0.293 HD
ENDBRANCH  20  23
ENDBRANCH  14  15
ENDBRANCH  12  14
ENDBRANCH   9  10
ENDBRANCH   1   9
TORSDOF 10
ENDMDL
MODEL 3
REMARK VINA RESULT:    -5.178      1.245      1.642
REMARK INTER + INTRA:          -8.740
REMARK INTER:                  -8.101
REMARK INTRA:                  -0.640
REMARK UNBOUND:                -0.687
REMARK SMILES COc1cc(CNC(=O)CCCCC=CC(C)C)ccc1O
REMARK SMILES IDX 11 1 12 2 13 3 14 4 15 5 16 6 17 7 18 8 10 9 8 10 9 11 7 12
REMARK SMILES IDX 6 14 5 15 4 16 19 17 3 18 20 19 21 20 2 21 1 22 22 23
REMARK H PARENT 7 13 22 24
REMARK Flexibility Score: inf
ROOT
ATOM      1  C   UNL     1      -1.095  -8.950 -39.935  1.00  0.00     0.010 C 
ENDROOT
BRANCH   1   2
ATOM      2  C   UNL     1      -2.046  -8.964 -41.143  1.00  0.00     0.005 C 
BRANCH   2   3
ATOM      3  C   UNL     1      -1.622  -9.983 -42.212  1.00  0.00     0.027 C 
BRANCH   3   4
ATOM      4  C   UNL     1      -0.134 -10.204 -42.189  1.00  0.00    -0.031 C 
ATOM      5  C   UNL     1       0.431 -11.259 -42.803  1.00  0.00    -0.028 C 
BRANCH   5   6
ATOM      6  C   UNL     1       1.923 -11.503 -42.801  1.00  0.00     0.005 C 
ATOM      7  C   UNL     1       2.515 -11.353 -44.208  1.00  0.00     0.012 C 
ATOM      8  C   UNL     1       2.637 -10.590 -41.797  1.00  0.00     0.012 C 
ENDBRANCH   5   6
ENDBRANCH   3   4
ENDBRANCH   2   3
ENDBRANCH   1   2
BRANCH   1   9
ATOM      9  C   UNL     1      -1.588  -9.841 -38.788  1.00  0.00     0.100 C 
BRANCH   9  10
ATOM     10  C   UNL     1      -0.860  -9.507 -37.520  1.00  0.00     0.220 C 
ATOM     11  O   UNL     1      -0.328  -8.371 -37.392  1.00  0.00    -0.275 OA
ATOM     12  N   UNL     1      -0.729 -10.491 -36.486  1.00  0.00    -0.352 N 
ATOM     13  H   UNL     1      -1.141 -11.441 -36.634  1.00  0.00     0.163 HD
BRANCH  12  14
ATOM     14  C   UNL     1      -0.002 -10.234 -35.245  1.00  0.00     0.151 C 
BRANCH  14  15
ATOM     15  C   UNL     1       0.074 -11.486 -34.413  1.00  0.00    -0.025 A 
ATOM     16  C   UNL     1      -0.969 -11.825 -33.537  1.00  0.00     0.056 A 
ATOM     17  C   UNL     1       1.182 -12.338 -34.531  1.00  0.00     0.009 A 
ATOM     18  C   UNL     1      -0.905 -13.007 -32.771  1.00  0.00     0.160 A 
ATOM     19  C   UNL     1       1.250 -13.509 -33.774  1.00  0.00     0.050 A 
ATOM     20  C   UNL     1       0.212 -13.845 -32.895  1.00  0.00     0.157 A 
BRANCH  18  21
ATOM     21  O   UNL     1      -1.928 -13.380 -31.885  1.00  0.00    -0.493 OA
ATOM     22  C   UNL     1      -3.289 -12.982 -32.012  1.00  0.00     0.278 C 
ENDBRANCH  18  21
BRANCH  20  23
ATOM     23  O   UNL     1       0.283 -15.014 -32.139  1.00  0.00    -0.504 OA
ATOM     24  H   UNL     1       0.389 -14.989 -31.130  1.00  0.00     0.293 HD
ENDBRANCH  20  23
ENDBRANCH  14  15
ENDBRANCH  12  14
ENDBRANCH   9  10
ENDBRANCH   1   9
TORSDOF 10
ENDMDL
MODEL 4
REMARK VINA RESULT:    -4.991      3.090      7.992
REMARK INTER + INTRA:          -8.450
REMARK INTER:                  -7.680
REMARK INTRA:                  -0.770
REMARK UNBOUND:                -0.687
REMARK SMILES COc1cc(CNC(=O)CCCCC=CC(C)C)ccc1O
REMARK SMILES IDX 11 1 12 2 13 3 14 4 15 5 16 6 17 7 18 8 10 9 8 10 9 11 7 12
REMARK SMILES IDX 6 14 5 15 4 16 19 17 3 18 20 19 21 20 2 21 1 22 22 23
REMARK H PARENT 7 13 22 24
REMARK Flexibility Score: inf
ROOT
ATOM      1  C   UNL     1      -0.379 -10.174 -35.640  1.00  0.00     0.010 C 
ENDROOT
BRANCH   1   2
ATOM      2  C   UNL     1      -1.632 -10.368 -34.772  1.00  0.00     0.005 C 
BRANCH   2   3
ATOM      3  C   UNL     1      -1.333 -11.128 -33.470  1.00  0.00     0.027 C 
BRANCH   3   4
ATOM      4  C   UNL     1      -0.104 -11.983 -33.613  1.00  0.00    -0.031 C 
ATOM      5  C   UNL     1      -0.188 -13.313 -33.794  1.00  0.00    -0.028 C 
BRANCH   5   6
ATOM      6  C   UNL     1       1.030 -14.196 -33.947  1.00  0.00     0.005 C 
ATOM      7  C   UNL     1       1.261 -14.579 -35.414  1.00  0.00     0.012 C 
ATOM      8  C   UNL     1       2.276 -13.539 -33.341  1.00  0.00     0.012 C 
ENDBRANCH   5   6
ENDBRANCH   3   4
ENDBRANCH   2   3
ENDBRANCH   1   2
BRANCH   1   9
ATOM      9  C   UNL     1      -0.080  -8.696 -35.921  1.00  0.00     0.100 C 
BRANCH   9  10
ATOM     10  C   UNL     1      -0.693  -8.280 -37.224  1.00  0.00     0.220 C 
ATOM     11  O   UNL     1      -1.283  -7.168 -37.304  1.00  0.00    -0.275 OA
ATOM     12  N   UNL     1      -0.650  -9.163 -38.353  1.00  0.00    -0.352 N 
ATOM     13  H   UNL     1      -0.194 -10.098 -38.249  1.00  0.00     0.163 HD
BRANCH  12  14
ATOM     14  C   UNL     1      -1.261  -8.826 -39.637  1.00  0.00     0.151 C 
BRANCH  14  15
ATOM     15  C   UNL     1      -0.688  -9.685 -40.731  1.00  0.00    -0.025 A 
ATOM     16  C   UNL     1       0.674  -9.606 -41.062  1.00  0.00     0.056 A 
ATOM     17  C   UNL     1      -1.511 -10.594 -41.411  1.00  0.00     0.009 A 
ATOM     18  C   UNL     1       1.214 -10.424 -42.075  1.00  0.00     0.160 A 
ATOM     19  C   UNL     1      -0.983 -11.406 -42.416  1.00  0.00     0.050 A 
ATOM     20  C   UNL     1       0.376 -11.323 -42.751  1.00  0.00     0.157 A 
BRANCH  18  21
ATOM     21  O   UNL     1       2.570 -10.375 -42.434  1.00  0.00    -0.493 OA
ATOM     22  C   UNL     1       3.628 -10.938 -41.664  1.00  0.00     0.278 C 
ENDBRANCH  18  21
BRANCH  20  23
ATOM     23  O   UNL     1       0.902 -12.134 -43.755  1.00  0.00    -0.504 OA
ATOM     24  H   UNL     1       1.891 -12.359 -43.792  1.00  0.00     0.293 HD
ENDBRANCH  20  23
ENDBRANCH  14  15
ENDBRANCH  12  14
ENDBRANCH   9  10
ENDBRANCH   1   9
TORSDOF 10
ENDMDL
MODEL 5
REMARK VINA RESULT:    -4.984      1.350      2.316
REMARK INTER + INTRA:          -8.439
REMARK INTER:                  -7.663
REMARK INTRA:                  -0.776
REMARK UNBOUND:                -0.687
REMARK SMILES COc1cc(CNC(=O)CCCCC=CC(C)C)ccc1O
REMARK SMILES IDX 11 1 12 2 13 3 14 4 15 5 16 6 17 7 18 8 10 9 8 10 9 11 7 12
REMARK SMILES IDX 6 14 5 15 4 16 19 17 3 18 20 19 21 20 2 21 1 22 22 23
REMARK H PARENT 7 13 22 24
REMARK Flexibility Score: inf
ROOT
ATOM      1  C   UNL     1      -1.605 -10.031 -38.740  1.00  0.00     0.010 C 
ENDROOT
BRANCH   1   2
ATOM      2  C   UNL     1      -0.728 -10.557 -39.887  1.00  0.00     0.005 C 
BRANCH   2   3
ATOM      3  C   UNL     1      -0.338  -9.452 -40.883  1.00  0.00     0.027 C 
BRANCH   3   4
ATOM      4  C   UNL     1       0.863  -9.855 -41.694  1.00  0.00    -0.031 C 
ATOM      5  C   UNL     1       1.457 -11.050 -41.527  1.00  0.00    -0.028 C 
BRANCH   5   6
ATOM      6  C   UNL     1       2.662 -11.483 -42.331  1.00  0.00     0.005 C 
ATOM      7  C   UNL     1       2.486 -11.157 -43.819  1.00  0.00     0.012 C 
ATOM      8  C   UNL     1       3.953 -10.868 -41.777  1.00  0.00     0.012 C 
ENDBRANCH   5   6
ENDBRANCH   3   4
ENDBRANCH   2   3
ENDBRANCH   1   2
BRANCH   1   9
ATOM      9  C   UNL     1      -1.089  -8.706 -38.164  1.00  0.00     0.100 C 
BRANCH   9  10
ATOM     10  C   UNL     1      -0.511  -8.923 -36.797  1.00  0.00     0.220 C 
ATOM     11  O   UNL     1      -0.119  -7.930 -36.126  1.00  0.00    -0.275 OA
ATOM     12  N   UNL     1      -0.362 -10.253 -36.283  1.00  0.00    -0.352 N 
ATOM     13  H   UNL     1      -0.654 -11.062 -36.877  1.00  0.00     0.163 HD
BRANCH  12  14
ATOM     14  C   UNL     1       0.226 -10.527 -34.974  1.00  0.00     0.151 C 
BRANCH  14  15
ATOM     15  C   UNL     1      -0.664 -11.448 -34.183  1.00  0.00    -0.025 A 
ATOM     16  C   UNL     1      -0.201 -12.708 -33.771  1.00  0.00     0.056 A 
ATOM     17  C   UNL     1      -1.958 -11.039 -33.830  1.00  0.00     0.009 A 
ATOM     18  C   UNL     1      -1.029 -13.563 -33.016  1.00  0.00     0.160 A 
ATOM     19  C   UNL     1      -2.782 -11.882 -33.083  1.00  0.00     0.050 A 
ATOM     20  C   UNL     1      -2.323 -13.142 -32.676  1.00  0.00     0.157 A 
BRANCH  18  21
ATOM     21  O   UNL     1      -0.602 -14.829 -32.585  1.00  0.00    -0.493 OA
ATOM     22  C   UNL     1       0.520 -15.526 -33.118  1.00  0.00     0.278 C 
ENDBRANCH  18  21
BRANCH  20  23
ATOM     23  O   UNL     1      -3.147 -13.984 -31.932  1.00  0.00    -0.504 OA
ATOM     24  H   UNL     1      -3.903 -14.505 -32.363  1.00  0.00     0.293 HD
ENDBRANCH  20  23
ENDBRANCH  14  15
ENDBRANCH  12  14
ENDBRANCH   9  10
ENDBRANCH   1   9
TORSDOF 10
ENDMDL
MODEL 6
REMARK VINA RESULT:    -4.983      5.324      8.282
REMARK INTER + INTRA:          -8.437
REMARK INTER:                  -7.360
REMARK INTRA:                  -1.077
REMARK UNBOUND:                -0.687
REMARK SMILES COc1cc(CNC(=O)CCCCC=CC(C)C)ccc1O
REMARK SMILES IDX 11 1 12 2 13 3 14 4 15 5 16 6 17 7 18 8 10 9 8 10 9 11 7 12
REMARK SMILES IDX 6 14 5 15 4 16 19 17 3 18 20 19 21 20 2 21 1 22 22 23
REMARK H PARENT 7 13 22 24
REMARK Flexibility Score: inf
ROOT
ATOM      1  C   UNL     1      -6.209 -10.765 -44.097  1.00  0.00     0.010 C 
ENDROOT
BRANCH   1   2
ATOM      2  C   UNL     1      -7.328 -11.143 -45.081  1.00  0.00     0.005 C 
BRANCH   2   3
ATOM      3  C   UNL     1      -7.114 -10.534 -46.476  1.00  0.00     0.027 C 
BRANCH   3   4
ATOM      4  C   UNL     1      -5.917  -9.623 -46.490  1.00  0.00    -0.031 C 
ATOM      5  C   UNL     1      -5.413  -9.141 -47.640  1.00  0.00    -0.028 C 
BRANCH   5   6
ATOM      6  C   UNL     1      -4.215  -8.219 -47.685  1.00  0.00     0.005 C 
ATOM      7  C   UNL     1      -3.686  -7.924 -46.276  1.00  0.00     0.012 C 
ATOM      8  C   UNL     1      -3.110  -8.782 -48.586  1.00  0.00     0.012 C 
ENDBRANCH   5   6
ENDBRANCH   3   4
ENDBRANCH   2   3
ENDBRANCH   1   2
BRANCH   1   9
ATOM      9  C   UNL     1      -6.698 -10.704 -42.645  1.00  0.00     0.100 C 
BRANCH   9  10
ATOM     10  C   UNL     1      -5.869  -9.734 -41.857  1.00  0.00     0.220 C 
ATOM     11  O   UNL     1      -5.912  -9.762 -40.597  1.00  0.00    -0.275 OA
ATOM     12  N   UNL     1      -5.073  -8.753 -42.535  1.00  0.00    -0.352 N 
ATOM     13  H   UNL     1      -5.087  -8.722 -43.580  1.00  0.00     0.163 HD
BRANCH  12  14
ATOM     14  C   UNL     1      -4.272  -7.762 -41.821  1.00  0.00     0.151 C 
BRANCH  14  15
ATOM     15  C   UNL     1      -2.883  -8.289 -41.575  1.00  0.00    -0.025 A 
ATOM     16  C   UNL     1      -2.345  -8.307 -40.279  1.00  0.00     0.056 A 
ATOM     17  C   UNL     1      -2.127  -8.792 -42.644  1.00  0.00     0.009 A 
ATOM     18  C   UNL     1      -1.052  -8.816 -40.048  1.00  0.00     0.160 A 
ATOM     19  C   UNL     1      -0.845  -9.296 -42.421  1.00  0.00     0.050 A 
ATOM     20  C   UNL     1      -0.305  -9.309 -41.128  1.00  0.00     0.157 A 
BRANCH  18  21
ATOM     21  O   UNL     1      -0.479  -8.852 -38.767  1.00  0.00    -0.493 OA
ATOM     22  C   UNL     1      -0.986  -9.619 -37.679  1.00  0.00     0.278 C 
ENDBRANCH  18  21
BRANCH  20  23
ATOM     23  O   UNL     1       0.976  -9.813 -40.906  1.00  0.00    -0.504 OA
ATOM     24  H   UNL     1       1.494 -10.287 -41.638  1.00  0.00     0.293 HD
ENDBRANCH  20  23
ENDBRANCH  14  15
ENDBRANCH  12  14
ENDBRANCH   9  10
ENDBRANCH   1   9
TORSDOF 10
ENDMDL
MODEL 7
REMARK VINA RESULT:    -4.929      6.873     11.502
REMARK INTER + INTRA:          -8.353
REMARK INTER:                  -6.699
REMARK INTRA:                  -1.655
REMARK UNBOUND:                -0.687
REMARK SMILES COc1cc(CNC(=O)CCCCC=CC(C)C)ccc1O
REMARK SMILES IDX 11 1 12 2 13 3 14 4 15 5 16 6 17 7 18 8 10 9 8 10 9 11 7 12
REMARK SMILES IDX 6 14 5 15 4 16 19 17 3 18 20 19 21 20 2 21 1 22 22 23
REMARK H PARENT 7 13 22 24
REMARK Flexibility Score: inf
ROOT
ATOM      1  C   UNL     1      -1.198 -10.507 -42.277  1.00  0.00     0.010 C 
ENDROOT
BRANCH   1   2
ATOM      2  C   UNL     1      -1.959 -11.525 -41.414  1.00  0.00     0.005 C 
BRANCH   2   3
ATOM      3  C   UNL     1      -2.809 -12.490 -42.256  1.00  0.00     0.027 C 
BRANCH   3   4
ATOM      4  C   UNL     1      -4.075 -11.827 -42.726  1.00  0.00    -0.031 C 
ATOM      5  C   UNL     1      -5.011 -11.402 -41.859  1.00  0.00    -0.028 C 
BRANCH   5   6
ATOM      6  C   UNL     1      -6.289 -10.728 -42.303  1.00  0.00     0.005 C 
ATOM      7  C   UNL     1      -7.392 -11.755 -42.590  1.00  0.00     0.012 C 
ATOM      8  C   UNL     1      -6.755  -9.685 -41.280  1.00  0.00     0.012 C 
ENDBRANCH   5   6
ENDBRANCH   3   4
ENDBRANCH   2   3
ENDBRANCH   1   2
BRANCH   1   9
ATOM      9  C   UNL     1      -1.305  -9.077 -41.734  1.00  0.00     0.100 C 
BRANCH   9  10
ATOM     10  C   UNL     1      -2.628  -8.477 -42.104  1.00  0.00     0.220 C 
ATOM     11  O   UNL     1      -3.394  -8.057 -41.194  1.00  0.00    -0.275 OA
ATOM     12  N   UNL     1      -3.037  -8.430 -43.477  1.00  0.00    -0.352 N 
ATOM     13  H   UNL     1      -2.403  -8.825 -44.209  1.00  0.00     0.163 HD
BRANCH  12  14
ATOM     14  C   UNL     1      -4.329  -7.889 -43.894  1.00  0.00     0.151 C 
BRANCH  14  15
ATOM     15  C   UNL     1      -4.714  -8.433 -45.243  1.00  0.00    -0.025 A 
ATOM     16  C   UNL     1      -3.954  -8.122 -46.382  1.00  0.00     0.056 A 
ATOM     17  C   UNL     1      -5.825  -9.280 -45.365  1.00  0.00     0.009 A 
ATOM     18  C   UNL     1      -4.305  -8.646 -47.642  1.00  0.00     0.160 A 
ATOM     19  C   UNL     1      -6.178  -9.801 -46.611  1.00  0.00     0.050 A 
ATOM     20  C   UNL     1      -5.423  -9.486 -47.749  1.00  0.00     0.157 A 
BRANCH  18  21
ATOM     21  O   UNL     1      -3.571  -8.359 -48.803  1.00  0.00    -0.493 OA
ATOM     22  C   UNL     1      -3.458  -7.064 -49.386  1.00  0.00     0.278 C 
ENDBRANCH  18  21
BRANCH  20  23
ATOM     23  O   UNL     1      -5.777 -10.006 -48.993  1.00  0.00    -0.504 OA
ATOM     24  H   UNL     1      -6.669  -9.788 -49.425  1.00  0.00     0.293 HD
ENDBRANCH  20  23
ENDBRANCH  14  15
ENDBRANCH  12  14
ENDBRANCH   9  10
ENDBRANCH   1   9
TORSDOF 10
ENDMDL
MODEL 8
REMARK VINA RESULT:    -4.834      2.942      8.139
REMARK INTER + INTRA:          -8.206
REMARK INTER:                  -7.414
REMARK INTRA:                  -0.792
REMARK UNBOUND:                -0.687
REMARK SMILES COc1cc(CNC(=O)CCCCC=CC(C)C)ccc1O
REMARK SMILES IDX 11 1 12 2 13 3 14 4 15 5 16 6 17 7 18 8 10 9 8 10 9 11 7 12
REMARK SMILES IDX 6 14 5 15 4 16 19 17 3 18 20 19 21 20 2 21 1 22 22 23
REMARK H PARENT 7 13 22 24
REMARK Flexibility Score: inf
ROOT
ATOM      1  C   UNL     1      -1.444 -10.972 -33.388  1.00  0.00     0.010 C 
ENDROOT
BRANCH   1   2
ATOM      2  C   UNL     1      -0.946 -11.715 -32.139  1.00  0.00     0.005 C 
BRANCH   2   3
ATOM      3  C   UNL     1      -1.410 -13.181 -32.103  1.00  0.00     0.027 C 
BRANCH   3   4
ATOM      4  C   UNL     1      -0.344 -14.099 -32.635  1.00  0.00    -0.031 C 
ATOM      5  C   UNL     1      -0.400 -14.591 -33.885  1.00  0.00    -0.028 C 
BRANCH   5   6
ATOM      6  C   UNL     1       0.659 -15.512 -34.449  1.00  0.00     0.005 C 
ATOM      7  C   UNL     1       1.569 -14.774 -35.439  1.00  0.00     0.012 C 
ATOM      8  C   UNL     1       1.475 -16.175 -33.333  1.00  0.00     0.012 C 
ENDBRANCH   5   6
ENDBRANCH   3   4
ENDBRANCH   2   3
ENDBRANCH   1   2
BRANCH   1   9
ATOM      9  C   UNL     1      -0.370 -10.865 -34.478  1.00  0.00     0.100 C 
BRANCH   9  10
ATOM     10  C   UNL     1      -0.793  -9.886 -35.531  1.00  0.00     0.220 C 
ATOM     11  O   UNL     1      -1.515  -8.904 -35.210  1.00  0.00    -0.275 OA
ATOM     12  N   UNL     1      -0.419 -10.096 -36.899  1.00  0.00    -0.352 N 
ATOM     13  H   UNL     1       0.144 -10.942 -37.147  1.00  0.00     0.163 HD
BRANCH  12  14
ATOM     14  C   UNL     1      -0.831  -9.195 -37.973  1.00  0.00     0.151 C 
BRANCH  14  15
ATOM     15  C   UNL     1      -1.079  -9.969 -39.240  1.00  0.00    -0.025 A 
ATOM     16  C   UNL     1      -0.153  -9.928 -40.294  1.00  0.00     0.056 A 
ATOM     17  C   UNL     1      -2.230 -10.760 -39.362  1.00  0.00     0.009 A 
ATOM     18  C   UNL     1      -0.377 -10.667 -41.473  1.00  0.00     0.160 A 
ATOM     19  C   UNL     1      -2.458 -11.493 -40.528  1.00  0.00     0.050 A 
ATOM     20  C   UNL     1      -1.537 -11.448 -41.584  1.00  0.00     0.157 A 
BRANCH  18  21
ATOM     21  O   UNL     1       0.525 -10.652 -42.549  1.00  0.00    -0.493 OA
ATOM     22  C   UNL     1       1.309  -9.525 -42.928  1.00  0.00     0.278 C 
ENDBRANCH  18  21
BRANCH  20  23
ATOM     23  O   UNL     1      -1.766 -12.180 -42.748  1.00  0.00    -0.504 OA
ATOM     24  H   UNL     1      -2.687 -12.536 -42.979  1.00  0.00     0.293 HD
ENDBRANCH  20  23
ENDBRANCH  14  15
ENDBRANCH  12  14
ENDBRANCH   9  10
ENDBRANCH   1   9
TORSDOF 10
ENDMDL
MODEL 9
REMARK VINA RESULT:    -4.824      6.215      9.184
REMARK INTER + INTRA:          -8.190
REMARK INTER:                  -7.122
REMARK INTRA:                  -1.068
REMARK UNBOUND:                -0.687
REMARK SMILES COc1cc(CNC(=O)CCCCC=CC(C)C)ccc1O
REMARK SMILES IDX 11 1 12 2 13 3 14 4 15 5 16 6 17 7 18 8 10 9 8 10 9 11 7 12
REMARK SMILES IDX 6 14 5 15 4 16 19 17 3 18 20 19 21 20 2 21 1 22 22 23
REMARK H PARENT 7 13 22 24
REMARK Flexibility Score: inf
ROOT
ATOM      1  C   UNL     1      -7.752 -10.920 -45.213  1.00  0.00     0.010 C 
ENDROOT
BRANCH   1   2
ATOM      2  C   UNL     1      -6.868 -10.618 -46.433  1.00  0.00     0.005 C 
BRANCH   2   3
ATOM      3  C   UNL     1      -7.373  -9.411 -47.240  1.00  0.00     0.027 C 
BRANCH   3   4
ATOM      4  C   UNL     1      -6.225  -8.613 -47.795  1.00  0.00    -0.031 C 
ATOM      5  C   UNL     1      -5.038  -8.557 -47.166  1.00  0.00    -0.028 C 
BRANCH   5   6
ATOM      6  C   UNL     1      -3.866  -7.767 -47.702  1.00  0.00     0.005 C 
ATOM      7  C   UNL     1      -3.076  -7.101 -46.568  1.00  0.00     0.012 C 
ATOM      8  C   UNL     1      -2.956  -8.640 -48.574  1.00  0.00     0.012 C 
ENDBRANCH   5   6
ENDBRANCH   3   4
ENDBRANCH   2   3
ENDBRANCH   1   2
BRANCH   1   9
ATOM      9  C   UNL     1      -6.942 -11.053 -43.917  1.00  0.00     0.100 C 
BRANCH   9  10
ATOM     10  C   UNL     1      -6.345  -9.731 -43.539  1.00  0.00     0.220 C 
ATOM     11  O   UNL     1      -7.102  -8.788 -43.182  1.00  0.00    -0.275 OA
ATOM     12  N   UNL     1      -4.928  -9.530 -43.631  1.00  0.00    -0.352 N 
ATOM     13  H   UNL     1      -4.326 -10.313 -43.972  1.00  0.00     0.163 HD
BRANCH  12  14
ATOM     14  C   UNL     1      -4.294  -8.253 -43.309  1.00  0.00     0.151 C 
BRANCH  14  15
ATOM     15  C   UNL     1      -3.172  -8.459 -42.328  1.00  0.00    -0.025 A 
ATOM     16  C   UNL     1      -1.933  -8.962 -42.755  1.00  0.00     0.056 A 
ATOM     17  C   UNL     1      -3.351  -8.121 -40.979  1.00  0.00     0.009 A 
ATOM     18  C   UNL     1      -0.877  -9.138 -41.838  1.00  0.00     0.160 A 
ATOM     19  C   UNL     1      -2.310  -8.295 -40.066  1.00  0.00     0.050 A 
ATOM     20  C   UNL     1      -1.074  -8.803 -40.491  1.00  0.00     0.157 A 
BRANCH  18  21
ATOM     21  O   UNL     1       0.376  -9.637 -42.227  1.00  0.00    -0.493 OA
ATOM     22  C   UNL     1       0.633 -10.998 -42.561  1.00  0.00     0.278 C 
ENDBRANCH  18  21
BRANCH  20  23
ATOM     23  O   UNL     1      -0.035  -8.976 -39.579  1.00  0.00    -0.504 OA
ATOM     24  H   UNL     1      -0.168  -9.487 -38.713  1.00  0.00     0.293 HD
ENDBRANCH  20  23
ENDBRANCH  14  15
ENDBRANCH  12  14
ENDBRANCH   9  10
ENDBRANCH   1   9
TORSDOF 10
ENDMDL
