MODEL 1
REMARK VINA RESULT:    -3.914      0.000      0.000
REMARK INTER + INTRA:          -6.128
REMARK INTER:                  -5.287
REMARK INTRA:                  -0.840
REMARK UNBOUND:                -0.840
REMARK SMILES CC(=O)CCC=C(C)CCC=C(C)C
REMARK SMILES IDX 7 1 6 2 8 3 9 4 10 5 11 6 13 7 12 8 14 9 5 10 4 11 2 12 3 13
REMARK SMILES IDX 1 14
REMARK H PARENT
REMARK Flexibility Score: inf
ROOT
ATOM      1  C   UNL     1      97.525   6.831  76.279  1.00  0.00    -0.077 C 
ATOM      2  C   UNL     1      98.425   7.104  77.251  1.00  0.00    -0.028 C 
ATOM      3  C   UNL     1      96.577   7.883  75.750  1.00  0.00     0.039 C 
ENDROOT
BRANCH   1   4
ATOM      4  C   UNL     1      97.484   5.438  75.691  1.00  0.00     0.034 C 
BRANCH   4   5
ATOM      5  C   UNL     1      97.550   4.380  76.799  1.00  0.00     0.032 C 
BRANCH   5   6
ATOM      6  C   UNL     1      98.627   3.365  76.505  1.00  0.00    -0.028 C 
ATOM      7  C   UNL     1      99.986   3.993  78.514  1.00  0.00     0.039 C 
ATOM      8  C   UNL     1      99.740   3.196  77.254  1.00  0.00    -0.080 C 
ATOM      9  C   UNL     1     100.749   2.166  76.818  1.00  0.00     0.039 C 
ENDBRANCH   5   6
ENDBRANCH   4   5
ENDBRANCH   1   4
BRANCH   2  10
ATOM     10  C   UNL     1      98.533   8.426  77.971  1.00  0.00     0.035 C 
BRANCH  10  11
ATOM     11  C   UNL     1      99.978   8.940  77.997  1.00  0.00     0.079 C 
BRANCH  11  12
ATOM     12  C   UNL     1     100.661   8.613  79.299  1.00  0.00     0.130 C 
ATOM     13  O   UNL     1     100.507   9.347  80.263  1.00  0.00    -0.300 OA
ATOM     14  C   UNL     1     101.496   7.376  79.444  1.00  0.00     0.087 C 
ENDBRANCH  11  12
ENDBRANCH  10  11
ENDBRANCH   2  10
TORSDOF 6
ENDMDL
MODEL 2
REMARK VINA RESULT:    -3.897      2.531      4.656
REMARK INTER + INTRA:          -6.104
REMARK INTER:                  -5.220
REMARK INTRA:                  -0.884
REMARK UNBOUND:                -0.840
REMARK SMILES CC(=O)CCC=C(C)CCC=C(C)C
REMARK SMILES IDX 7 1 6 2 8 3 9 4 10 5 11 6 13 7 12 8 14 9 5 10 4 11 2 12 3 13
REMARK SMILES IDX 1 14
REMARK H PARENT
REMARK Flexibility Score: inf
ROOT
ATOM      1  C   UNL     1      98.580   8.174  77.804  1.00  0.00    -0.077 C 
ATOM      2  C   UNL     1      98.408   7.038  77.090  1.00  0.00    -0.028 C 
ATOM      3  C   UNL     1      97.634   9.346  77.681  1.00  0.00     0.039 C 
ENDROOT
BRANCH   1   4
ATOM      4  C   UNL     1      99.742   8.261  78.769  1.00  0.00     0.034 C 
BRANCH   4   5
ATOM      5  C   UNL     1     100.531   6.946  78.788  1.00  0.00     0.032 C 
BRANCH   5   6
ATOM      6  C   UNL     1     101.973   7.184  78.416  1.00  0.00    -0.028 C 
ATOM      7  C   UNL     1     101.848   5.742  76.371  1.00  0.00     0.039 C 
ATOM      8  C   UNL     1     102.587   6.630  77.346  1.00  0.00    -0.080 C 
ATOM      9  C   UNL     1     104.046   6.930  77.120  1.00  0.00     0.039 C 
ENDBRANCH   5   6
ENDBRANCH   4   5
ENDBRANCH   1   4
BRANCH   2  10
ATOM     10  C   UNL     1      97.336   6.837  76.047  1.00  0.00     0.035 C 
BRANCH  10  11
ATOM     11  C   UNL     1      97.414   5.440  75.417  1.00  0.00     0.079 C 
BRANCH  11  12
ATOM     12  C   UNL     1      97.388   4.356  76.464  1.00  0.00     0.130 C 
ATOM     13  O   UNL     1      96.365   4.157  77.101  1.00  0.00    -0.300 OA
ATOM     14  C   UNL     1      98.587   3.489  76.707  1.00  0.00     0.087 C 
ENDBRANCH  11  12
ENDBRANCH  10  11
ENDBRANCH   2  10
TORSDOF 6
ENDMDL
MODEL 3
REMARK VINA RESULT:    -3.861      2.580      5.753
REMARK INTER + INTRA:          -6.056
REMARK INTER:                  -4.924
REMARK INTRA:                  -1.133
REMARK UNBOUND:                -0.840
REMARK SMILES CC(=O)CCC=C(C)CCC=C(C)C
REMARK SMILES IDX 7 1 6 2 8 3 9 4 10 5 11 6 13 7 12 8 14 9 5 10 4 11 2 12 3 13
REMARK SMILES IDX 1 14
REMARK H PARENT
REMARK Flexibility Score: inf
ROOT
ATOM      1  C   UNL     1     100.212   6.161  77.536  1.00  0.00    -0.077 C 
ATOM      2  C   UNL     1      99.018   6.712  77.220  1.00  0.00    -0.028 C 
ATOM      3  C   UNL     1     101.098   5.523  76.491  1.00  0.00     0.039 C 
ENDROOT
BRANCH   1   4
ATOM      4  C   UNL     1     100.679   6.205  78.974  1.00  0.00     0.034 C 
BRANCH   4   5
ATOM      5  C   UNL     1     101.773   7.263  79.156  1.00  0.00     0.032 C 
BRANCH   5   6
ATOM      6  C   UNL     1     101.173   8.593  79.536  1.00  0.00    -0.028 C 
ATOM      7  C   UNL     1     101.643   9.623  77.302  1.00  0.00     0.039 C 
ATOM      8  C   UNL     1     101.129   9.671  78.722  1.00  0.00    -0.080 C 
ATOM      9  C   UNL     1     100.529  10.948  79.251  1.00  0.00     0.039 C 
ENDBRANCH   5   6
ENDBRANCH   4   5
ENDBRANCH   1   4
BRANCH   2  10
ATOM     10  C   UNL     1      98.398   6.683  75.844  1.00  0.00     0.035 C 
BRANCH  10  11
ATOM     11  C   UNL     1      96.991   6.074  75.870  1.00  0.00     0.079 C 
BRANCH  11  12
ATOM     12  C   UNL     1      97.028   4.604  76.196  1.00  0.00     0.130 C 
ATOM     13  O   UNL     1      96.347   4.171  77.113  1.00  0.00    -0.300 OA
ATOM     14  C   UNL     1      97.857   3.653  75.386  1.00  0.00     0.087 C 
ENDBRANCH  11  12
ENDBRANCH  10  11
ENDBRANCH   2  10
TORSDOF 6
ENDMDL
MODEL 4
REMARK VINA RESULT:    -3.854      1.541      3.316
REMARK INTER + INTRA:          -6.046
REMARK INTER:                  -5.093
REMARK INTRA:                  -0.953
REMARK UNBOUND:                -0.840
REMARK SMILES CC(=O)CCC=C(C)CCC=C(C)C
REMARK SMILES IDX 7 1 6 2 8 3 9 4 10 5 11 6 13 7 12 8 14 9 5 10 4 11 2 12 3 13
REMARK SMILES IDX 1 14
REMARK H PARENT
REMARK Flexibility Score: inf
ROOT
ATOM      1  C   UNL     1     100.294   4.838  77.390  1.00  0.00    -0.077 C 
ATOM      2  C   UNL     1     100.087   5.927  78.164  1.00  0.00    -0.028 C 
ATOM      3  C   UNL     1     101.496   4.722  76.481  1.00  0.00     0.039 C 
ENDROOT
BRANCH   1   4
ATOM      4  C   UNL     1      99.305   3.695  77.455  1.00  0.00     0.034 C 
BRANCH   4   5
ATOM      5  C   UNL     1      97.939   4.129  76.912  1.00  0.00     0.032 C 
BRANCH   5   6
ATOM      6  C   UNL     1      97.856   3.897  75.425  1.00  0.00    -0.028 C 
ATOM      7  C   UNL     1      97.995   6.338  74.877  1.00  0.00     0.039 C 
ATOM      8  C   UNL     1      97.856   4.881  74.498  1.00  0.00    -0.080 C 
ATOM      9  C   UNL     1      97.731   4.501  73.045  1.00  0.00     0.039 C 
ENDBRANCH   5   6
ENDBRANCH   4   5
ENDBRANCH   1   4
BRANCH   2  10
ATOM     10  C   UNL     1     100.952   7.164  78.152  1.00  0.00     0.035 C 
BRANCH  10  11
ATOM     11  C   UNL     1     101.554   7.446  79.535  1.00  0.00     0.079 C 
BRANCH  11  12
ATOM     12  C   UNL     1     100.950   8.675  80.163  1.00  0.00     0.130 C 
ATOM     13  O   UNL     1     101.236   8.967  81.314  1.00  0.00    -0.300 OA
ATOM     14  C   UNL     1     100.033   9.570  79.384  1.00  0.00     0.087 C 
ENDBRANCH  11  12
ENDBRANCH  10  11
ENDBRANCH   2  10
TORSDOF 6
ENDMDL
MODEL 5
REMARK VINA RESULT:    -3.698      1.969      2.978
REMARK INTER + INTRA:          -5.836
REMARK INTER:                  -4.760
REMARK INTRA:                  -1.076
REMARK UNBOUND:                -0.840
REMARK SMILES CC(=O)CCC=C(C)CCC=C(C)C
REMARK SMILES IDX 7 1 6 2 8 3 9 4 10 5 11 6 13 7 12 8 14 9 5 10 4 11 2 12 3 13
REMARK SMILES IDX 1 14
REMARK H PARENT
REMARK Flexibility Score: inf
ROOT
ATOM      1  C   UNL     1     101.159   6.947  77.560  1.00  0.00    -0.077 C 
ATOM      2  C   UNL     1     100.650   7.349  78.747  1.00  0.00    -0.028 C 
ATOM      3  C   UNL     1     102.648   6.830  77.328  1.00  0.00     0.039 C 
ENDROOT
BRANCH   1   4
ATOM      4  C   UNL     1     100.207   6.584  76.442  1.00  0.00     0.034 C 
BRANCH   4   5
ATOM      5  C   UNL     1      99.279   5.441  76.870  1.00  0.00     0.032 C 
BRANCH   5   6
ATOM      6  C   UNL     1      99.980   4.111  76.753  1.00  0.00    -0.028 C 
ATOM      7  C   UNL     1     100.044   3.749  79.231  1.00  0.00     0.039 C 
ATOM      8  C   UNL     1     100.353   3.350  77.807  1.00  0.00    -0.080 C 
ATOM      9  C   UNL     1     101.080   2.058  77.539  1.00  0.00     0.039 C 
ENDBRANCH   5   6
ENDBRANCH   4   5
ENDBRANCH   1   4
BRANCH   2  10
ATOM     10  C   UNL     1     101.478   7.803  79.924  1.00  0.00     0.035 C 
BRANCH  10  11
ATOM     11  C   UNL     1     100.997   9.154  80.468  1.00  0.00     0.079 C 
BRANCH  11  12
ATOM     12  C   UNL     1     100.982  10.212  79.395  1.00  0.00     0.130 C 
ATOM     13  O   UNL     1     102.032  10.559  78.875  1.00  0.00    -0.300 OA
ATOM     14  C   UNL     1      99.694  10.817  78.923  1.00  0.00     0.087 C 
ENDBRANCH  11  12
ENDBRANCH  10  11
ENDBRANCH   2  10
TORSDOF 6
ENDMDL
MODEL 6
REMARK VINA RESULT:    -3.685      2.949      5.126
REMARK INTER + INTRA:          -5.818
REMARK INTER:                  -4.342
REMARK INTRA:                  -1.475
REMARK UNBOUND:                -0.840
REMARK SMILES CC(=O)CCC=C(C)CCC=C(C)C
REMARK SMILES IDX 7 1 6 2 8 3 9 4 10 5 11 6 13 7 12 8 14 9 5 10 4 11 2 12 3 13
REMARK SMILES IDX 1 14
REMARK H PARENT
REMARK Flexibility Score: inf
ROOT
ATOM      1  C   UNL     1      97.193   4.827  75.920  1.00  0.00    -0.077 C 
ATOM      2  C   UNL     1      97.931   4.278  74.930  1.00  0.00    -0.028 C 
ATOM      3  C   UNL     1      96.649   4.000  77.062  1.00  0.00     0.039 C 
ENDROOT
BRANCH   1   4
ATOM      4  C   UNL     1      96.924   6.315  75.893  1.00  0.00     0.034 C 
BRANCH   4   5
ATOM      5  C   UNL     1      98.238   7.104  75.943  1.00  0.00     0.032 C 
BRANCH   5   6
ATOM      6  C   UNL     1      98.916   6.929  77.279  1.00  0.00    -0.028 C 
ATOM      7  C   UNL     1     100.999   5.968  76.272  1.00  0.00     0.039 C 
ATOM      8  C   UNL     1     100.148   6.397  77.445  1.00  0.00    -0.080 C 
ATOM      9  C   UNL     1     100.684   6.249  78.845  1.00  0.00     0.039 C 
ENDBRANCH   5   6
ENDBRANCH   4   5
ENDBRANCH   1   4
BRANCH   2  10
ATOM     10  C   UNL     1      98.221   2.803  74.794  1.00  0.00     0.035 C 
BRANCH  10  11
ATOM     11  C   UNL     1      99.717   2.503  74.954  1.00  0.00     0.079 C 
BRANCH  11  12
ATOM     12  C   UNL     1     100.011   1.820  76.264  1.00  0.00     0.130 C 
ATOM     13  O   UNL     1     100.210   0.615  76.286  1.00  0.00    -0.300 OA
ATOM     14  C   UNL     1     100.103   2.602  77.540  1.00  0.00     0.087 C 
ENDBRANCH  11  12
ENDBRANCH  10  11
ENDBRANCH   2  10
TORSDOF 6
ENDMDL
MODEL 7
REMARK VINA RESULT:    -3.684      1.155      1.596
REMARK INTER + INTRA:          -5.817
REMARK INTER:                  -5.096
REMARK INTRA:                  -0.721
REMARK UNBOUND:                -0.840
REMARK SMILES CC(=O)CCC=C(C)CCC=C(C)C
REMARK SMILES IDX 7 1 6 2 8 3 9 4 10 5 11 6 13 7 12 8 14 9 5 10 4 11 2 12 3 13
REMARK SMILES IDX 1 14
REMARK H PARENT
REMARK Flexibility Score: inf
ROOT
ATOM      1  C   UNL     1      97.404   7.965  76.514  1.00  0.00    -0.077 C 
ATOM      2  C   UNL     1      98.469   7.754  77.321  1.00  0.00    -0.028 C 
ATOM      3  C   UNL     1      96.617   9.255  76.552  1.00  0.00     0.039 C 
ENDROOT
BRANCH   1   4
ATOM      4  C   UNL     1      97.006   6.887  75.531  1.00  0.00     0.034 C 
BRANCH   4   5
ATOM      5  C   UNL     1      96.950   5.519  76.222  1.00  0.00     0.032 C 
BRANCH   5   6
ATOM      6  C   UNL     1      97.821   4.520  75.502  1.00  0.00    -0.028 C 
ATOM      7  C   UNL     1      99.260   4.093  77.508  1.00  0.00     0.039 C 
ATOM      8  C   UNL     1      98.879   3.889  76.059  1.00  0.00    -0.080 C 
ATOM      9  C   UNL     1      99.682   2.942  75.206  1.00  0.00     0.039 C 
ENDBRANCH   5   6
ENDBRANCH   4   5
ENDBRANCH   1   4
BRANCH   2  10
ATOM     10  C   UNL     1      98.937   8.712  78.390  1.00  0.00     0.035 C 
BRANCH  10  11
ATOM     11  C   UNL     1     100.216   8.215  79.074  1.00  0.00     0.079 C 
BRANCH  11  12
ATOM     12  C   UNL     1     100.820   9.273  79.960  1.00  0.00     0.130 C 
ATOM     13  O   UNL     1     101.197   8.978  81.084  1.00  0.00    -0.300 OA
ATOM     14  C   UNL     1     101.005  10.678  79.469  1.00  0.00     0.087 C 
ENDBRANCH  11  12
ENDBRANCH  10  11
ENDBRANCH   2  10
TORSDOF 6
ENDMDL
MODEL 8
REMARK VINA RESULT:    -3.673      1.789      3.502
REMARK INTER + INTRA:          -5.801
REMARK INTER:                  -4.715
REMARK INTRA:                  -1.086
REMARK UNBOUND:                -0.840
REMARK SMILES CC(=O)CCC=C(C)CCC=C(C)C
REMARK SMILES IDX 7 1 6 2 8 3 9 4 10 5 11 6 13 7 12 8 14 9 5 10 4 11 2 12 3 13
REMARK SMILES IDX 1 14
REMARK H PARENT
REMARK Flexibility Score: inf
ROOT
ATOM      1  C   UNL     1     101.069   4.538  77.146  1.00  0.00    -0.077 C 
ATOM      2  C   UNL     1     100.339   5.111  78.130  1.00  0.00    -0.028 C 
ATOM      3  C   UNL     1     102.020   5.341  76.288  1.00  0.00     0.039 C 
ENDROOT
BRANCH   1   4
ATOM      4  C   UNL     1     100.945   3.049  76.916  1.00  0.00     0.034 C 
BRANCH   4   5
ATOM      5  C   UNL     1      99.495   2.669  76.594  1.00  0.00     0.032 C 
BRANCH   5   6
ATOM      6  C   UNL     1      99.070   3.255  75.271  1.00  0.00    -0.028 C 
ATOM      7  C   UNL     1      97.128   4.490  76.262  1.00  0.00     0.039 C 
ATOM      8  C   UNL     1      97.994   4.056  75.101  1.00  0.00    -0.080 C 
ATOM      9  C   UNL     1      97.669   4.539  73.711  1.00  0.00     0.039 C 
ENDBRANCH   5   6
ENDBRANCH   4   5
ENDBRANCH   1   4
BRANCH   2  10
ATOM     10  C   UNL     1     100.314   6.590  78.428  1.00  0.00     0.035 C 
BRANCH  10  11
ATOM     11  C   UNL     1      99.221   7.310  77.628  1.00  0.00     0.079 C 
BRANCH  11  12
ATOM     12  C   UNL     1      98.836   8.620  78.267  1.00  0.00     0.130 C 
ATOM     13  O   UNL     1      97.757   9.127  78.002  1.00  0.00    -0.300 OA
ATOM     14  C   UNL     1      99.740   9.292  79.257  1.00  0.00     0.087 C 
ENDBRANCH  11  12
ENDBRANCH  10  11
ENDBRANCH   2  10
TORSDOF 6
ENDMDL
