MODEL 1
REMARK VINA RESULT:    -6.742      0.000      0.000
REMARK INTER + INTRA:         -11.509
REMARK INTER:                 -10.093
REMARK INTRA:                  -1.416
REMARK UNBOUND:                -1.416
REMARK SMILES C=C(CC[C@H](C(=O)[O-])[C@@H]1[C@H](O)C[C@]2(C)C3=C(CC[C@]12C)[C@@]1(C)CC[C@H](OC(C)=O)C(C)(C)[C@H]1CC3)C(C)C
REMARK SMILES IDX 4 1 5 2 6 3 7 4 8 5 9 6 10 7 19 8 12 9 13 10 18 11 20 12
REMARK SMILES IDX 14 13 15 14 17 15 16 16 35 17 21 18 34 19 33 20 23 21 22 22
REMARK SMILES IDX 30 23 24 24 25 25 31 26 32 27 11 28 26 30 27 31 29 32 28 33
REMARK SMILES IDX 3 34 2 35 1 36 36 37 37 38 38 39
REMARK H PARENT 11 29
REMARK Flexibility Score: inf
ROOT
ATOM      1  C   UNL     1     148.627 163.979 167.522  1.00  0.00     0.014 C 
ENDROOT
BRANCH   1   2
ATOM      2  C   UNL     1     149.711 164.451 166.511  1.00  0.00     0.042 C 
BRANCH   2   3
ATOM      3  C   UNL     1     149.103 164.931 165.206  1.00  0.00     0.045 C 
ATOM      4  O   UNL     1     149.366 166.074 164.753  1.00  0.00    -0.550 OA
ATOM      5  O   UNL     1     148.132 164.156 164.572  1.00  0.00    -0.550 OA
ENDBRANCH   2   3
BRANCH   2   6
ATOM      6  C   UNL     1     150.913 163.479 166.191  1.00  0.00     0.033 C 
ATOM      7  C   UNL     1     150.597 162.201 165.397  1.00  0.00     0.119 C 
ATOM      8  C   UNL     1     151.979 163.051 167.257  1.00  0.00    -0.017 C 
ATOM      9  C   UNL     1     151.835 161.294 165.546  1.00  0.00     0.043 C 
ATOM     10  C   UNL     1     152.869 162.022 166.449  1.00  0.00    -0.003 C 
ATOM     11  C   UNL     1     151.316 162.326 168.457  1.00  0.00     0.012 C 
ATOM     12  C   UNL     1     152.766 164.284 167.776  1.00  0.00     0.013 C 
ATOM     13  C   UNL     1     153.897 162.767 165.531  1.00  0.00     0.017 C 
ATOM     14  C   UNL     1     153.618 160.964 167.315  1.00  0.00    -0.064 C 
ATOM     15  C   UNL     1     152.304 161.572 169.342  1.00  0.00     0.032 C 
ATOM     16  C   UNL     1     153.242 160.648 168.593  1.00  0.00    -0.064 C 
ATOM     17  C   UNL     1     154.774 160.168 166.730  1.00  0.00     0.032 C 
ATOM     18  C   UNL     1     153.848 159.373 169.292  1.00  0.00    -0.008 C 
ATOM     19  C   UNL     1     155.872 160.090 167.781  1.00  0.00     0.009 C 
ATOM     20  C   UNL     1     155.430 159.254 169.028  1.00  0.00     0.009 C 
ATOM     21  C   UNL     1     153.047 158.163 168.710  1.00  0.00     0.015 C 
ATOM     22  C   UNL     1     153.596 159.432 170.832  1.00  0.00     0.016 C 
ATOM     23  C   UNL     1     156.055 157.773 169.109  1.00  0.00     0.005 C 
ATOM     24  C   UNL     1     153.684 156.799 168.942  1.00  0.00     0.047 C 
ATOM     25  C   UNL     1     155.119 156.744 168.407  1.00  0.00     0.182 C 
ATOM     26  C   UNL     1     157.467 157.696 168.440  1.00  0.00     0.015 C 
ATOM     27  C   UNL     1     156.299 157.349 170.593  1.00  0.00     0.015 C 
BRANCH   7  28
ATOM     28  O   UNL     1     149.464 161.554 165.905  1.00  0.00    -0.393 OA
ATOM     29  H   UNL     1     148.739 161.660 165.228  1.00  0.00     0.210 HD
ENDBRANCH   7  28
BRANCH  25  30
ATOM     30  O   UNL     1     155.606 155.408 168.586  1.00  0.00    -0.462 OA
BRANCH  30  31
ATOM     31  C   UNL     1     155.739 154.476 167.545  1.00  0.00     0.302 C 
ATOM     32  O   UNL     1     154.727 154.043 166.929  1.00  0.00    -0.253 OA
ATOM     33  C   UNL     1     157.101 154.045 167.124  1.00  0.00     0.139 C 
ENDBRANCH  30  31
ENDBRANCH  25  30
ENDBRANCH   2   6
ENDBRANCH   1   2
BRANCH   1  34
ATOM     34  C   UNL     1     148.424 164.936 168.719  1.00  0.00     0.031 C 
BRANCH  34  35
ATOM     35  C   UNL     1     147.900 164.213 169.951  1.00  0.00    -0.075 C 
ATOM     36  C   UNL     1     147.466 164.928 171.005  1.00  0.00     0.008 C 
BRANCH  35  37
ATOM     37  C   UNL     1     147.948 162.693 170.038  1.00  0.00     0.008 C 
ATOM     38  C   UNL     1     148.864 162.218 171.177  1.00  0.00     0.012 C 
ATOM     39  C   UNL     1     146.533 162.117 170.188  1.00  0.00     0.012 C 
ENDBRANCH  35  37
ENDBRANCH  34  35
ENDBRANCH   1  34
TORSDOF 9
ENDMDL
MODEL 2
REMARK VINA RESULT:    -6.521      2.465      9.173
REMARK INTER + INTRA:         -11.177
REMARK INTER:                 -10.513
REMARK INTRA:                  -0.664
REMARK UNBOUND:                -1.416
REMARK SMILES C=C(CC[C@H](C(=O)[O-])[C@@H]1[C@H](O)C[C@]2(C)C3=C(CC[C@]12C)[C@@]1(C)CC[C@H](OC(C)=O)C(C)(C)[C@H]1CC3)C(C)C
REMARK SMILES IDX 4 1 5 2 6 3 7 4 8 5 9 6 10 7 19 8 12 9 13 10 18 11 20 12
REMARK SMILES IDX 14 13 15 14 17 15 16 16 35 17 21 18 34 19 33 20 23 21 22 22
REMARK SMILES IDX 30 23 24 24 25 25 31 26 32 27 11 28 26 30 27 31 29 32 28 33
REMARK SMILES IDX 3 34 2 35 1 36 36 37 37 38 38 39
REMARK H PARENT 11 29
REMARK Flexibility Score: inf
ROOT
ATOM      1  C   UNL     1     153.371 155.144 168.090  1.00  0.00     0.014 C 
ENDROOT
BRANCH   1   2
ATOM      2  C   UNL     1     154.491 156.213 167.939  1.00  0.00     0.042 C 
BRANCH   2   3
ATOM      3  C   UNL     1     155.808 155.747 168.530  1.00  0.00     0.045 C 
ATOM      4  O   UNL     1     156.219 154.574 168.347  1.00  0.00    -0.550 OA
ATOM      5  O   UNL     1     156.504 156.583 169.405  1.00  0.00    -0.550 OA
ENDBRANCH   2   3
BRANCH   2   6
ATOM      6  C   UNL     1     154.196 157.683 168.435  1.00  0.00     0.033 C 
ATOM      7  C   UNL     1     153.172 157.855 169.567  1.00  0.00     0.119 C 
ATOM      8  C   UNL     1     153.943 158.884 167.461  1.00  0.00    -0.017 C 
ATOM      9  C   UNL     1     152.818 159.356 169.593  1.00  0.00     0.043 C 
ATOM     10  C   UNL     1     153.612 160.064 168.460  1.00  0.00    -0.003 C 
ATOM     11  C   UNL     1     152.715 158.621 166.551  1.00  0.00     0.012 C 
ATOM     12  C   UNL     1     155.189 159.149 166.573  1.00  0.00     0.013 C 
ATOM     13  C   UNL     1     154.921 160.669 169.070  1.00  0.00     0.017 C 
ATOM     14  C   UNL     1     152.736 161.212 167.871  1.00  0.00    -0.064 C 
ATOM     15  C   UNL     1     152.194 159.870 165.844  1.00  0.00     0.032 C 
ATOM     16  C   UNL     1     151.958 161.056 166.756  1.00  0.00    -0.064 C 
ATOM     17  C   UNL     1     152.651 162.557 168.576  1.00  0.00     0.032 C 
ATOM     18  C   UNL     1     150.882 162.149 166.395  1.00  0.00    -0.008 C 
ATOM     19  C   UNL     1     152.721 163.649 167.518  1.00  0.00     0.009 C 
ATOM     20  C   UNL     1     151.469 163.635 166.580  1.00  0.00     0.009 C 
ATOM     21  C   UNL     1     149.668 161.860 167.337  1.00  0.00     0.015 C 
ATOM     22  C   UNL     1     150.409 161.973 164.918  1.00  0.00     0.016 C 
ATOM     23  C   UNL     1     150.391 164.795 166.868  1.00  0.00     0.005 C 
ATOM     24  C   UNL     1     148.655 162.993 167.448  1.00  0.00     0.047 C 
ATOM     25  C   UNL     1     149.317 164.305 167.883  1.00  0.00     0.182 C 
ATOM     26  C   UNL     1     151.061 166.087 167.439  1.00  0.00     0.015 C 
ATOM     27  C   UNL     1     149.703 165.261 165.544  1.00  0.00     0.015 C 
BRANCH   7  28
ATOM     28  O   UNL     1     152.019 157.095 169.330  1.00  0.00    -0.393 OA
ATOM     29  H   UNL     1     151.753 156.690 170.202  1.00  0.00     0.210 HD
ENDBRANCH   7  28
BRANCH  25  30
ATOM     30  O   UNL     1     148.285 165.286 168.046  1.00  0.00    -0.462 OA
BRANCH  30  31
ATOM     31  C   UNL     1     147.899 165.819 169.286  1.00  0.00     0.302 C 
ATOM     32  O   UNL     1     147.750 167.062 169.440  1.00  0.00    -0.253 OA
ATOM     33  C   UNL     1     147.600 164.894 170.414  1.00  0.00     0.139 C 
ENDBRANCH  30  31
ENDBRANCH  25  30
ENDBRANCH   2   6
ENDBRANCH   1   2
BRANCH   1  34
ATOM     34  C   UNL     1     152.548 154.911 166.801  1.00  0.00     0.031 C 
BRANCH  34  35
ATOM     35  C   UNL     1     152.030 153.484 166.701  1.00  0.00    -0.075 C 
ATOM     36  C   UNL     1     152.900 152.474 166.517  1.00  0.00     0.008 C 
BRANCH  35  37
ATOM     37  C   UNL     1     150.534 153.198 166.714  1.00  0.00     0.008 C 
ATOM     38  C   UNL     1     150.244 151.692 166.817  1.00  0.00     0.012 C 
ATOM     39  C   UNL     1     149.846 153.974 167.845  1.00  0.00     0.012 C 
ENDBRANCH  35  37
ENDBRANCH  34  35
ENDBRANCH   1  34
TORSDOF 9
ENDMDL
MODEL 3
REMARK VINA RESULT:    -6.506      2.002      9.536
REMARK INTER + INTRA:         -11.154
REMARK INTER:                 -10.090
REMARK INTRA:                  -1.064
REMARK UNBOUND:                -1.416
REMARK SMILES C=C(CC[C@H](C(=O)[O-])[C@@H]1[C@H](O)C[C@]2(C)C3=C(CC[C@]12C)[C@@]1(C)CC[C@H](OC(C)=O)C(C)(C)[C@H]1CC3)C(C)C
REMARK SMILES IDX 4 1 5 2 6 3 7 4 8 5 9 6 10 7 19 8 12 9 13 10 18 11 20 12
REMARK SMILES IDX 14 13 15 14 17 15 16 16 35 17 21 18 34 19 33 20 23 21 22 22
REMARK SMILES IDX 30 23 24 24 25 25 31 26 32 27 11 28 26 30 27 31 29 32 28 33
REMARK SMILES IDX 3 34 2 35 1 36 36 37 37 38 38 39
REMARK H PARENT 11 29
REMARK Flexibility Score: inf
ROOT
ATOM      1  C   UNL     1     153.258 155.777 166.999  1.00  0.00     0.014 C 
ENDROOT
BRANCH   1   2
ATOM      2  C   UNL     1     154.397 156.513 167.763  1.00  0.00     0.042 C 
BRANCH   2   3
ATOM      3  C   UNL     1     154.913 155.703 168.937  1.00  0.00     0.045 C 
ATOM      4  O   UNL     1     154.119 155.190 169.766  1.00  0.00    -0.550 OA
ATOM      5  O   UNL     1     156.285 155.644 169.183  1.00  0.00    -0.550 OA
ENDBRANCH   2   3
BRANCH   2   6
ATOM      6  C   UNL     1     154.146 157.998 168.233  1.00  0.00     0.033 C 
ATOM      7  C   UNL     1     153.203 158.212 169.429  1.00  0.00     0.119 C 
ATOM      8  C   UNL     1     153.831 159.173 167.244  1.00  0.00    -0.017 C 
ATOM      9  C   UNL     1     152.861 159.716 169.434  1.00  0.00     0.043 C 
ATOM     10  C   UNL     1     153.577 160.384 168.228  1.00  0.00    -0.003 C 
ATOM     11  C   UNL     1     152.541 158.892 166.430  1.00  0.00     0.012 C 
ATOM     12  C   UNL     1     155.014 159.402 166.265  1.00  0.00     0.013 C 
ATOM     13  C   UNL     1     154.930 160.997 168.728  1.00  0.00     0.017 C 
ATOM     14  C   UNL     1     152.669 161.521 167.668  1.00  0.00    -0.064 C 
ATOM     15  C   UNL     1     151.980 160.124 165.725  1.00  0.00     0.032 C 
ATOM     16  C   UNL     1     151.814 161.338 166.615  1.00  0.00    -0.064 C 
ATOM     17  C   UNL     1     152.642 162.887 168.337  1.00  0.00     0.032 C 
ATOM     18  C   UNL     1     150.722 162.428 166.297  1.00  0.00    -0.008 C 
ATOM     19  C   UNL     1     152.644 163.946 167.245  1.00  0.00     0.009 C 
ATOM     20  C   UNL     1     151.329 163.914 166.396  1.00  0.00     0.009 C 
ATOM     21  C   UNL     1     149.575 162.176 167.330  1.00  0.00     0.015 C 
ATOM     22  C   UNL     1     150.146 162.212 164.863  1.00  0.00     0.016 C 
ATOM     23  C   UNL     1     150.280 165.090 166.724  1.00  0.00     0.005 C 
ATOM     24  C   UNL     1     148.579 163.319 167.477  1.00  0.00     0.047 C 
ATOM     25  C   UNL     1     149.277 164.638 167.826  1.00  0.00     0.182 C 
ATOM     26  C   UNL     1     150.996 166.394 167.209  1.00  0.00     0.015 C 
ATOM     27  C   UNL     1     149.504 165.523 165.438  1.00  0.00     0.015 C 
BRANCH   7  28
ATOM     28  O   UNL     1     152.033 157.454 169.296  1.00  0.00    -0.393 OA
ATOM     29  H   UNL     1     151.272 158.044 169.557  1.00  0.00     0.210 HD
ENDBRANCH   7  28
BRANCH  25  30
ATOM     30  O   UNL     1     148.264 165.632 168.031  1.00  0.00    -0.462 OA
BRANCH  30  31
ATOM     31  C   UNL     1     147.914 166.146 169.289  1.00  0.00     0.302 C 
ATOM     32  O   UNL     1     147.843 167.390 169.485  1.00  0.00    -0.253 OA
ATOM     33  C   UNL     1     147.561 165.204 170.387  1.00  0.00     0.139 C 
ENDBRANCH  30  31
ENDBRANCH  25  30
ENDBRANCH   2   6
ENDBRANCH   1   2
BRANCH   1  34
ATOM     34  C   UNL     1     153.757 154.866 165.853  1.00  0.00     0.031 C 
BRANCH  34  35
ATOM     35  C   UNL     1     153.987 153.435 166.316  1.00  0.00    -0.075 C 
ATOM     36  C   UNL     1     152.931 152.632 166.541  1.00  0.00     0.008 C 
BRANCH  35  37
ATOM     37  C   UNL     1     155.394 152.933 166.617  1.00  0.00     0.008 C 
ATOM     38  C   UNL     1     155.593 151.485 166.145  1.00  0.00     0.012 C 
ATOM     39  C   UNL     1     156.443 153.867 166.000  1.00  0.00     0.012 C 
ENDBRANCH  35  37
ENDBRANCH  34  35
ENDBRANCH   1  34
TORSDOF 9
ENDMDL
MODEL 4
REMARK VINA RESULT:    -6.397      3.695      5.623
REMARK INTER + INTRA:         -10.991
REMARK INTER:                 -10.664
REMARK INTRA:                  -0.327
REMARK UNBOUND:                -1.416
REMARK SMILES C=C(CC[C@H](C(=O)[O-])[C@@H]1[C@H](O)C[C@]2(C)C3=C(CC[C@]12C)[C@@]1(C)CC[C@H](OC(C)=O)C(C)(C)[C@H]1CC3)C(C)C
REMARK SMILES IDX 4 1 5 2 6 3 7 4 8 5 9 6 10 7 19 8 12 9 13 10 18 11 20 12
REMARK SMILES IDX 14 13 15 14 17 15 16 16 35 17 21 18 34 19 33 20 23 21 22 22
REMARK SMILES IDX 30 23 24 24 25 25 31 26 32 27 11 28 26 30 27 31 29 32 28 33
REMARK SMILES IDX 3 34 2 35 1 36 36 37 37 38 38 39
REMARK H PARENT 11 29
REMARK Flexibility Score: inf
ROOT
ATOM      1  C   UNL     1     150.216 161.369 172.737  1.00  0.00     0.014 C 
ENDROOT
BRANCH   1   2
ATOM      2  C   UNL     1     150.808 161.113 171.322  1.00  0.00     0.042 C 
BRANCH   2   3
ATOM      3  C   UNL     1     149.735 160.755 170.311  1.00  0.00     0.045 C 
ATOM      4  O   UNL     1     149.655 161.358 169.211  1.00  0.00    -0.550 OA
ATOM      5  O   UNL     1     148.736 159.845 170.661  1.00  0.00    -0.550 OA
ENDBRANCH   2   3
BRANCH   2   6
ATOM      6  C   UNL     1     152.006 160.095 171.182  1.00  0.00     0.033 C 
ATOM      7  C   UNL     1     153.006 160.016 172.347  1.00  0.00     0.119 C 
ATOM      8  C   UNL     1     152.871 159.958 169.883  1.00  0.00    -0.017 C 
ATOM      9  C   UNL     1     154.227 159.246 171.803  1.00  0.00     0.043 C 
ATOM     10  C   UNL     1     153.960 158.895 170.313  1.00  0.00    -0.003 C 
ATOM     11  C   UNL     1     153.571 161.296 169.530  1.00  0.00     0.012 C 
ATOM     12  C   UNL     1     151.998 159.505 168.682  1.00  0.00     0.013 C 
ATOM     13  C   UNL     1     153.386 157.439 170.238  1.00  0.00     0.017 C 
ATOM     14  C   UNL     1     155.306 158.962 169.529  1.00  0.00    -0.064 C 
ATOM     15  C   UNL     1     154.696 161.151 168.509  1.00  0.00     0.032 C 
ATOM     16  C   UNL     1     155.707 160.073 168.836  1.00  0.00    -0.064 C 
ATOM     17  C   UNL     1     156.282 157.797 169.570  1.00  0.00     0.032 C 
ATOM     18  C   UNL     1     157.194 160.178 168.324  1.00  0.00    -0.008 C 
ATOM     19  C   UNL     1     156.822 157.584 168.163  1.00  0.00     0.009 C 
ATOM     20  C   UNL     1     157.694 158.791 167.683  1.00  0.00     0.009 C 
ATOM     21  C   UNL     1     158.032 160.600 169.575  1.00  0.00     0.015 C 
ATOM     22  C   UNL     1     157.315 161.304 167.250  1.00  0.00     0.016 C 
ATOM     23  C   UNL     1     159.282 158.531 167.701  1.00  0.00     0.005 C 
ATOM     24  C   UNL     1     159.537 160.408 169.435  1.00  0.00     0.047 C 
ATOM     25  C   UNL     1     159.893 158.964 169.067  1.00  0.00     0.182 C 
ATOM     26  C   UNL     1     159.632 157.026 167.456  1.00  0.00     0.015 C 
ATOM     27  C   UNL     1     159.988 159.293 166.533  1.00  0.00     0.015 C 
BRANCH   7  28
ATOM     28  O   UNL     1     153.394 161.293 172.771  1.00  0.00    -0.393 OA
ATOM     29  H   UNL     1     153.026 161.419 173.689  1.00  0.00     0.210 HD
ENDBRANCH   7  28
BRANCH  25  30
ATOM     30  O   UNL     1     161.322 158.854 169.043  1.00  0.00    -0.462 OA
BRANCH  30  31
ATOM     31  C   UNL     1     162.084 158.324 170.096  1.00  0.00     0.302 C 
ATOM     32  O   UNL     1     161.791 158.569 171.298  1.00  0.00    -0.253 OA
ATOM     33  C   UNL     1     163.217 157.407 169.784  1.00  0.00     0.139 C 
ENDBRANCH  30  31
ENDBRANCH  25  30
ENDBRANCH   2   6
ENDBRANCH   1   2
BRANCH   1  34
ATOM     34  C   UNL     1     149.519 162.741 172.889  1.00  0.00     0.031 C 
BRANCH  34  35
ATOM     35  C   UNL     1     148.234 162.646 173.698  1.00  0.00    -0.075 C 
ATOM     36  C   UNL     1     147.410 161.598 173.514  1.00  0.00     0.008 C 
BRANCH  35  37
ATOM     37  C   UNL     1     147.826 163.769 174.643  1.00  0.00     0.008 C 
ATOM     38  C   UNL     1     146.566 163.407 175.444  1.00  0.00     0.012 C 
ATOM     39  C   UNL     1     148.989 164.139 175.574  1.00  0.00     0.012 C 
ENDBRANCH  35  37
ENDBRANCH  34  35
ENDBRANCH   1  34
TORSDOF 9
ENDMDL
MODEL 5
REMARK VINA RESULT:    -6.214      3.272      5.241
REMARK INTER + INTRA:         -10.718
REMARK INTER:                  -9.370
REMARK INTRA:                  -1.348
REMARK UNBOUND:                -1.416
REMARK SMILES C=C(CC[C@H](C(=O)[O-])[C@@H]1[C@H](O)C[C@]2(C)C3=C(CC[C@]12C)[C@@]1(C)CC[C@H](OC(C)=O)C(C)(C)[C@H]1CC3)C(C)C
REMARK SMILES IDX 4 1 5 2 6 3 7 4 8 5 9 6 10 7 19 8 12 9 13 10 18 11 20 12
REMARK SMILES IDX 14 13 15 14 17 15 16 16 35 17 21 18 34 19 33 20 23 21 22 22
REMARK SMILES IDX 30 23 24 24 25 25 31 26 32 27 11 28 26 30 27 31 29 32 28 33
REMARK SMILES IDX 3 34 2 35 1 36 36 37 37 38 38 39
REMARK H PARENT 11 29
REMARK Flexibility Score: inf
ROOT
ATOM      1  C   UNL     1     149.977 162.667 169.168  1.00  0.00     0.014 C 
ENDROOT
BRANCH   1   2
ATOM      2  C   UNL     1     149.794 161.150 169.456  1.00  0.00     0.042 C 
BRANCH   2   3
ATOM      3  C   UNL     1     148.986 160.901 170.715  1.00  0.00     0.045 C 
ATOM      4  O   UNL     1     148.147 159.965 170.770  1.00  0.00    -0.550 OA
ATOM      5  O   UNL     1     149.067 161.804 171.776  1.00  0.00    -0.550 OA
ENDBRANCH   2   3
BRANCH   2   6
ATOM      6  C   UNL     1     151.079 160.232 169.481  1.00  0.00     0.033 C 
ATOM      7  C   UNL     1     151.765 160.012 170.838  1.00  0.00     0.119 C 
ATOM      8  C   UNL     1     152.246 160.358 168.442  1.00  0.00    -0.017 C 
ATOM      9  C   UNL     1     153.148 159.407 170.520  1.00  0.00     0.043 C 
ATOM     10  C   UNL     1     153.289 159.296 168.976  1.00  0.00    -0.003 C 
ATOM     11  C   UNL     1     152.884 161.771 168.483  1.00  0.00     0.012 C 
ATOM     12  C   UNL     1     151.739 160.067 167.004  1.00  0.00     0.013 C 
ATOM     13  C   UNL     1     152.887 157.845 168.542  1.00  0.00     0.017 C 
ATOM     14  C   UNL     1     154.774 159.562 168.584  1.00  0.00    -0.064 C 
ATOM     15  C   UNL     1     154.234 161.856 167.775  1.00  0.00     0.032 C 
ATOM     16  C   UNL     1     155.229 160.792 168.189  1.00  0.00    -0.064 C 
ATOM     17  C   UNL     1     155.813 158.459 168.701  1.00  0.00     0.032 C 
ATOM     18  C   UNL     1     156.779 161.058 168.098  1.00  0.00    -0.008 C 
ATOM     19  C   UNL     1     156.699 158.511 167.465  1.00  0.00     0.009 C 
ATOM     20  C   UNL     1     157.548 159.824 167.409  1.00  0.00     0.009 C 
ATOM     21  C   UNL     1     157.242 161.309 169.570  1.00  0.00     0.015 C 
ATOM     22  C   UNL     1     157.056 162.352 167.270  1.00  0.00     0.016 C 
ATOM     23  C   UNL     1     159.100 159.648 167.797  1.00  0.00     0.005 C 
ATOM     24  C   UNL     1     158.746 161.221 169.796  1.00  0.00     0.047 C 
ATOM     25  C   UNL     1     159.313 159.878 169.322  1.00  0.00     0.182 C 
ATOM     26  C   UNL     1     159.636 158.224 167.430  1.00  0.00     0.015 C 
ATOM     27  C   UNL     1     159.997 160.629 166.975  1.00  0.00     0.015 C 
BRANCH   7  28
ATOM     28  O   UNL     1     151.918 161.219 171.532  1.00  0.00    -0.393 OA
ATOM     29  H   UNL     1     152.643 161.080 172.204  1.00  0.00     0.210 HD
ENDBRANCH   7  28
BRANCH  25  30
ATOM     30  O   UNL     1     160.708 159.848 169.651  1.00  0.00    -0.462 OA
BRANCH  30  31
ATOM     31  C   UNL     1     161.287 158.914 170.524  1.00  0.00     0.302 C 
ATOM     32  O   UNL     1     160.722 158.601 171.607  1.00  0.00    -0.253 OA
ATOM     33  C   UNL     1     162.556 158.240 170.131  1.00  0.00     0.139 C 
ENDBRANCH  30  31
ENDBRANCH  25  30
ENDBRANCH   2   6
ENDBRANCH   1   2
BRANCH   1  34
ATOM     34  C   UNL     1     149.428 163.117 167.794  1.00  0.00     0.031 C 
BRANCH  34  35
ATOM     35  C   UNL     1     149.809 164.552 167.464  1.00  0.00    -0.075 C 
ATOM     36  C   UNL     1     149.006 165.558 167.856  1.00  0.00     0.008 C 
BRANCH  35  37
ATOM     37  C   UNL     1     151.039 164.854 166.617  1.00  0.00     0.008 C 
ATOM     38  C   UNL     1     150.737 165.896 165.530  1.00  0.00     0.012 C 
ATOM     39  C   UNL     1     152.208 165.301 167.505  1.00  0.00     0.012 C 
ENDBRANCH  35  37
ENDBRANCH  34  35
ENDBRANCH   1  34
TORSDOF 9
ENDMDL
MODEL 6
REMARK VINA RESULT:    -6.156      5.083      8.602
REMARK INTER + INTRA:         -10.631
REMARK INTER:                  -9.428
REMARK INTRA:                  -1.204
REMARK UNBOUND:                -1.416
REMARK SMILES C=C(CC[C@H](C(=O)[O-])[C@@H]1[C@H](O)C[C@]2(C)C3=C(CC[C@]12C)[C@@]1(C)CC[C@H](OC(C)=O)C(C)(C)[C@H]1CC3)C(C)C
REMARK SMILES IDX 4 1 5 2 6 3 7 4 8 5 9 6 10 7 19 8 12 9 13 10 18 11 20 12
REMARK SMILES IDX 14 13 15 14 17 15 16 16 35 17 21 18 34 19 33 20 23 21 22 22
REMARK SMILES IDX 30 23 24 24 25 25 31 26 32 27 11 28 26 30 27 31 29 32 28 33
REMARK SMILES IDX 3 34 2 35 1 36 36 37 37 38 38 39
REMARK H PARENT 11 29
REMARK Flexibility Score: inf
ROOT
ATOM      1  C   UNL     1     155.444 165.769 166.733  1.00  0.00     0.014 C 
ENDROOT
BRANCH   1   2
ATOM      2  C   UNL     1     154.397 166.345 165.737  1.00  0.00     0.042 C 
BRANCH   2   3
ATOM      3  C   UNL     1     154.555 167.841 165.544  1.00  0.00     0.045 C 
ATOM      4  O   UNL     1     154.266 168.385 164.449  1.00  0.00    -0.550 OA
ATOM      5  O   UNL     1     155.163 168.604 166.543  1.00  0.00    -0.550 OA
ENDBRANCH   2   3
BRANCH   2   6
ATOM      6  C   UNL     1     152.872 166.016 165.980  1.00  0.00     0.033 C 
ATOM      7  C   UNL     1     152.064 167.004 166.837  1.00  0.00     0.119 C 
ATOM      8  C   UNL     1     152.353 164.595 166.386  1.00  0.00    -0.017 C 
ATOM      9  C   UNL     1     150.756 166.273 167.204  1.00  0.00     0.043 C 
ATOM     10  C   UNL     1     150.805 164.847 166.589  1.00  0.00    -0.003 C 
ATOM     11  C   UNL     1     152.978 164.129 167.727  1.00  0.00     0.012 C 
ATOM     12  C   UNL     1     152.675 163.552 165.282  1.00  0.00     0.013 C 
ATOM     13  C   UNL     1     150.053 164.870 165.215  1.00  0.00     0.017 C 
ATOM     14  C   UNL     1     150.088 163.855 167.556  1.00  0.00    -0.064 C 
ATOM     15  C   UNL     1     152.260 162.940 168.360  1.00  0.00     0.032 C 
ATOM     16  C   UNL     1     150.760 163.103 168.482  1.00  0.00    -0.064 C 
ATOM     17  C   UNL     1     148.571 163.741 167.559  1.00  0.00     0.032 C 
ATOM     18  C   UNL     1     149.956 162.357 169.613  1.00  0.00    -0.008 C 
ATOM     19  C   UNL     1     148.209 162.266 167.655  1.00  0.00     0.009 C 
ATOM     20  C   UNL     1     148.637 161.647 169.027  1.00  0.00     0.009 C 
ATOM     21  C   UNL     1     149.627 163.455 170.677  1.00  0.00     0.015 C 
ATOM     22  C   UNL     1     150.855 161.274 170.288  1.00  0.00     0.016 C 
ATOM     23  C   UNL     1     147.435 161.410 170.070  1.00  0.00     0.005 C 
ATOM     24  C   UNL     1     148.545 163.074 171.680  1.00  0.00     0.047 C 
ATOM     25  C   UNL     1     147.246 162.657 170.982  1.00  0.00     0.182 C 
ATOM     26  C   UNL     1     146.081 161.116 169.344  1.00  0.00     0.015 C 
ATOM     27  C   UNL     1     147.695 160.141 170.945  1.00  0.00     0.015 C 
BRANCH   7  28
ATOM     28  O   UNL     1     152.760 167.356 168.000  1.00  0.00    -0.393 OA
ATOM     29  H   UNL     1     153.635 166.880 167.971  1.00  0.00     0.210 HD
ENDBRANCH   7  28
BRANCH  25  30
ATOM     30  O   UNL     1     146.264 162.404 171.995  1.00  0.00    -0.462 OA
BRANCH  30  31
ATOM     31  C   UNL     1     145.956 163.300 173.031  1.00  0.00     0.302 C 
ATOM     32  O   UNL     1     145.542 164.464 172.780  1.00  0.00    -0.253 OA
ATOM     33  C   UNL     1     146.062 162.842 174.444  1.00  0.00     0.139 C 
ENDBRANCH  30  31
ENDBRANCH  25  30
ENDBRANCH   2   6
ENDBRANCH   1   2
BRANCH   1  34
ATOM     34  C   UNL     1     156.716 165.210 166.054  1.00  0.00     0.031 C 
BRANCH  34  35
ATOM     35  C   UNL     1     157.984 165.859 166.587  1.00  0.00    -0.075 C 
ATOM     36  C   UNL     1     158.439 165.524 167.809  1.00  0.00     0.008 C 
BRANCH  35  37
ATOM     37  C   UNL     1     158.691 166.949 165.793  1.00  0.00     0.008 C 
ATOM     38  C   UNL     1     158.059 167.144 164.406  1.00  0.00     0.012 C 
ATOM     39  C   UNL     1     158.711 168.264 166.583  1.00  0.00     0.012 C 
ENDBRANCH  35  37
ENDBRANCH  34  35
ENDBRANCH   1  34
TORSDOF 9
ENDMDL
MODEL 7
REMARK VINA RESULT:    -6.011      1.921      3.514
REMARK INTER + INTRA:         -10.414
REMARK INTER:                  -9.680
REMARK INTRA:                  -0.735
REMARK UNBOUND:                -1.416
REMARK SMILES C=C(CC[C@H](C(=O)[O-])[C@@H]1[C@H](O)C[C@]2(C)C3=C(CC[C@]12C)[C@@]1(C)CC[C@H](OC(C)=O)C(C)(C)[C@H]1CC3)C(C)C
REMARK SMILES IDX 4 1 5 2 6 3 7 4 8 5 9 6 10 7 19 8 12 9 13 10 18 11 20 12
REMARK SMILES IDX 14 13 15 14 17 15 16 16 35 17 21 18 34 19 33 20 23 21 22 22
REMARK SMILES IDX 30 23 24 24 25 25 31 26 32 27 11 28 26 30 27 31 29 32 28 33
REMARK SMILES IDX 3 34 2 35 1 36 36 37 37 38 38 39
REMARK H PARENT 11 29
REMARK Flexibility Score: inf
ROOT
ATOM      1  C   UNL     1     149.541 166.269 166.114  1.00  0.00     0.014 C 
ENDROOT
BRANCH   1   2
ATOM      2  C   UNL     1     149.268 164.763 166.391  1.00  0.00     0.042 C 
BRANCH   2   3
ATOM      3  C   UNL     1     148.739 164.527 167.793  1.00  0.00     0.045 C 
ATOM      4  O   UNL     1     148.108 163.478 168.078  1.00  0.00    -0.550 OA
ATOM      5  O   UNL     1     148.827 165.546 168.743  1.00  0.00    -0.550 OA
ENDBRANCH   2   3
BRANCH   2   6
ATOM      6  C   UNL     1     150.420 163.725 166.095  1.00  0.00     0.033 C 
ATOM      7  C   UNL     1     150.039 162.440 165.343  1.00  0.00     0.119 C 
ATOM      8  C   UNL     1     151.472 163.280 167.168  1.00  0.00    -0.017 C 
ATOM      9  C   UNL     1     151.234 161.480 165.514  1.00  0.00     0.043 C 
ATOM     10  C   UNL     1     152.307 162.186 166.388  1.00  0.00    -0.003 C 
ATOM     11  C   UNL     1     150.784 162.625 168.394  1.00  0.00     0.012 C 
ATOM     12  C   UNL     1     152.321 164.489 167.645  1.00  0.00     0.013 C 
ATOM     13  C   UNL     1     153.363 162.852 165.442  1.00  0.00     0.017 C 
ATOM     14  C   UNL     1     153.011 161.120 167.282  1.00  0.00    -0.064 C 
ATOM     15  C   UNL     1     151.742 161.852 169.296  1.00  0.00     0.032 C 
ATOM     16  C   UNL     1     152.629 160.862 168.572  1.00  0.00    -0.064 C 
ATOM     17  C   UNL     1     154.124 160.252 166.717  1.00  0.00     0.032 C 
ATOM     18  C   UNL     1     153.179 159.582 169.307  1.00  0.00    -0.008 C 
ATOM     19  C   UNL     1     155.224 160.155 167.763  1.00  0.00     0.009 C 
ATOM     20  C   UNL     1     154.751 159.379 169.038  1.00  0.00     0.009 C 
ATOM     21  C   UNL     1     152.317 158.394 168.767  1.00  0.00     0.015 C 
ATOM     22  C   UNL     1     152.941 159.700 170.845  1.00  0.00     0.016 C 
ATOM     23  C   UNL     1     155.305 157.873 169.162  1.00  0.00     0.005 C 
ATOM     24  C   UNL     1     152.890 157.008 169.038  1.00  0.00     0.047 C 
ATOM     25  C   UNL     1     154.318 156.870 168.497  1.00  0.00     0.182 C 
ATOM     26  C   UNL     1     156.708 157.709 168.488  1.00  0.00     0.015 C 
ATOM     27  C   UNL     1     155.540 157.484 170.657  1.00  0.00     0.015 C 
BRANCH   7  28
ATOM     28  O   UNL     1     148.880 161.863 165.877  1.00  0.00    -0.393 OA
ATOM     29  H   UNL     1     149.170 161.096 166.445  1.00  0.00     0.210 HD
ENDBRANCH   7  28
BRANCH  25  30
ATOM     30  O   UNL     1     154.742 155.518 168.715  1.00  0.00    -0.462 OA
BRANCH  30  31
ATOM     31  C   UNL     1     154.988 154.598 167.685  1.00  0.00     0.302 C 
ATOM     32  O   UNL     1     154.106 154.339 166.821  1.00  0.00    -0.253 OA
ATOM     33  C   UNL     1     156.334 153.968 167.577  1.00  0.00     0.139 C 
ENDBRANCH  30  31
ENDBRANCH  25  30
ENDBRANCH   2   6
ENDBRANCH   1   2
BRANCH   1  34
ATOM     34  C   UNL     1     150.562 166.525 164.981  1.00  0.00     0.031 C 
BRANCH  34  35
ATOM     35  C   UNL     1     151.368 167.794 165.209  1.00  0.00    -0.075 C 
ATOM     36  C   UNL     1     150.783 168.993 165.029  1.00  0.00     0.008 C 
BRANCH  35  37
ATOM     37  C   UNL     1     152.852 167.723 165.547  1.00  0.00     0.008 C 
ATOM     38  C   UNL     1     153.496 166.437 165.008  1.00  0.00     0.012 C 
ATOM     39  C   UNL     1     153.583 168.969 165.031  1.00  0.00     0.012 C 
ENDBRANCH  35  37
ENDBRANCH  34  35
ENDBRANCH   1  34
TORSDOF 9
ENDMDL
MODEL 8
REMARK VINA RESULT:    -5.987      3.337      8.222
REMARK INTER + INTRA:         -10.378
REMARK INTER:                  -9.024
REMARK INTRA:                  -1.355
REMARK UNBOUND:                -1.416
REMARK SMILES C=C(CC[C@H](C(=O)[O-])[C@@H]1[C@H](O)C[C@]2(C)C3=C(CC[C@]12C)[C@@]1(C)CC[C@H](OC(C)=O)C(C)(C)[C@H]1CC3)C(C)C
REMARK SMILES IDX 4 1 5 2 6 3 7 4 8 5 9 6 10 7 19 8 12 9 13 10 18 11 20 12
REMARK SMILES IDX 14 13 15 14 17 15 16 16 35 17 21 18 34 19 33 20 23 21 22 22
REMARK SMILES IDX 30 23 24 24 25 25 31 26 32 27 11 28 26 30 27 31 29 32 28 33
REMARK SMILES IDX 3 34 2 35 1 36 36 37 37 38 38 39
REMARK H PARENT 11 29
REMARK Flexibility Score: inf
ROOT
ATOM      1  C   UNL     1     153.421 160.789 165.529  1.00  0.00     0.014 C 
ENDROOT
BRANCH   1   2
ATOM      2  C   UNL     1     152.713 162.054 164.964  1.00  0.00     0.042 C 
BRANCH   2   3
ATOM      3  C   UNL     1     153.671 162.956 164.210  1.00  0.00     0.045 C 
ATOM      4  O   UNL     1     154.857 162.600 163.993  1.00  0.00    -0.550 OA
ATOM      5  O   UNL     1     153.278 164.252 163.875  1.00  0.00    -0.550 OA
ENDBRANCH   2   3
BRANCH   2   6
ATOM      6  C   UNL     1     151.849 162.933 165.951  1.00  0.00     0.033 C 
ATOM      7  C   UNL     1     152.603 163.780 166.988  1.00  0.00     0.119 C 
ATOM      8  C   UNL     1     150.582 162.393 166.699  1.00  0.00    -0.017 C 
ATOM      9  C   UNL     1     151.546 164.228 168.018  1.00  0.00     0.043 C 
ATOM     10  C   UNL     1     150.175 163.624 167.604  1.00  0.00    -0.003 C 
ATOM     11  C   UNL     1     150.937 161.184 167.604  1.00  0.00     0.012 C 
ATOM     12  C   UNL     1     149.482 161.970 165.689  1.00  0.00     0.013 C 
ATOM     13  C   UNL     1     149.387 164.695 166.776  1.00  0.00     0.017 C 
ATOM     14  C   UNL     1     149.370 163.269 168.892  1.00  0.00    -0.064 C 
ATOM     15  C   UNL     1     149.853 160.840 168.623  1.00  0.00     0.032 C 
ATOM     16  C   UNL     1     149.365 162.016 169.443  1.00  0.00    -0.064 C 
ATOM     17  C   UNL     1     148.605 164.346 169.645  1.00  0.00     0.032 C 
ATOM     18  C   UNL     1     148.782 161.803 170.891  1.00  0.00    -0.008 C 
ATOM     19  C   UNL     1     147.257 163.769 170.053  1.00  0.00     0.009 C 
ATOM     20  C   UNL     1     147.408 162.613 171.097  1.00  0.00     0.009 C 
ATOM     21  C   UNL     1     149.911 162.275 171.864  1.00  0.00     0.015 C 
ATOM     22  C   UNL     1     148.517 160.286 171.148  1.00  0.00     0.016 C 
ATOM     23  C   UNL     1     147.039 163.012 172.612  1.00  0.00     0.005 C 
ATOM     24  C   UNL     1     149.463 162.519 173.300  1.00  0.00     0.047 C 
ATOM     25  C   UNL     1     148.302 163.516 173.369  1.00  0.00     0.182 C 
ATOM     26  C   UNL     1     145.945 164.129 172.671  1.00  0.00     0.015 C 
ATOM     27  C   UNL     1     146.406 161.801 173.371  1.00  0.00     0.015 C 
BRANCH   7  28
ATOM     28  O   UNL     1     153.604 163.034 167.623  1.00  0.00    -0.393 OA
ATOM     29  H   UNL     1     153.481 163.155 168.605  1.00  0.00     0.210 HD
ENDBRANCH   7  28
BRANCH  25  30
ATOM     30  O   UNL     1     148.006 163.752 174.752  1.00  0.00    -0.462 OA
BRANCH  30  31
ATOM     31  C   UNL     1     148.893 164.367 175.649  1.00  0.00     0.302 C 
ATOM     32  O   UNL     1     149.378 163.729 176.623  1.00  0.00    -0.253 OA
ATOM     33  C   UNL     1     149.313 165.776 175.406  1.00  0.00     0.139 C 
ENDBRANCH  30  31
ENDBRANCH  25  30
ENDBRANCH   2   6
ENDBRANCH   1   2
BRANCH   1  34
ATOM     34  C   UNL     1     152.791 159.455 165.064  1.00  0.00     0.031 C 
BRANCH  34  35
ATOM     35  C   UNL     1     152.986 158.342 166.082  1.00  0.00    -0.075 C 
ATOM     36  C   UNL     1     152.519 157.109 165.813  1.00  0.00     0.008 C 
BRANCH  35  37
ATOM     37  C   UNL     1     153.620 158.630 167.436  1.00  0.00     0.008 C 
ATOM     38  C   UNL     1     152.721 158.170 168.594  1.00  0.00     0.012 C 
ATOM     39  C   UNL     1     155.012 157.990 167.526  1.00  0.00     0.012 C 
ENDBRANCH  35  37
ENDBRANCH  34  35
ENDBRANCH   1  34
TORSDOF 9
ENDMDL
MODEL 9
REMARK VINA RESULT:    -5.805      1.682      2.585
REMARK INTER + INTRA:         -10.105
REMARK INTER:                  -8.748
REMARK INTRA:                  -1.357
REMARK UNBOUND:                -1.416
REMARK SMILES C=C(CC[C@H](C(=O)[O-])[C@@H]1[C@H](O)C[C@]2(C)C3=C(CC[C@]12C)[C@@]1(C)CC[C@H](OC(C)=O)C(C)(C)[C@H]1CC3)C(C)C
REMARK SMILES IDX 4 1 5 2 6 3 7 4 8 5 9 6 10 7 19 8 12 9 13 10 18 11 20 12
REMARK SMILES IDX 14 13 15 14 17 15 16 16 35 17 21 18 34 19 33 20 23 21 22 22
REMARK SMILES IDX 30 23 24 24 25 25 31 26 32 27 11 28 26 30 27 31 29 32 28 33
REMARK SMILES IDX 3 34 2 35 1 36 36 37 37 38 38 39
REMARK H PARENT 11 29
REMARK Flexibility Score: inf
ROOT
ATOM      1  C   UNL     1     150.547 165.557 164.617  1.00  0.00     0.014 C 
ENDROOT
BRANCH   1   2
ATOM      2  C   UNL     1     151.807 165.561 165.529  1.00  0.00     0.042 C 
BRANCH   2   3
ATOM      3  C   UNL     1     152.655 166.802 165.326  1.00  0.00     0.045 C 
ATOM      4  O   UNL     1     152.143 167.949 165.375  1.00  0.00    -0.550 OA
ATOM      5  O   UNL     1     153.989 166.670 164.940  1.00  0.00    -0.550 OA
ENDBRANCH   2   3
BRANCH   2   6
ATOM      6  C   UNL     1     152.745 164.291 165.518  1.00  0.00     0.033 C 
ATOM      7  C   UNL     1     152.408 163.172 164.518  1.00  0.00     0.119 C 
ATOM      8  C   UNL     1     153.212 163.555 166.820  1.00  0.00    -0.017 C 
ATOM      9  C   UNL     1     153.229 161.946 164.965  1.00  0.00     0.043 C 
ATOM     10  C   UNL     1     154.027 162.330 166.241  1.00  0.00    -0.003 C 
ATOM     11  C   UNL     1     152.001 163.028 167.634  1.00  0.00     0.012 C 
ATOM     12  C   UNL     1     154.057 164.500 167.716  1.00  0.00     0.013 C 
ATOM     13  C   UNL     1     155.471 162.765 165.816  1.00  0.00     0.017 C 
ATOM     14  C   UNL     1     154.116 161.085 167.176  1.00  0.00    -0.064 C 
ATOM     15  C   UNL     1     152.377 162.006 168.703  1.00  0.00     0.032 C 
ATOM     16  C   UNL     1     153.242 160.867 168.207  1.00  0.00    -0.064 C 
ATOM     17  C   UNL     1     155.153 160.002 166.922  1.00  0.00     0.032 C 
ATOM     18  C   UNL     1     153.204 159.458 168.913  1.00  0.00    -0.008 C 
ATOM     19  C   UNL     1     155.745 159.592 168.263  1.00  0.00     0.009 C 
ATOM     20  C   UNL     1     154.687 158.895 169.181  1.00  0.00     0.009 C 
ATOM     21  C   UNL     1     152.375 158.540 167.956  1.00  0.00     0.015 C 
ATOM     22  C   UNL     1     152.448 159.558 170.274  1.00  0.00     0.016 C 
ATOM     23  C   UNL     1     154.831 157.296 169.290  1.00  0.00     0.005 C 
ATOM     24  C   UNL     1     152.507 157.046 168.225  1.00  0.00     0.047 C 
ATOM     25  C   UNL     1     153.971 156.592 168.199  1.00  0.00     0.182 C 
ATOM     26  C   UNL     1     156.315 156.830 169.129  1.00  0.00     0.015 C 
ATOM     27  C   UNL     1     154.412 156.792 170.709  1.00  0.00     0.015 C 
BRANCH   7  28
ATOM     28  O   UNL     1     151.042 162.868 164.537  1.00  0.00    -0.393 OA
ATOM     29  H   UNL     1     150.737 162.953 165.483  1.00  0.00     0.210 HD
ENDBRANCH   7  28
BRANCH  25  30
ATOM     30  O   UNL     1     153.994 155.170 168.371  1.00  0.00    -0.462 OA
BRANCH  30  31
ATOM     31  C   UNL     1     154.277 154.260 167.340  1.00  0.00     0.302 C 
ATOM     32  O   UNL     1     153.414 153.985 166.462  1.00  0.00    -0.253 OA
ATOM     33  C   UNL     1     155.638 153.662 167.250  1.00  0.00     0.139 C 
ENDBRANCH  30  31
ENDBRANCH  25  30
ENDBRANCH   2   6
ENDBRANCH   1   2
BRANCH   1  34
ATOM     34  C   UNL     1     149.231 165.881 165.363  1.00  0.00     0.031 C 
BRANCH  34  35
ATOM     35  C   UNL     1     149.037 165.009 166.593  1.00  0.00    -0.075 C 
ATOM     36  C   UNL     1     148.625 163.736 166.446  1.00  0.00     0.008 C 
BRANCH  35  37
ATOM     37  C   UNL     1     149.215 165.587 167.991  1.00  0.00     0.008 C 
ATOM     38  C   UNL     1     149.048 167.114 168.000  1.00  0.00     0.012 C 
ATOM     39  C   UNL     1     148.250 164.917 168.978  1.00  0.00     0.012 C 
ENDBRANCH  35  37
ENDBRANCH  34  35
ENDBRANCH   1  34
TORSDOF 9
ENDMDL
