MODEL 1
REMARK VINA RESULT:    -6.934      0.000      0.000
REMARK INTER + INTRA:          -8.642
REMARK INTER:                  -8.353
REMARK INTRA:                  -0.289
REMARK UNBOUND:                -0.289
REMARK SMILES O=c1c(O)c(-c2ccc(O)c(O)c2)oc2cc(O)cc(O)c12
REMARK SMILES IDX 5 1 3 2 2 3 1 4 22 5 20 6 19 7 17 8 16 9 15 10 14 11 6 12
REMARK SMILES IDX 7 13 8 14 9 15 13 16 11 17 10 18 12 20 4 22 21 24 18 26
REMARK H PARENT 10 19 12 21 4 23 21 25 18 27
REMARK Flexibility Score: inf
ROOT
ATOM      1  C   UNL     1     127.109 111.420 111.749  1.00  0.00     0.180 A 
ATOM      2  C   UNL     1     127.800 110.437 111.020  1.00  0.00     0.208 A 
ATOM      3  C   UNL     1     129.058 110.012 111.475  1.00  0.00     0.238 A 
ATOM      4  O   UNL     1     129.649 109.093 110.847  1.00  0.00    -0.285 OA
ATOM      5  C   UNL     1     129.617 110.585 112.643  1.00  0.00     0.111 A 
ATOM      6  C   UNL     1     130.901 110.258 113.172  1.00  0.00     0.134 A 
ATOM      7  C   UNL     1     131.296 110.791 114.405  1.00  0.00     0.093 A 
ATOM      8  C   UNL     1     130.483 111.688 115.096  1.00  0.00     0.123 A 
ATOM      9  C   UNL     1     129.250 112.061 114.558  1.00  0.00     0.094 A 
ATOM     10  C   UNL     1     128.813 111.518 113.347  1.00  0.00     0.146 A 
ATOM     11  O   UNL     1     127.629 111.891 112.876  1.00  0.00    -0.452 OA
ENDROOT
BRANCH   1  12
ATOM     12  C   UNL     1     125.790 111.938 111.319  1.00  0.00     0.025 A 
ATOM     13  C   UNL     1     125.720 113.149 110.613  1.00  0.00     0.016 A 
ATOM     14  C   UNL     1     124.488 113.646 110.179  1.00  0.00     0.051 A 
ATOM     15  C   UNL     1     123.310 112.932 110.431  1.00  0.00     0.157 A 
ATOM     16  C   UNL     1     124.606 111.213 111.551  1.00  0.00     0.062 A 
ATOM     17  C   UNL     1     123.371 111.707 111.117  1.00  0.00     0.158 A 
BRANCH  15  18
ATOM     18  O   UNL     1     122.082 113.431 109.999  1.00  0.00    -0.504 OA
ATOM     19  H   UNL     1     121.934 114.422 109.852  1.00  0.00     0.293 HD
ENDBRANCH  15  18
BRANCH  17  20
ATOM     20  O   UNL     1     122.218 110.965 111.371  1.00  0.00    -0.504 OA
ATOM     21  H   UNL     1     122.104 110.421 112.217  1.00  0.00     0.293 HD
ENDBRANCH  17  20
ENDBRANCH   1  12
BRANCH   2  22
ATOM     22  O   UNL     1     127.222 109.869 109.881  1.00  0.00    -0.502 OA
ATOM     23  H   UNL     1     126.301 109.448 109.892  1.00  0.00     0.293 HD
ENDBRANCH   2  22
BRANCH   6  24
ATOM     24  O   UNL     1     131.830 109.443 112.517  1.00  0.00    -0.507 OA
ATOM     25  H   UNL     1     131.611 108.565 112.074  1.00  0.00     0.293 HD
ENDBRANCH   6  24
BRANCH   8  26
ATOM     26  O   UNL     1     130.914 112.210 116.312  1.00  0.00    -0.508 OA
ATOM     27  H   UNL     1     130.394 112.059 117.169  1.00  0.00     0.293 HD
ENDBRANCH   8  26
TORSDOF 6
ENDMDL
MODEL 2
REMARK VINA RESULT:    -6.902      0.608      1.458
REMARK INTER + INTRA:          -8.603
REMARK INTER:                  -8.350
REMARK INTRA:                  -0.253
REMARK UNBOUND:                -0.289
REMARK SMILES O=c1c(O)c(-c2ccc(O)c(O)c2)oc2cc(O)cc(O)c12
REMARK SMILES IDX 5 1 3 2 2 3 1 4 22 5 20 6 19 7 17 8 16 9 15 10 14 11 6 12
REMARK SMILES IDX 7 13 8 14 9 15 13 16 11 17 10 18 12 20 4 22 21 24 18 26
REMARK H PARENT 10 19 12 21 4 23 21 25 18 27
REMARK Flexibility Score: inf
ROOT
ATOM      1  C   UNL     1     127.008 111.478 111.761  1.00  0.00     0.180 A 
ATOM      2  C   UNL     1     127.701 110.503 111.023  1.00  0.00     0.208 A 
ATOM      3  C   UNL     1     128.959 110.073 111.474  1.00  0.00     0.238 A 
ATOM      4  O   UNL     1     129.550 109.161 110.839  1.00  0.00    -0.285 OA
ATOM      5  C   UNL     1     129.516 110.635 112.649  1.00  0.00     0.111 A 
ATOM      6  C   UNL     1     130.799 110.303 113.176  1.00  0.00     0.134 A 
ATOM      7  C   UNL     1     131.193 110.823 114.415  1.00  0.00     0.093 A 
ATOM      8  C   UNL     1     130.379 111.713 115.114  1.00  0.00     0.123 A 
ATOM      9  C   UNL     1     129.146 112.091 114.579  1.00  0.00     0.094 A 
ATOM     10  C   UNL     1     128.710 111.560 113.362  1.00  0.00     0.146 A 
ATOM     11  O   UNL     1     127.527 111.938 112.893  1.00  0.00    -0.452 OA
ENDROOT
BRANCH   1  12
ATOM     12  C   UNL     1     125.690 112.000 111.334  1.00  0.00     0.025 A 
ATOM     13  C   UNL     1     124.542 111.214 111.526  1.00  0.00     0.016 A 
ATOM     14  C   UNL     1     123.284 111.695 111.149  1.00  0.00     0.051 A 
ATOM     15  C   UNL     1     123.155 112.973 110.592  1.00  0.00     0.157 A 
ATOM     16  C   UNL     1     125.552 113.291 110.793  1.00  0.00     0.062 A 
ATOM     17  C   UNL     1     124.295 113.776 110.417  1.00  0.00     0.158 A 
BRANCH  15  18
ATOM     18  O   UNL     1     121.900 113.450 110.215  1.00  0.00    -0.504 OA
ATOM     19  H   UNL     1     121.696 114.441 110.183  1.00  0.00     0.293 HD
ENDBRANCH  15  18
BRANCH  17  20
ATOM     20  O   UNL     1     124.197 115.058 109.878  1.00  0.00    -0.504 OA
ATOM     21  H   UNL     1     123.631 115.257 109.062  1.00  0.00     0.293 HD
ENDBRANCH  17  20
ENDBRANCH   1  12
BRANCH   2  22
ATOM     22  O   UNL     1     127.124 109.946 109.877  1.00  0.00    -0.502 OA
ATOM     23  H   UNL     1     127.612 109.281 109.291  1.00  0.00     0.293 HD
ENDBRANCH   2  22
BRANCH   6  24
ATOM     24  O   UNL     1     131.729 109.495 112.515  1.00  0.00    -0.507 OA
ATOM     25  H   UNL     1     132.712 109.451 112.735  1.00  0.00     0.293 HD
ENDBRANCH   6  24
BRANCH   8  26
ATOM     26  O   UNL     1     130.808 112.223 116.336  1.00  0.00    -0.508 OA
ATOM     27  H   UNL     1     131.220 113.146 116.411  1.00  0.00     0.293 HD
ENDBRANCH   8  26
TORSDOF 6
ENDMDL
MODEL 3
REMARK VINA RESULT:    -6.694      1.642      7.181
REMARK INTER + INTRA:          -8.353
REMARK INTER:                  -8.162
REMARK INTRA:                  -0.191
REMARK UNBOUND:                -0.289
REMARK SMILES O=c1c(O)c(-c2ccc(O)c(O)c2)oc2cc(O)cc(O)c12
REMARK SMILES IDX 5 1 3 2 2 3 1 4 22 5 20 6 19 7 17 8 16 9 15 10 14 11 6 12
REMARK SMILES IDX 7 13 8 14 9 15 13 16 11 17 10 18 12 20 4 22 21 24 18 26
REMARK H PARENT 10 19 12 21 4 23 21 25 18 27
REMARK Flexibility Score: inf
ROOT
ATOM      1  C   UNL     1     127.864 112.331 112.734  1.00  0.00     0.180 A 
ATOM      2  C   UNL     1     127.871 113.734 112.646  1.00  0.00     0.208 A 
ATOM      3  C   UNL     1     126.751 114.388 112.110  1.00  0.00     0.238 A 
ATOM      4  O   UNL     1     126.741 115.647 112.082  1.00  0.00    -0.285 OA
ATOM      5  C   UNL     1     125.644 113.632 111.654  1.00  0.00     0.111 A 
ATOM      6  C   UNL     1     124.473 114.187 111.058  1.00  0.00     0.134 A 
ATOM      7  C   UNL     1     123.385 113.355 110.765  1.00  0.00     0.093 A 
ATOM      8  C   UNL     1     123.450 111.980 110.986  1.00  0.00     0.123 A 
ATOM      9  C   UNL     1     124.614 111.418 111.514  1.00  0.00     0.094 A 
ATOM     10  C   UNL     1     125.702 112.227 111.850  1.00  0.00     0.146 A 
ATOM     11  O   UNL     1     126.785 111.654 112.360  1.00  0.00    -0.452 OA
ENDROOT
BRANCH   1  12
ATOM     12  C   UNL     1     129.018 111.569 113.264  1.00  0.00     0.025 A 
ATOM     13  C   UNL     1     129.326 111.644 114.632  1.00  0.00     0.016 A 
ATOM     14  C   UNL     1     130.399 110.918 115.157  1.00  0.00     0.051 A 
ATOM     15  C   UNL     1     131.167 110.093 114.326  1.00  0.00     0.157 A 
ATOM     16  C   UNL     1     129.780 110.724 112.437  1.00  0.00     0.062 A 
ATOM     17  C   UNL     1     130.853 109.993 112.960  1.00  0.00     0.158 A 
BRANCH  15  18
ATOM     18  O   UNL     1     132.238 109.371 114.852  1.00  0.00    -0.504 OA
ATOM     19  H   UNL     1     132.463 108.440 114.522  1.00  0.00     0.293 HD
ENDBRANCH  15  18
BRANCH  17  20
ATOM     20  O   UNL     1     131.590 109.170 112.109  1.00  0.00    -0.504 OA
ATOM     21  H   UNL     1     131.504 109.224 111.101  1.00  0.00     0.293 HD
ENDBRANCH  17  20
ENDBRANCH   1  12
BRANCH   2  22
ATOM     22  O   UNL     1     128.966 114.463 113.120  1.00  0.00    -0.502 OA
ATOM     23  H   UNL     1     129.551 115.023 112.513  1.00  0.00     0.293 HD
ENDBRANCH   2  22
BRANCH   6  24
ATOM     24  O   UNL     1     124.339 115.535 110.710  1.00  0.00    -0.507 OA
ATOM     25  H   UNL     1     123.476 115.972 110.427  1.00  0.00     0.293 HD
ENDBRANCH   6  24
BRANCH   8  26
ATOM     26  O   UNL     1     122.356 111.180 110.669  1.00  0.00    -0.508 OA
ATOM     27  H   UNL     1     121.883 111.257 109.776  1.00  0.00     0.293 HD
ENDBRANCH   8  26
TORSDOF 6
ENDMDL
MODEL 4
REMARK VINA RESULT:    -6.689      1.191      2.934
REMARK INTER + INTRA:          -8.346
REMARK INTER:                  -8.036
REMARK INTRA:                  -0.310
REMARK UNBOUND:                -0.289
REMARK SMILES O=c1c(O)c(-c2ccc(O)c(O)c2)oc2cc(O)cc(O)c12
REMARK SMILES IDX 5 1 3 2 2 3 1 4 22 5 20 6 19 7 17 8 16 9 15 10 14 11 6 12
REMARK SMILES IDX 7 13 8 14 9 15 13 16 11 17 10 18 12 20 4 22 21 24 18 26
REMARK H PARENT 10 19 12 21 4 23 21 25 18 27
REMARK Flexibility Score: inf
ROOT
ATOM      1  C   UNL     1     127.101 111.662 111.957  1.00  0.00     0.180 A 
ATOM      2  C   UNL     1     127.649 112.081 113.182  1.00  0.00     0.208 A 
ATOM      3  C   UNL     1     128.914 111.605 113.560  1.00  0.00     0.238 A 
ATOM      4  O   UNL     1     129.423 112.026 114.632  1.00  0.00    -0.285 OA
ATOM      5  C   UNL     1     129.609 110.704 112.718  1.00  0.00     0.111 A 
ATOM      6  C   UNL     1     130.879 110.128 113.019  1.00  0.00     0.134 A 
ATOM      7  C   UNL     1     131.533 109.352 112.054  1.00  0.00     0.093 A 
ATOM      8  C   UNL     1     130.935 109.077 110.825  1.00  0.00     0.123 A 
ATOM      9  C   UNL     1     129.667 109.587 110.543  1.00  0.00     0.094 A 
ATOM     10  C   UNL     1     129.005 110.395 111.471  1.00  0.00     0.146 A 
ATOM     11  O   UNL     1     127.805 110.868 111.159  1.00  0.00    -0.452 OA
ENDROOT
BRANCH   1  12
ATOM     12  C   UNL     1     125.762 112.100 111.502  1.00  0.00     0.025 A 
ATOM     13  C   UNL     1     125.629 113.320 110.821  1.00  0.00     0.016 A 
ATOM     14  C   UNL     1     124.377 113.743 110.364  1.00  0.00     0.051 A 
ATOM     15  C   UNL     1     123.244 112.946 110.568  1.00  0.00     0.157 A 
ATOM     16  C   UNL     1     124.625 111.293 111.686  1.00  0.00     0.062 A 
ATOM     17  C   UNL     1     123.371 111.712 111.228  1.00  0.00     0.158 A 
BRANCH  15  18
ATOM     18  O   UNL     1     121.997 113.372 110.113  1.00  0.00    -0.504 OA
ATOM     19  H   UNL     1     121.157 112.832 110.285  1.00  0.00     0.293 HD
ENDBRANCH  15  18
BRANCH  17  20
ATOM     20  O   UNL     1     122.264 110.889 111.434  1.00  0.00    -0.504 OA
ATOM     21  H   UNL     1     122.215 110.237 112.209  1.00  0.00     0.293 HD
ENDBRANCH  17  20
ENDBRANCH   1  12
BRANCH   2  22
ATOM     22  O   UNL     1     126.955 112.988 113.988  1.00  0.00    -0.502 OA
ATOM     23  H   UNL     1     126.658 113.896 113.654  1.00  0.00     0.293 HD
ENDBRANCH   2  22
BRANCH   6  24
ATOM     24  O   UNL     1     131.524 110.263 114.253  1.00  0.00    -0.507 OA
ATOM     25  H   UNL     1     132.299 109.697 114.561  1.00  0.00     0.293 HD
ENDBRANCH   6  24
BRANCH   8  26
ATOM     26  O   UNL     1     131.607 108.290 109.894  1.00  0.00    -0.508 OA
ATOM     27  H   UNL     1     132.591 108.427 109.694  1.00  0.00     0.293 HD
ENDBRANCH   8  26
TORSDOF 6
ENDMDL
MODEL 5
REMARK VINA RESULT:    -6.665      5.601      7.966
REMARK INTER + INTRA:          -8.317
REMARK INTER:                  -8.000
REMARK INTRA:                  -0.317
REMARK UNBOUND:                -0.289
REMARK SMILES O=c1c(O)c(-c2ccc(O)c(O)c2)oc2cc(O)cc(O)c12
REMARK SMILES IDX 5 1 3 2 2 3 1 4 22 5 20 6 19 7 17 8 16 9 15 10 14 11 6 12
REMARK SMILES IDX 7 13 8 14 9 15 13 16 11 17 10 18 12 20 4 22 21 24 18 26
REMARK H PARENT 10 19 12 21 4 23 21 25 18 27
REMARK Flexibility Score: inf
ROOT
ATOM      1  C   UNL     1     123.022 113.752 114.653  1.00  0.00     0.180 A 
ATOM      2  C   UNL     1     121.957 114.655 114.498  1.00  0.00     0.208 A 
ATOM      3  C   UNL     1     121.331 115.172 115.644  1.00  0.00     0.238 A 
ATOM      4  O   UNL     1     120.413 116.022 115.499  1.00  0.00    -0.285 OA
ATOM      5  C   UNL     1     121.767 114.768 116.929  1.00  0.00     0.111 A 
ATOM      6  C   UNL     1     121.180 115.197 118.156  1.00  0.00     0.134 A 
ATOM      7  C   UNL     1     121.776 114.836 119.371  1.00  0.00     0.093 A 
ATOM      8  C   UNL     1     122.897 114.009 119.405  1.00  0.00     0.123 A 
ATOM      9  C   UNL     1     123.444 113.534 118.212  1.00  0.00     0.094 A 
ATOM     10  C   UNL     1     122.894 113.907 116.983  1.00  0.00     0.146 A 
ATOM     11  O   UNL     1     123.450 113.442 115.871  1.00  0.00    -0.452 OA
ENDROOT
BRANCH   1  12
ATOM     12  C   UNL     1     123.714 113.144 113.494  1.00  0.00     0.025 A 
ATOM     13  C   UNL     1     123.173 111.999 112.889  1.00  0.00     0.016 A 
ATOM     14  C   UNL     1     123.799 111.421 111.780  1.00  0.00     0.051 A 
ATOM     15  C   UNL     1     124.965 111.989 111.251  1.00  0.00     0.157 A 
ATOM     16  C   UNL     1     124.874 113.723 112.946  1.00  0.00     0.062 A 
ATOM     17  C   UNL     1     125.502 113.149 111.835  1.00  0.00     0.158 A 
BRANCH  15  18
ATOM     18  O   UNL     1     125.588 111.409 110.147  1.00  0.00    -0.504 OA
ATOM     19  H   UNL     1     125.475 110.426 109.929  1.00  0.00     0.293 HD
ENDBRANCH  15  18
BRANCH  17  20
ATOM     20  O   UNL     1     126.653 113.746 111.324  1.00  0.00    -0.504 OA
ATOM     21  H   UNL     1     127.504 113.828 111.868  1.00  0.00     0.293 HD
ENDBRANCH  17  20
ENDBRANCH   1  12
BRANCH   2  22
ATOM     22  O   UNL     1     121.556 115.058 113.221  1.00  0.00    -0.502 OA
ATOM     23  H   UNL     1     121.453 114.407 112.453  1.00  0.00     0.293 HD
ENDBRANCH   2  22
BRANCH   6  24
ATOM     24  O   UNL     1     120.005 115.951 118.237  1.00  0.00    -0.507 OA
ATOM     25  H   UNL     1     119.103 115.583 118.495  1.00  0.00     0.293 HD
ENDBRANCH   6  24
BRANCH   8  26
ATOM     26  O   UNL     1     123.455 113.657 120.631  1.00  0.00    -0.508 OA
ATOM     27  H   UNL     1     124.368 113.221 120.693  1.00  0.00     0.293 HD
ENDBRANCH   8  26
TORSDOF 6
ENDMDL
MODEL 6
REMARK VINA RESULT:    -6.632      2.423      7.728
REMARK INTER + INTRA:          -8.277
REMARK INTER:                  -7.948
REMARK INTRA:                  -0.329
REMARK UNBOUND:                -0.289
REMARK SMILES O=c1c(O)c(-c2ccc(O)c(O)c2)oc2cc(O)cc(O)c12
REMARK SMILES IDX 5 1 3 2 2 3 1 4 22 5 20 6 19 7 17 8 16 9 15 10 14 11 6 12
REMARK SMILES IDX 7 13 8 14 9 15 13 16 11 17 10 18 12 20 4 22 21 24 18 26
REMARK H PARENT 10 19 12 21 4 23 21 25 18 27
REMARK Flexibility Score: inf
ROOT
ATOM      1  C   UNL     1     130.386 111.103 114.210  1.00  0.00     0.180 A 
ATOM      2  C   UNL     1     130.650 112.468 114.418  1.00  0.00     0.208 A 
ATOM      3  C   UNL     1     129.822 113.422 113.805  1.00  0.00     0.238 A 
ATOM      4  O   UNL     1     130.031 114.642 114.038  1.00  0.00    -0.285 OA
ATOM      5  C   UNL     1     128.751 113.001 112.981  1.00  0.00     0.111 A 
ATOM      6  C   UNL     1     127.874 113.880 112.279  1.00  0.00     0.134 A 
ATOM      7  C   UNL     1     126.768 113.356 111.598  1.00  0.00     0.093 A 
ATOM      8  C   UNL     1     126.546 111.981 111.538  1.00  0.00     0.123 A 
ATOM      9  C   UNL     1     127.432 111.108 112.171  1.00  0.00     0.094 A 
ATOM     10  C   UNL     1     128.523 111.603 112.889  1.00  0.00     0.146 A 
ATOM     11  O   UNL     1     129.335 110.739 113.485  1.00  0.00    -0.452 OA
ENDROOT
BRANCH   1  12
ATOM     12  C   UNL     1     131.229 110.039 114.801  1.00  0.00     0.025 A 
ATOM     13  C   UNL     1     130.892 109.507 116.056  1.00  0.00     0.016 A 
ATOM     14  C   UNL     1     131.662 108.488 116.623  1.00  0.00     0.051 A 
ATOM     15  C   UNL     1     132.770 107.975 115.938  1.00  0.00     0.157 A 
ATOM     16  C   UNL     1     132.331 109.507 114.108  1.00  0.00     0.062 A 
ATOM     17  C   UNL     1     133.103 108.485 114.672  1.00  0.00     0.158 A 
BRANCH  15  18
ATOM     18  O   UNL     1     133.538 106.960 116.507  1.00  0.00    -0.504 OA
ATOM     19  H   UNL     1     133.116 106.216 117.050  1.00  0.00     0.293 HD
ENDBRANCH  15  18
BRANCH  17  20
ATOM     20  O   UNL     1     134.192 107.986 113.958  1.00  0.00    -0.504 OA
ATOM     21  H   UNL     1     134.901 108.594 113.563  1.00  0.00     0.293 HD
ENDBRANCH  17  20
ENDBRANCH   1  12
BRANCH   2  22
ATOM     22  O   UNL     1     131.700 112.862 115.252  1.00  0.00    -0.502 OA
ATOM     23  H   UNL     1     131.552 113.414 116.088  1.00  0.00     0.293 HD
ENDBRANCH   2  22
BRANCH   6  24
ATOM     24  O   UNL     1     128.057 115.264 112.198  1.00  0.00    -0.507 OA
ATOM     25  H   UNL     1     128.887 115.752 112.498  1.00  0.00     0.293 HD
ENDBRANCH   6  24
BRANCH   8  26
ATOM     26  O   UNL     1     125.445 111.492 110.840  1.00  0.00    -0.508 OA
ATOM     27  H   UNL     1     124.961 112.056 110.151  1.00  0.00     0.293 HD
ENDBRANCH   8  26
TORSDOF 6
ENDMDL
MODEL 7
REMARK VINA RESULT:    -6.496      4.552      6.392
REMARK INTER + INTRA:          -8.114
REMARK INTER:                  -7.780
REMARK INTRA:                  -0.334
REMARK UNBOUND:                -0.289
REMARK SMILES O=c1c(O)c(-c2ccc(O)c(O)c2)oc2cc(O)cc(O)c12
REMARK SMILES IDX 5 1 3 2 2 3 1 4 22 5 20 6 19 7 17 8 16 9 15 10 14 11 6 12
REMARK SMILES IDX 7 13 8 14 9 15 13 16 11 17 10 18 12 20 4 22 21 24 18 26
REMARK H PARENT 10 19 12 21 4 23 21 25 18 27
REMARK Flexibility Score: inf
ROOT
ATOM      1  C   UNL     1     124.020 113.905 114.227  1.00  0.00     0.180 A 
ATOM      2  C   UNL     1     125.159 114.707 114.042  1.00  0.00     0.208 A 
ATOM      3  C   UNL     1     126.089 114.350 113.052  1.00  0.00     0.238 A 
ATOM      4  O   UNL     1     127.080 115.102 112.854  1.00  0.00    -0.285 OA
ATOM      5  C   UNL     1     125.877 113.187 112.272  1.00  0.00     0.111 A 
ATOM      6  C   UNL     1     126.773 112.709 111.270  1.00  0.00     0.134 A 
ATOM      7  C   UNL     1     126.399 111.623 110.470  1.00  0.00     0.093 A 
ATOM      8  C   UNL     1     125.192 110.956 110.679  1.00  0.00     0.123 A 
ATOM      9  C   UNL     1     124.335 111.379 111.696  1.00  0.00     0.094 A 
ATOM     10  C   UNL     1     124.664 112.483 112.487  1.00  0.00     0.146 A 
ATOM     11  O   UNL     1     123.817 112.858 113.437  1.00  0.00    -0.452 OA
ENDROOT
BRANCH   1  12
ATOM     12  C   UNL     1     123.009 114.202 115.267  1.00  0.00     0.025 A 
ATOM     13  C   UNL     1     121.864 114.941 114.926  1.00  0.00     0.016 A 
ATOM     14  C   UNL     1     120.887 115.216 115.887  1.00  0.00     0.051 A 
ATOM     15  C   UNL     1     121.031 114.743 117.197  1.00  0.00     0.157 A 
ATOM     16  C   UNL     1     123.139 113.712 116.579  1.00  0.00     0.062 A 
ATOM     17  C   UNL     1     122.161 113.983 117.542  1.00  0.00     0.158 A 
BRANCH  15  18
ATOM     18  O   UNL     1     120.056 115.020 118.153  1.00  0.00    -0.504 OA
ATOM     19  H   UNL     1     119.129 114.614 118.100  1.00  0.00     0.293 HD
ENDBRANCH  15  18
BRANCH  17  20
ATOM     20  O   UNL     1     122.328 113.485 118.834  1.00  0.00    -0.504 OA
ATOM     21  H   UNL     1     122.242 112.498 119.046  1.00  0.00     0.293 HD
ENDBRANCH  17  20
ENDBRANCH   1  12
BRANCH   2  22
ATOM     22  O   UNL     1     125.339 115.862 114.808  1.00  0.00    -0.502 OA
ATOM     23  H   UNL     1     124.864 116.009 115.690  1.00  0.00     0.293 HD
ENDBRANCH   2  22
BRANCH   6  24
ATOM     24  O   UNL     1     128.044 113.246 111.039  1.00  0.00    -0.507 OA
ATOM     25  H   UNL     1     128.579 113.766 111.717  1.00  0.00     0.293 HD
ENDBRANCH   6  24
BRANCH   8  26
ATOM     26  O   UNL     1     124.858 109.870 109.875  1.00  0.00    -0.508 OA
ATOM     27  H   UNL     1     123.925 109.755 109.498  1.00  0.00     0.293 HD
ENDBRANCH   8  26
TORSDOF 6
ENDMDL
MODEL 8
REMARK VINA RESULT:    -6.478      5.388      7.483
REMARK INTER + INTRA:          -8.092
REMARK INTER:                  -7.993
REMARK INTRA:                  -0.099
REMARK UNBOUND:                -0.289
REMARK SMILES O=c1c(O)c(-c2ccc(O)c(O)c2)oc2cc(O)cc(O)c12
REMARK SMILES IDX 5 1 3 2 2 3 1 4 22 5 20 6 19 7 17 8 16 9 15 10 14 11 6 12
REMARK SMILES IDX 7 13 8 14 9 15 13 16 11 17 10 18 12 20 4 22 21 24 18 26
REMARK H PARENT 10 19 12 21 4 23 21 25 18 27
REMARK Flexibility Score: inf
ROOT
ATOM      1  C   UNL     1     123.876 113.827 115.633  1.00  0.00     0.180 A 
ATOM      2  C   UNL     1     125.207 114.203 115.384  1.00  0.00     0.208 A 
ATOM      3  C   UNL     1     125.791 113.863 114.154  1.00  0.00     0.238 A 
ATOM      4  O   UNL     1     126.966 114.249 113.915  1.00  0.00    -0.285 OA
ATOM      5  C   UNL     1     125.043 113.138 113.194  1.00  0.00     0.111 A 
ATOM      6  C   UNL     1     125.547 112.707 111.931  1.00  0.00     0.134 A 
ATOM      7  C   UNL     1     124.679 112.111 111.007  1.00  0.00     0.093 A 
ATOM      8  C   UNL     1     123.343 111.873 111.325  1.00  0.00     0.123 A 
ATOM      9  C   UNL     1     122.854 112.237 112.581  1.00  0.00     0.094 A 
ATOM     10  C   UNL     1     123.687 112.866 113.510  1.00  0.00     0.146 A 
ATOM     11  O   UNL     1     123.180 113.206 114.689  1.00  0.00    -0.452 OA
ENDROOT
BRANCH   1  12
ATOM     12  C   UNL     1     123.199 114.127 116.916  1.00  0.00     0.025 A 
ATOM     13  C   UNL     1     121.968 114.802 116.906  1.00  0.00     0.016 A 
ATOM     14  C   UNL     1     121.302 115.077 118.104  1.00  0.00     0.051 A 
ATOM     15  C   UNL     1     121.849 114.668 119.326  1.00  0.00     0.157 A 
ATOM     16  C   UNL     1     123.735 113.700 118.144  1.00  0.00     0.062 A 
ATOM     17  C   UNL     1     123.070 113.972 119.345  1.00  0.00     0.158 A 
BRANCH  15  18
ATOM     18  O   UNL     1     121.184 114.946 120.520  1.00  0.00    -0.504 OA
ATOM     19  H   UNL     1     121.414 114.463 121.380  1.00  0.00     0.293 HD
ENDBRANCH  15  18
BRANCH  17  20
ATOM     20  O   UNL     1     123.634 113.539 120.545  1.00  0.00    -0.504 OA
ATOM     21  H   UNL     1     124.289 112.767 120.584  1.00  0.00     0.293 HD
ENDBRANCH  17  20
ENDBRANCH   1  12
BRANCH   2  22
ATOM     22  O   UNL     1     125.920 114.936 116.336  1.00  0.00    -0.502 OA
ATOM     23  H   UNL     1     125.772 114.825 117.331  1.00  0.00     0.293 HD
ENDBRANCH   2  22
BRANCH   6  24
ATOM     24  O   UNL     1     126.888 112.814 111.548  1.00  0.00    -0.507 OA
ATOM     25  H   UNL     1     127.205 112.962 110.603  1.00  0.00     0.293 HD
ENDBRANCH   6  24
BRANCH   8  26
ATOM     26  O   UNL     1     122.511 111.265 110.389  1.00  0.00    -0.508 OA
ATOM     27  H   UNL     1     122.613 111.439 109.396  1.00  0.00     0.293 HD
ENDBRANCH   8  26
TORSDOF 6
ENDMDL
