MODEL 1
REMARK VINA RESULT:    -4.648      0.000      0.000
REMARK INTER + INTRA:          -4.648
REMARK INTER:                  -4.648
REMARK INTRA:                   0.000
REMARK UNBOUND:                 0.000
REMARK SMILES C=C1CC[C@@H]2C[C@H]1C2(C)C
REMARK SMILES IDX 9 1 8 2 5 3 4 4 3 5 2 6 1 7 7 8 6 9 10 10
REMARK H PARENT
REMARK Flexibility Score: inf
ROOT
ATOM      1  C   UNL     1     -50.391 -51.136  14.837  1.00  0.00     0.012 C 
ATOM      2  C   UNL     1     -49.569 -50.793  16.105  1.00  0.00    -0.026 C 
ATOM      3  C   UNL     1     -48.395 -51.783  16.320  1.00  0.00    -0.004 C 
ATOM      4  C   UNL     1     -47.838 -51.683  17.776  1.00  0.00     0.008 C 
ATOM      5  C   UNL     1     -47.500 -50.201  18.195  1.00  0.00     0.031 C 
ATOM      6  C   UNL     1     -47.955 -49.179  17.143  1.00  0.00    -0.074 C 
ATOM      7  C   UNL     1     -47.885 -47.864  17.374  1.00  0.00     0.008 C 
ATOM      8  C   UNL     1     -48.482 -49.730  15.821  1.00  0.00     0.021 C 
ATOM      9  C   UNL     1     -47.516 -50.867  15.452  1.00  0.00     0.012 C 
ATOM     10  C   UNL     1     -50.558 -50.543  17.277  1.00  0.00     0.012 C 
ENDROOT
TORSDOF 0
ENDMDL
MODEL 2
REMARK VINA RESULT:    -4.623     15.141     16.762
REMARK INTER + INTRA:          -4.623
REMARK INTER:                  -4.623
REMARK INTRA:                   0.000
REMARK UNBOUND:                 0.000
REMARK SMILES C=C1CC[C@@H]2C[C@H]1C2(C)C
REMARK SMILES IDX 9 1 8 2 5 3 4 4 3 5 2 6 1 7 7 8 6 9 10 10
REMARK H PARENT
REMARK Flexibility Score: inf
ROOT
ATOM      1  C   UNL     1     -43.401 -51.829  34.100  1.00  0.00     0.012 C 
ATOM      2  C   UNL     1     -44.480 -51.374  33.085  1.00  0.00    -0.026 C 
ATOM      3  C   UNL     1     -45.637 -52.401  32.971  1.00  0.00    -0.004 C 
ATOM      4  C   UNL     1     -46.488 -52.145  31.687  1.00  0.00     0.008 C 
ATOM      5  C   UNL     1     -46.959 -50.646  31.561  1.00  0.00     0.031 C 
ATOM      6  C   UNL     1     -46.332 -49.745  32.636  1.00  0.00    -0.074 C 
ATOM      7  C   UNL     1     -46.495 -48.418  32.614  1.00  0.00     0.008 C 
ATOM      8  C   UNL     1     -45.522 -50.431  33.732  1.00  0.00     0.021 C 
ATOM      9  C   UNL     1     -46.348 -51.668  34.121  1.00  0.00     0.012 C 
ATOM     10  C   UNL     1     -43.766 -50.908  31.787  1.00  0.00     0.012 C 
ENDROOT
TORSDOF 0
ENDMDL
MODEL 3
REMARK VINA RESULT:    -4.585     14.809     15.996
REMARK INTER + INTRA:          -4.585
REMARK INTER:                  -4.585
REMARK INTRA:                   0.000
REMARK UNBOUND:                 0.000
REMARK SMILES C=C1CC[C@@H]2C[C@H]1C2(C)C
REMARK SMILES IDX 9 1 8 2 5 3 4 4 3 5 2 6 1 7 7 8 6 9 10 10
REMARK H PARENT
REMARK Flexibility Score: inf
ROOT
ATOM      1  C   UNL     1     -46.792 -49.247  34.078  1.00  0.00     0.012 C 
ATOM      2  C   UNL     1     -45.993 -50.212  33.165  1.00  0.00    -0.026 C 
ATOM      3  C   UNL     1     -46.927 -51.098  32.300  1.00  0.00    -0.004 C 
ATOM      4  C   UNL     1     -46.151 -52.315  31.704  1.00  0.00     0.008 C 
ATOM      5  C   UNL     1     -44.826 -51.886  30.966  1.00  0.00     0.031 C 
ATOM      6  C   UNL     1     -44.514 -50.393  31.149  1.00  0.00    -0.074 C 
ATOM      7  C   UNL     1     -43.363 -49.865  30.718  1.00  0.00     0.008 C 
ATOM      8  C   UNL     1     -45.575 -49.539  31.836  1.00  0.00     0.021 C 
ATOM      9  C   UNL     1     -46.910 -49.998  31.225  1.00  0.00     0.012 C 
ATOM     10  C   UNL     1     -44.895 -50.900  34.022  1.00  0.00     0.012 C 
ENDROOT
TORSDOF 0
ENDMDL
MODEL 4
REMARK VINA RESULT:    -4.444     14.871     16.334
REMARK INTER + INTRA:          -4.444
REMARK INTER:                  -4.444
REMARK INTRA:                   0.000
REMARK UNBOUND:                 0.000
REMARK SMILES C=C1CC[C@@H]2C[C@H]1C2(C)C
REMARK SMILES IDX 9 1 8 2 5 3 4 4 3 5 2 6 1 7 7 8 6 9 10 10
REMARK H PARENT
REMARK Flexibility Score: inf
ROOT
ATOM      1  C   UNL     1     -47.271 -49.985  31.315  1.00  0.00     0.012 C 
ATOM      2  C   UNL     1     -46.107 -50.433  32.235  1.00  0.00    -0.026 C 
ATOM      3  C   UNL     1     -46.395 -51.799  32.909  1.00  0.00    -0.004 C 
ATOM      4  C   UNL     1     -45.433 -52.043  34.116  1.00  0.00     0.008 C 
ATOM      5  C   UNL     1     -43.918 -51.834  33.734  1.00  0.00     0.031 C 
ATOM      6  C   UNL     1     -43.746 -51.274  32.313  1.00  0.00    -0.074 C 
ATOM      7  C   UNL     1     -42.548 -50.896  31.854  1.00  0.00     0.008 C 
ATOM      8  C   UNL     1     -45.000 -51.174  31.449  1.00  0.00     0.021 C 
ATOM      9  C   UNL     1     -45.756 -52.490  31.693  1.00  0.00     0.012 C 
ATOM     10  C   UNL     1     -45.699 -49.231  33.130  1.00  0.00     0.012 C 
ENDROOT
TORSDOF 0
ENDMDL
MODEL 5
REMARK VINA RESULT:    -4.353     11.294     13.369
REMARK INTER + INTRA:          -4.353
REMARK INTER:                  -4.353
REMARK INTRA:                   0.000
REMARK UNBOUND:                 0.000
REMARK SMILES C=C1CC[C@@H]2C[C@H]1C2(C)C
REMARK SMILES IDX 9 1 8 2 5 3 4 4 3 5 2 6 1 7 7 8 6 9 10 10
REMARK H PARENT
REMARK Flexibility Score: inf
ROOT
ATOM      1  C   UNL     1     -42.430 -49.249  29.904  1.00  0.00     0.012 C 
ATOM      2  C   UNL     1     -42.235 -48.388  28.630  1.00  0.00    -0.026 C 
ATOM      3  C   UNL     1     -40.794 -47.825  28.527  1.00  0.00    -0.004 C 
ATOM      4  C   UNL     1     -40.721 -46.659  27.490  1.00  0.00     0.008 C 
ATOM      5  C   UNL     1     -41.349 -47.047  26.097  1.00  0.00     0.031 C 
ATOM      6  C   UNL     1     -42.040 -48.419  26.131  1.00  0.00    -0.074 C 
ATOM      7  C   UNL     1     -42.753 -48.864  25.090  1.00  0.00     0.008 C 
ATOM      8  C   UNL     1     -41.873 -49.251  27.398  1.00  0.00     0.021 C 
ATOM      9  C   UNL     1     -40.390 -49.105  27.776  1.00  0.00     0.012 C 
ATOM     10  C   UNL     1     -43.431 -47.403  28.516  1.00  0.00     0.012 C 
ENDROOT
TORSDOF 0
ENDMDL
MODEL 6
REMARK VINA RESULT:    -4.331      1.267      2.411
REMARK INTER + INTRA:          -4.331
REMARK INTER:                  -4.331
REMARK INTRA:                   0.000
REMARK UNBOUND:                 0.000
REMARK SMILES C=C1CC[C@@H]2C[C@H]1C2(C)C
REMARK SMILES IDX 9 1 8 2 5 3 4 4 3 5 2 6 1 7 7 8 6 9 10 10
REMARK H PARENT
REMARK Flexibility Score: inf
ROOT
ATOM      1  C   UNL     1     -47.806 -48.957  15.373  1.00  0.00     0.012 C 
ATOM      2  C   UNL     1     -48.434 -49.882  16.446  1.00  0.00    -0.026 C 
ATOM      3  C   UNL     1     -47.359 -50.701  17.205  1.00  0.00    -0.004 C 
ATOM      4  C   UNL     1     -48.006 -51.896  17.976  1.00  0.00     0.008 C 
ATOM      5  C   UNL     1     -49.215 -51.448  18.883  1.00  0.00     0.031 C 
ATOM      6  C   UNL     1     -49.588 -49.972  18.671  1.00  0.00    -0.074 C 
ATOM      7  C   UNL     1     -50.674 -49.440  19.242  1.00  0.00     0.008 C 
ATOM      8  C   UNL     1     -48.663 -49.142  17.786  1.00  0.00     0.021 C 
ATOM      9  C   UNL     1     -47.242 -49.543  18.210  1.00  0.00     0.012 C 
ATOM     10  C   UNL     1     -49.631 -50.635  15.804  1.00  0.00     0.012 C 
ENDROOT
TORSDOF 0
ENDMDL
MODEL 7
REMARK VINA RESULT:    -4.256     12.461     14.287
REMARK INTER + INTRA:          -4.256
REMARK INTER:                  -4.256
REMARK INTRA:                   0.000
REMARK UNBOUND:                 0.000
REMARK SMILES C=C1CC[C@@H]2C[C@H]1C2(C)C
REMARK SMILES IDX 9 1 8 2 5 3 4 4 3 5 2 6 1 7 7 8 6 9 10 10
REMARK H PARENT
REMARK Flexibility Score: inf
ROOT
ATOM      1  C   UNL     1     -44.860 -51.170  30.354  1.00  0.00     0.012 C 
ATOM      2  C   UNL     1     -43.647 -50.263  30.028  1.00  0.00    -0.026 C 
ATOM      3  C   UNL     1     -42.333 -50.811  30.644  1.00  0.00    -0.004 C 
ATOM      4  C   UNL     1     -41.222 -49.712  30.661  1.00  0.00     0.008 C 
ATOM      5  C   UNL     1     -41.024 -49.029  29.254  1.00  0.00     0.031 C 
ATOM      6  C   UNL     1     -42.082 -49.477  28.234  1.00  0.00    -0.074 C 
ATOM      7  C   UNL     1     -42.171 -48.907  27.027  1.00  0.00     0.008 C 
ATOM      8  C   UNL     1     -43.021 -50.603  28.655  1.00  0.00     0.021 C 
ATOM      9  C   UNL     1     -42.119 -51.629  29.360  1.00  0.00     0.012 C 
ATOM     10  C   UNL     1     -44.046 -48.789  30.314  1.00  0.00     0.012 C 
ENDROOT
TORSDOF 0
ENDMDL
MODEL 8
REMARK VINA RESULT:    -4.211      6.027      7.648
REMARK INTER + INTRA:          -4.211
REMARK INTER:                  -4.211
REMARK INTRA:                   0.000
REMARK UNBOUND:                 0.000
REMARK SMILES C=C1CC[C@@H]2C[C@H]1C2(C)C
REMARK SMILES IDX 9 1 8 2 5 3 4 4 3 5 2 6 1 7 7 8 6 9 10 10
REMARK H PARENT
REMARK Flexibility Score: inf
ROOT
ATOM      1  C   UNL     1     -49.985 -49.854  23.008  1.00  0.00     0.012 C 
ATOM      2  C   UNL     1     -51.169 -48.855  22.976  1.00  0.00    -0.026 C 
ATOM      3  C   UNL     1     -50.773 -47.509  22.314  1.00  0.00    -0.004 C 
ATOM      4  C   UNL     1     -51.816 -46.394  22.645  1.00  0.00     0.008 C 
ATOM      5  C   UNL     1     -53.296 -46.839  22.335  1.00  0.00     0.031 C 
ATOM      6  C   UNL     1     -53.390 -48.322  21.942  1.00  0.00    -0.074 C 
ATOM      7  C   UNL     1     -54.573 -48.925  21.779  1.00  0.00     0.008 C 
ATOM      8  C   UNL     1     -52.077 -49.072  21.742  1.00  0.00     0.021 C 
ATOM      9  C   UNL     1     -51.181 -48.102  20.955  1.00  0.00     0.012 C 
ATOM     10  C   UNL     1     -51.827 -48.829  24.382  1.00  0.00     0.012 C 
ENDROOT
TORSDOF 0
ENDMDL
MODEL 9
REMARK VINA RESULT:    -4.134      6.555      8.029
REMARK INTER + INTRA:          -4.134
REMARK INTER:                  -4.134
REMARK INTRA:                   0.000
REMARK UNBOUND:                 0.000
REMARK SMILES C=C1CC[C@@H]2C[C@H]1C2(C)C
REMARK SMILES IDX 9 1 8 2 5 3 4 4 3 5 2 6 1 7 7 8 6 9 10 10
REMARK H PARENT
REMARK Flexibility Score: inf
ROOT
ATOM      1  C   UNL     1     -54.381 -48.371  21.744  1.00  0.00     0.012 C 
ATOM      2  C   UNL     1     -52.900 -48.125  22.128  1.00  0.00    -0.026 C 
ATOM      3  C   UNL     1     -52.639 -46.645  22.512  1.00  0.00    -0.004 C 
ATOM      4  C   UNL     1     -51.110 -46.324  22.500  1.00  0.00     0.008 C 
ATOM      5  C   UNL     1     -50.268 -47.355  23.345  1.00  0.00     0.031 C 
ATOM      6  C   UNL     1     -51.119 -48.533  23.845  1.00  0.00    -0.074 C 
ATOM      7  C   UNL     1     -50.562 -49.582  24.459  1.00  0.00     0.008 C 
ATOM      8  C   UNL     1     -52.625 -48.449  23.615  1.00  0.00     0.021 C 
ATOM      9  C   UNL     1     -53.000 -47.000  23.965  1.00  0.00     0.012 C 
ATOM     10  C   UNL     1     -51.998 -48.785  21.049  1.00  0.00     0.012 C 
ENDROOT
TORSDOF 0
ENDMDL
