MODEL 1
REMARK VINA RESULT:    -3.348      0.000      0.000
REMARK INTER + INTRA:          -8.467
REMARK INTER:                  -5.892
REMARK INTRA:                  -2.575
REMARK UNBOUND:                -2.575
REMARK SMILES CCCCCCCCCCCCCCC(=O)[O-]
REMARK SMILES IDX 9 1 10 2 11 3 12 4 13 5 14 6 15 7 16 8 17 9 8 10 7 11 6 12
REMARK SMILES IDX 5 13 4 14 3 15 2 16 1 17
REMARK H PARENT
REMARK Flexibility Score: inf
ROOT
ATOM      1  C   UNL     1       9.533 -23.307 -38.795  1.00  0.00     0.000 C 
ENDROOT
BRANCH   1   2
ATOM      2  C   UNL     1       8.698 -22.257 -39.548  1.00  0.00     0.000 C 
BRANCH   2   3
ATOM      3  C   UNL     1       9.103 -20.812 -39.207  1.00  0.00     0.000 C 
BRANCH   3   4
ATOM      4  C   UNL     1      10.479 -20.659 -38.536  1.00  0.00     0.000 C 
BRANCH   4   5
ATOM      5  C   UNL     1      10.628 -19.339 -37.766  1.00  0.00     0.006 C 
BRANCH   5   6
ATOM      6  C   UNL     1      11.780 -19.419 -36.759  1.00  0.00     0.053 C 
BRANCH   6   7
ATOM      7  C   UNL     1      13.061 -19.756 -37.454  1.00  0.00     0.041 C 
ATOM      8  O   UNL     1      13.702 -20.793 -37.133  1.00  0.00    -0.550 OA
ATOM      9  O   UNL     1      13.573 -18.903 -38.422  1.00  0.00    -0.550 OA
ENDBRANCH   6   7
ENDBRANCH   5   6
ENDBRANCH   4   5
ENDBRANCH   3   4
ENDBRANCH   2   3
ENDBRANCH   1   2
BRANCH   1  10
ATOM     10  C   UNL     1       8.659 -24.318 -38.034  1.00  0.00     0.000 C 
BRANCH  10  11
ATOM     11  C   UNL     1       8.985 -24.372 -36.535  1.00  0.00    -0.000 C 
BRANCH  11  12
ATOM     12  C   UNL     1      10.162 -23.443 -36.194  1.00  0.00    -0.000 C 
BRANCH  12  13
ATOM     13  C   UNL     1       9.794 -22.408 -35.109  1.00  0.00    -0.000 C 
BRANCH  13  14
ATOM     14  C   UNL     1       8.305 -22.024 -35.106  1.00  0.00    -0.000 C 
BRANCH  14  15
ATOM     15  C   UNL     1       8.060 -20.576 -35.561  1.00  0.00    -0.000 C 
BRANCH  15  16
ATOM     16  C   UNL     1       6.790 -20.432 -36.413  1.00  0.00    -0.003 C 
ATOM     17  C   UNL     1       6.230 -21.779 -36.870  1.00  0.00     0.004 C 
ENDBRANCH  15  16
ENDBRANCH  14  15
ENDBRANCH  13  14
ENDBRANCH  12  13
ENDBRANCH  11  12
ENDBRANCH  10  11
ENDBRANCH   1  10
TORSDOF 13
ENDMDL
MODEL 2
REMARK VINA RESULT:    -3.323      2.214      3.691
REMARK INTER + INTRA:          -8.423
REMARK INTER:                  -7.125
REMARK INTRA:                  -1.298
REMARK UNBOUND:                -2.575
REMARK SMILES CCCCCCCCCCCCCCC(=O)[O-]
REMARK SMILES IDX 9 1 10 2 11 3 12 4 13 5 14 6 15 7 16 8 17 9 8 10 7 11 6 12
REMARK SMILES IDX 5 13 4 14 3 15 2 16 1 17
REMARK H PARENT
REMARK Flexibility Score: inf
ROOT
ATOM      1  C   UNL     1       8.252 -23.268 -36.751  1.00  0.00     0.000 C 
ENDROOT
BRANCH   1   2
ATOM      2  C   UNL     1       8.299 -22.751 -35.303  1.00  0.00     0.000 C 
BRANCH   2   3
ATOM      3  C   UNL     1       9.655 -22.124 -34.934  1.00  0.00     0.000 C 
BRANCH   3   4
ATOM      4  C   UNL     1       9.851 -20.668 -35.395  1.00  0.00     0.000 C 
BRANCH   4   5
ATOM      5  C   UNL     1      10.676 -20.554 -36.684  1.00  0.00     0.006 C 
BRANCH   5   6
ATOM      6  C   UNL     1      11.551 -19.296 -36.664  1.00  0.00     0.053 C 
BRANCH   6   7
ATOM      7  C   UNL     1      12.801 -19.514 -37.457  1.00  0.00     0.041 C 
ATOM      8  O   UNL     1      13.695 -20.291 -37.028  1.00  0.00    -0.550 OA
ATOM      9  O   UNL     1      13.001 -18.824 -38.645  1.00  0.00    -0.550 OA
ENDBRANCH   6   7
ENDBRANCH   5   6
ENDBRANCH   4   5
ENDBRANCH   3   4
ENDBRANCH   2   3
ENDBRANCH   1   2
BRANCH   1  10
ATOM     10  C   UNL     1       7.239 -22.500 -37.616  1.00  0.00     0.000 C 
BRANCH  10  11
ATOM     11  C   UNL     1       6.304 -21.609 -36.784  1.00  0.00    -0.000 C 
BRANCH  11  12
ATOM     12  C   UNL     1       6.001 -20.293 -37.519  1.00  0.00    -0.000 C 
BRANCH  12  13
ATOM     13  C   UNL     1       6.851 -19.118 -36.987  1.00  0.00    -0.000 C 
BRANCH  13  14
ATOM     14  C   UNL     1       6.449 -18.660 -35.576  1.00  0.00    -0.000 C 
BRANCH  14  15
ATOM     15  C   UNL     1       5.501 -17.450 -35.588  1.00  0.00    -0.000 C 
BRANCH  15  16
ATOM     16  C   UNL     1       5.294 -16.848 -34.189  1.00  0.00    -0.003 C 
ATOM     17  C   UNL     1       5.374 -15.322 -34.186  1.00  0.00     0.004 C 
ENDBRANCH  15  16
ENDBRANCH  14  15
ENDBRANCH  13  14
ENDBRANCH  12  13
ENDBRANCH  11  12
ENDBRANCH  10  11
ENDBRANCH   1  10
TORSDOF 13
ENDMDL
MODEL 3
REMARK VINA RESULT:    -3.320      2.497      3.824
REMARK INTER + INTRA:          -8.419
REMARK INTER:                  -6.262
REMARK INTRA:                  -2.157
REMARK UNBOUND:                -2.575
REMARK SMILES CCCCCCCCCCCCCCC(=O)[O-]
REMARK SMILES IDX 9 1 10 2 11 3 12 4 13 5 14 6 15 7 16 8 17 9 8 10 7 11 6 12
REMARK SMILES IDX 5 13 4 14 3 15 2 16 1 17
REMARK H PARENT
REMARK Flexibility Score: inf
ROOT
ATOM      1  C   UNL     1      11.285 -20.714 -37.128  1.00  0.00     0.000 C 
ENDROOT
BRANCH   1   2
ATOM      2  C   UNL     1      12.409 -19.784 -37.616  1.00  0.00     0.000 C 
BRANCH   2   3
ATOM      3  C   UNL     1      13.806 -20.243 -37.162  1.00  0.00     0.000 C 
BRANCH   3   4
ATOM      4  C   UNL     1      14.161 -21.700 -37.509  1.00  0.00     0.000 C 
BRANCH   4   5
ATOM      5  C   UNL     1      14.764 -21.853 -38.912  1.00  0.00     0.006 C 
BRANCH   5   6
ATOM      6  C   UNL     1      13.875 -22.732 -39.797  1.00  0.00     0.053 C 
BRANCH   6   7
ATOM      7  C   UNL     1      14.097 -24.180 -39.490  1.00  0.00     0.041 C 
ATOM      8  O   UNL     1      13.114 -24.943 -39.291  1.00  0.00    -0.550 OA
ATOM      9  O   UNL     1      15.388 -24.678 -39.377  1.00  0.00    -0.550 OA
ENDBRANCH   6   7
ENDBRANCH   5   6
ENDBRANCH   4   5
ENDBRANCH   3   4
ENDBRANCH   2   3
ENDBRANCH   1   2
BRANCH   1  10
ATOM     10  C   UNL     1      10.420 -21.247 -38.282  1.00  0.00     0.000 C 
BRANCH  10  11
ATOM     11  C   UNL     1      10.381 -22.782 -38.332  1.00  0.00    -0.000 C 
BRANCH  11  12
ATOM     12  C   UNL     1      10.891 -23.388 -37.015  1.00  0.00    -0.000 C 
BRANCH  12  13
ATOM     13  C   UNL     1       9.742 -23.926 -36.135  1.00  0.00    -0.000 C 
BRANCH  13  14
ATOM     14  C   UNL     1       9.581 -23.170 -34.806  1.00  0.00    -0.000 C 
BRANCH  14  15
ATOM     15  C   UNL     1       8.557 -22.026 -34.889  1.00  0.00    -0.000 C 
BRANCH  15  16
ATOM     16  C   UNL     1       7.506 -22.254 -35.986  1.00  0.00    -0.003 C 
ATOM     17  C   UNL     1       7.060 -20.953 -36.654  1.00  0.00     0.004 C 
ENDBRANCH  15  16
ENDBRANCH  14  15
ENDBRANCH  13  14
ENDBRANCH  12  13
ENDBRANCH  11  12
ENDBRANCH  10  11
ENDBRANCH   1  10
TORSDOF 13
ENDMDL
MODEL 4
REMARK VINA RESULT:    -3.290      1.302      2.515
REMARK INTER + INTRA:          -8.365
REMARK INTER:                  -6.472
REMARK INTRA:                  -1.893
REMARK UNBOUND:                -2.575
REMARK SMILES CCCCCCCCCCCCCCC(=O)[O-]
REMARK SMILES IDX 9 1 10 2 11 3 12 4 13 5 14 6 15 7 16 8 17 9 8 10 7 11 6 12
REMARK SMILES IDX 5 13 4 14 3 15 2 16 1 17
REMARK H PARENT
REMARK Flexibility Score: inf
ROOT
ATOM      1  C   UNL     1       9.019 -24.204 -36.482  1.00  0.00     0.000 C 
ENDROOT
BRANCH   1   2
ATOM      2  C   UNL     1       9.842 -24.105 -37.778  1.00  0.00     0.000 C 
BRANCH   2   3
ATOM      3  C   UNL     1       9.573 -22.808 -38.562  1.00  0.00     0.000 C 
BRANCH   3   4
ATOM      4  C   UNL     1      10.497 -21.628 -38.211  1.00  0.00     0.000 C 
BRANCH   4   5
ATOM      5  C   UNL     1      11.906 -22.072 -37.795  1.00  0.00     0.006 C 
BRANCH   5   6
ATOM      6  C   UNL     1      12.776 -20.865 -37.430  1.00  0.00     0.053 C 
BRANCH   6   7
ATOM      7  C   UNL     1      14.186 -21.078 -37.882  1.00  0.00     0.041 C 
ATOM      8  O   UNL     1      14.599 -20.537 -38.943  1.00  0.00    -0.550 OA
ATOM      9  O   UNL     1      15.030 -21.911 -37.160  1.00  0.00    -0.550 OA
ENDBRANCH   6   7
ENDBRANCH   5   6
ENDBRANCH   4   5
ENDBRANCH   3   4
ENDBRANCH   2   3
ENDBRANCH   1   2
BRANCH   1  10
ATOM     10  C   UNL     1       9.861 -23.913 -35.228  1.00  0.00     0.000 C 
BRANCH  10  11
ATOM     11  C   UNL     1       9.707 -22.467 -34.735  1.00  0.00    -0.000 C 
BRANCH  11  12
ATOM     12  C   UNL     1       8.258 -21.982 -34.895  1.00  0.00    -0.000 C 
BRANCH  12  13
ATOM     13  C   UNL     1       8.178 -20.577 -35.532  1.00  0.00    -0.000 C 
BRANCH  13  14
ATOM     14  C   UNL     1       7.060 -20.440 -36.579  1.00  0.00    -0.000 C 
BRANCH  14  15
ATOM     15  C   UNL     1       6.354 -21.773 -36.877  1.00  0.00    -0.000 C 
BRANCH  15  16
ATOM     16  C   UNL     1       4.967 -21.578 -37.508  1.00  0.00    -0.003 C 
ATOM     17  C   UNL     1       4.987 -20.607 -38.688  1.00  0.00     0.004 C 
ENDBRANCH  15  16
ENDBRANCH  14  15
ENDBRANCH  13  14
ENDBRANCH  12  13
ENDBRANCH  11  12
ENDBRANCH  10  11
ENDBRANCH   1  10
TORSDOF 13
ENDMDL
MODEL 5
REMARK VINA RESULT:    -3.277      4.567      6.231
REMARK INTER + INTRA:          -8.343
REMARK INTER:                  -7.251
REMARK INTRA:                  -1.092
REMARK UNBOUND:                -2.575
REMARK SMILES CCCCCCCCCCCCCCC(=O)[O-]
REMARK SMILES IDX 9 1 10 2 11 3 12 4 13 5 14 6 15 7 16 8 17 9 8 10 7 11 6 12
REMARK SMILES IDX 5 13 4 14 3 15 2 16 1 17
REMARK H PARENT
REMARK Flexibility Score: inf
ROOT
ATOM      1  C   UNL     1       6.605 -21.233 -36.844  1.00  0.00     0.000 C 
ENDROOT
BRANCH   1   2
ATOM      2  C   UNL     1       7.236 -19.887 -36.447  1.00  0.00     0.000 C 
BRANCH   2   3
ATOM      3  C   UNL     1       6.245 -18.712 -36.530  1.00  0.00     0.000 C 
BRANCH   3   4
ATOM      4  C   UNL     1       6.091 -17.893 -35.236  1.00  0.00     0.000 C 
BRANCH   4   5
ATOM      5  C   UNL     1       4.855 -16.983 -35.245  1.00  0.00     0.006 C 
BRANCH   5   6
ATOM      6  C   UNL     1       5.134 -15.671 -34.506  1.00  0.00     0.053 C 
BRANCH   6   7
ATOM      7  C   UNL     1       4.852 -15.822 -33.044  1.00  0.00     0.041 C 
ATOM      8  O   UNL     1       4.611 -14.807 -32.337  1.00  0.00    -0.550 OA
ATOM      9  O   UNL     1       4.901 -17.077 -32.452  1.00  0.00    -0.550 OA
ENDBRANCH   6   7
ENDBRANCH   5   6
ENDBRANCH   4   5
ENDBRANCH   3   4
ENDBRANCH   2   3
ENDBRANCH   1   2
BRANCH   1  10
ATOM     10  C   UNL     1       7.305 -22.429 -36.180  1.00  0.00     0.000 C 
BRANCH  10  11
ATOM     11  C   UNL     1       8.155 -22.019 -34.968  1.00  0.00    -0.000 C 
BRANCH  11  12
ATOM     12  C   UNL     1       9.313 -23.007 -34.750  1.00  0.00    -0.000 C 
BRANCH  12  13
ATOM     13  C   UNL     1       9.436 -24.027 -35.901  1.00  0.00    -0.000 C 
BRANCH  13  14
ATOM     14  C   UNL     1      10.721 -23.865 -36.731  1.00  0.00    -0.000 C 
BRANCH  14  15
ATOM     15  C   UNL     1      10.657 -22.676 -37.704  1.00  0.00    -0.000 C 
BRANCH  15  16
ATOM     16  C   UNL     1      11.653 -21.563 -37.342  1.00  0.00    -0.003 C 
ATOM     17  C   UNL     1      10.973 -20.343 -36.721  1.00  0.00     0.004 C 
ENDBRANCH  15  16
ENDBRANCH  14  15
ENDBRANCH  13  14
ENDBRANCH  12  13
ENDBRANCH  11  12
ENDBRANCH  10  11
ENDBRANCH   1  10
TORSDOF 13
ENDMDL
MODEL 6
REMARK VINA RESULT:    -3.257      3.413      5.086
REMARK INTER + INTRA:          -8.307
REMARK INTER:                  -6.642
REMARK INTRA:                  -1.665
REMARK UNBOUND:                -2.575
REMARK SMILES CCCCCCCCCCCCCCC(=O)[O-]
REMARK SMILES IDX 9 1 10 2 11 3 12 4 13 5 14 6 15 7 16 8 17 9 8 10 7 11 6 12
REMARK SMILES IDX 5 13 4 14 3 15 2 16 1 17
REMARK H PARENT
REMARK Flexibility Score: inf
ROOT
ATOM      1  C   UNL     1       8.237 -22.097 -35.005  1.00  0.00     0.000 C 
ENDROOT
BRANCH   1   2
ATOM      2  C   UNL     1       7.409 -22.291 -36.287  1.00  0.00     0.000 C 
BRANCH   2   3
ATOM      3  C   UNL     1       6.646 -21.021 -36.705  1.00  0.00     0.000 C 
BRANCH   3   4
ATOM      4  C   UNL     1       7.163 -19.712 -36.082  1.00  0.00     0.000 C 
BRANCH   4   5
ATOM      5  C   UNL     1       6.637 -18.459 -36.797  1.00  0.00     0.006 C 
BRANCH   5   6
ATOM      6  C   UNL     1       5.493 -17.817 -36.006  1.00  0.00     0.053 C 
BRANCH   6   7
ATOM      7  C   UNL     1       5.891 -16.462 -35.513  1.00  0.00     0.041 C 
ATOM      8  O   UNL     1       5.518 -16.067 -34.376  1.00  0.00    -0.550 OA
ATOM      9  O   UNL     1       6.634 -15.616 -36.325  1.00  0.00    -0.550 OA
ENDBRANCH   6   7
ENDBRANCH   5   6
ENDBRANCH   4   5
ENDBRANCH   3   4
ENDBRANCH   2   3
ENDBRANCH   1   2
BRANCH   1  10
ATOM     10  C   UNL     1       9.373 -23.126 -34.878  1.00  0.00     0.000 C 
BRANCH  10  11
ATOM     11  C   UNL     1       9.533 -23.989 -36.138  1.00  0.00    -0.000 C 
BRANCH  11  12
ATOM     12  C   UNL     1      10.839 -23.651 -36.875  1.00  0.00    -0.000 C 
BRANCH  12  13
ATOM     13  C   UNL     1      10.703 -22.391 -37.756  1.00  0.00    -0.000 C 
BRANCH  13  14
ATOM     14  C   UNL     1      11.640 -21.245 -37.338  1.00  0.00    -0.000 C 
BRANCH  14  15
ATOM     15  C   UNL     1      10.895 -20.079 -36.667  1.00  0.00    -0.000 C 
BRANCH  15  16
ATOM     16  C   UNL     1      10.881 -18.811 -37.535  1.00  0.00    -0.003 C 
ATOM     17  C   UNL     1       9.880 -18.895 -38.686  1.00  0.00     0.004 C 
ENDBRANCH  15  16
ENDBRANCH  14  15
ENDBRANCH  13  14
ENDBRANCH  12  13
ENDBRANCH  11  12
ENDBRANCH  10  11
ENDBRANCH   1  10
TORSDOF 13
ENDMDL
MODEL 7
REMARK VINA RESULT:    -3.245      1.567      2.836
REMARK INTER + INTRA:          -8.285
REMARK INTER:                  -6.318
REMARK INTRA:                  -1.967
REMARK UNBOUND:                -2.575
REMARK SMILES CCCCCCCCCCCCCCC(=O)[O-]
REMARK SMILES IDX 9 1 10 2 11 3 12 4 13 5 14 6 15 7 16 8 17 9 8 10 7 11 6 12
REMARK SMILES IDX 5 13 4 14 3 15 2 16 1 17
REMARK H PARENT
REMARK Flexibility Score: inf
ROOT
ATOM      1  C   UNL     1       9.699 -23.980 -35.975  1.00  0.00     0.000 C 
ENDROOT
BRANCH   1   2
ATOM      2  C   UNL     1      10.789 -23.693 -37.022  1.00  0.00     0.000 C 
BRANCH   2   3
ATOM      3  C   UNL     1      10.260 -22.919 -38.242  1.00  0.00     0.000 C 
BRANCH   3   4
ATOM      4  C   UNL     1      10.796 -21.483 -38.389  1.00  0.00     0.000 C 
BRANCH   4   5
ATOM      5  C   UNL     1      11.890 -21.144 -37.367  1.00  0.00     0.006 C 
BRANCH   5   6
ATOM      6  C   UNL     1      11.696 -19.733 -36.805  1.00  0.00     0.053 C 
BRANCH   6   7
ATOM      7  C   UNL     1      11.425 -18.760 -37.909  1.00  0.00     0.041 C 
ATOM      8  O   UNL     1      12.335 -18.463 -38.729  1.00  0.00    -0.550 OA
ATOM      9  O   UNL     1      10.184 -18.146 -38.007  1.00  0.00    -0.550 OA
ENDBRANCH   6   7
ENDBRANCH   5   6
ENDBRANCH   4   5
ENDBRANCH   3   4
ENDBRANCH   2   3
ENDBRANCH   1   2
BRANCH   1  10
ATOM     10  C   UNL     1       9.671 -22.929 -34.853  1.00  0.00     0.000 C 
BRANCH  10  11
ATOM     11  C   UNL     1       8.341 -22.165 -34.790  1.00  0.00    -0.000 C 
BRANCH  11  12
ATOM     12  C   UNL     1       8.470 -20.782 -35.449  1.00  0.00    -0.000 C 
BRANCH  12  13
ATOM     13  C   UNL     1       7.642 -20.674 -36.748  1.00  0.00    -0.000 C 
BRANCH  13  14
ATOM     14  C   UNL     1       6.777 -21.914 -37.030  1.00  0.00    -0.000 C 
BRANCH  14  15
ATOM     15  C   UNL     1       5.333 -21.560 -37.418  1.00  0.00    -0.000 C 
BRANCH  15  16
ATOM     16  C   UNL     1       5.153 -20.064 -37.720  1.00  0.00    -0.003 C 
ATOM     17  C   UNL     1       3.755 -19.731 -38.241  1.00  0.00     0.004 C 
ENDBRANCH  15  16
ENDBRANCH  14  15
ENDBRANCH  13  14
ENDBRANCH  12  13
ENDBRANCH  11  12
ENDBRANCH  10  11
ENDBRANCH   1  10
TORSDOF 13
ENDMDL
MODEL 8
REMARK VINA RESULT:    -3.228      3.992      5.526
REMARK INTER + INTRA:          -8.255
REMARK INTER:                  -6.376
REMARK INTRA:                  -1.880
REMARK UNBOUND:                -2.575
REMARK SMILES CCCCCCCCCCCCCCC(=O)[O-]
REMARK SMILES IDX 9 1 10 2 11 3 12 4 13 5 14 6 15 7 16 8 17 9 8 10 7 11 6 12
REMARK SMILES IDX 5 13 4 14 3 15 2 16 1 17
REMARK H PARENT
REMARK Flexibility Score: inf
ROOT
ATOM      1  C   UNL     1       7.388 -22.422 -37.660  1.00  0.00     0.000 C 
ENDROOT
BRANCH   1   2
ATOM      2  C   UNL     1       6.201 -21.854 -36.863  1.00  0.00     0.000 C 
BRANCH   2   3
ATOM      3  C   UNL     1       5.965 -20.356 -37.125  1.00  0.00     0.000 C 
BRANCH   3   4
ATOM      4  C   UNL     1       6.737 -19.400 -36.198  1.00  0.00     0.000 C 
BRANCH   4   5
ATOM      5  C   UNL     1       6.283 -17.939 -36.329  1.00  0.00     0.006 C 
BRANCH   5   6
ATOM      6  C   UNL     1       5.567 -17.472 -35.058  1.00  0.00     0.053 C 
BRANCH   6   7
ATOM      7  C   UNL     1       4.557 -16.417 -35.382  1.00  0.00     0.041 C 
ATOM      8  O   UNL     1       3.402 -16.742 -35.767  1.00  0.00    -0.550 OA
ATOM      9  O   UNL     1       4.903 -15.075 -35.304  1.00  0.00    -0.550 OA
ENDBRANCH   6   7
ENDBRANCH   5   6
ENDBRANCH   4   5
ENDBRANCH   3   4
ENDBRANCH   2   3
ENDBRANCH   1   2
BRANCH   1  10
ATOM     10  C   UNL     1       8.307 -23.303 -36.799  1.00  0.00     0.000 C 
BRANCH  10  11
ATOM     11  C   UNL     1       8.366 -22.843 -35.335  1.00  0.00    -0.000 C 
BRANCH  11  12
ATOM     12  C   UNL     1       9.743 -22.243 -35.003  1.00  0.00    -0.000 C 
BRANCH  12  13
ATOM     13  C   UNL     1       9.792 -20.720 -35.250  1.00  0.00    -0.000 C 
BRANCH  13  14
ATOM     14  C   UNL     1      10.810 -20.305 -36.326  1.00  0.00    -0.000 C 
BRANCH  14  15
ATOM     15  C   UNL     1      10.148 -19.925 -37.660  1.00  0.00    -0.000 C 
BRANCH  15  16
ATOM     16  C   UNL     1      10.566 -20.853 -38.811  1.00  0.00    -0.003 C 
ATOM     17  C   UNL     1      11.562 -21.926 -38.372  1.00  0.00     0.004 C 
ENDBRANCH  15  16
ENDBRANCH  14  15
ENDBRANCH  13  14
ENDBRANCH  12  13
ENDBRANCH  11  12
ENDBRANCH  10  11
ENDBRANCH   1  10
TORSDOF 13
ENDMDL
MODEL 9
REMARK VINA RESULT:    -3.170     11.554     12.914
REMARK INTER + INTRA:          -8.155
REMARK INTER:                  -6.536
REMARK INTRA:                  -1.619
REMARK UNBOUND:                -2.575
REMARK SMILES CCCCCCCCCCCCCCC(=O)[O-]
REMARK SMILES IDX 9 1 10 2 11 3 12 4 13 5 14 6 15 7 16 8 17 9 8 10 7 11 6 12
REMARK SMILES IDX 5 13 4 14 3 15 2 16 1 17
REMARK H PARENT
REMARK Flexibility Score: inf
ROOT
ATOM      1  C   UNL     1      14.058 -13.391 -45.393  1.00  0.00     0.000 C 
ENDROOT
BRANCH   1   2
ATOM      2  C   UNL     1      14.089 -12.892 -43.938  1.00  0.00     0.000 C 
BRANCH   2   3
ATOM      3  C   UNL     1      12.686 -12.614 -43.369  1.00  0.00     0.000 C 
BRANCH   3   4
ATOM      4  C   UNL     1      12.360 -11.129 -43.127  1.00  0.00     0.000 C 
BRANCH   4   5
ATOM      5  C   UNL     1      11.548 -10.500 -44.268  1.00  0.00     0.006 C 
BRANCH   5   6
ATOM      6  C   UNL     1      11.680  -8.973 -44.257  1.00  0.00     0.053 C 
BRANCH   6   7
ATOM      7  C   UNL     1      10.618  -8.360 -43.400  1.00  0.00     0.041 C 
ATOM      8  O   UNL     1      10.833  -8.154 -42.176  1.00  0.00    -0.550 OA
ATOM      9  O   UNL     1       9.375  -8.060 -43.941  1.00  0.00    -0.550 OA
ENDBRANCH   6   7
ENDBRANCH   5   6
ENDBRANCH   4   5
ENDBRANCH   3   4
ENDBRANCH   2   3
ENDBRANCH   1   2
BRANCH   1  10
ATOM     10  C   UNL     1      12.855 -14.306 -45.674  1.00  0.00     0.000 C 
BRANCH  10  11
ATOM     11  C   UNL     1      12.070 -13.884 -46.925  1.00  0.00    -0.000 C 
BRANCH  11  12
ATOM     12  C   UNL     1      10.717 -13.262 -46.542  1.00  0.00    -0.000 C 
BRANCH  12  13
ATOM     13  C   UNL     1      10.135 -13.879 -45.252  1.00  0.00    -0.000 C 
BRANCH  13  14
ATOM     14  C   UNL     1       8.615 -13.688 -45.112  1.00  0.00    -0.000 C 
BRANCH  14  15
ATOM     15  C   UNL     1       7.962 -13.138 -46.390  1.00  0.00    -0.000 C 
BRANCH  15  16
ATOM     16  C   UNL     1       7.220 -11.814 -46.151  1.00  0.00    -0.003 C 
ATOM     17  C   UNL     1       8.153 -10.686 -45.712  1.00  0.00     0.004 C 
ENDBRANCH  15  16
ENDBRANCH  14  15
ENDBRANCH  13  14
ENDBRANCH  12  13
ENDBRANCH  11  12
ENDBRANCH  10  11
ENDBRANCH   1  10
TORSDOF 13
ENDMDL
