MODEL 1
REMARK VINA RESULT:     0.000      0.000      0.000
REMARK INTER + INTRA:          -0.953
REMARK INTER:                   0.000
REMARK INTRA:                  -0.953
REMARK UNBOUND:                -0.953
REMARK SMILES CCCCCCCCC(=O)[O-]
REMARK SMILES IDX 6 1 7 2 8 3 9 4 10 5 11 6 5 7 4 8 3 9 2 10 1 11
REMARK H PARENT
REMARK Flexibility Score: inf
ROOT
ATOM      1  C   UNL     1     179.570 187.602 175.977  1.00  0.00     0.000 C 
ENDROOT
BRANCH   1   2
ATOM      2  C   UNL     1     178.694 186.665 175.131  1.00  0.00     0.006 C 
BRANCH   2   3
ATOM      3  C   UNL     1     178.460 185.334 175.853  1.00  0.00     0.053 C 
BRANCH   3   4
ATOM      4  C   UNL     1     179.278 184.248 175.229  1.00  0.00     0.041 C 
ATOM      5  O   UNL     1     179.889 184.455 174.148  1.00  0.00    -0.550 OA
ATOM      6  O   UNL     1     179.406 183.021 175.867  1.00  0.00    -0.550 OA
ENDBRANCH   3   4
ENDBRANCH   2   3
ENDBRANCH   1   2
BRANCH   1   7
ATOM      7  C   UNL     1     181.014 187.693 175.459  1.00  0.00     0.000 C 
BRANCH   7   8
ATOM      8  C   UNL     1     182.042 187.182 176.484  1.00  0.00    -0.000 C 
BRANCH   8   9
ATOM      9  C   UNL     1     182.554 185.766 176.163  1.00  0.00    -0.000 C 
BRANCH   9  10
ATOM     10  C   UNL     1     182.329 184.726 177.275  1.00  0.00    -0.003 C 
ATOM     11  C   UNL     1     181.295 185.167 178.309  1.00  0.00     0.004 C 
ENDBRANCH   9  10
ENDBRANCH   8   9
ENDBRANCH   7   8
ENDBRANCH   1   7
TORSDOF 7
ENDMDL
MODEL 2
REMARK VINA RESULT:     0.000      4.302      5.720
REMARK INTER + INTRA:          -0.953
REMARK INTER:                   0.000
REMARK INTRA:                  -0.953
REMARK UNBOUND:                -0.953
REMARK SMILES CCCCCCCCC(=O)[O-]
REMARK SMILES IDX 6 1 7 2 8 3 9 4 10 5 11 6 5 7 4 8 3 9 2 10 1 11
REMARK H PARENT
REMARK Flexibility Score: inf
ROOT
ATOM      1  C   UNL     1     184.149 185.559 177.458  1.00  0.00     0.000 C 
ENDROOT
BRANCH   1   2
ATOM      2  C   UNL     1     182.829 186.324 177.277  1.00  0.00     0.006 C 
BRANCH   2   3
ATOM      3  C   UNL     1     182.977 187.784 177.717  1.00  0.00     0.053 C 
BRANCH   3   4
ATOM      4  C   UNL     1     182.295 188.009 179.029  1.00  0.00     0.041 C 
ATOM      5  O   UNL     1     181.569 187.109 179.528  1.00  0.00    -0.550 OA
ATOM      6  O   UNL     1     182.500 189.193 179.725  1.00  0.00    -0.550 OA
ENDBRANCH   3   4
ENDBRANCH   2   3
ENDBRANCH   1   2
BRANCH   1   7
ATOM      7  C   UNL     1     184.131 184.624 178.677  1.00  0.00     0.000 C 
BRANCH   7   8
ATOM      8  C   UNL     1     185.183 185.008 179.732  1.00  0.00    -0.000 C 
BRANCH   8   9
ATOM      9  C   UNL     1     184.580 185.754 180.935  1.00  0.00    -0.000 C 
BRANCH   9  10
ATOM     10  C   UNL     1     185.170 187.151 181.199  1.00  0.00    -0.003 C 
ATOM     11  C   UNL     1     185.949 187.706 180.007  1.00  0.00     0.004 C 
ENDBRANCH   9  10
ENDBRANCH   8   9
ENDBRANCH   7   8
ENDBRANCH   1   7
TORSDOF 7
ENDMDL
MODEL 3
REMARK VINA RESULT:     0.000      4.873      5.982
REMARK INTER + INTRA:          -0.953
REMARK INTER:                   0.000
REMARK INTRA:                  -0.953
REMARK UNBOUND:                -0.953
REMARK SMILES CCCCCCCCC(=O)[O-]
REMARK SMILES IDX 6 1 7 2 8 3 9 4 10 5 11 6 5 7 4 8 3 9 2 10 1 11
REMARK H PARENT
REMARK Flexibility Score: inf
ROOT
ATOM      1  C   UNL     1     176.210 188.720 178.924  1.00  0.00     0.000 C 
ENDROOT
BRANCH   1   2
ATOM      2  C   UNL     1     176.834 189.587 180.029  1.00  0.00     0.006 C 
BRANCH   2   3
ATOM      3  C   UNL     1     178.293 189.922 179.704  1.00  0.00     0.053 C 
BRANCH   3   4
ATOM      4  C   UNL     1     179.220 189.121 180.563  1.00  0.00     0.041 C 
ATOM      5  O   UNL     1     178.767 188.440 181.520  1.00  0.00    -0.550 OA
ATOM      6  O   UNL     1     180.578 189.087 180.276  1.00  0.00    -0.550 OA
ENDBRANCH   3   4
ENDBRANCH   2   3
ENDBRANCH   1   2
BRANCH   1   7
ATOM      7  C   UNL     1     176.068 187.246 179.335  1.00  0.00     0.000 C 
BRANCH   7   8
ATOM      8  C   UNL     1     176.895 186.303 178.444  1.00  0.00    -0.000 C 
BRANCH   8   9
ATOM      9  C   UNL     1     178.200 185.838 179.114  1.00  0.00    -0.000 C 
BRANCH   9  10
ATOM     10  C   UNL     1     179.486 186.172 178.337  1.00  0.00    -0.003 C 
ATOM     11  C   UNL     1     179.278 187.242 177.267  1.00  0.00     0.004 C 
ENDBRANCH   9  10
ENDBRANCH   8   9
ENDBRANCH   7   8
ENDBRANCH   1   7
TORSDOF 7
ENDMDL
MODEL 4
REMARK VINA RESULT:     0.000      9.755     10.951
REMARK INTER + INTRA:          -0.952
REMARK INTER:                   0.000
REMARK INTRA:                  -0.952
REMARK UNBOUND:                -0.953
REMARK SMILES CCCCCCCCC(=O)[O-]
REMARK SMILES IDX 6 1 7 2 8 3 9 4 10 5 11 6 5 7 4 8 3 9 2 10 1 11
REMARK H PARENT
REMARK Flexibility Score: inf
ROOT
ATOM      1  C   UNL     1     186.096 180.014 180.190  1.00  0.00     0.000 C 
ENDROOT
BRANCH   1   2
ATOM      2  C   UNL     1     187.065 179.466 181.249  1.00  0.00     0.006 C 
BRANCH   2   3
ATOM      3  C   UNL     1     188.492 179.961 180.993  1.00  0.00     0.053 C 
BRANCH   3   4
ATOM      4  C   UNL     1     189.338 178.859 180.438  1.00  0.00     0.041 C 
ATOM      5  O   UNL     1     188.899 177.679 180.403  1.00  0.00    -0.550 OA
ATOM      6  O   UNL     1     190.593 179.143 179.914  1.00  0.00    -0.550 OA
ENDBRANCH   3   4
ENDBRANCH   2   3
ENDBRANCH   1   2
BRANCH   1   7
ATOM      7  C   UNL     1     185.690 178.956 179.152  1.00  0.00     0.000 C 
BRANCH   7   8
ATOM      8  C   UNL     1     186.133 179.327 177.726  1.00  0.00    -0.000 C 
BRANCH   8   9
ATOM      9  C   UNL     1     187.387 178.561 177.271  1.00  0.00    -0.000 C 
BRANCH   9  10
ATOM     10  C   UNL     1     188.578 179.446 176.861  1.00  0.00    -0.003 C 
ATOM     11  C   UNL     1     188.452 180.886 177.356  1.00  0.00     0.004 C 
ENDBRANCH   9  10
ENDBRANCH   8   9
ENDBRANCH   7   8
ENDBRANCH   1   7
TORSDOF 7
ENDMDL
MODEL 5
REMARK VINA RESULT:     0.001     11.085     11.718
REMARK INTER + INTRA:          -0.952
REMARK INTER:                   0.000
REMARK INTRA:                  -0.952
REMARK UNBOUND:                -0.953
REMARK SMILES CCCCCCCCC(=O)[O-]
REMARK SMILES IDX 6 1 7 2 8 3 9 4 10 5 11 6 5 7 4 8 3 9 2 10 1 11
REMARK H PARENT
REMARK Flexibility Score: inf
ROOT
ATOM      1  C   UNL     1     177.237 182.472 187.437  1.00  0.00     0.000 C 
ENDROOT
BRANCH   1   2
ATOM      2  C   UNL     1     176.264 182.091 186.311  1.00  0.00     0.006 C 
BRANCH   2   3
ATOM      3  C   UNL     1     176.055 180.575 186.258  1.00  0.00     0.053 C 
BRANCH   3   4
ATOM      4  C   UNL     1     176.780 179.985 185.090  1.00  0.00     0.041 C 
ATOM      5  O   UNL     1     177.304 180.736 184.225  1.00  0.00    -0.550 OA
ATOM      6  O   UNL     1     176.919 178.608 184.982  1.00  0.00    -0.550 OA
ENDBRANCH   3   4
ENDBRANCH   2   3
ENDBRANCH   1   2
BRANCH   1   7
ATOM      7  C   UNL     1     178.634 182.845 186.915  1.00  0.00     0.000 C 
BRANCH   7   8
ATOM      8  C   UNL     1     179.730 181.896 187.430  1.00  0.00    -0.000 C 
BRANCH   8   9
ATOM      9  C   UNL     1     180.172 180.864 186.378  1.00  0.00    -0.000 C 
BRANCH   9  10
ATOM     10  C   UNL     1     180.009 179.393 186.800  1.00  0.00    -0.003 C 
ATOM     11  C   UNL     1     179.086 179.214 188.003  1.00  0.00     0.004 C 
ENDBRANCH   9  10
ENDBRANCH   8   9
ENDBRANCH   7   8
ENDBRANCH   1   7
TORSDOF 7
ENDMDL
MODEL 6
REMARK VINA RESULT:     0.001      6.666      7.443
REMARK INTER + INTRA:          -0.952
REMARK INTER:                   0.000
REMARK INTRA:                  -0.952
REMARK UNBOUND:                -0.953
REMARK SMILES CCCCCCCCC(=O)[O-]
REMARK SMILES IDX 6 1 7 2 8 3 9 4 10 5 11 6 5 7 4 8 3 9 2 10 1 11
REMARK H PARENT
REMARK Flexibility Score: inf
ROOT
ATOM      1  C   UNL     1     183.172 181.299 182.450  1.00  0.00     0.000 C 
ENDROOT
BRANCH   1   2
ATOM      2  C   UNL     1     181.714 181.090 182.013  1.00  0.00     0.006 C 
BRANCH   2   3
ATOM      3  C   UNL     1     181.563 179.794 181.212  1.00  0.00     0.053 C 
BRANCH   3   4
ATOM      4  C   UNL     1     181.383 180.093 179.758  1.00  0.00     0.041 C 
ATOM      5  O   UNL     1     181.205 181.278 179.372  1.00  0.00    -0.550 OA
ATOM      6  O   UNL     1     181.462 179.069 178.822  1.00  0.00    -0.550 OA
ENDBRANCH   3   4
ENDBRANCH   2   3
ENDBRANCH   1   2
BRANCH   1   7
ATOM      7  C   UNL     1     183.894 182.371 181.619  1.00  0.00     0.000 C 
BRANCH   7   8
ATOM      8  C   UNL     1     185.091 181.804 180.836  1.00  0.00    -0.000 C 
BRANCH   8   9
ATOM      9  C   UNL     1     184.781 181.584 179.344  1.00  0.00    -0.000 C 
BRANCH   9  10
ATOM     10  C   UNL     1     184.972 180.140 178.846  1.00  0.00    -0.003 C 
ATOM     11  C   UNL     1     185.044 179.119 179.981  1.00  0.00     0.004 C 
ENDBRANCH   9  10
ENDBRANCH   8   9
ENDBRANCH   7   8
ENDBRANCH   1   7
TORSDOF 7
ENDMDL
MODEL 7
REMARK VINA RESULT:     0.001      7.392      8.751
REMARK INTER + INTRA:          -0.952
REMARK INTER:                   0.000
REMARK INTRA:                  -0.952
REMARK UNBOUND:                -0.953
REMARK SMILES CCCCCCCCC(=O)[O-]
REMARK SMILES IDX 6 1 7 2 8 3 9 4 10 5 11 6 5 7 4 8 3 9 2 10 1 11
REMARK H PARENT
REMARK Flexibility Score: inf
ROOT
ATOM      1  C   UNL     1     182.489 182.284 182.112  1.00  0.00     0.000 C 
ENDROOT
BRANCH   1   2
ATOM      2  C   UNL     1     183.757 182.265 182.981  1.00  0.00     0.006 C 
BRANCH   2   3
ATOM      3  C   UNL     1     185.016 182.359 182.114  1.00  0.00     0.053 C 
BRANCH   3   4
ATOM      4  C   UNL     1     185.704 181.032 182.043  1.00  0.00     0.041 C 
ATOM      5  O   UNL     1     185.328 180.083 182.780  1.00  0.00    -0.550 OA
ATOM      6  O   UNL     1     186.728 180.829 181.127  1.00  0.00    -0.550 OA
ENDBRANCH   3   4
ENDBRANCH   2   3
ENDBRANCH   1   2
BRANCH   1   7
ATOM      7  C   UNL     1     181.839 180.898 181.980  1.00  0.00     0.000 C 
BRANCH   7   8
ATOM      8  C   UNL     1     181.813 180.394 180.527  1.00  0.00    -0.000 C 
BRANCH   8   9
ATOM      9  C   UNL     1     182.905 179.348 180.237  1.00  0.00    -0.000 C 
BRANCH   9  10
ATOM     10  C   UNL     1     183.876 179.718 179.102  1.00  0.00    -0.003 C 
ATOM     11  C   UNL     1     183.839 181.203 178.743  1.00  0.00     0.004 C 
ENDBRANCH   9  10
ENDBRANCH   8   9
ENDBRANCH   7   8
ENDBRANCH   1   7
TORSDOF 7
ENDMDL
MODEL 8
REMARK VINA RESULT:     0.001      4.999      6.542
REMARK INTER + INTRA:          -0.952
REMARK INTER:                   0.000
REMARK INTRA:                  -0.952
REMARK UNBOUND:                -0.953
REMARK SMILES CCCCCCCCC(=O)[O-]
REMARK SMILES IDX 6 1 7 2 8 3 9 4 10 5 11 6 5 7 4 8 3 9 2 10 1 11
REMARK H PARENT
REMARK Flexibility Score: inf
ROOT
ATOM      1  C   UNL     1     184.205 180.354 177.548  1.00  0.00     0.000 C 
ENDROOT
BRANCH   1   2
ATOM      2  C   UNL     1     182.989 179.535 178.008  1.00  0.00     0.006 C 
BRANCH   2   3
ATOM      3  C   UNL     1     182.533 178.568 176.912  1.00  0.00     0.053 C 
BRANCH   3   4
ATOM      4  C   UNL     1     181.273 179.057 176.270  1.00  0.00     0.041 C 
ATOM      5  O   UNL     1     180.651 180.036 176.760  1.00  0.00    -0.550 OA
ATOM      6  O   UNL     1     180.814 178.465 175.101  1.00  0.00    -0.550 OA
ENDBRANCH   3   4
ENDBRANCH   2   3
ENDBRANCH   1   2
BRANCH   1   7
ATOM      7  C   UNL     1     183.842 181.802 177.182  1.00  0.00     0.000 C 
BRANCH   7   8
ATOM      8  C   UNL     1     184.122 182.125 175.704  1.00  0.00    -0.000 C 
BRANCH   8   9
ATOM      9  C   UNL     1     182.848 182.125 174.839  1.00  0.00    -0.000 C 
BRANCH   9  10
ATOM     10  C   UNL     1     182.865 181.142 173.655  1.00  0.00    -0.003 C 
ATOM     11  C   UNL     1     183.951 180.074 173.779  1.00  0.00     0.004 C 
ENDBRANCH   9  10
ENDBRANCH   8   9
ENDBRANCH   7   8
ENDBRANCH   1   7
TORSDOF 7
ENDMDL
MODEL 9
REMARK VINA RESULT:     0.001      4.159      5.423
REMARK INTER + INTRA:          -0.952
REMARK INTER:                   0.000
REMARK INTRA:                  -0.952
REMARK UNBOUND:                -0.953
REMARK SMILES CCCCCCCCC(=O)[O-]
REMARK SMILES IDX 6 1 7 2 8 3 9 4 10 5 11 6 5 7 4 8 3 9 2 10 1 11
REMARK H PARENT
REMARK Flexibility Score: inf
ROOT
ATOM      1  C   UNL     1     179.070 182.312 179.661  1.00  0.00     0.000 C 
ENDROOT
BRANCH   1   2
ATOM      2  C   UNL     1     179.314 182.831 178.235  1.00  0.00     0.006 C 
BRANCH   2   3
ATOM      3  C   UNL     1     180.114 181.816 177.413  1.00  0.00     0.053 C 
BRANCH   3   4
ATOM      4  C   UNL     1     181.525 182.280 177.236  1.00  0.00     0.041 C 
ATOM      5  O   UNL     1     181.859 183.442 177.587  1.00  0.00    -0.550 OA
ATOM      6  O   UNL     1     182.483 181.411 176.730  1.00  0.00    -0.550 OA
ENDBRANCH   3   4
ENDBRANCH   2   3
ENDBRANCH   1   2
BRANCH   1   7
ATOM      7  C   UNL     1     179.966 182.998 180.704  1.00  0.00     0.000 C 
BRANCH   7   8
ATOM      8  C   UNL     1     180.914 182.011 181.408  1.00  0.00    -0.000 C 
BRANCH   8   9
ATOM      9  C   UNL     1     182.354 182.078 180.869  1.00  0.00    -0.000 C 
BRANCH   9  10
ATOM     10  C   UNL     1     182.904 180.751 180.315  1.00  0.00    -0.003 C 
ATOM     11  C   UNL     1     181.810 179.724 180.026  1.00  0.00     0.004 C 
ENDBRANCH   9  10
ENDBRANCH   8   9
ENDBRANCH   7   8
ENDBRANCH   1   7
TORSDOF 7
ENDMDL
