MODEL 1
REMARK VINA RESULT:    -4.031      0.000      0.000
REMARK INTER + INTRA:          -9.307
REMARK INTER:                  -7.331
REMARK INTRA:                  -1.976
REMARK UNBOUND:                -1.976
REMARK SMILES CCCCCCCCCCCCCCCC(=O)[O-]
REMARK SMILES IDX 9 1 10 2 11 3 12 4 13 5 14 6 15 7 16 8 17 9 18 10 8 11 7 12
REMARK SMILES IDX 6 13 5 14 4 15 3 16 2 17 1 18
REMARK H PARENT
REMARK Flexibility Score: inf
ROOT
ATOM      1  C   UNL     1      25.130  -2.936   4.552  1.00  0.00     0.000 C 
ENDROOT
BRANCH   1   2
ATOM      2  C   UNL     1      23.957  -2.504   5.451  1.00  0.00     0.000 C 
BRANCH   2   3
ATOM      3  C   UNL     1      23.195  -3.700   6.045  1.00  0.00     0.000 C 
BRANCH   3   4
ATOM      4  C   UNL     1      21.689  -3.424   6.192  1.00  0.00     0.000 C 
BRANCH   4   5
ATOM      5  C   UNL     1      21.246  -2.158   5.440  1.00  0.00     0.000 C 
BRANCH   5   6
ATOM      6  C   UNL     1      20.007  -2.394   4.558  1.00  0.00     0.006 C 
BRANCH   6   7
ATOM      7  C   UNL     1      19.439  -1.084   3.997  1.00  0.00     0.053 C 
BRANCH   7   8
ATOM      8  C   UNL     1      18.420  -0.483   4.918  1.00  0.00     0.041 C 
ATOM      9  O   UNL     1      17.642  -1.225   5.573  1.00  0.00    -0.550 OA
ATOM     10  O   UNL     1      18.308   0.897   5.024  1.00  0.00    -0.550 OA
ENDBRANCH   7   8
ENDBRANCH   6   7
ENDBRANCH   5   6
ENDBRANCH   4   5
ENDBRANCH   3   4
ENDBRANCH   2   3
ENDBRANCH   1   2
BRANCH   1  11
ATOM     11  C   UNL     1      24.925  -2.542   3.078  1.00  0.00     0.000 C 
BRANCH  11  12
ATOM     12  C   UNL     1      23.784  -3.288   2.360  1.00  0.00    -0.000 C 
BRANCH  12  13
ATOM     13  C   UNL     1      22.637  -2.393   1.850  1.00  0.00    -0.000 C 
BRANCH  13  14
ATOM     14  C   UNL     1      22.777  -0.896   2.193  1.00  0.00    -0.000 C 
BRANCH  14  15
ATOM     15  C   UNL     1      23.465  -0.046   1.110  1.00  0.00    -0.000 C 
BRANCH  15  16
ATOM     16  C   UNL     1      23.344  -0.659  -0.295  1.00  0.00    -0.000 C 
BRANCH  16  17
ATOM     17  C   UNL     1      24.699  -0.766  -1.010  1.00  0.00    -0.003 C 
ATOM     18  C   UNL     1      25.051  -2.201  -1.398  1.00  0.00     0.004 C 
ENDBRANCH  16  17
ENDBRANCH  15  16
ENDBRANCH  14  15
ENDBRANCH  13  14
ENDBRANCH  12  13
ENDBRANCH  11  12
ENDBRANCH   1  11
TORSDOF 14
ENDMDL
MODEL 2
REMARK VINA RESULT:    -4.016      3.862      5.909
REMARK INTER + INTRA:          -9.278
REMARK INTER:                  -7.627
REMARK INTRA:                  -1.651
REMARK UNBOUND:                -1.976
REMARK SMILES CCCCCCCCCCCCCCCC(=O)[O-]
REMARK SMILES IDX 9 1 10 2 11 3 12 4 13 5 14 6 15 7 16 8 17 9 18 10 8 11 7 12
REMARK SMILES IDX 6 13 5 14 4 15 3 16 2 17 1 18
REMARK H PARENT
REMARK Flexibility Score: inf
ROOT
ATOM      1  C   UNL     1      24.772   0.000  -0.709  1.00  0.00     0.000 C 
ENDROOT
BRANCH   1   2
ATOM      2  C   UNL     1      23.449   0.787  -0.734  1.00  0.00     0.000 C 
BRANCH   2   3
ATOM      3  C   UNL     1      22.811   0.917   0.659  1.00  0.00     0.000 C 
BRANCH   3   4
ATOM      4  C   UNL     1      23.785   0.544   1.789  1.00  0.00     0.000 C 
BRANCH   4   5
ATOM      5  C   UNL     1      23.144  -0.380   2.837  1.00  0.00     0.000 C 
BRANCH   5   6
ATOM      6  C   UNL     1      24.034  -1.585   3.189  1.00  0.00     0.006 C 
BRANCH   6   7
ATOM      7  C   UNL     1      24.354  -1.649   4.688  1.00  0.00     0.053 C 
BRANCH   7   8
ATOM      8  C   UNL     1      25.694  -1.052   4.994  1.00  0.00     0.041 C 
ATOM      9  O   UNL     1      25.816   0.192   5.143  1.00  0.00    -0.550 OA
ATOM     10  O   UNL     1      26.815  -1.869   5.081  1.00  0.00    -0.550 OA
ENDBRANCH   7   8
ENDBRANCH   6   7
ENDBRANCH   5   6
ENDBRANCH   4   5
ENDBRANCH   3   4
ENDBRANCH   2   3
ENDBRANCH   1   2
BRANCH   1  11
ATOM     11  C   UNL     1      24.658  -1.378  -1.385  1.00  0.00     0.000 C 
BRANCH  11  12
ATOM     12  C   UNL     1      24.398  -2.553  -0.423  1.00  0.00    -0.000 C 
BRANCH  12  13
ATOM     13  C   UNL     1      22.914  -2.926  -0.234  1.00  0.00    -0.000 C 
BRANCH  13  14
ATOM     14  C   UNL     1      21.970  -2.430  -1.349  1.00  0.00    -0.000 C 
BRANCH  14  15
ATOM     15  C   UNL     1      21.035  -3.504  -1.931  1.00  0.00    -0.000 C 
BRANCH  15  16
ATOM     16  C   UNL     1      20.492  -4.465  -0.859  1.00  0.00    -0.000 C 
BRANCH  16  17
ATOM     17  C   UNL     1      19.652  -5.602  -1.459  1.00  0.00    -0.003 C 
ATOM     18  C   UNL     1      19.528  -5.507  -2.979  1.00  0.00     0.004 C 
ENDBRANCH  16  17
ENDBRANCH  15  16
ENDBRANCH  14  15
ENDBRANCH  13  14
ENDBRANCH  12  13
ENDBRANCH  11  12
ENDBRANCH   1  11
TORSDOF 14
ENDMDL
MODEL 3
REMARK VINA RESULT:    -3.980      2.140      4.424
REMARK INTER + INTRA:          -9.213
REMARK INTER:                  -6.750
REMARK INTRA:                  -2.463
REMARK UNBOUND:                -1.976
REMARK SMILES CCCCCCCCCCCCCCCC(=O)[O-]
REMARK SMILES IDX 9 1 10 2 11 3 12 4 13 5 14 6 15 7 16 8 17 9 18 10 8 11 7 12
REMARK SMILES IDX 6 13 5 14 4 15 3 16 2 17 1 18
REMARK H PARENT
REMARK Flexibility Score: inf
ROOT
ATOM      1  C   UNL     1      22.387  -1.954  -1.697  1.00  0.00     0.000 C 
ENDROOT
BRANCH   1   2
ATOM      2  C   UNL     1      21.362  -3.099  -1.603  1.00  0.00     0.000 C 
BRANCH   2   3
ATOM      3  C   UNL     1      20.428  -2.960  -0.390  1.00  0.00     0.000 C 
BRANCH   3   4
ATOM      4  C   UNL     1      20.101  -1.493  -0.065  1.00  0.00     0.000 C 
BRANCH   4   5
ATOM      5  C   UNL     1      19.226  -1.349   1.192  1.00  0.00     0.000 C 
BRANCH   5   6
ATOM      6  C   UNL     1      19.466  -0.022   1.933  1.00  0.00     0.006 C 
BRANCH   6   7
ATOM      7  C   UNL     1      19.709  -0.235   3.433  1.00  0.00     0.053 C 
BRANCH   7   8
ATOM      8  C   UNL     1      18.506   0.134   4.247  1.00  0.00     0.041 C 
ATOM      9  O   UNL     1      18.310   1.330   4.584  1.00  0.00    -0.550 OA
ATOM     10  O   UNL     1      17.620  -0.852   4.662  1.00  0.00    -0.550 OA
ENDBRANCH   7   8
ENDBRANCH   6   7
ENDBRANCH   5   6
ENDBRANCH   4   5
ENDBRANCH   3   4
ENDBRANCH   2   3
ENDBRANCH   1   2
BRANCH   1  11
ATOM     11  C   UNL     1      23.841  -2.447  -1.600  1.00  0.00     0.000 C 
BRANCH  11  12
ATOM     12  C   UNL     1      24.860  -1.380  -1.154  1.00  0.00    -0.000 C 
BRANCH  12  13
ATOM     13  C   UNL     1      24.308   0.058  -1.079  1.00  0.00    -0.000 C 
BRANCH  13  14
ATOM     14  C   UNL     1      24.291   0.676   0.334  1.00  0.00    -0.000 C 
BRANCH  14  15
ATOM     15  C   UNL     1      23.131   0.209   1.231  1.00  0.00    -0.000 C 
BRANCH  15  16
ATOM     16  C   UNL     1      23.587  -0.756   2.339  1.00  0.00    -0.000 C 
BRANCH  16  17
ATOM     17  C   UNL     1      22.796  -2.072   2.336  1.00  0.00    -0.003 C 
ATOM     18  C   UNL     1      23.652  -3.274   1.938  1.00  0.00     0.004 C 
ENDBRANCH  16  17
ENDBRANCH  15  16
ENDBRANCH  14  15
ENDBRANCH  13  14
ENDBRANCH  12  13
ENDBRANCH  11  12
ENDBRANCH   1  11
TORSDOF 14
ENDMDL
MODEL 4
REMARK VINA RESULT:    -3.966      2.739      5.049
REMARK INTER + INTRA:          -9.189
REMARK INTER:                  -7.764
REMARK INTRA:                  -1.424
REMARK UNBOUND:                -1.976
REMARK SMILES CCCCCCCCCCCCCCCC(=O)[O-]
REMARK SMILES IDX 9 1 10 2 11 3 12 4 13 5 14 6 15 7 16 8 17 9 18 10 8 11 7 12
REMARK SMILES IDX 6 13 5 14 4 15 3 16 2 17 1 18
REMARK H PARENT
REMARK Flexibility Score: inf
ROOT
ATOM      1  C   UNL     1      21.402  -0.906   3.877  1.00  0.00     0.000 C 
ENDROOT
BRANCH   1   2
ATOM      2  C   UNL     1      20.914  -1.105   5.323  1.00  0.00     0.000 C 
BRANCH   2   3
ATOM      3  C   UNL     1      19.584  -1.872   5.398  1.00  0.00     0.000 C 
BRANCH   3   4
ATOM      4  C   UNL     1      18.416  -1.089   4.775  1.00  0.00     0.000 C 
BRANCH   4   5
ATOM      5  C   UNL     1      18.302   0.340   5.330  1.00  0.00     0.000 C 
BRANCH   5   6
ATOM      6  C   UNL     1      18.378   1.412   4.229  1.00  0.00     0.006 C 
BRANCH   6   7
ATOM      7  C   UNL     1      18.374   2.834   4.807  1.00  0.00     0.053 C 
BRANCH   7   8
ATOM      8  C   UNL     1      17.585   3.777   3.950  1.00  0.00     0.041 C 
ATOM      9  O   UNL     1      16.575   3.368   3.320  1.00  0.00    -0.550 OA
ATOM     10  O   UNL     1      17.987   5.101   3.822  1.00  0.00    -0.550 OA
ENDBRANCH   7   8
ENDBRANCH   6   7
ENDBRANCH   5   6
ENDBRANCH   4   5
ENDBRANCH   3   4
ENDBRANCH   2   3
ENDBRANCH   1   2
BRANCH   1  11
ATOM     11  C   UNL     1      22.450   0.215   3.752  1.00  0.00     0.000 C 
BRANCH  11  12
ATOM     12  C   UNL     1      23.877  -0.266   3.425  1.00  0.00    -0.000 C 
BRANCH  12  13
ATOM     13  C   UNL     1      24.854  -0.274   4.619  1.00  0.00    -0.000 C 
BRANCH  13  14
ATOM     14  C   UNL     1      25.385  -1.666   5.017  1.00  0.00    -0.000 C 
BRANCH  14  15
ATOM     15  C   UNL     1      24.541  -2.850   4.513  1.00  0.00    -0.000 C 
BRANCH  15  16
ATOM     16  C   UNL     1      24.374  -3.955   5.571  1.00  0.00    -0.000 C 
BRANCH  16  17
ATOM     17  C   UNL     1      22.959  -3.992   6.166  1.00  0.00    -0.003 C 
ATOM     18  C   UNL     1      22.876  -4.832   7.440  1.00  0.00     0.004 C 
ENDBRANCH  16  17
ENDBRANCH  15  16
ENDBRANCH  14  15
ENDBRANCH  13  14
ENDBRANCH  12  13
ENDBRANCH  11  12
ENDBRANCH   1  11
TORSDOF 14
ENDMDL
MODEL 5
REMARK VINA RESULT:    -3.961      2.963      5.270
REMARK INTER + INTRA:          -9.179
REMARK INTER:                  -6.505
REMARK INTRA:                  -2.674
REMARK UNBOUND:                -1.976
REMARK SMILES CCCCCCCCCCCCCCCC(=O)[O-]
REMARK SMILES IDX 9 1 10 2 11 3 12 4 13 5 14 6 15 7 16 8 17 9 18 10 8 11 7 12
REMARK SMILES IDX 6 13 5 14 4 15 3 16 2 17 1 18
REMARK H PARENT
REMARK Flexibility Score: inf
ROOT
ATOM      1  C   UNL     1      24.501  -0.776  -1.405  1.00  0.00     0.000 C 
ENDROOT
BRANCH   1   2
ATOM      2  C   UNL     1      24.968  -1.990  -0.582  1.00  0.00     0.000 C 
BRANCH   2   3
ATOM      3  C   UNL     1      23.814  -2.939  -0.218  1.00  0.00     0.000 C 
BRANCH   3   4
ATOM      4  C   UNL     1      22.645  -2.853  -1.214  1.00  0.00     0.000 C 
BRANCH   4   5
ATOM      5  C   UNL     1      21.275  -2.961  -0.524  1.00  0.00     0.000 C 
BRANCH   5   6
ATOM      6  C   UNL     1      20.105  -2.682  -1.484  1.00  0.00     0.006 C 
BRANCH   6   7
ATOM      7  C   UNL     1      18.872  -2.141  -0.748  1.00  0.00     0.053 C 
BRANCH   7   8
ATOM      8  C   UNL     1      18.358  -3.119   0.265  1.00  0.00     0.041 C 
ATOM      9  O   UNL     1      17.868  -4.218  -0.106  1.00  0.00    -0.550 OA
ATOM     10  O   UNL     1      18.389  -2.800   1.616  1.00  0.00    -0.550 OA
ENDBRANCH   7   8
ENDBRANCH   6   7
ENDBRANCH   5   6
ENDBRANCH   4   5
ENDBRANCH   3   4
ENDBRANCH   2   3
ENDBRANCH   1   2
BRANCH   1  11
ATOM     11  C   UNL     1      24.794   0.564  -0.707  1.00  0.00     0.000 C 
BRANCH  11  12
ATOM     12  C   UNL     1      23.601   1.537  -0.645  1.00  0.00    -0.000 C 
BRANCH  12  13
ATOM     13  C   UNL     1      22.246   0.937  -1.071  1.00  0.00    -0.000 C 
BRANCH  13  14
ATOM     14  C   UNL     1      21.284   0.611   0.089  1.00  0.00    -0.000 C 
BRANCH  14  15
ATOM     15  C   UNL     1      21.875   0.808   1.496  1.00  0.00    -0.000 C 
BRANCH  15  16
ATOM     16  C   UNL     1      22.271  -0.520   2.167  1.00  0.00    -0.000 C 
BRANCH  16  17
ATOM     17  C   UNL     1      23.711  -0.505   2.699  1.00  0.00    -0.003 C 
ATOM     18  C   UNL     1      24.136  -1.849   3.290  1.00  0.00     0.004 C 
ENDBRANCH  16  17
ENDBRANCH  15  16
ENDBRANCH  14  15
ENDBRANCH  13  14
ENDBRANCH  12  13
ENDBRANCH  11  12
ENDBRANCH   1  11
TORSDOF 14
ENDMDL
MODEL 6
REMARK VINA RESULT:    -3.910      4.358      7.045
REMARK INTER + INTRA:          -9.086
REMARK INTER:                  -6.792
REMARK INTRA:                  -2.294
REMARK UNBOUND:                -1.976
REMARK SMILES CCCCCCCCCCCCCCCC(=O)[O-]
REMARK SMILES IDX 9 1 10 2 11 3 12 4 13 5 14 6 15 7 16 8 17 9 18 10 8 11 7 12
REMARK SMILES IDX 6 13 5 14 4 15 3 16 2 17 1 18
REMARK H PARENT
REMARK Flexibility Score: inf
ROOT
ATOM      1  C   UNL     1      20.477  -3.419  -1.768  1.00  0.00     0.000 C 
ENDROOT
BRANCH   1   2
ATOM      2  C   UNL     1      21.872  -3.370  -1.118  1.00  0.00     0.000 C 
BRANCH   2   3
ATOM      3  C   UNL     1      22.745  -2.234  -1.675  1.00  0.00     0.000 C 
BRANCH   3   4
ATOM      4  C   UNL     1      24.247  -2.563  -1.613  1.00  0.00     0.000 C 
BRANCH   4   5
ATOM      5  C   UNL     1      25.060  -1.469  -0.901  1.00  0.00     0.000 C 
BRANCH   5   6
ATOM      6  C   UNL     1      24.669  -0.051  -1.352  1.00  0.00     0.006 C 
BRANCH   6   7
ATOM      7  C   UNL     1      24.869   0.985  -0.237  1.00  0.00     0.053 C 
BRANCH   7   8
ATOM      8  C   UNL     1      25.613   2.189  -0.727  1.00  0.00     0.041 C 
ATOM      9  O   UNL     1      26.669   2.560  -0.150  1.00  0.00    -0.550 OA
ATOM     10  O   UNL     1      25.121   2.922  -1.799  1.00  0.00    -0.550 OA
ENDBRANCH   7   8
ENDBRANCH   6   7
ENDBRANCH   5   6
ENDBRANCH   4   5
ENDBRANCH   3   4
ENDBRANCH   2   3
ENDBRANCH   1   2
BRANCH   1  11
ATOM     11  C   UNL     1      19.342  -3.160  -0.761  1.00  0.00     0.000 C 
BRANCH  11  12
ATOM     12  C   UNL     1      18.443  -1.954  -1.093  1.00  0.00    -0.000 C 
BRANCH  12  13
ATOM     13  C   UNL     1      18.794  -0.652  -0.346  1.00  0.00    -0.000 C 
BRANCH  13  14
ATOM     14  C   UNL     1      19.789  -0.817   0.820  1.00  0.00    -0.000 C 
BRANCH  14  15
ATOM     15  C   UNL     1      21.093  -0.013   0.679  1.00  0.00    -0.000 C 
BRANCH  15  16
ATOM     16  C   UNL     1      22.154  -0.411   1.720  1.00  0.00    -0.000 C 
BRANCH  16  17
ATOM     17  C   UNL     1      22.018  -1.872   2.171  1.00  0.00    -0.003 C 
ATOM     18  C   UNL     1      23.356  -2.611   2.191  1.00  0.00     0.004 C 
ENDBRANCH  16  17
ENDBRANCH  15  16
ENDBRANCH  14  15
ENDBRANCH  13  14
ENDBRANCH  12  13
ENDBRANCH  11  12
ENDBRANCH   1  11
TORSDOF 14
ENDMDL
MODEL 7
REMARK VINA RESULT:    -3.898      3.265      5.561
REMARK INTER + INTRA:          -9.065
REMARK INTER:                  -6.813
REMARK INTRA:                  -2.252
REMARK UNBOUND:                -1.976
REMARK SMILES CCCCCCCCCCCCCCCC(=O)[O-]
REMARK SMILES IDX 9 1 10 2 11 3 12 4 13 5 14 6 15 7 16 8 17 9 18 10 8 11 7 12
REMARK SMILES IDX 6 13 5 14 4 15 3 16 2 17 1 18
REMARK H PARENT
REMARK Flexibility Score: inf
ROOT
ATOM      1  C   UNL     1      22.657  -2.297  -1.600  1.00  0.00     0.000 C 
ENDROOT
BRANCH   1   2
ATOM      2  C   UNL     1      22.180  -3.365  -0.598  1.00  0.00     0.000 C 
BRANCH   2   3
ATOM      3  C   UNL     1      22.295  -2.900   0.862  1.00  0.00     0.000 C 
BRANCH   3   4
ATOM      4  C   UNL     1      23.383  -3.662   1.639  1.00  0.00     0.000 C 
BRANCH   4   5
ATOM      5  C   UNL     1      24.264  -2.729   2.486  1.00  0.00     0.000 C 
BRANCH   5   6
ATOM      6  C   UNL     1      24.530  -3.284   3.896  1.00  0.00     0.006 C 
BRANCH   6   7
ATOM      7  C   UNL     1      24.565  -2.175   4.956  1.00  0.00     0.053 C 
BRANCH   7   8
ATOM      8  C   UNL     1      25.886  -1.467   4.974  1.00  0.00     0.041 C 
ATOM      9  O   UNL     1      25.931  -0.209   4.981  1.00  0.00    -0.550 OA
ATOM     10  O   UNL     1      27.066  -2.198   4.949  1.00  0.00    -0.550 OA
ENDBRANCH   7   8
ENDBRANCH   6   7
ENDBRANCH   5   6
ENDBRANCH   4   5
ENDBRANCH   3   4
ENDBRANCH   2   3
ENDBRANCH   1   2
BRANCH   1  11
ATOM     11  C   UNL     1      24.187  -2.279  -1.767  1.00  0.00     0.000 C 
BRANCH  11  12
ATOM     12  C   UNL     1      24.903  -1.119  -1.048  1.00  0.00    -0.000 C 
BRANCH  12  13
ATOM     13  C   UNL     1      24.051   0.149  -0.842  1.00  0.00    -0.000 C 
BRANCH  13  14
ATOM     14  C   UNL     1      24.373   0.951   0.434  1.00  0.00    -0.000 C 
BRANCH  14  15
ATOM     15  C   UNL     1      23.390   0.737   1.599  1.00  0.00    -0.000 C 
BRANCH  15  16
ATOM     16  C   UNL     1      21.927   0.639   1.134  1.00  0.00    -0.000 C 
BRANCH  16  17
ATOM     17  C   UNL     1      20.961   0.334   2.288  1.00  0.00    -0.003 C 
ATOM     18  C   UNL     1      21.669  -0.235   3.516  1.00  0.00     0.004 C 
ENDBRANCH  16  17
ENDBRANCH  15  16
ENDBRANCH  14  15
ENDBRANCH  13  14
ENDBRANCH  12  13
ENDBRANCH  11  12
ENDBRANCH   1  11
TORSDOF 14
ENDMDL
MODEL 8
REMARK VINA RESULT:    -3.894      2.620      4.343
REMARK INTER + INTRA:          -9.057
REMARK INTER:                  -6.901
REMARK INTRA:                  -2.157
REMARK UNBOUND:                -1.976
REMARK SMILES CCCCCCCCCCCCCCCC(=O)[O-]
REMARK SMILES IDX 9 1 10 2 11 3 12 4 13 5 14 6 15 7 16 8 17 9 18 10 8 11 7 12
REMARK SMILES IDX 6 13 5 14 4 15 3 16 2 17 1 18
REMARK H PARENT
REMARK Flexibility Score: inf
ROOT
ATOM      1  C   UNL     1      18.527  -1.881   1.148  1.00  0.00     0.000 C 
ENDROOT
BRANCH   1   2
ATOM      2  C   UNL     1      19.376  -0.632   0.851  1.00  0.00     0.000 C 
BRANCH   2   3
ATOM      3  C   UNL     1      20.698  -0.615   1.634  1.00  0.00     0.000 C 
BRANCH   3   4
ATOM      4  C   UNL     1      21.067  -1.997   2.198  1.00  0.00     0.000 C 
BRANCH   4   5
ATOM      5  C   UNL     1      21.298  -1.971   3.717  1.00  0.00     0.000 C 
BRANCH   5   6
ATOM      6  C   UNL     1      21.033  -0.587   4.334  1.00  0.00     0.006 C 
BRANCH   6   7
ATOM      7  C   UNL     1      19.874  -0.614   5.338  1.00  0.00     0.053 C 
BRANCH   7   8
ATOM      8  C   UNL     1      18.571  -0.252   4.691  1.00  0.00     0.041 C 
ATOM      9  O   UNL     1      18.453   0.836   4.070  1.00  0.00    -0.550 OA
ATOM     10  O   UNL     1      17.479  -1.103   4.804  1.00  0.00    -0.550 OA
ENDBRANCH   7   8
ENDBRANCH   6   7
ENDBRANCH   5   6
ENDBRANCH   4   5
ENDBRANCH   3   4
ENDBRANCH   2   3
ENDBRANCH   1   2
BRANCH   1  11
ATOM     11  C   UNL     1      17.984  -2.548  -0.129  1.00  0.00     0.000 C 
BRANCH  11  12
ATOM     12  C   UNL     1      18.941  -2.513  -1.336  1.00  0.00    -0.000 C 
BRANCH  12  13
ATOM     13  C   UNL     1      19.929  -3.694  -1.421  1.00  0.00    -0.000 C 
BRANCH  13  14
ATOM     14  C   UNL     1      21.419  -3.301  -1.385  1.00  0.00    -0.000 C 
BRANCH  14  15
ATOM     15  C   UNL     1      21.706  -1.820  -1.689  1.00  0.00    -0.000 C 
BRANCH  15  16
ATOM     16  C   UNL     1      23.181  -1.442  -1.471  1.00  0.00    -0.000 C 
BRANCH  16  17
ATOM     17  C   UNL     1      23.348  -0.035  -0.880  1.00  0.00    -0.003 C 
ATOM     18  C   UNL     1      24.769   0.506  -1.036  1.00  0.00     0.004 C 
ENDBRANCH  16  17
ENDBRANCH  15  16
ENDBRANCH  14  15
ENDBRANCH  13  14
ENDBRANCH  12  13
ENDBRANCH  11  12
ENDBRANCH   1  11
TORSDOF 14
ENDMDL
MODEL 9
REMARK VINA RESULT:    -3.845      3.437      5.521
REMARK INTER + INTRA:          -8.968
REMARK INTER:                  -6.825
REMARK INTRA:                  -2.143
REMARK UNBOUND:                -1.976
REMARK SMILES CCCCCCCCCCCCCCCC(=O)[O-]
REMARK SMILES IDX 9 1 10 2 11 3 12 4 13 5 14 6 15 7 16 8 17 9 18 10 8 11 7 12
REMARK SMILES IDX 6 13 5 14 4 15 3 16 2 17 1 18
REMARK H PARENT
REMARK Flexibility Score: inf
ROOT
ATOM      1  C   UNL     1      19.291  -2.886  -0.625  1.00  0.00     0.000 C 
ENDROOT
BRANCH   1   2
ATOM      2  C   UNL     1      19.156  -1.364  -0.443  1.00  0.00     0.000 C 
BRANCH   2   3
ATOM      3  C   UNL     1      19.568  -0.897   0.963  1.00  0.00     0.000 C 
BRANCH   3   4
ATOM      4  C   UNL     1      21.063  -0.547   1.052  1.00  0.00     0.000 C 
BRANCH   4   5
ATOM      5  C   UNL     1      21.863  -1.580   1.863  1.00  0.00     0.000 C 
BRANCH   5   6
ATOM      6  C   UNL     1      23.203  -1.023   2.374  1.00  0.00     0.006 C 
BRANCH   6   7
ATOM      7  C   UNL     1      24.274  -2.116   2.493  1.00  0.00     0.053 C 
BRANCH   7   8
ATOM      8  C   UNL     1      24.729  -2.294   3.909  1.00  0.00     0.041 C 
ATOM      9  O   UNL     1      24.350  -1.493   4.803  1.00  0.00    -0.550 OA
ATOM     10  O   UNL     1      25.600  -3.326   4.234  1.00  0.00    -0.550 OA
ENDBRANCH   7   8
ENDBRANCH   6   7
ENDBRANCH   5   6
ENDBRANCH   4   5
ENDBRANCH   3   4
ENDBRANCH   2   3
ENDBRANCH   1   2
BRANCH   1  11
ATOM     11  C   UNL     1      20.268  -3.266  -1.752  1.00  0.00     0.000 C 
BRANCH  11  12
ATOM     12  C   UNL     1      21.736  -3.425  -1.310  1.00  0.00    -0.000 C 
BRANCH  12  13
ATOM     13  C   UNL     1      22.678  -2.288  -1.755  1.00  0.00    -0.000 C 
BRANCH  13  14
ATOM     14  C   UNL     1      24.163  -2.492  -1.391  1.00  0.00    -0.000 C 
BRANCH  14  15
ATOM     15  C   UNL     1      24.946  -1.196  -1.117  1.00  0.00    -0.000 C 
BRANCH  15  16
ATOM     16  C   UNL     1      24.041   0.046  -1.056  1.00  0.00    -0.000 C 
BRANCH  16  17
ATOM     17  C   UNL     1      24.840   1.357  -1.026  1.00  0.00    -0.003 C 
ATOM     18  C   UNL     1      24.984   1.928   0.384  1.00  0.00     0.004 C 
ENDBRANCH  16  17
ENDBRANCH  15  16
ENDBRANCH  14  15
ENDBRANCH  13  14
ENDBRANCH  12  13
ENDBRANCH  11  12
ENDBRANCH   1  11
TORSDOF 14
ENDMDL
