MODEL 1
REMARK VINA RESULT:    -4.361      0.000      0.000
REMARK INTER + INTRA:          -5.173
REMARK INTER:                  -4.999
REMARK INTRA:                  -0.175
REMARK UNBOUND:                -0.175
REMARK SMILES CC=Cc1ccc(O)c(OC)c1
REMARK SMILES IDX 4 1 12 2 9 3 7 4 6 5 5 6 3 7 1 8 2 9 10 10 11 11 8 12
REMARK H PARENT 8 13
REMARK Flexibility Score: inf
ROOT
ATOM      1  C   UNL     1      13.757  17.109  14.519  1.00  0.00    -0.022 A 
ATOM      2  C   UNL     1      12.881  16.815  15.584  1.00  0.00     0.058 A 
ATOM      3  C   UNL     1      12.401  15.504  15.779  1.00  0.00     0.161 A 
ATOM      4  C   UNL     1      12.797  14.487  14.892  1.00  0.00     0.157 A 
ATOM      5  C   UNL     1      13.652  14.782  13.827  1.00  0.00     0.051 A 
ATOM      6  C   UNL     1      14.123  16.082  13.637  1.00  0.00     0.012 A 
ENDROOT
BRANCH   1   7
ATOM      7  C   UNL     1      14.279  18.476  14.270  1.00  0.00     0.003 C 
ATOM      8  C   UNL     1      15.167  20.318  12.896  1.00  0.00     0.035 C 
ATOM      9  C   UNL     1      14.665  18.921  13.068  1.00  0.00    -0.030 C 
ENDBRANCH   1   7
BRANCH   3  10
ATOM     10  O   UNL     1      11.533  15.178  16.834  1.00  0.00    -0.493 OA
ATOM     11  C   UNL     1      11.352  15.967  18.006  1.00  0.00     0.278 C 
ENDBRANCH   3  10
BRANCH   4  12
ATOM     12  O   UNL     1      12.349  13.175  15.051  1.00  0.00    -0.504 OA
ATOM     13  H   UNL     1      11.655  12.922  15.744  1.00  0.00     0.293 HD
ENDBRANCH   4  12
TORSDOF 3
ENDMDL
MODEL 2
REMARK VINA RESULT:    -4.224      2.214      4.156
REMARK INTER + INTRA:          -5.016
REMARK INTER:                  -4.859
REMARK INTRA:                  -0.157
REMARK UNBOUND:                -0.175
REMARK SMILES CC=Cc1ccc(O)c(OC)c1
REMARK SMILES IDX 4 1 12 2 9 3 7 4 6 5 5 6 3 7 1 8 2 9 10 10 11 11 8 12
REMARK H PARENT 8 13
REMARK Flexibility Score: inf
ROOT
ATOM      1  C   UNL     1      12.095  17.377  16.917  1.00  0.00    -0.022 A 
ATOM      2  C   UNL     1      12.733  17.360  15.659  1.00  0.00     0.058 A 
ATOM      3  C   UNL     1      13.031  16.140  15.020  1.00  0.00     0.161 A 
ATOM      4  C   UNL     1      12.694  14.930  15.653  1.00  0.00     0.157 A 
ATOM      5  C   UNL     1      12.076  14.946  16.907  1.00  0.00     0.051 A 
ATOM      6  C   UNL     1      11.785  16.157  17.537  1.00  0.00     0.012 A 
ENDROOT
BRANCH   1   7
ATOM      7  C   UNL     1      11.771  18.636  17.631  1.00  0.00     0.003 C 
ATOM      8  C   UNL     1      10.279  20.340  18.603  1.00  0.00     0.035 C 
ATOM      9  C   UNL     1      10.524  19.065  17.861  1.00  0.00    -0.030 C 
ENDBRANCH   1   7
BRANCH   3  10
ATOM     10  O   UNL     1      13.660  16.091  13.765  1.00  0.00    -0.493 OA
ATOM     11  C   UNL     1      14.323  17.191  13.149  1.00  0.00     0.278 C 
ENDBRANCH   3  10
BRANCH   4  12
ATOM     12  O   UNL     1      12.967  13.701  15.054  1.00  0.00    -0.504 OA
ATOM     13  H   UNL     1      12.259  13.172  14.560  1.00  0.00     0.293 HD
ENDBRANCH   4  12
TORSDOF 3
ENDMDL
MODEL 3
REMARK VINA RESULT:    -4.220      1.101      1.355
REMARK INTER + INTRA:          -5.011
REMARK INTER:                  -4.870
REMARK INTRA:                  -0.142
REMARK UNBOUND:                -0.175
REMARK SMILES CC=Cc1ccc(O)c(OC)c1
REMARK SMILES IDX 4 1 12 2 9 3 7 4 6 5 5 6 3 7 1 8 2 9 10 10 11 11 8 12
REMARK H PARENT 8 13
REMARK Flexibility Score: inf
ROOT
ATOM      1  C   UNL     1      13.603  16.806  14.193  1.00  0.00    -0.022 A 
ATOM      2  C   UNL     1      12.976  17.311  15.350  1.00  0.00     0.058 A 
ATOM      3  C   UNL     1      12.342  16.443  16.262  1.00  0.00     0.161 A 
ATOM      4  C   UNL     1      12.330  15.061  16.003  1.00  0.00     0.157 A 
ATOM      5  C   UNL     1      12.937  14.562  14.847  1.00  0.00     0.051 A 
ATOM      6  C   UNL     1      13.562  15.425  13.946  1.00  0.00     0.012 A 
ENDROOT
BRANCH   1   7
ATOM      7  C   UNL     1      14.274  17.682  13.201  1.00  0.00     0.003 C 
ATOM      8  C   UNL     1      15.321  19.763  12.397  1.00  0.00     0.035 C 
ATOM      9  C   UNL     1      14.633  18.948  13.445  1.00  0.00    -0.030 C 
ENDBRANCH   1   7
BRANCH   3  10
ATOM     10  O   UNL     1      11.716  16.916  17.427  1.00  0.00    -0.493 OA
ATOM     11  C   UNL     1      11.613  18.290  17.790  1.00  0.00     0.278 C 
ENDBRANCH   3  10
BRANCH   4  12
ATOM     12  O   UNL     1      11.717  14.167  16.881  1.00  0.00    -0.504 OA
ATOM     13  H   UNL     1      11.343  13.278  16.572  1.00  0.00     0.293 HD
ENDBRANCH   4  12
TORSDOF 3
ENDMDL
MODEL 4
REMARK VINA RESULT:    -4.157      3.129      5.168
REMARK INTER + INTRA:          -4.939
REMARK INTER:                  -4.773
REMARK INTRA:                  -0.166
REMARK UNBOUND:                -0.175
REMARK SMILES CC=Cc1ccc(O)c(OC)c1
REMARK SMILES IDX 4 1 12 2 9 3 7 4 6 5 5 6 3 7 1 8 2 9 10 10 11 11 8 12
REMARK H PARENT 8 13
REMARK Flexibility Score: inf
ROOT
ATOM      1  C   UNL     1      10.616  18.646  18.206  1.00  0.00    -0.022 A 
ATOM      2  C   UNL     1      11.700  18.290  17.378  1.00  0.00     0.058 A 
ATOM      3  C   UNL     1      12.077  16.940  17.228  1.00  0.00     0.161 A 
ATOM      4  C   UNL     1      11.366  15.945  17.922  1.00  0.00     0.157 A 
ATOM      5  C   UNL     1      10.301  16.299  18.755  1.00  0.00     0.051 A 
ATOM      6  C   UNL     1       9.933  17.637  18.902  1.00  0.00     0.012 A 
ENDROOT
BRANCH   1   7
ATOM      7  C   UNL     1      10.190  20.053  18.401  1.00  0.00     0.003 C 
ATOM      8  C   UNL     1      10.404  22.364  19.230  1.00  0.00     0.035 C 
ATOM      9  C   UNL     1      10.894  20.959  19.091  1.00  0.00    -0.030 C 
ENDBRANCH   1   7
BRANCH   3  10
ATOM     10  O   UNL     1      13.149  16.554  16.406  1.00  0.00    -0.493 OA
ATOM     11  C   UNL     1      13.064  16.376  14.996  1.00  0.00     0.278 C 
ENDBRANCH   3  10
BRANCH   4  12
ATOM     12  O   UNL     1      11.703  14.597  17.799  1.00  0.00    -0.504 OA
ATOM     13  H   UNL     1      11.090  13.856  18.115  1.00  0.00     0.293 HD
ENDBRANCH   4  12
TORSDOF 3
ENDMDL
MODEL 5
REMARK VINA RESULT:    -4.119     12.480     14.058
REMARK INTER + INTRA:          -4.895
REMARK INTER:                  -4.721
REMARK INTRA:                  -0.174
REMARK UNBOUND:                -0.175
REMARK SMILES CC=Cc1ccc(O)c(OC)c1
REMARK SMILES IDX 4 1 12 2 9 3 7 4 6 5 5 6 3 7 1 8 2 9 10 10 11 11 8 12
REMARK H PARENT 8 13
REMARK Flexibility Score: inf
ROOT
ATOM      1  C   UNL     1      19.813  18.590  26.987  1.00  0.00    -0.022 A 
ATOM      2  C   UNL     1      18.757  18.898  26.104  1.00  0.00     0.058 A 
ATOM      3  C   UNL     1      18.999  19.624  24.920  1.00  0.00     0.161 A 
ATOM      4  C   UNL     1      20.306  20.051  24.629  1.00  0.00     0.157 A 
ATOM      5  C   UNL     1      21.350  19.760  25.512  1.00  0.00     0.051 A 
ATOM      6  C   UNL     1      21.106  19.042  26.683  1.00  0.00     0.012 A 
ENDROOT
BRANCH   1   7
ATOM      7  C   UNL     1      19.605  17.837  28.248  1.00  0.00     0.003 C 
ATOM      8  C   UNL     1      19.932  17.338  30.639  1.00  0.00     0.035 C 
ATOM      9  C   UNL     1      20.206  18.137  29.406  1.00  0.00    -0.030 C 
ENDBRANCH   1   7
BRANCH   3  10
ATOM     10  O   UNL     1      17.969  19.940  24.018  1.00  0.00    -0.493 OA
ATOM     11  C   UNL     1      16.911  19.058  23.657  1.00  0.00     0.278 C 
ENDBRANCH   3  10
BRANCH   4  12
ATOM     12  O   UNL     1      20.589  20.768  23.466  1.00  0.00    -0.504 OA
ATOM     13  H   UNL     1      21.176  21.594  23.470  1.00  0.00     0.293 HD
ENDBRANCH   4  12
TORSDOF 3
ENDMDL
MODEL 6
REMARK VINA RESULT:    -4.098      3.293      4.752
REMARK INTER + INTRA:          -4.872
REMARK INTER:                  -4.694
REMARK INTRA:                  -0.177
REMARK UNBOUND:                -0.175
REMARK SMILES CC=Cc1ccc(O)c(OC)c1
REMARK SMILES IDX 4 1 12 2 9 3 7 4 6 5 5 6 3 7 1 8 2 9 10 10 11 11 8 12
REMARK H PARENT 8 13
REMARK Flexibility Score: inf
ROOT
ATOM      1  C   UNL     1      16.067  15.698  12.939  1.00  0.00    -0.022 A 
ATOM      2  C   UNL     1      14.840  15.834  13.621  1.00  0.00     0.058 A 
ATOM      3  C   UNL     1      14.067  17.004  13.482  1.00  0.00     0.161 A 
ATOM      4  C   UNL     1      14.535  18.045  12.660  1.00  0.00     0.157 A 
ATOM      5  C   UNL     1      15.758  17.917  11.997  1.00  0.00     0.051 A 
ATOM      6  C   UNL     1      16.521  16.757  12.140  1.00  0.00     0.012 A 
ENDROOT
BRANCH   1   7
ATOM      7  C   UNL     1      16.918  14.488  13.063  1.00  0.00     0.003 C 
ATOM      8  C   UNL     1      18.315  12.638  12.228  1.00  0.00     0.035 C 
ATOM      9  C   UNL     1      17.453  13.842  12.020  1.00  0.00    -0.030 C 
ENDBRANCH   1   7
BRANCH   3  10
ATOM     10  O   UNL     1      12.838  17.167  14.143  1.00  0.00    -0.493 OA
ATOM     11  C   UNL     1      12.667  17.116  15.556  1.00  0.00     0.278 C 
ENDBRANCH   3  10
BRANCH   4  12
ATOM     12  O   UNL     1      13.799  19.218  12.492  1.00  0.00    -0.504 OA
ATOM     13  H   UNL     1      13.961  19.851  11.718  1.00  0.00     0.293 HD
ENDBRANCH   4  12
TORSDOF 3
ENDMDL
MODEL 7
REMARK VINA RESULT:    -4.049      2.172      3.705
REMARK INTER + INTRA:          -4.816
REMARK INTER:                  -4.660
REMARK INTRA:                  -0.156
REMARK UNBOUND:                -0.175
REMARK SMILES CC=Cc1ccc(O)c(OC)c1
REMARK SMILES IDX 4 1 12 2 9 3 7 4 6 5 5 6 3 7 1 8 2 9 10 10 11 11 8 12
REMARK H PARENT 8 13
REMARK Flexibility Score: inf
ROOT
ATOM      1  C   UNL     1      12.129  17.388  16.838  1.00  0.00    -0.022 A 
ATOM      2  C   UNL     1      12.040  16.015  17.147  1.00  0.00     0.058 A 
ATOM      3  C   UNL     1      12.390  15.039  16.193  1.00  0.00     0.161 A 
ATOM      4  C   UNL     1      12.822  15.446  14.918  1.00  0.00     0.157 A 
ATOM      5  C   UNL     1      12.895  16.806  14.606  1.00  0.00     0.051 A 
ATOM      6  C   UNL     1      12.546  17.769  15.554  1.00  0.00     0.012 A 
ENDROOT
BRANCH   1   7
ATOM      7  C   UNL     1      11.763  18.450  17.808  1.00  0.00     0.003 C 
ATOM      8  C   UNL     1      10.307  20.175  18.796  1.00  0.00     0.035 C 
ATOM      9  C   UNL     1      10.610  19.129  17.772  1.00  0.00    -0.030 C 
ENDBRANCH   1   7
BRANCH   3  10
ATOM     10  O   UNL     1      12.317  13.665  16.473  1.00  0.00    -0.493 OA
ATOM     11  C   UNL     1      13.386  12.890  17.008  1.00  0.00     0.278 C 
ENDBRANCH   3  10
BRANCH   4  12
ATOM     12  O   UNL     1      13.181  14.513  13.946  1.00  0.00    -0.504 OA
ATOM     13  H   UNL     1      13.984  13.904  14.052  1.00  0.00     0.293 HD
ENDBRANCH   4  12
TORSDOF 3
ENDMDL
MODEL 8
REMARK VINA RESULT:    -4.030      2.262      3.936
REMARK INTER + INTRA:          -4.793
REMARK INTER:                  -4.616
REMARK INTRA:                  -0.177
REMARK UNBOUND:                -0.175
REMARK SMILES CC=Cc1ccc(O)c(OC)c1
REMARK SMILES IDX 4 1 12 2 9 3 7 4 6 5 5 6 3 7 1 8 2 9 10 10 11 11 8 12
REMARK H PARENT 8 13
REMARK Flexibility Score: inf
ROOT
ATOM      1  C   UNL     1      15.537  18.452  13.918  1.00  0.00    -0.022 A 
ATOM      2  C   UNL     1      16.198  17.297  13.450  1.00  0.00     0.058 A 
ATOM      3  C   UNL     1      15.524  16.061  13.385  1.00  0.00     0.161 A 
ATOM      4  C   UNL     1      14.183  15.984  13.801  1.00  0.00     0.157 A 
ATOM      5  C   UNL     1      13.534  17.125  14.280  1.00  0.00     0.051 A 
ATOM      6  C   UNL     1      14.205  18.347  14.345  1.00  0.00     0.012 A 
ENDROOT
BRANCH   1   7
ATOM      7  C   UNL     1      16.209  19.772  14.013  1.00  0.00     0.003 C 
ATOM      8  C   UNL     1      16.306  22.228  14.182  1.00  0.00     0.035 C 
ATOM      9  C   UNL     1      15.557  20.939  14.071  1.00  0.00    -0.030 C 
ENDBRANCH   1   7
BRANCH   3  10
ATOM     10  O   UNL     1      16.153  14.895  12.918  1.00  0.00    -0.493 OA
ATOM     11  C   UNL     1      17.171  14.868  11.923  1.00  0.00     0.278 C 
ENDBRANCH   3  10
BRANCH   4  12
ATOM     12  O   UNL     1      13.478  14.781  13.749  1.00  0.00    -0.504 OA
ATOM     13  H   UNL     1      13.339  14.274  12.884  1.00  0.00     0.293 HD
ENDBRANCH   4  12
TORSDOF 3
ENDMDL
MODEL 9
REMARK VINA RESULT:    -3.965      1.312      2.757
REMARK INTER + INTRA:          -4.719
REMARK INTER:                  -4.552
REMARK INTRA:                  -0.167
REMARK UNBOUND:                -0.175
REMARK SMILES CC=Cc1ccc(O)c(OC)c1
REMARK SMILES IDX 4 1 12 2 9 3 7 4 6 5 5 6 3 7 1 8 2 9 10 10 11 11 8 12
REMARK H PARENT 8 13
REMARK Flexibility Score: inf
ROOT
ATOM      1  C   UNL     1      12.664  16.963  15.214  1.00  0.00    -0.022 A 
ATOM      2  C   UNL     1      12.718  15.555  15.267  1.00  0.00     0.058 A 
ATOM      3  C   UNL     1      12.341  14.865  16.437  1.00  0.00     0.161 A 
ATOM      4  C   UNL     1      11.918  15.596  17.561  1.00  0.00     0.157 A 
ATOM      5  C   UNL     1      11.880  16.992  17.514  1.00  0.00     0.051 A 
ATOM      6  C   UNL     1      12.255  17.671  16.354  1.00  0.00     0.012 A 
ENDROOT
BRANCH   1   7
ATOM      7  C   UNL     1      13.059  17.732  14.007  1.00  0.00     0.003 C 
ATOM      8  C   UNL     1      14.557  19.117  12.626  1.00  0.00     0.035 C 
ATOM      9  C   UNL     1      14.225  18.377  13.881  1.00  0.00    -0.030 C 
ENDBRANCH   1   7
BRANCH   3  10
ATOM     10  O   UNL     1      12.378  13.464  16.518  1.00  0.00    -0.493 OA
ATOM     11  C   UNL     1      13.514  12.706  16.926  1.00  0.00     0.278 C 
ENDBRANCH   3  10
BRANCH   4  12
ATOM     12  O   UNL     1      11.533  14.952  18.737  1.00  0.00    -0.504 OA
ATOM     13  H   UNL     1      10.857  14.199  18.744  1.00  0.00     0.293 HD
ENDBRANCH   4  12
TORSDOF 3
ENDMDL
