MODEL 1
REMARK VINA RESULT:    -6.442      0.000      0.000
REMARK INTER + INTRA:          -6.818
REMARK INTER:                  -6.818
REMARK INTRA:                   0.000
REMARK UNBOUND:                 0.000
REMARK SMILES Cc1cc(O)c(C)c(C)c1O
REMARK SMILES IDX 1 1 2 2 3 3 4 4 6 5 8 6 10 7 9 8 7 9 11 10 5 12
REMARK H PARENT 11 11 5 13
REMARK Flexibility Score: inf
ROOT
ATOM      1  C   UNL     1     -11.684  -0.994 -10.751  1.00  0.00     0.048 C 
ATOM      2  C   UNL     1     -12.007   0.305 -10.065  1.00  0.00    -0.005 A 
ATOM      3  C   UNL     1     -10.976   1.097  -9.551  1.00  0.00     0.053 A 
ATOM      4  C   UNL     1     -11.253   2.321  -8.937  1.00  0.00     0.119 A 
ATOM      5  C   UNL     1     -12.584   2.774  -8.822  1.00  0.00    -0.003 A 
ATOM      6  C   UNL     1     -13.645   1.956  -9.301  1.00  0.00    -0.002 A 
ATOM      7  C   UNL     1     -13.340   0.736  -9.957  1.00  0.00     0.121 A 
ATOM      8  C   UNL     1     -15.093   2.370  -9.150  1.00  0.00     0.049 C 
ATOM      9  C   UNL     1     -12.859   4.111  -8.173  1.00  0.00     0.049 C 
ENDROOT
BRANCH   7  10
ATOM     10  O   UNL     1     -14.340  -0.065 -10.520  1.00  0.00    -0.507 OA
ATOM     11  H   UNL     1     -14.353  -0.351 -11.491  1.00  0.00     0.293 HD
ENDBRANCH   7  10
BRANCH   4  12
ATOM     12  O   UNL     1     -10.198   3.088  -8.440  1.00  0.00    -0.508 OA
ATOM     13  H   UNL     1      -9.323   2.668  -8.148  1.00  0.00     0.293 HD
ENDBRANCH   4  12
TORSDOF 2
ENDMDL
MODEL 2
REMARK VINA RESULT:    -6.292      1.759      2.615
REMARK INTER + INTRA:          -6.659
REMARK INTER:                  -6.659
REMARK INTRA:                   0.000
REMARK UNBOUND:                 0.000
REMARK SMILES Cc1cc(O)c(C)c(C)c1O
REMARK SMILES IDX 1 1 2 2 3 3 4 4 6 5 8 6 10 7 9 8 7 9 11 10 5 12
REMARK H PARENT 11 11 5 13
REMARK Flexibility Score: inf
ROOT
ATOM      1  C   UNL     1      -9.881  -2.845  -9.838  1.00  0.00     0.048 C 
ATOM      2  C   UNL     1     -10.760  -1.624  -9.861  1.00  0.00    -0.005 A 
ATOM      3  C   UNL     1     -10.312  -0.432  -9.283  1.00  0.00     0.053 A 
ATOM      4  C   UNL     1     -11.099   0.720  -9.321  1.00  0.00     0.119 A 
ATOM      5  C   UNL     1     -12.366   0.697  -9.943  1.00  0.00    -0.003 A 
ATOM      6  C   UNL     1     -12.850  -0.521 -10.496  1.00  0.00    -0.002 A 
ATOM      7  C   UNL     1     -12.018  -1.670 -10.483  1.00  0.00     0.121 A 
ATOM      8  C   UNL     1     -14.225  -0.614 -11.123  1.00  0.00     0.049 C 
ATOM      9  C   UNL     1     -13.192   1.961  -9.992  1.00  0.00     0.049 C 
ENDROOT
BRANCH   7  10
ATOM     10  O   UNL     1     -12.413  -2.870 -11.086  1.00  0.00    -0.507 OA
ATOM     11  H   UNL     1     -12.687  -2.948 -12.057  1.00  0.00     0.293 HD
ENDBRANCH   7  10
BRANCH   4  12
ATOM     12  O   UNL     1     -10.619   1.894  -8.737  1.00  0.00    -0.508 OA
ATOM     13  H   UNL     1     -11.230   2.676  -8.532  1.00  0.00     0.293 HD
ENDBRANCH   4  12
TORSDOF 2
ENDMDL
MODEL 3
REMARK VINA RESULT:    -5.826      1.049      4.471
REMARK INTER + INTRA:          -6.167
REMARK INTER:                  -6.167
REMARK INTRA:                   0.000
REMARK UNBOUND:                 0.000
REMARK SMILES Cc1cc(O)c(C)c(C)c1O
REMARK SMILES IDX 1 1 2 2 3 3 4 4 6 5 8 6 10 7 9 8 7 9 11 10 5 12
REMARK H PARENT 11 11 5 13
REMARK Flexibility Score: inf
ROOT
ATOM      1  C   UNL     1     -12.981   3.520  -8.813  1.00  0.00     0.048 C 
ATOM      2  C   UNL     1     -12.891   2.116  -9.344  1.00  0.00    -0.005 A 
ATOM      3  C   UNL     1     -14.034   1.488  -9.850  1.00  0.00     0.053 A 
ATOM      4  C   UNL     1     -13.966   0.196 -10.375  1.00  0.00     0.119 A 
ATOM      5  C   UNL     1     -12.738  -0.500 -10.398  1.00  0.00    -0.003 A 
ATOM      6  C   UNL     1     -11.578   0.112  -9.845  1.00  0.00    -0.002 A 
ATOM      7  C   UNL     1     -11.660   1.440  -9.353  1.00  0.00     0.121 A 
ATOM      8  C   UNL     1     -10.251  -0.613  -9.792  1.00  0.00     0.049 C 
ATOM      9  C   UNL     1     -12.683  -1.889 -10.990  1.00  0.00     0.049 C 
ENDROOT
BRANCH   7  10
ATOM     10  O   UNL     1     -10.532   2.117  -8.876  1.00  0.00    -0.507 OA
ATOM     11  H   UNL     1     -10.561   2.812  -8.140  1.00  0.00     0.293 HD
ENDBRANCH   7  10
BRANCH   4  12
ATOM     12  O   UNL     1     -15.125  -0.399 -10.877  1.00  0.00    -0.508 OA
ATOM     13  H   UNL     1     -15.695  -1.017 -10.311  1.00  0.00     0.293 HD
ENDBRANCH   4  12
TORSDOF 2
ENDMDL
MODEL 4
REMARK VINA RESULT:    -5.753      1.867      3.610
REMARK INTER + INTRA:          -6.089
REMARK INTER:                  -6.089
REMARK INTRA:                   0.000
REMARK UNBOUND:                 0.000
REMARK SMILES Cc1cc(O)c(C)c(C)c1O
REMARK SMILES IDX 1 1 2 2 3 3 4 4 6 5 8 6 10 7 9 8 7 9 11 10 5 12
REMARK H PARENT 11 11 5 13
REMARK Flexibility Score: inf
ROOT
ATOM      1  C   UNL     1     -12.094   3.088  -9.164  1.00  0.00     0.048 C 
ATOM      2  C   UNL     1     -12.145   1.645  -9.587  1.00  0.00    -0.005 A 
ATOM      3  C   UNL     1     -10.973   0.882  -9.606  1.00  0.00     0.053 A 
ATOM      4  C   UNL     1     -11.004  -0.466  -9.966  1.00  0.00     0.119 A 
ATOM      5  C   UNL     1     -12.223  -1.080 -10.322  1.00  0.00    -0.003 A 
ATOM      6  C   UNL     1     -13.415  -0.304 -10.349  1.00  0.00    -0.002 A 
ATOM      7  C   UNL     1     -13.369   1.054  -9.941  1.00  0.00     0.121 A 
ATOM      8  C   UNL     1     -14.738  -0.899 -10.779  1.00  0.00     0.049 C 
ATOM      9  C   UNL     1     -12.238  -2.546 -10.687  1.00  0.00     0.049 C 
ENDROOT
BRANCH   7  10
ATOM     10  O   UNL     1     -14.526   1.840  -9.870  1.00  0.00    -0.507 OA
ATOM     11  H   UNL     1     -15.422   1.495  -9.549  1.00  0.00     0.293 HD
ENDBRANCH   7  10
BRANCH   4  12
ATOM     12  O   UNL     1      -9.816  -1.199  -9.969  1.00  0.00    -0.508 OA
ATOM     13  H   UNL     1      -9.059  -0.991  -9.328  1.00  0.00     0.293 HD
ENDBRANCH   4  12
TORSDOF 2
ENDMDL
MODEL 5
REMARK VINA RESULT:    -5.418      1.694      3.357
REMARK INTER + INTRA:          -5.735
REMARK INTER:                  -5.735
REMARK INTRA:                   0.000
REMARK UNBOUND:                 0.000
REMARK SMILES Cc1cc(O)c(C)c(C)c1O
REMARK SMILES IDX 1 1 2 2 3 3 4 4 6 5 8 6 10 7 9 8 7 9 11 10 5 12
REMARK H PARENT 11 11 5 13
REMARK Flexibility Score: inf
ROOT
ATOM      1  C   UNL     1     -10.588   3.526  -8.464  1.00  0.00     0.048 C 
ATOM      2  C   UNL     1     -11.397   2.421  -9.086  1.00  0.00    -0.005 A 
ATOM      3  C   UNL     1     -10.750   1.347  -9.704  1.00  0.00     0.053 A 
ATOM      4  C   UNL     1     -11.483   0.296 -10.260  1.00  0.00     0.119 A 
ATOM      5  C   UNL     1     -12.893   0.306 -10.210  1.00  0.00    -0.003 A 
ATOM      6  C   UNL     1     -13.563   1.416  -9.624  1.00  0.00    -0.002 A 
ATOM      7  C   UNL     1     -12.800   2.454  -9.029  1.00  0.00     0.121 A 
ATOM      8  C   UNL     1     -15.074   1.504  -9.597  1.00  0.00     0.049 C 
ATOM      9  C   UNL     1     -13.665  -0.851 -10.799  1.00  0.00     0.049 C 
ENDROOT
BRANCH   7  10
ATOM     10  O   UNL     1     -13.409   3.526  -8.366  1.00  0.00    -0.507 OA
ATOM     11  H   UNL     1     -12.945   4.094  -7.669  1.00  0.00     0.293 HD
ENDBRANCH   7  10
BRANCH   4  12
ATOM     12  O   UNL     1     -10.804  -0.764 -10.865  1.00  0.00    -0.508 OA
ATOM     13  H   UNL     1     -11.297  -1.514 -11.335  1.00  0.00     0.293 HD
ENDBRANCH   4  12
TORSDOF 2
ENDMDL
MODEL 6
REMARK VINA RESULT:    -5.216      1.080      3.334
REMARK INTER + INTRA:          -5.521
REMARK INTER:                  -5.521
REMARK INTRA:                   0.000
REMARK UNBOUND:                 0.000
REMARK SMILES Cc1cc(O)c(C)c(C)c1O
REMARK SMILES IDX 1 1 2 2 3 3 4 4 6 5 8 6 10 7 9 8 7 9 11 10 5 12
REMARK H PARENT 11 11 5 13
REMARK Flexibility Score: inf
ROOT
ATOM      1  C   UNL     1     -10.167  -1.273 -10.234  1.00  0.00     0.048 C 
ATOM      2  C   UNL     1     -11.412  -0.441 -10.085  1.00  0.00    -0.005 A 
ATOM      3  C   UNL     1     -12.644  -0.950 -10.505  1.00  0.00     0.053 A 
ATOM      4  C   UNL     1     -13.815  -0.206 -10.348  1.00  0.00     0.119 A 
ATOM      5  C   UNL     1     -13.770   1.078  -9.764  1.00  0.00    -0.003 A 
ATOM      6  C   UNL     1     -12.515   1.624  -9.374  1.00  0.00    -0.002 A 
ATOM      7  C   UNL     1     -11.343   0.836  -9.505  1.00  0.00     0.121 A 
ATOM      8  C   UNL     1     -12.405   3.019  -8.797  1.00  0.00     0.049 C 
ATOM      9  C   UNL     1     -15.052   1.857  -9.584  1.00  0.00     0.049 C 
ENDROOT
BRANCH   7  10
ATOM     10  O   UNL     1     -10.097   1.293  -9.060  1.00  0.00    -0.507 OA
ATOM     11  H   UNL     1      -9.337   1.547  -9.677  1.00  0.00     0.293 HD
ENDBRANCH   7  10
BRANCH   4  12
ATOM     12  O   UNL     1     -15.030  -0.746 -10.774  1.00  0.00    -0.508 OA
ATOM     13  H   UNL     1     -15.770  -0.977 -10.121  1.00  0.00     0.293 HD
ENDBRANCH   4  12
TORSDOF 2
ENDMDL
MODEL 7
REMARK VINA RESULT:    -4.878      1.401      3.790
REMARK INTER + INTRA:          -5.163
REMARK INTER:                  -5.163
REMARK INTRA:                   0.000
REMARK UNBOUND:                 0.000
REMARK SMILES Cc1cc(O)c(C)c(C)c1O
REMARK SMILES IDX 1 1 2 2 3 3 4 4 6 5 8 6 10 7 9 8 7 9 11 10 5 12
REMARK H PARENT 11 11 5 13
REMARK Flexibility Score: inf
ROOT
ATOM      1  C   UNL     1     -10.374   3.204  -8.490  1.00  0.00     0.048 C 
ATOM      2  C   UNL     1     -11.492   2.346  -9.014  1.00  0.00    -0.005 A 
ATOM      3  C   UNL     1     -12.793   2.856  -9.074  1.00  0.00     0.053 A 
ATOM      4  C   UNL     1     -13.840   2.086  -9.585  1.00  0.00     0.119 A 
ATOM      5  C   UNL     1     -13.599   0.774 -10.046  1.00  0.00    -0.003 A 
ATOM      6  C   UNL     1     -12.288   0.228  -9.949  1.00  0.00    -0.002 A 
ATOM      7  C   UNL     1     -11.231   1.041  -9.464  1.00  0.00     0.121 A 
ATOM      8  C   UNL     1     -11.990  -1.192 -10.376  1.00  0.00     0.049 C 
ATOM      9  C   UNL     1     -14.742  -0.034 -10.615  1.00  0.00     0.049 C 
ENDROOT
BRANCH   7  10
ATOM     10  O   UNL     1      -9.909   0.581  -9.427  1.00  0.00    -0.507 OA
ATOM     11  H   UNL     1      -9.258   0.802  -8.685  1.00  0.00     0.293 HD
ENDBRANCH   7  10
BRANCH   4  12
ATOM     12  O   UNL     1     -15.125   2.628  -9.634  1.00  0.00    -0.508 OA
ATOM     13  H   UNL     1     -15.406   3.269 -10.368  1.00  0.00     0.293 HD
ENDBRANCH   4  12
TORSDOF 2
ENDMDL
MODEL 8
REMARK VINA RESULT:    -4.767      2.324      4.574
REMARK INTER + INTRA:          -5.046
REMARK INTER:                  -5.046
REMARK INTRA:                   0.000
REMARK UNBOUND:                 0.000
REMARK SMILES Cc1cc(O)c(C)c(C)c1O
REMARK SMILES IDX 1 1 2 2 3 3 4 4 6 5 8 6 10 7 9 8 7 9 11 10 5 12
REMARK H PARENT 11 11 5 13
REMARK Flexibility Score: inf
ROOT
ATOM      1  C   UNL     1      -9.415  -2.847  -9.001  1.00  0.00     0.048 C 
ATOM      2  C   UNL     1     -10.678  -2.244  -9.553  1.00  0.00    -0.005 A 
ATOM      3  C   UNL     1     -11.664  -3.070 -10.100  1.00  0.00     0.053 A 
ATOM      4  C   UNL     1     -12.856  -2.533 -10.590  1.00  0.00     0.119 A 
ATOM      5  C   UNL     1     -13.082  -1.140 -10.543  1.00  0.00    -0.003 A 
ATOM      6  C   UNL     1     -12.067  -0.285 -10.028  1.00  0.00    -0.002 A 
ATOM      7  C   UNL     1     -10.880  -0.855  -9.499  1.00  0.00     0.121 A 
ATOM      8  C   UNL     1     -12.235   1.219 -10.009  1.00  0.00     0.049 C 
ATOM      9  C   UNL     1     -14.388  -0.582 -11.058  1.00  0.00     0.049 C 
ENDROOT
BRANCH   7  10
ATOM     10  O   UNL     1      -9.888  -0.065  -8.907  1.00  0.00    -0.507 OA
ATOM     11  H   UNL     1      -9.483  -0.257  -7.999  1.00  0.00     0.293 HD
ENDBRANCH   7  10
BRANCH   4  12
ATOM     12  O   UNL     1     -13.822  -3.387 -11.125  1.00  0.00    -0.508 OA
ATOM     13  H   UNL     1     -14.697  -3.037 -11.497  1.00  0.00     0.293 HD
ENDBRANCH   4  12
TORSDOF 2
ENDMDL
