MODEL 1
REMARK VINA RESULT:    -4.811      0.000      0.000
REMARK INTER + INTRA:         -10.879
REMARK INTER:                  -9.031
REMARK INTRA:                  -1.849
REMARK UNBOUND:                -1.849
REMARK SMILES O=C([O-])CCCCCCCCCCCCCCC(=O)[O-]
REMARK SMILES IDX 10 1 9 2 8 3 7 4 6 5 5 6 4 7 2 8 1 9 3 10 11 11 12 12 13 13
REMARK SMILES IDX 14 14 15 15 16 16 17 17 18 18 19 19 20 20
REMARK H PARENT
REMARK Flexibility Score: inf
ROOT
ATOM      1  C   UNL     1      86.537 125.078 128.334  1.00  0.00     0.000 C 
ENDROOT
BRANCH   1   2
ATOM      2  C   UNL     1      86.587 123.845 129.254  1.00  0.00     0.000 C 
BRANCH   2   3
ATOM      3  C   UNL     1      87.923 123.644 129.998  1.00  0.00     0.000 C 
BRANCH   3   4
ATOM      4  C   UNL     1      87.793 123.121 131.442  1.00  0.00     0.000 C 
BRANCH   4   5
ATOM      5  C   UNL     1      86.825 121.935 131.621  1.00  0.00     0.000 C 
BRANCH   5   6
ATOM      6  C   UNL     1      87.424 120.550 131.301  1.00  0.00     0.006 C 
BRANCH   6   7
ATOM      7  C   UNL     1      86.527 119.656 130.430  1.00  0.00     0.053 C 
BRANCH   7   8
ATOM      8  C   UNL     1      86.875 119.763 128.977  1.00  0.00     0.041 C 
ATOM      9  O   UNL     1      87.934 119.242 128.539  1.00  0.00    -0.550 OA
ATOM     10  O   UNL     1      86.046 120.467 128.113  1.00  0.00    -0.550 OA
ENDBRANCH   7   8
ENDBRANCH   6   7
ENDBRANCH   5   6
ENDBRANCH   4   5
ENDBRANCH   3   4
ENDBRANCH   2   3
ENDBRANCH   1   2
BRANCH   1  11
ATOM     11  C   UNL     1      85.381 126.033 128.681  1.00  0.00     0.000 C 
BRANCH  11  12
ATOM     12  C   UNL     1      84.618 125.604 129.944  1.00  0.00     0.000 C 
BRANCH  12  13
ATOM     13  C   UNL     1      83.105 125.458 129.698  1.00  0.00     0.000 C 
BRANCH  13  14
ATOM     14  C   UNL     1      82.718 124.049 129.219  1.00  0.00     0.000 C 
BRANCH  14  15
ATOM     15  C   UNL     1      82.470 123.991 127.701  1.00  0.00     0.000 C 
BRANCH  15  16
ATOM     16  C   UNL     1      83.564 123.211 126.949  1.00  0.00     0.006 C 
BRANCH  16  17
ATOM     17  C   UNL     1      84.051 123.885 125.657  1.00  0.00     0.053 C 
BRANCH  17  18
ATOM     18  C   UNL     1      84.470 122.885 124.623  1.00  0.00     0.041 C 
ATOM     19  O   UNL     1      85.667 122.503 124.561  1.00  0.00    -0.550 OA
ATOM     20  O   UNL     1      83.531 122.350 123.751  1.00  0.00    -0.550 OA
ENDBRANCH  17  18
ENDBRANCH  16  17
ENDBRANCH  15  16
ENDBRANCH  14  15
ENDBRANCH  13  14
ENDBRANCH  12  13
ENDBRANCH  11  12
ENDBRANCH   1  11
TORSDOF 15
ENDMDL
MODEL 2
REMARK VINA RESULT:    -4.765      1.797      5.332
REMARK INTER + INTRA:         -10.792
REMARK INTER:                  -8.929
REMARK INTRA:                  -1.862
REMARK UNBOUND:                -1.849
REMARK SMILES O=C([O-])CCCCCCCCCCCCCCC(=O)[O-]
REMARK SMILES IDX 10 1 9 2 8 3 7 4 6 5 5 6 4 7 2 8 1 9 3 10 11 11 12 12 13 13
REMARK SMILES IDX 14 14 15 15 16 16 17 17 18 18 19 19 20 20
REMARK H PARENT
REMARK Flexibility Score: inf
ROOT
ATOM      1  C   UNL     1      85.219 124.816 127.673  1.00  0.00     0.000 C 
ENDROOT
BRANCH   1   2
ATOM      2  C   UNL     1      83.849 124.139 127.490  1.00  0.00     0.000 C 
BRANCH   2   3
ATOM      3  C   UNL     1      83.326 124.113 126.040  1.00  0.00     0.000 C 
BRANCH   3   4
ATOM      4  C   UNL     1      84.345 123.633 124.987  1.00  0.00     0.000 C 
BRANCH   4   5
ATOM      5  C   UNL     1      84.001 122.291 124.313  1.00  0.00     0.000 C 
BRANCH   5   6
ATOM      6  C   UNL     1      82.857 121.499 124.981  1.00  0.00     0.006 C 
BRANCH   6   7
ATOM      7  C   UNL     1      83.300 120.194 125.661  1.00  0.00     0.053 C 
BRANCH   7   8
ATOM      8  C   UNL     1      84.035 120.452 126.940  1.00  0.00     0.041 C 
ATOM      9  O   UNL     1      85.293 120.421 126.967  1.00  0.00    -0.550 OA
ATOM     10  O   UNL     1      83.328 120.693 128.112  1.00  0.00    -0.550 OA
ENDBRANCH   7   8
ENDBRANCH   6   7
ENDBRANCH   5   6
ENDBRANCH   4   5
ENDBRANCH   3   4
ENDBRANCH   2   3
ENDBRANCH   1   2
BRANCH   1  11
ATOM     11  C   UNL     1      85.228 125.837 128.825  1.00  0.00     0.000 C 
BRANCH  11  12
ATOM     12  C   UNL     1      84.238 125.477 129.943  1.00  0.00     0.000 C 
BRANCH  12  13
ATOM     13  C   UNL     1      84.919 125.355 131.318  1.00  0.00     0.000 C 
BRANCH  13  14
ATOM     14  C   UNL     1      85.709 124.044 131.470  1.00  0.00     0.000 C 
BRANCH  14  15
ATOM     15  C   UNL     1      87.229 124.277 131.537  1.00  0.00     0.000 C 
BRANCH  15  16
ATOM     16  C   UNL     1      87.970 123.724 130.306  1.00  0.00     0.006 C 
BRANCH  16  17
ATOM     17  C   UNL     1      87.316 122.484 129.675  1.00  0.00     0.053 C 
BRANCH  17  18
ATOM     18  C   UNL     1      88.106 121.238 129.933  1.00  0.00     0.041 C 
ATOM     19  O   UNL     1      87.901 120.204 129.244  1.00  0.00    -0.550 OA
ATOM     20  O   UNL     1      89.091 121.229 130.912  1.00  0.00    -0.550 OA
ENDBRANCH  17  18
ENDBRANCH  16  17
ENDBRANCH  15  16
ENDBRANCH  14  15
ENDBRANCH  13  14
ENDBRANCH  12  13
ENDBRANCH  11  12
ENDBRANCH   1  11
TORSDOF 15
ENDMDL
MODEL 3
REMARK VINA RESULT:    -4.690      2.007      4.430
REMARK INTER + INTRA:         -10.651
REMARK INTER:                  -8.561
REMARK INTRA:                  -2.090
REMARK UNBOUND:                -1.849
REMARK SMILES O=C([O-])CCCCCCCCCCCCCCC(=O)[O-]
REMARK SMILES IDX 10 1 9 2 8 3 7 4 6 5 5 6 4 7 2 8 1 9 3 10 11 11 12 12 13 13
REMARK SMILES IDX 14 14 15 15 16 16 17 17 18 18 19 19 20 20
REMARK H PARENT
REMARK Flexibility Score: inf
ROOT
ATOM      1  C   UNL     1      88.529 122.369 130.140  1.00  0.00     0.000 C 
ENDROOT
BRANCH   1   2
ATOM      2  C   UNL     1      87.846 123.746 130.230  1.00  0.00     0.000 C 
BRANCH   2   3
ATOM      3  C   UNL     1      87.355 124.137 131.639  1.00  0.00     0.000 C 
BRANCH   3   4
ATOM      4  C   UNL     1      85.877 124.569 131.718  1.00  0.00     0.000 C 
BRANCH   4   5
ATOM      5  C   UNL     1      84.926 123.813 130.770  1.00  0.00     0.000 C 
BRANCH   5   6
ATOM      6  C   UNL     1      84.022 124.711 129.900  1.00  0.00     0.006 C 
BRANCH   6   7
ATOM      7  C   UNL     1      84.692 126.006 129.414  1.00  0.00     0.053 C 
BRANCH   7   8
ATOM      8  C   UNL     1      85.515 125.782 128.183  1.00  0.00     0.041 C 
ATOM      9  O   UNL     1      85.064 125.086 127.237  1.00  0.00    -0.550 OA
ATOM     10  O   UNL     1      86.795 126.315 128.095  1.00  0.00    -0.550 OA
ENDBRANCH   7   8
ENDBRANCH   6   7
ENDBRANCH   5   6
ENDBRANCH   4   5
ENDBRANCH   3   4
ENDBRANCH   2   3
ENDBRANCH   1   2
BRANCH   1  11
ATOM     11  C   UNL     1      88.207 121.467 131.344  1.00  0.00     0.000 C 
BRANCH  11  12
ATOM     12  C   UNL     1      87.094 120.451 131.042  1.00  0.00     0.000 C 
BRANCH  12  13
ATOM     13  C   UNL     1      87.051 120.048 129.557  1.00  0.00     0.000 C 
BRANCH  13  14
ATOM     14  C   UNL     1      85.656 120.231 128.937  1.00  0.00     0.000 C 
BRANCH  14  15
ATOM     15  C   UNL     1      85.481 121.611 128.278  1.00  0.00     0.000 C 
BRANCH  15  16
ATOM     16  C   UNL     1      84.262 121.671 127.339  1.00  0.00     0.006 C 
BRANCH  16  17
ATOM     17  C   UNL     1      84.503 121.068 125.946  1.00  0.00     0.053 C 
BRANCH  17  18
ATOM     18  C   UNL     1      84.546 122.118 124.878  1.00  0.00     0.041 C 
ATOM     19  O   UNL     1      85.650 122.587 124.495  1.00  0.00    -0.550 OA
ATOM     20  O   UNL     1      83.370 122.554 124.283  1.00  0.00    -0.550 OA
ENDBRANCH  17  18
ENDBRANCH  16  17
ENDBRANCH  15  16
ENDBRANCH  14  15
ENDBRANCH  13  14
ENDBRANCH  12  13
ENDBRANCH  11  12
ENDBRANCH   1  11
TORSDOF 15
ENDMDL
MODEL 4
REMARK VINA RESULT:    -4.644      2.348      5.105
REMARK INTER + INTRA:         -10.566
REMARK INTER:                  -8.586
REMARK INTRA:                  -1.979
REMARK UNBOUND:                -1.849
REMARK SMILES O=C([O-])CCCCCCCCCCCCCCC(=O)[O-]
REMARK SMILES IDX 10 1 9 2 8 3 7 4 6 5 5 6 4 7 2 8 1 9 3 10 11 11 12 12 13 13
REMARK SMILES IDX 14 14 15 15 16 16 17 17 18 18 19 19 20 20
REMARK H PARENT
REMARK Flexibility Score: inf
ROOT
ATOM      1  C   UNL     1      83.724 124.176 125.933  1.00  0.00     0.000 C 
ENDROOT
BRANCH   1   2
ATOM      2  C   UNL     1      84.721 123.262 125.199  1.00  0.00     0.000 C 
BRANCH   2   3
ATOM      3  C   UNL     1      84.099 122.003 124.561  1.00  0.00     0.000 C 
BRANCH   3   4
ATOM      4  C   UNL     1      83.133 121.219 125.473  1.00  0.00     0.000 C 
BRANCH   4   5
ATOM      5  C   UNL     1      83.754 119.999 126.181  1.00  0.00     0.000 C 
BRANCH   5   6
ATOM      6  C   UNL     1      84.004 120.180 127.693  1.00  0.00     0.006 C 
BRANCH   6   7
ATOM      7  C   UNL     1      85.388 120.749 128.043  1.00  0.00     0.053 C 
BRANCH   7   8
ATOM      8  C   UNL     1      86.119 119.880 129.020  1.00  0.00     0.041 C 
ATOM      9  O   UNL     1      87.139 119.238 128.658  1.00  0.00    -0.550 OA
ATOM     10  O   UNL     1      85.653 119.752 130.323  1.00  0.00    -0.550 OA
ENDBRANCH   7   8
ENDBRANCH   6   7
ENDBRANCH   5   6
ENDBRANCH   4   5
ENDBRANCH   3   4
ENDBRANCH   2   3
ENDBRANCH   1   2
BRANCH   1  11
ATOM     11  C   UNL     1      84.117 124.427 127.400  1.00  0.00     0.000 C 
BRANCH  11  12
ATOM     12  C   UNL     1      85.636 124.372 127.624  1.00  0.00     0.000 C 
BRANCH  12  13
ATOM     13  C   UNL     1      86.092 125.265 128.791  1.00  0.00     0.000 C 
BRANCH  13  14
ATOM     14  C   UNL     1      85.051 125.339 129.920  1.00  0.00     0.000 C 
BRANCH  14  15
ATOM     15  C   UNL     1      85.588 124.792 131.254  1.00  0.00     0.000 C 
BRANCH  15  16
ATOM     16  C   UNL     1      87.073 124.390 131.176  1.00  0.00     0.006 C 
BRANCH  16  17
ATOM     17  C   UNL     1      87.367 122.953 131.634  1.00  0.00     0.053 C 
BRANCH  17  18
ATOM     18  C   UNL     1      88.288 122.239 130.692  1.00  0.00     0.041 C 
ATOM     19  O   UNL     1      88.834 121.159 131.038  1.00  0.00    -0.550 OA
ATOM     20  O   UNL     1      88.515 122.749 129.421  1.00  0.00    -0.550 OA
ENDBRANCH  17  18
ENDBRANCH  16  17
ENDBRANCH  15  16
ENDBRANCH  14  15
ENDBRANCH  13  14
ENDBRANCH  12  13
ENDBRANCH  11  12
ENDBRANCH   1  11
TORSDOF 15
ENDMDL
MODEL 5
REMARK VINA RESULT:    -4.631      2.109      3.810
REMARK INTER + INTRA:         -10.541
REMARK INTER:                  -8.794
REMARK INTRA:                  -1.747
REMARK UNBOUND:                -1.849
REMARK SMILES O=C([O-])CCCCCCCCCCCCCCC(=O)[O-]
REMARK SMILES IDX 10 1 9 2 8 3 7 4 6 5 5 6 4 7 2 8 1 9 3 10 11 11 12 12 13 13
REMARK SMILES IDX 14 14 15 15 16 16 17 17 18 18 19 19 20 20
REMARK H PARENT
REMARK Flexibility Score: inf
ROOT
ATOM      1  C   UNL     1      84.997 124.885 127.531  1.00  0.00     0.000 C 
ENDROOT
BRANCH   1   2
ATOM      2  C   UNL     1      85.227 125.880 128.684  1.00  0.00     0.000 C 
BRANCH   2   3
ATOM      3  C   UNL     1      84.334 125.657 129.921  1.00  0.00     0.000 C 
BRANCH   3   4
ATOM      4  C   UNL     1      85.048 125.031 131.136  1.00  0.00     0.000 C 
BRANCH   4   5
ATOM      5  C   UNL     1      86.562 124.805 130.956  1.00  0.00     0.000 C 
BRANCH   5   6
ATOM      6  C   UNL     1      87.144 123.618 131.752  1.00  0.00     0.006 C 
BRANCH   6   7
ATOM      7  C   UNL     1      88.463 123.063 131.191  1.00  0.00     0.053 C 
BRANCH   7   8
ATOM      8  C   UNL     1      88.361 121.606 130.863  1.00  0.00     0.041 C 
ATOM      9  O   UNL     1      89.000 121.129 129.889  1.00  0.00    -0.550 OA
ATOM     10  O   UNL     1      87.533 120.780 131.613  1.00  0.00    -0.550 OA
ENDBRANCH   7   8
ENDBRANCH   6   7
ENDBRANCH   5   6
ENDBRANCH   4   5
ENDBRANCH   3   4
ENDBRANCH   2   3
ENDBRANCH   1   2
BRANCH   1  11
ATOM     11  C   UNL     1      83.596 124.250 127.564  1.00  0.00     0.000 C 
BRANCH  11  12
ATOM     12  C   UNL     1      83.047 123.955 126.160  1.00  0.00     0.000 C 
BRANCH  12  13
ATOM     13  C   UNL     1      84.162 123.805 125.110  1.00  0.00     0.000 C 
BRANCH  13  14
ATOM     14  C   UNL     1      84.516 122.335 124.830  1.00  0.00     0.000 C 
BRANCH  14  15
ATOM     15  C   UNL     1      83.454 121.361 125.372  1.00  0.00     0.000 C 
BRANCH  15  16
ATOM     16  C   UNL     1      84.061 120.246 126.243  1.00  0.00     0.006 C 
BRANCH  16  17
ATOM     17  C   UNL     1      83.991 120.513 127.755  1.00  0.00     0.053 C 
BRANCH  17  18
ATOM     18  C   UNL     1      85.346 120.755 128.348  1.00  0.00     0.041 C 
ATOM     19  O   UNL     1      86.291 119.958 128.113  1.00  0.00    -0.550 OA
ATOM     20  O   UNL     1      85.572 121.879 129.131  1.00  0.00    -0.550 OA
ENDBRANCH  17  18
ENDBRANCH  16  17
ENDBRANCH  15  16
ENDBRANCH  14  15
ENDBRANCH  13  14
ENDBRANCH  12  13
ENDBRANCH  11  12
ENDBRANCH   1  11
TORSDOF 15
ENDMDL
MODEL 6
REMARK VINA RESULT:    -4.601      2.349      3.983
REMARK INTER + INTRA:         -10.484
REMARK INTER:                  -8.251
REMARK INTRA:                  -2.233
REMARK UNBOUND:                -1.849
REMARK SMILES O=C([O-])CCCCCCCCCCCCCCC(=O)[O-]
REMARK SMILES IDX 10 1 9 2 8 3 7 4 6 5 5 6 4 7 2 8 1 9 3 10 11 11 12 12 13 13
REMARK SMILES IDX 14 14 15 15 16 16 17 17 18 18 19 19 20 20
REMARK H PARENT
REMARK Flexibility Score: inf
ROOT
ATOM      1  C   UNL     1      87.010 120.314 129.081  1.00  0.00     0.000 C 
ENDROOT
BRANCH   1   2
ATOM      2  C   UNL     1      86.759 119.900 130.542  1.00  0.00     0.000 C 
BRANCH   2   3
ATOM      3  C   UNL     1      87.468 120.775 131.596  1.00  0.00     0.000 C 
BRANCH   3   4
ATOM      4  C   UNL     1      88.575 121.695 131.043  1.00  0.00     0.000 C 
BRANCH   4   5
ATOM      5  C   UNL     1      88.318 123.203 131.224  1.00  0.00     0.000 C 
BRANCH   5   6
ATOM      6  C   UNL     1      86.996 123.560 131.935  1.00  0.00     0.006 C 
BRANCH   6   7
ATOM      7  C   UNL     1      86.362 124.881 131.473  1.00  0.00     0.053 C 
BRANCH   7   8
ATOM      8  C   UNL     1      84.922 124.980 131.873  1.00  0.00     0.041 C 
ATOM      9  O   UNL     1      84.491 126.016 132.442  1.00  0.00    -0.550 OA
ATOM     10  O   UNL     1      84.061 123.912 131.646  1.00  0.00    -0.550 OA
ENDBRANCH   7   8
ENDBRANCH   6   7
ENDBRANCH   5   6
ENDBRANCH   4   5
ENDBRANCH   3   4
ENDBRANCH   2   3
ENDBRANCH   1   2
BRANCH   1  11
ATOM     11  C   UNL     1      85.740 120.832 128.383  1.00  0.00     0.000 C 
BRANCH  11  12
ATOM     12  C   UNL     1      85.317 122.223 128.881  1.00  0.00     0.000 C 
BRANCH  12  13
ATOM     13  C   UNL     1      86.087 123.358 128.183  1.00  0.00     0.000 C 
BRANCH  13  14
ATOM     14  C   UNL     1      85.194 124.569 127.864  1.00  0.00     0.000 C 
BRANCH  14  15
ATOM     15  C   UNL     1      83.707 124.187 127.742  1.00  0.00     0.000 C 
BRANCH  15  16
ATOM     16  C   UNL     1      83.258 124.011 126.280  1.00  0.00     0.006 C 
BRANCH  16  17
ATOM     17  C   UNL     1      83.283 122.558 125.778  1.00  0.00     0.053 C 
BRANCH  17  18
ATOM     18  C   UNL     1      84.113 122.405 124.541  1.00  0.00     0.041 C 
ATOM     19  O   UNL     1      83.562 122.168 123.434  1.00  0.00    -0.550 OA
ATOM     20  O   UNL     1      85.492 122.557 124.604  1.00  0.00    -0.550 OA
ENDBRANCH  17  18
ENDBRANCH  16  17
ENDBRANCH  15  16
ENDBRANCH  14  15
ENDBRANCH  13  14
ENDBRANCH  12  13
ENDBRANCH  11  12
ENDBRANCH   1  11
TORSDOF 15
ENDMDL
MODEL 7
REMARK VINA RESULT:    -4.600      1.710      5.680
REMARK INTER + INTRA:         -10.483
REMARK INTER:                  -8.674
REMARK INTRA:                  -1.810
REMARK UNBOUND:                -1.849
REMARK SMILES O=C([O-])CCCCCCCCCCCCCCC(=O)[O-]
REMARK SMILES IDX 10 1 9 2 8 3 7 4 6 5 5 6 4 7 2 8 1 9 3 10 11 11 12 12 13 13
REMARK SMILES IDX 14 14 15 15 16 16 17 17 18 18 19 19 20 20
REMARK H PARENT
REMARK Flexibility Score: inf
ROOT
ATOM      1  C   UNL     1      84.915 125.002 127.492  1.00  0.00     0.000 C 
ENDROOT
BRANCH   1   2
ATOM      2  C   UNL     1      85.219 123.511 127.258  1.00  0.00     0.000 C 
BRANCH   2   3
ATOM      3  C   UNL     1      84.366 122.535 128.094  1.00  0.00     0.000 C 
BRANCH   3   4
ATOM      4  C   UNL     1      82.868 122.890 128.184  1.00  0.00     0.000 C 
BRANCH   4   5
ATOM      5  C   UNL     1      82.061 122.634 126.896  1.00  0.00     0.000 C 
BRANCH   5   6
ATOM      6  C   UNL     1      82.648 121.557 125.961  1.00  0.00     0.006 C 
BRANCH   6   7
ATOM      7  C   UNL     1      82.163 121.646 124.505  1.00  0.00     0.053 C 
BRANCH   7   8
ATOM      8  C   UNL     1      83.285 121.947 123.560  1.00  0.00     0.041 C 
ATOM      9  O   UNL     1      83.132 121.782 122.322  1.00  0.00    -0.550 OA
ATOM     10  O   UNL     1      84.512 122.378 124.051  1.00  0.00    -0.550 OA
ENDBRANCH   7   8
ENDBRANCH   6   7
ENDBRANCH   5   6
ENDBRANCH   4   5
ENDBRANCH   3   4
ENDBRANCH   2   3
ENDBRANCH   1   2
BRANCH   1  11
ATOM     11  C   UNL     1      85.501 125.528 128.814  1.00  0.00     0.000 C 
BRANCH  11  12
ATOM     12  C   UNL     1      84.431 125.724 129.900  1.00  0.00     0.000 C 
BRANCH  12  13
ATOM     13  C   UNL     1      84.917 125.282 131.293  1.00  0.00     0.000 C 
BRANCH  13  14
ATOM     14  C   UNL     1      85.752 123.992 131.244  1.00  0.00     0.000 C 
BRANCH  14  15
ATOM     15  C   UNL     1      87.147 124.170 131.870  1.00  0.00     0.000 C 
BRANCH  15  16
ATOM     16  C   UNL     1      88.285 123.838 130.886  1.00  0.00     0.006 C 
BRANCH  16  17
ATOM     17  C   UNL     1      87.909 122.820 129.799  1.00  0.00     0.053 C 
BRANCH  17  18
ATOM     18  C   UNL     1      88.441 121.453 130.099  1.00  0.00     0.041 C 
ATOM     19  O   UNL     1      89.266 121.286 131.035  1.00  0.00    -0.550 OA
ATOM     20  O   UNL     1      88.000 120.358 129.367  1.00  0.00    -0.550 OA
ENDBRANCH  17  18
ENDBRANCH  16  17
ENDBRANCH  15  16
ENDBRANCH  14  15
ENDBRANCH  13  14
ENDBRANCH  12  13
ENDBRANCH  11  12
ENDBRANCH   1  11
TORSDOF 15
ENDMDL
MODEL 8
REMARK VINA RESULT:    -4.583      0.680      5.564
REMARK INTER + INTRA:         -10.450
REMARK INTER:                  -8.930
REMARK INTRA:                  -1.520
REMARK UNBOUND:                -1.849
REMARK SMILES O=C([O-])CCCCCCCCCCCCCCC(=O)[O-]
REMARK SMILES IDX 10 1 9 2 8 3 7 4 6 5 5 6 4 7 2 8 1 9 3 10 11 11 12 12 13 13
REMARK SMILES IDX 14 14 15 15 16 16 17 17 18 18 19 19 20 20
REMARK H PARENT
REMARK Flexibility Score: inf
ROOT
ATOM      1  C   UNL     1      85.258 125.764 128.434  1.00  0.00     0.000 C 
ENDROOT
BRANCH   1   2
ATOM      2  C   UNL     1      84.458 125.709 129.748  1.00  0.00     0.000 C 
BRANCH   2   3
ATOM      3  C   UNL     1      83.009 125.200 129.605  1.00  0.00     0.000 C 
BRANCH   3   4
ATOM      4  C   UNL     1      82.843 123.943 128.726  1.00  0.00     0.000 C 
BRANCH   4   5
ATOM      5  C   UNL     1      82.036 124.158 127.430  1.00  0.00     0.000 C 
BRANCH   5   6
ATOM      6  C   UNL     1      82.524 123.341 126.215  1.00  0.00     0.006 C 
BRANCH   6   7
ATOM      7  C   UNL     1      83.990 123.593 125.828  1.00  0.00     0.053 C 
BRANCH   7   8
ATOM      8  C   UNL     1      84.497 122.566 124.864  1.00  0.00     0.041 C 
ATOM      9  O   UNL     1      85.680 122.626 124.437  1.00  0.00    -0.550 OA
ATOM     10  O   UNL     1      83.653 121.559 124.411  1.00  0.00    -0.550 OA
ENDBRANCH   7   8
ENDBRANCH   6   7
ENDBRANCH   5   6
ENDBRANCH   4   5
ENDBRANCH   3   4
ENDBRANCH   2   3
ENDBRANCH   1   2
BRANCH   1  11
ATOM     11  C   UNL     1      86.735 125.374 128.620  1.00  0.00     0.000 C 
BRANCH  11  12
ATOM     12  C   UNL     1      86.921 123.875 128.898  1.00  0.00     0.000 C 
BRANCH  12  13
ATOM     13  C   UNL     1      87.215 123.582 130.381  1.00  0.00     0.000 C 
BRANCH  13  14
ATOM     14  C   UNL     1      88.607 122.963 130.595  1.00  0.00     0.000 C 
BRANCH  14  15
ATOM     15  C   UNL     1      88.534 121.535 131.166  1.00  0.00     0.000 C 
BRANCH  15  16
ATOM     16  C   UNL     1      87.088 121.066 131.411  1.00  0.00     0.006 C 
BRANCH  16  17
ATOM     17  C   UNL     1      86.711 119.763 130.688  1.00  0.00     0.053 C 
BRANCH  17  18
ATOM     18  C   UNL     1      86.855 119.881 129.202  1.00  0.00     0.041 C 
ATOM     19  O   UNL     1      85.992 120.505 128.530  1.00  0.00    -0.550 OA
ATOM     20  O   UNL     1      87.959 119.333 128.564  1.00  0.00    -0.550 OA
ENDBRANCH  17  18
ENDBRANCH  16  17
ENDBRANCH  15  16
ENDBRANCH  14  15
ENDBRANCH  13  14
ENDBRANCH  12  13
ENDBRANCH  11  12
ENDBRANCH   1  11
TORSDOF 15
ENDMDL
MODEL 9
REMARK VINA RESULT:    -4.582      1.393      5.616
REMARK INTER + INTRA:         -10.449
REMARK INTER:                  -8.959
REMARK INTRA:                  -1.490
REMARK UNBOUND:                -1.849
REMARK SMILES O=C([O-])CCCCCCCCCCCCCCC(=O)[O-]
REMARK SMILES IDX 10 1 9 2 8 3 7 4 6 5 5 6 4 7 2 8 1 9 3 10 11 11 12 12 13 13
REMARK SMILES IDX 14 14 15 15 16 16 17 17 18 18 19 19 20 20
REMARK H PARENT
REMARK Flexibility Score: inf
ROOT
ATOM      1  C   UNL     1      84.565 124.716 131.294  1.00  0.00     0.000 C 
ENDROOT
BRANCH   1   2
ATOM      2  C   UNL     1      84.295 125.617 130.075  1.00  0.00     0.000 C 
BRANCH   2   3
ATOM      3  C   UNL     1      85.405 125.612 129.005  1.00  0.00     0.000 C 
BRANCH   3   4
ATOM      4  C   UNL     1      85.042 124.890 127.692  1.00  0.00     0.000 C 
BRANCH   4   5
ATOM      5  C   UNL     1      83.724 124.091 127.731  1.00  0.00     0.000 C 
BRANCH   5   6
ATOM      6  C   UNL     1      83.034 123.902 126.364  1.00  0.00     0.006 C 
BRANCH   6   7
ATOM      7  C   UNL     1      83.950 124.140 125.153  1.00  0.00     0.053 C 
BRANCH   7   8
ATOM      8  C   UNL     1      84.374 122.855 124.511  1.00  0.00     0.041 C 
ATOM      9  O   UNL     1      83.638 122.302 123.652  1.00  0.00    -0.550 OA
ATOM     10  O   UNL     1      85.567 122.250 124.887  1.00  0.00    -0.550 OA
ENDBRANCH   7   8
ENDBRANCH   6   7
ENDBRANCH   5   6
ENDBRANCH   4   5
ENDBRANCH   3   4
ENDBRANCH   2   3
ENDBRANCH   1   2
BRANCH   1  11
ATOM     11  C   UNL     1      85.275 125.461 132.438  1.00  0.00     0.000 C 
BRANCH  11  12
ATOM     12  C   UNL     1      86.675 124.900 132.730  1.00  0.00     0.000 C 
BRANCH  12  13
ATOM     13  C   UNL     1      86.919 123.540 132.051  1.00  0.00     0.000 C 
BRANCH  13  14
ATOM     14  C   UNL     1      88.107 123.572 131.076  1.00  0.00     0.000 C 
BRANCH  14  15
ATOM     15  C   UNL     1      88.603 122.162 130.706  1.00  0.00     0.000 C 
BRANCH  15  16
ATOM     16  C   UNL     1      87.794 121.048 131.395  1.00  0.00     0.006 C 
BRANCH  16  17
ATOM     17  C   UNL     1      87.035 120.124 130.429  1.00  0.00     0.053 C 
BRANCH  17  18
ATOM     18  C   UNL     1      85.686 120.667 130.073  1.00  0.00     0.041 C 
ATOM     19  O   UNL     1      84.768 120.698 130.935  1.00  0.00    -0.550 OA
ATOM     20  O   UNL     1      85.451 121.170 128.800  1.00  0.00    -0.550 OA
ENDBRANCH  17  18
ENDBRANCH  16  17
ENDBRANCH  15  16
ENDBRANCH  14  15
ENDBRANCH  13  14
ENDBRANCH  12  13
ENDBRANCH  11  12
ENDBRANCH   1  11
TORSDOF 15
ENDMDL
