MODEL 1
REMARK VINA RESULT:    -4.341      0.000      0.000
REMARK INTER + INTRA:          -4.959
REMARK INTER:                  -4.722
REMARK INTRA:                  -0.237
REMARK UNBOUND:                -0.237
REMARK SMILES O=C([O-])c1ccccc1O
REMARK SMILES IDX 4 1 9 2 5 3 8 4 6 5 7 6 2 7 1 8 3 9 10 10
REMARK H PARENT 10 11
REMARK Flexibility Score: inf
ROOT
ATOM      1  C   UNL     1    -108.265  31.490  26.061  1.00  0.00     0.039 A 
ATOM      2  C   UNL     1    -108.356  31.466  24.649  1.00  0.00     0.124 A 
ATOM      3  C   UNL     1    -109.450  31.609  26.816  1.00  0.00     0.014 A 
ATOM      4  C   UNL     1    -109.611  31.560  24.027  1.00  0.00     0.047 A 
ATOM      5  C   UNL     1    -110.692  31.701  26.184  1.00  0.00     0.001 A 
ATOM      6  C   UNL     1    -110.772  31.676  24.792  1.00  0.00     0.004 A 
ENDROOT
BRANCH   1   7
ATOM      7  C   UNL     1    -106.958  31.395  26.762  1.00  0.00     0.075 C 
ATOM      8  O   UNL     1    -106.050  30.645  26.315  1.00  0.00    -0.545 OA
ATOM      9  O   UNL     1    -106.708  32.125  27.917  1.00  0.00    -0.545 OA
ENDBRANCH   1   7
BRANCH   2  10
ATOM     10  O   UNL     1    -107.211  31.350  23.862  1.00  0.00    -0.507 OA
ATOM     11  H   UNL     1    -106.773  32.159  23.437  1.00  0.00     0.293 HD
ENDBRANCH   2  10
TORSDOF 2
ENDMDL
MODEL 2
REMARK VINA RESULT:    -4.285      0.900      2.427
REMARK INTER + INTRA:          -4.898
REMARK INTER:                  -4.731
REMARK INTRA:                  -0.167
REMARK UNBOUND:                -0.237
REMARK SMILES O=C([O-])c1ccccc1O
REMARK SMILES IDX 4 1 9 2 5 3 8 4 6 5 7 6 2 7 1 8 3 9 10 10
REMARK H PARENT 10 11
REMARK Flexibility Score: inf
ROOT
ATOM      1  C   UNL     1    -108.037  31.322  25.869  1.00  0.00     0.039 A 
ATOM      2  C   UNL     1    -108.673  31.746  27.060  1.00  0.00     0.124 A 
ATOM      3  C   UNL     1    -108.800  31.234  24.687  1.00  0.00     0.014 A 
ATOM      4  C   UNL     1    -110.039  32.069  27.047  1.00  0.00     0.047 A 
ATOM      5  C   UNL     1    -110.159  31.558  24.688  1.00  0.00     0.001 A 
ATOM      6  C   UNL     1    -110.777  31.975  25.866  1.00  0.00     0.004 A 
ENDROOT
BRANCH   1   7
ATOM      7  C   UNL     1    -106.594  30.971  25.836  1.00  0.00     0.075 C 
ATOM      8  O   UNL     1    -105.988  30.668  26.899  1.00  0.00    -0.545 OA
ATOM      9  O   UNL     1    -105.883  30.966  24.642  1.00  0.00    -0.545 OA
ENDBRANCH   1   7
BRANCH   2  10
ATOM     10  O   UNL     1    -107.959  31.849  28.253  1.00  0.00    -0.507 OA
ATOM     11  H   UNL     1    -107.118  31.307  28.418  1.00  0.00     0.293 HD
ENDBRANCH   2  10
TORSDOF 2
ENDMDL
MODEL 3
REMARK VINA RESULT:    -4.269      2.221      3.364
REMARK INTER + INTRA:          -4.880
REMARK INTER:                  -4.638
REMARK INTRA:                  -0.242
REMARK UNBOUND:                -0.237
REMARK SMILES O=C([O-])c1ccccc1O
REMARK SMILES IDX 4 1 9 2 5 3 8 4 6 5 7 6 2 7 1 8 3 9 10 10
REMARK H PARENT 10 11
REMARK Flexibility Score: inf
ROOT
ATOM      1  C   UNL     1    -108.871  31.386  26.321  1.00  0.00     0.039 A 
ATOM      2  C   UNL     1    -108.456  30.932  25.046  1.00  0.00     0.124 A 
ATOM      3  C   UNL     1    -107.889  31.757  27.261  1.00  0.00     0.014 A 
ATOM      4  C   UNL     1    -107.088  30.860  24.741  1.00  0.00     0.047 A 
ATOM      5  C   UNL     1    -106.531  31.681  26.944  1.00  0.00     0.001 A 
ATOM      6  C   UNL     1    -106.132  31.232  25.686  1.00  0.00     0.004 A 
ENDROOT
BRANCH   1   7
ATOM      7  C   UNL     1    -110.308  31.478  26.688  1.00  0.00     0.075 C 
ATOM      8  O   UNL     1    -111.154  31.891  25.850  1.00  0.00    -0.545 OA
ATOM      9  O   UNL     1    -110.750  31.114  27.954  1.00  0.00    -0.545 OA
ENDBRANCH   1   7
BRANCH   2  10
ATOM     10  O   UNL     1    -109.392  30.554  24.084  1.00  0.00    -0.507 OA
ATOM     11  H   UNL     1    -110.385  30.697  24.223  1.00  0.00     0.293 HD
ENDBRANCH   2  10
TORSDOF 2
ENDMDL
MODEL 4
REMARK VINA RESULT:    -4.057      8.328      8.521
REMARK INTER + INTRA:          -4.650
REMARK INTER:                  -4.443
REMARK INTRA:                  -0.207
REMARK UNBOUND:                -0.237
REMARK SMILES O=C([O-])c1ccccc1O
REMARK SMILES IDX 4 1 9 2 5 3 8 4 6 5 7 6 2 7 1 8 3 9 10 10
REMARK H PARENT 10 11
REMARK Flexibility Score: inf
ROOT
ATOM      1  C   UNL     1    -108.746  23.041  24.958  1.00  0.00     0.039 A 
ATOM      2  C   UNL     1    -108.797  23.432  23.598  1.00  0.00     0.124 A 
ATOM      3  C   UNL     1    -109.935  22.627  25.590  1.00  0.00     0.014 A 
ATOM      4  C   UNL     1    -110.018  23.400  22.907  1.00  0.00     0.047 A 
ATOM      5  C   UNL     1    -111.144  22.600  24.889  1.00  0.00     0.001 A 
ATOM      6  C   UNL     1    -111.185  22.986  23.550  1.00  0.00     0.004 A 
ENDROOT
BRANCH   1   7
ATOM      7  C   UNL     1    -107.476  23.059  25.729  1.00  0.00     0.075 C 
ATOM      8  O   UNL     1    -106.538  23.831  25.393  1.00  0.00    -0.545 OA
ATOM      9  O   UNL     1    -107.293  22.233  26.831  1.00  0.00    -0.545 OA
ENDBRANCH   1   7
BRANCH   2  10
ATOM     10  O   UNL     1    -107.645  23.849  22.932  1.00  0.00    -0.507 OA
ATOM     11  H   UNL     1    -107.582  23.838  21.921  1.00  0.00     0.293 HD
ENDBRANCH   2  10
TORSDOF 2
ENDMDL
MODEL 5
REMARK VINA RESULT:    -4.019      8.344      8.770
REMARK INTER + INTRA:          -4.608
REMARK INTER:                  -4.395
REMARK INTRA:                  -0.213
REMARK UNBOUND:                -0.237
REMARK SMILES O=C([O-])c1ccccc1O
REMARK SMILES IDX 4 1 9 2 5 3 8 4 6 5 7 6 2 7 1 8 3 9 10 10
REMARK H PARENT 10 11
REMARK Flexibility Score: inf
ROOT
ATOM      1  C   UNL     1    -108.580  23.218  24.535  1.00  0.00     0.039 A 
ATOM      2  C   UNL     1    -109.942  22.910  24.306  1.00  0.00     0.124 A 
ATOM      3  C   UNL     1    -107.844  23.843  23.508  1.00  0.00     0.014 A 
ATOM      4  C   UNL     1    -110.535  23.229  23.075  1.00  0.00     0.047 A 
ATOM      5  C   UNL     1    -108.447  24.155  22.287  1.00  0.00     0.001 A 
ATOM      6  C   UNL     1    -109.789  23.849  22.071  1.00  0.00     0.004 A 
ENDROOT
BRANCH   1   7
ATOM      7  C   UNL     1    -107.911  22.898  25.823  1.00  0.00     0.075 C 
ATOM      8  O   UNL     1    -106.875  23.523  26.175  1.00  0.00    -0.545 OA
ATOM      9  O   UNL     1    -108.410  21.911  26.664  1.00  0.00    -0.545 OA
ENDBRANCH   1   7
BRANCH   2  10
ATOM     10  O   UNL     1    -110.709  22.291  25.293  1.00  0.00    -0.507 OA
ATOM     11  H   UNL     1    -110.909  21.298  25.267  1.00  0.00     0.293 HD
ENDBRANCH   2  10
TORSDOF 2
ENDMDL
MODEL 6
REMARK VINA RESULT:    -4.009      1.791      3.518
REMARK INTER + INTRA:          -4.597
REMARK INTER:                  -4.365
REMARK INTRA:                  -0.232
REMARK UNBOUND:                -0.237
REMARK SMILES O=C([O-])c1ccccc1O
REMARK SMILES IDX 4 1 9 2 5 3 8 4 6 5 7 6 2 7 1 8 3 9 10 10
REMARK H PARENT 10 11
REMARK Flexibility Score: inf
ROOT
ATOM      1  C   UNL     1    -108.927  31.523  25.675  1.00  0.00     0.039 A 
ATOM      2  C   UNL     1    -107.591  31.506  25.208  1.00  0.00     0.124 A 
ATOM      3  C   UNL     1    -109.161  31.668  27.057  1.00  0.00     0.014 A 
ATOM      4  C   UNL     1    -106.531  31.633  26.118  1.00  0.00     0.047 A 
ATOM      5  C   UNL     1    -108.096  31.793  27.952  1.00  0.00     0.001 A 
ATOM      6  C   UNL     1    -106.783  31.776  27.483  1.00  0.00     0.004 A 
ENDROOT
BRANCH   1   7
ATOM      7  C   UNL     1    -110.081  31.391  24.747  1.00  0.00     0.075 C 
ATOM      8  O   UNL     1    -111.182  31.941  25.018  1.00  0.00    -0.545 OA
ATOM      9  O   UNL     1    -109.974  30.664  23.568  1.00  0.00    -0.545 OA
ENDBRANCH   1   7
BRANCH   2  10
ATOM     10  O   UNL     1    -107.312  31.364  23.849  1.00  0.00    -0.507 OA
ATOM     11  H   UNL     1    -107.268  32.164  23.228  1.00  0.00     0.293 HD
ENDBRANCH   2  10
TORSDOF 2
ENDMDL
MODEL 7
REMARK VINA RESULT:    -3.976      8.259      9.019
REMARK INTER + INTRA:          -4.561
REMARK INTER:                  -4.311
REMARK INTRA:                  -0.250
REMARK UNBOUND:                -0.237
REMARK SMILES O=C([O-])c1ccccc1O
REMARK SMILES IDX 4 1 9 2 5 3 8 4 6 5 7 6 2 7 1 8 3 9 10 10
REMARK H PARENT 10 11
REMARK Flexibility Score: inf
ROOT
ATOM      1  C   UNL     1    -109.491  23.454  23.485  1.00  0.00     0.039 A 
ATOM      2  C   UNL     1    -108.153  23.915  23.456  1.00  0.00     0.124 A 
ATOM      3  C   UNL     1    -109.954  22.788  24.637  1.00  0.00     0.014 A 
ATOM      4  C   UNL     1    -107.317  23.706  24.564  1.00  0.00     0.047 A 
ATOM      5  C   UNL     1    -109.111  22.586  25.732  1.00  0.00     0.001 A 
ATOM      6  C   UNL     1    -107.795  23.044  25.696  1.00  0.00     0.004 A 
ENDROOT
BRANCH   1   7
ATOM      7  C   UNL     1    -110.410  23.653  22.335  1.00  0.00     0.075 C 
ATOM      8  O   UNL     1    -111.620  23.949  22.531  1.00  0.00    -0.545 OA
ATOM      9  O   UNL     1    -109.963  23.521  21.026  1.00  0.00    -0.545 OA
ENDBRANCH   1   7
BRANCH   2  10
ATOM     10  O   UNL     1    -107.650  24.579  22.337  1.00  0.00    -0.507 OA
ATOM     11  H   UNL     1    -107.749  25.581  22.224  1.00  0.00     0.293 HD
ENDBRANCH   2  10
TORSDOF 2
ENDMDL
MODEL 8
REMARK VINA RESULT:    -3.724     13.954     15.110
REMARK INTER + INTRA:          -4.287
REMARK INTER:                  -4.038
REMARK INTRA:                  -0.250
REMARK UNBOUND:                -0.237
REMARK SMILES O=C([O-])c1ccccc1O
REMARK SMILES IDX 4 1 9 2 5 3 8 4 6 5 7 6 2 7 1 8 3 9 10 10
REMARK H PARENT 10 11
REMARK Flexibility Score: inf
ROOT
ATOM      1  C   UNL     1    -103.119  23.435  14.615  1.00  0.00     0.039 A 
ATOM      2  C   UNL     1    -102.377  24.209  13.691  1.00  0.00     0.124 A 
ATOM      3  C   UNL     1    -103.863  22.337  14.138  1.00  0.00     0.014 A 
ATOM      4  C   UNL     1    -102.394  23.876  12.328  1.00  0.00     0.047 A 
ATOM      5  C   UNL     1    -103.870  22.017  12.778  1.00  0.00     0.001 A 
ATOM      6  C   UNL     1    -103.137  22.785  11.875  1.00  0.00     0.004 A 
ENDROOT
BRANCH   1   7
ATOM      7  C   UNL     1    -103.131  23.751  16.067  1.00  0.00     0.075 C 
ATOM      8  O   UNL     1    -102.049  23.868  16.702  1.00  0.00    -0.545 OA
ATOM      9  O   UNL     1    -104.326  23.925  16.754  1.00  0.00    -0.545 OA
ENDBRANCH   1   7
BRANCH   2  10
ATOM     10  O   UNL     1    -101.627  25.304  14.117  1.00  0.00    -0.507 OA
ATOM     11  H   UNL     1    -101.455  25.481  15.100  1.00  0.00     0.293 HD
ENDBRANCH   2  10
TORSDOF 2
ENDMDL
