MODEL 1
REMARK VINA RESULT:    -3.460      0.000      0.000
REMARK INTER + INTRA:          -5.389
REMARK INTER:                  -5.079
REMARK INTRA:                  -0.311
REMARK UNBOUND:                -0.311
REMARK SMILES O=C([O-])CCCCCCCC(=O)[O-]
REMARK SMILES IDX 7 1 6 2 5 3 4 4 2 5 1 6 3 7 8 8 9 9 10 10 11 11 12 12 13 13
REMARK H PARENT
REMARK Flexibility Score: inf
ROOT
ATOM      1  C   UNL     1      12.820   3.803  -2.388  1.00  0.00     0.000 C 
ENDROOT
BRANCH   1   2
ATOM      2  C   UNL     1      14.120   3.324  -3.050  1.00  0.00     0.000 C 
BRANCH   2   3
ATOM      3  C   UNL     1      14.691   2.101  -2.316  1.00  0.00     0.006 C 
BRANCH   3   4
ATOM      4  C   UNL     1      16.119   2.342  -1.808  1.00  0.00     0.053 C 
BRANCH   4   5
ATOM      5  C   UNL     1      17.100   1.401  -2.435  1.00  0.00     0.041 C 
ATOM      6  O   UNL     1      16.709   0.302  -2.909  1.00  0.00    -0.550 OA
ATOM      7  O   UNL     1      18.451   1.721  -2.466  1.00  0.00    -0.550 OA
ENDBRANCH   4   5
ENDBRANCH   3   4
ENDBRANCH   2   3
ENDBRANCH   1   2
BRANCH   1   8
ATOM      8  C   UNL     1      13.070   4.792  -1.238  1.00  0.00     0.000 C 
BRANCH   8   9
ATOM      9  C   UNL     1      11.798   5.099  -0.434  1.00  0.00     0.006 C 
BRANCH   9  10
ATOM     10  C   UNL     1      10.636   5.460  -1.363  1.00  0.00     0.053 C 
BRANCH  10  11
ATOM     11  C   UNL     1      10.358   6.928  -1.310  1.00  0.00     0.041 C 
ATOM     12  O   UNL     1       9.217   7.346  -0.979  1.00  0.00    -0.550 OA
ATOM     13  O   UNL     1      11.374   7.839  -1.577  1.00  0.00    -0.550 OA
ENDBRANCH  10  11
ENDBRANCH   9  10
ENDBRANCH   8   9
ENDBRANCH   1   8
TORSDOF 8
ENDMDL
MODEL 2
REMARK VINA RESULT:    -3.396      1.896      7.636
REMARK INTER + INTRA:          -5.296
REMARK INTER:                  -4.974
REMARK INTRA:                  -0.321
REMARK UNBOUND:                -0.311
REMARK SMILES O=C([O-])CCCCCCCC(=O)[O-]
REMARK SMILES IDX 7 1 6 2 5 3 4 4 2 5 1 6 3 7 8 8 9 9 10 10 11 11 12 12 13 13
REMARK H PARENT
REMARK Flexibility Score: inf
ROOT
ATOM      1  C   UNL     1      15.380   2.772  -1.696  1.00  0.00     0.000 C 
ENDROOT
BRANCH   1   2
ATOM      2  C   UNL     1      14.409   2.384  -2.822  1.00  0.00     0.000 C 
BRANCH   2   3
ATOM      3  C   UNL     1      13.169   3.291  -2.814  1.00  0.00     0.006 C 
BRANCH   3   4
ATOM      4  C   UNL     1      13.169   4.266  -1.629  1.00  0.00     0.053 C 
BRANCH   4   5
ATOM      5  C   UNL     1      11.783   4.702  -1.267  1.00  0.00     0.041 C 
ATOM      6  O   UNL     1      10.807   4.377  -1.993  1.00  0.00    -0.550 OA
ATOM      7  O   UNL     1      11.573   5.495  -0.146  1.00  0.00    -0.550 OA
ENDBRANCH   4   5
ENDBRANCH   3   4
ENDBRANCH   2   3
ENDBRANCH   1   2
BRANCH   1   8
ATOM      8  C   UNL     1      16.617   1.862  -1.640  1.00  0.00     0.000 C 
BRANCH   8   9
ATOM      9  C   UNL     1      17.313   1.723  -3.002  1.00  0.00     0.006 C 
BRANCH   9  10
ATOM     10  C   UNL     1      18.199   0.475  -3.040  1.00  0.00     0.053 C 
BRANCH  10  11
ATOM     11  C   UNL     1      19.582   0.798  -2.569  1.00  0.00     0.041 C 
ATOM     12  O   UNL     1      20.016   1.978  -2.639  1.00  0.00    -0.550 OA
ATOM     13  O   UNL     1      20.375  -0.195  -2.007  1.00  0.00    -0.550 OA
ENDBRANCH  10  11
ENDBRANCH   9  10
ENDBRANCH   8   9
ENDBRANCH   1   8
TORSDOF 8
ENDMDL
MODEL 3
REMARK VINA RESULT:    -3.368      0.561      7.218
REMARK INTER + INTRA:          -5.255
REMARK INTER:                  -4.934
REMARK INTRA:                  -0.320
REMARK UNBOUND:                -0.311
REMARK SMILES O=C([O-])CCCCCCCC(=O)[O-]
REMARK SMILES IDX 7 1 6 2 5 3 4 4 2 5 1 6 3 7 8 8 9 9 10 10 11 11 12 12 13 13
REMARK H PARENT
REMARK Flexibility Score: inf
ROOT
ATOM      1  C   UNL     1      13.034   3.771  -2.351  1.00  0.00     0.000 C 
ENDROOT
BRANCH   1   2
ATOM      2  C   UNL     1      13.191   4.859  -1.278  1.00  0.00     0.000 C 
BRANCH   2   3
ATOM      3  C   UNL     1      11.900   5.013  -0.460  1.00  0.00     0.006 C 
BRANCH   3   4
ATOM      4  C   UNL     1      10.647   5.023  -1.346  1.00  0.00     0.053 C 
BRANCH   4   5
ATOM      5  C   UNL     1      10.111   6.408  -1.537  1.00  0.00     0.041 C 
ATOM      6  O   UNL     1       8.945   6.581  -1.979  1.00  0.00    -0.550 OA
ATOM      7  O   UNL     1      10.911   7.509  -1.258  1.00  0.00    -0.550 OA
ENDBRANCH   4   5
ENDBRANCH   3   4
ENDBRANCH   2   3
ENDBRANCH   1   2
BRANCH   1   8
ATOM      8  C   UNL     1      14.373   3.129  -2.744  1.00  0.00     0.000 C 
BRANCH   8   9
ATOM      9  C   UNL     1      14.996   2.312  -1.602  1.00  0.00     0.006 C 
BRANCH   9  10
ATOM     10  C   UNL     1      16.522   2.442  -1.605  1.00  0.00     0.053 C 
BRANCH  10  11
ATOM     11  C   UNL     1      17.143   1.320  -2.376  1.00  0.00     0.041 C 
ATOM     12  O   UNL     1      16.425   0.391  -2.832  1.00  0.00    -0.550 OA
ATOM     13  O   UNL     1      18.508   1.326  -2.634  1.00  0.00    -0.550 OA
ENDBRANCH  10  11
ENDBRANCH   9  10
ENDBRANCH   8   9
ENDBRANCH   1   8
TORSDOF 8
ENDMDL
MODEL 4
REMARK VINA RESULT:    -3.362      1.419      2.437
REMARK INTER + INTRA:          -5.245
REMARK INTER:                  -4.947
REMARK INTRA:                  -0.298
REMARK UNBOUND:                -0.311
REMARK SMILES O=C([O-])CCCCCCCC(=O)[O-]
REMARK SMILES IDX 7 1 6 2 5 3 4 4 2 5 1 6 3 7 8 8 9 9 10 10 11 11 12 12 13 13
REMARK H PARENT
REMARK Flexibility Score: inf
ROOT
ATOM      1  C   UNL     1      12.149   4.890  -0.548  1.00  0.00     0.000 C 
ENDROOT
BRANCH   1   2
ATOM      2  C   UNL     1      12.876   4.943  -1.899  1.00  0.00     0.000 C 
BRANCH   2   3
ATOM      3  C   UNL     1      13.582   3.610  -2.195  1.00  0.00     0.006 C 
BRANCH   3   4
ATOM      4  C   UNL     1      14.744   3.342  -1.230  1.00  0.00     0.053 C 
BRANCH   4   5
ATOM      5  C   UNL     1      15.648   2.259  -1.734  1.00  0.00     0.041 C 
ATOM      6  O   UNL     1      16.897   2.375  -1.627  1.00  0.00    -0.550 OA
ATOM      7  O   UNL     1      15.112   1.137  -2.353  1.00  0.00    -0.550 OA
ENDBRANCH   4   5
ENDBRANCH   3   4
ENDBRANCH   2   3
ENDBRANCH   1   2
BRANCH   1   8
ATOM      8  C   UNL     1      10.910   5.799  -0.506  1.00  0.00     0.000 C 
BRANCH   8   9
ATOM      9  C   UNL     1      10.512   6.322  -1.894  1.00  0.00     0.006 C 
BRANCH   9  10
ATOM     10  C   UNL     1       8.994   6.496  -1.999  1.00  0.00     0.053 C 
BRANCH  10  11
ATOM     11  C   UNL     1       8.582   7.837  -1.481  1.00  0.00     0.041 C 
ATOM     12  O   UNL     1       9.340   8.833  -1.626  1.00  0.00    -0.550 OA
ATOM     13  O   UNL     1       7.339   8.000  -0.881  1.00  0.00    -0.550 OA
ENDBRANCH  10  11
ENDBRANCH   9  10
ENDBRANCH   8   9
ENDBRANCH   1   8
TORSDOF 8
ENDMDL
MODEL 5
REMARK VINA RESULT:    -3.356      1.809      2.952
REMARK INTER + INTRA:          -5.236
REMARK INTER:                  -4.964
REMARK INTRA:                  -0.272
REMARK UNBOUND:                -0.311
REMARK SMILES O=C([O-])CCCCCCCC(=O)[O-]
REMARK SMILES IDX 7 1 6 2 5 3 4 4 2 5 1 6 3 7 8 8 9 9 10 10 11 11 12 12 13 13
REMARK H PARENT
REMARK Flexibility Score: inf
ROOT
ATOM      1  C   UNL     1      15.511   2.739  -1.653  1.00  0.00     0.000 C 
ENDROOT
BRANCH   1   2
ATOM      2  C   UNL     1      16.579   1.635  -1.676  1.00  0.00     0.000 C 
BRANCH   2   3
ATOM      3  C   UNL     1      17.424   1.717  -2.956  1.00  0.00     0.006 C 
BRANCH   3   4
ATOM      4  C   UNL     1      18.343   0.499  -3.125  1.00  0.00     0.053 C 
BRANCH   4   5
ATOM      5  C   UNL     1      19.722   0.766  -2.604  1.00  0.00     0.041 C 
ATOM      6  O   UNL     1      20.239   1.906  -2.736  1.00  0.00    -0.550 OA
ATOM      7  O   UNL     1      20.449  -0.254  -2.005  1.00  0.00    -0.550 OA
ENDBRANCH   4   5
ENDBRANCH   3   4
ENDBRANCH   2   3
ENDBRANCH   1   2
BRANCH   1   8
ATOM      8  C   UNL     1      14.383   2.493  -2.667  1.00  0.00     0.000 C 
BRANCH   8   9
ATOM      9  C   UNL     1      13.301   3.582  -2.624  1.00  0.00     0.006 C 
BRANCH   9  10
ATOM     10  C   UNL     1      13.259   4.259  -1.251  1.00  0.00     0.053 C 
BRANCH  10  11
ATOM     11  C   UNL     1      12.129   5.236  -1.181  1.00  0.00     0.041 C 
ATOM     12  O   UNL     1      11.136   5.007  -0.441  1.00  0.00    -0.550 OA
ATOM     13  O   UNL     1      12.194   6.426  -1.897  1.00  0.00    -0.550 OA
ENDBRANCH  10  11
ENDBRANCH   9  10
ENDBRANCH   8   9
ENDBRANCH   1   8
TORSDOF 8
ENDMDL
MODEL 6
REMARK VINA RESULT:    -3.342      1.198      7.418
REMARK INTER + INTRA:          -5.215
REMARK INTER:                  -4.898
REMARK INTRA:                  -0.317
REMARK UNBOUND:                -0.311
REMARK SMILES O=C([O-])CCCCCCCC(=O)[O-]
REMARK SMILES IDX 7 1 6 2 5 3 4 4 2 5 1 6 3 7 8 8 9 9 10 10 11 11 12 12 13 13
REMARK H PARENT
REMARK Flexibility Score: inf
ROOT
ATOM      1  C   UNL     1      12.995   4.803  -1.247  1.00  0.00     0.000 C 
ENDROOT
BRANCH   1   2
ATOM      2  C   UNL     1      11.851   5.067  -0.257  1.00  0.00     0.000 C 
BRANCH   2   3
ATOM      3  C   UNL     1      10.539   5.362  -1.000  1.00  0.00     0.006 C 
BRANCH   3   4
ATOM      4  C   UNL     1      10.392   6.848  -1.352  1.00  0.00     0.053 C 
BRANCH   4   5
ATOM      5  C   UNL     1       8.987   7.191  -1.744  1.00  0.00     0.041 C 
ATOM      6  O   UNL     1       8.415   8.193  -1.240  1.00  0.00    -0.550 OA
ATOM      7  O   UNL     1       8.298   6.384  -2.640  1.00  0.00    -0.550 OA
ENDBRANCH   4   5
ENDBRANCH   3   4
ENDBRANCH   2   3
ENDBRANCH   1   2
BRANCH   1   8
ATOM      8  C   UNL     1      12.584   3.863  -2.391  1.00  0.00     0.000 C 
BRANCH   8   9
ATOM      9  C   UNL     1      13.680   2.847  -2.746  1.00  0.00     0.006 C 
BRANCH   9  10
ATOM     10  C   UNL     1      14.880   2.985  -1.803  1.00  0.00     0.053 C 
BRANCH  10  11
ATOM     11  C   UNL     1      15.915   1.951  -2.117  1.00  0.00     0.041 C 
ATOM     12  O   UNL     1      17.072   2.045  -1.630  1.00  0.00    -0.550 OA
ATOM     13  O   UNL     1      15.587   0.857  -2.908  1.00  0.00    -0.550 OA
ENDBRANCH  10  11
ENDBRANCH   9  10
ENDBRANCH   8   9
ENDBRANCH   1   8
TORSDOF 8
ENDMDL
MODEL 7
REMARK VINA RESULT:    -3.330      1.357      7.001
REMARK INTER + INTRA:          -5.198
REMARK INTER:                  -4.849
REMARK INTRA:                  -0.349
REMARK UNBOUND:                -0.311
REMARK SMILES O=C([O-])CCCCCCCC(=O)[O-]
REMARK SMILES IDX 7 1 6 2 5 3 4 4 2 5 1 6 3 7 8 8 9 9 10 10 11 11 12 12 13 13
REMARK H PARENT
REMARK Flexibility Score: inf
ROOT
ATOM      1  C   UNL     1      12.442   4.717  -0.571  1.00  0.00     0.000 C 
ENDROOT
BRANCH   1   2
ATOM      2  C   UNL     1      10.973   5.043  -0.878  1.00  0.00     0.000 C 
BRANCH   2   3
ATOM      3  C   UNL     1      10.638   6.490  -0.486  1.00  0.00     0.006 C 
BRANCH   3   4
ATOM      4  C   UNL     1      10.481   7.403  -1.710  1.00  0.00     0.053 C 
BRANCH   4   5
ATOM      5  C   UNL     1      11.672   8.292  -1.897  1.00  0.00     0.041 C 
ATOM      6  O   UNL     1      11.623   9.499  -1.541  1.00  0.00    -0.550 OA
ATOM      7  O   UNL     1      12.823   7.798  -2.497  1.00  0.00    -0.550 OA
ENDBRANCH   4   5
ENDBRANCH   3   4
ENDBRANCH   2   3
ENDBRANCH   1   2
BRANCH   1   8
ATOM      8  C   UNL     1      13.237   4.327  -1.827  1.00  0.00     0.000 C 
BRANCH   8   9
ATOM      9  C   UNL     1      14.386   3.354  -1.521  1.00  0.00     0.006 C 
BRANCH   9  10
ATOM     10  C   UNL     1      14.868   2.657  -2.797  1.00  0.00     0.053 C 
BRANCH  10  11
ATOM     11  C   UNL     1      15.947   1.672  -2.482  1.00  0.00     0.041 C 
ATOM     12  O   UNL     1      15.933   0.526  -3.005  1.00  0.00    -0.550 OA
ATOM     13  O   UNL     1      16.998   2.035  -1.648  1.00  0.00    -0.550 OA
ENDBRANCH  10  11
ENDBRANCH   9  10
ENDBRANCH   8   9
ENDBRANCH   1   8
TORSDOF 8
ENDMDL
MODEL 8
REMARK VINA RESULT:    -3.287      1.259      1.830
REMARK INTER + INTRA:          -5.136
REMARK INTER:                  -4.646
REMARK INTRA:                  -0.490
REMARK UNBOUND:                -0.311
REMARK SMILES O=C([O-])CCCCCCCC(=O)[O-]
REMARK SMILES IDX 7 1 6 2 5 3 4 4 2 5 1 6 3 7 8 8 9 9 10 10 11 11 12 12 13 13
REMARK H PARENT
REMARK Flexibility Score: inf
ROOT
ATOM      1  C   UNL     1      12.927   4.423  -0.902  1.00  0.00     0.000 C 
ENDROOT
BRANCH   1   2
ATOM      2  C   UNL     1      12.688   4.080  -2.380  1.00  0.00     0.000 C 
BRANCH   2   3
ATOM      3  C   UNL     1      13.982   3.586  -3.045  1.00  0.00     0.006 C 
BRANCH   3   4
ATOM      4  C   UNL     1      14.171   2.071  -2.894  1.00  0.00     0.053 C 
BRANCH   4   5
ATOM      5  C   UNL     1      15.484   1.735  -2.255  1.00  0.00     0.041 C 
ATOM      6  O   UNL     1      16.053   0.642  -2.514  1.00  0.00    -0.550 OA
ATOM      7  O   UNL     1      16.062   2.613  -1.347  1.00  0.00    -0.550 OA
ENDBRANCH   4   5
ENDBRANCH   3   4
ENDBRANCH   2   3
ENDBRANCH   1   2
BRANCH   1   8
ATOM      8  C   UNL     1      11.769   5.223  -0.284  1.00  0.00     0.000 C 
BRANCH   8   9
ATOM      9  C   UNL     1      10.601   5.425  -1.262  1.00  0.00     0.006 C 
BRANCH   9  10
ATOM     10  C   UNL     1      10.081   6.864  -1.204  1.00  0.00     0.053 C 
BRANCH  10  11
ATOM     11  C   UNL     1      10.954   7.771  -2.011  1.00  0.00     0.041 C 
ATOM     12  O   UNL     1      11.118   8.969  -1.662  1.00  0.00    -0.550 OA
ATOM     13  O   UNL     1      11.626   7.279  -3.124  1.00  0.00    -0.550 OA
ENDBRANCH  10  11
ENDBRANCH   9  10
ENDBRANCH   8   9
ENDBRANCH   1   8
TORSDOF 8
ENDMDL
MODEL 9
REMARK VINA RESULT:    -3.163      1.729      7.256
REMARK INTER + INTRA:          -4.953
REMARK INTER:                  -4.646
REMARK INTRA:                  -0.306
REMARK UNBOUND:                -0.311
REMARK SMILES O=C([O-])CCCCCCCC(=O)[O-]
REMARK SMILES IDX 7 1 6 2 5 3 4 4 2 5 1 6 3 7 8 8 9 9 10 10 11 11 12 12 13 13
REMARK H PARENT
REMARK Flexibility Score: inf
ROOT
ATOM      1  C   UNL     1      12.801   5.645  -1.844  1.00  0.00     0.000 C 
ENDROOT
BRANCH   1   2
ATOM      2  C   UNL     1      11.373   6.141  -1.570  1.00  0.00     0.000 C 
BRANCH   2   3
ATOM      3  C   UNL     1      10.393   4.963  -1.464  1.00  0.00     0.006 C 
BRANCH   3   4
ATOM      4  C   UNL     1       9.565   4.778  -2.743  1.00  0.00     0.053 C 
BRANCH   4   5
ATOM      5  C   UNL     1       8.186   5.344  -2.600  1.00  0.00     0.041 C 
ATOM      6  O   UNL     1       7.179   4.613  -2.787  1.00  0.00    -0.550 OA
ATOM      7  O   UNL     1       8.013   6.688  -2.293  1.00  0.00    -0.550 OA
ENDBRANCH   4   5
ENDBRANCH   3   4
ENDBRANCH   2   3
ENDBRANCH   1   2
BRANCH   1   8
ATOM      8  C   UNL     1      13.084   4.275  -1.207  1.00  0.00     0.000 C 
BRANCH   8   9
ATOM      9  C   UNL     1      14.043   3.418  -2.047  1.00  0.00     0.006 C 
BRANCH   9  10
ATOM     10  C   UNL     1      15.286   3.034  -1.239  1.00  0.00     0.053 C 
BRANCH  10  11
ATOM     11  C   UNL     1      16.018   1.912  -1.903  1.00  0.00     0.041 C 
ATOM     12  O   UNL     1      15.390   0.905  -2.324  1.00  0.00    -0.550 OA
ATOM     13  O   UNL     1      17.391   2.001  -2.104  1.00  0.00    -0.550 OA
ENDBRANCH  10  11
ENDBRANCH   9  10
ENDBRANCH   8   9
ENDBRANCH   1   8
TORSDOF 8
ENDMDL
