MODEL 1
REMARK VINA RESULT:    -2.167      0.000      0.000
REMARK INTER + INTRA:          -5.029
REMARK INTER:                  -3.434
REMARK INTRA:                  -1.596
REMARK UNBOUND:                -1.596
REMARK SMILES CCCCCCCCCCCC(=O)[O-]
REMARK SMILES IDX 7 1 8 2 9 3 10 4 11 5 12 6 13 7 14 8 6 9 5 10 4 11 3 12 2 13
REMARK SMILES IDX 1 14
REMARK H PARENT
REMARK Flexibility Score: inf
ROOT
ATOM      1  C   UNL     1       0.446  16.157  -2.790  1.00  0.00     0.000 C 
ENDROOT
BRANCH   1   2
ATOM      2  C   UNL     1       1.806  15.451  -2.954  1.00  0.00     0.000 C 
BRANCH   2   3
ATOM      3  C   UNL     1       1.813  14.416  -4.089  1.00  0.00     0.000 C 
BRANCH   3   4
ATOM      4  C   UNL     1       0.644  14.653  -5.056  1.00  0.00     0.006 C 
BRANCH   4   5
ATOM      5  C   UNL     1      -0.111  13.358  -5.382  1.00  0.00     0.053 C 
BRANCH   5   6
ATOM      6  C   UNL     1       0.077  12.951  -6.811  1.00  0.00     0.041 C 
ATOM      7  O   UNL     1      -0.862  13.088  -7.638  1.00  0.00    -0.550 OA
ATOM      8  O   UNL     1       1.280  12.392  -7.221  1.00  0.00    -0.550 OA
ENDBRANCH   5   6
ENDBRANCH   4   5
ENDBRANCH   3   4
ENDBRANCH   2   3
ENDBRANCH   1   2
BRANCH   1   9
ATOM      9  C   UNL     1      -0.345  15.773  -1.525  1.00  0.00     0.000 C 
BRANCH   9  10
ATOM     10  C   UNL     1      -1.603  14.944  -1.833  1.00  0.00    -0.000 C 
BRANCH  10  11
ATOM     11  C   UNL     1      -1.328  13.430  -1.869  1.00  0.00    -0.000 C 
BRANCH  11  12
ATOM     12  C   UNL     1      -0.371  12.907  -0.777  1.00  0.00    -0.000 C 
BRANCH  12  13
ATOM     13  C   UNL     1       0.894  12.204  -1.303  1.00  0.00    -0.003 C 
ATOM     14  C   UNL     1       2.159  12.613  -0.551  1.00  0.00     0.004 C 
ENDBRANCH  12  13
ENDBRANCH  11  12
ENDBRANCH  10  11
ENDBRANCH   9  10
ENDBRANCH   1   9
TORSDOF 10
ENDMDL
MODEL 2
REMARK VINA RESULT:    -2.031      1.242      2.822
REMARK INTER + INTRA:          -4.815
REMARK INTER:                  -3.626
REMARK INTRA:                  -1.189
REMARK UNBOUND:                -1.596
REMARK SMILES CCCCCCCCCCCC(=O)[O-]
REMARK SMILES IDX 7 1 8 2 9 3 10 4 11 5 12 6 13 7 14 8 6 9 5 10 4 11 3 12 2 13
REMARK SMILES IDX 1 14
REMARK H PARENT
REMARK Flexibility Score: inf
ROOT
ATOM      1  C   UNL     1       1.381  13.092  -1.615  1.00  0.00     0.000 C 
ENDROOT
BRANCH   1   2
ATOM      2  C   UNL     1       1.427  12.834  -3.132  1.00  0.00     0.000 C 
BRANCH   2   3
ATOM      3  C   UNL     1       0.112  13.190  -3.843  1.00  0.00     0.000 C 
BRANCH   3   4
ATOM      4  C   UNL     1       0.339  14.271  -4.910  1.00  0.00     0.006 C 
BRANCH   4   5
ATOM      5  C   UNL     1       1.237  13.780  -6.053  1.00  0.00     0.053 C 
BRANCH   5   6
ATOM      6  C   UNL     1       0.499  12.869  -6.985  1.00  0.00     0.041 C 
ATOM      7  O   UNL     1       1.067  11.849  -7.457  1.00  0.00    -0.550 OA
ATOM      8  O   UNL     1      -0.806  13.164  -7.357  1.00  0.00    -0.550 OA
ENDBRANCH   5   6
ENDBRANCH   4   5
ENDBRANCH   3   4
ENDBRANCH   2   3
ENDBRANCH   1   2
BRANCH   1   9
ATOM      9  C   UNL     1       0.347  12.255  -0.838  1.00  0.00     0.000 C 
BRANCH   9  10
ATOM     10  C   UNL     1      -0.600  13.114   0.017  1.00  0.00    -0.000 C 
BRANCH  10  11
ATOM     11  C   UNL     1      -2.055  13.081  -0.482  1.00  0.00    -0.000 C 
BRANCH  11  12
ATOM     12  C   UNL     1      -2.401  14.110  -1.579  1.00  0.00    -0.000 C 
BRANCH  12  13
ATOM     13  C   UNL     1      -2.143  15.579  -1.196  1.00  0.00    -0.003 C 
ATOM     14  C   UNL     1      -0.973  16.197  -1.961  1.00  0.00     0.004 C 
ENDBRANCH  12  13
ENDBRANCH  11  12
ENDBRANCH  10  11
ENDBRANCH   9  10
ENDBRANCH   1   9
TORSDOF 10
ENDMDL
MODEL 3
REMARK VINA RESULT:    -2.025      1.416      2.430
REMARK INTER + INTRA:          -4.804
REMARK INTER:                  -3.272
REMARK INTRA:                  -1.532
REMARK UNBOUND:                -1.596
REMARK SMILES CCCCCCCCCCCC(=O)[O-]
REMARK SMILES IDX 7 1 8 2 9 3 10 4 11 5 12 6 13 7 14 8 6 9 5 10 4 11 3 12 2 13
REMARK SMILES IDX 1 14
REMARK H PARENT
REMARK Flexibility Score: inf
ROOT
ATOM      1  C   UNL     1      -1.020  13.585  -2.935  1.00  0.00     0.000 C 
ENDROOT
BRANCH   1   2
ATOM      2  C   UNL     1       0.370  12.991  -2.638  1.00  0.00     0.000 C 
BRANCH   2   3
ATOM      3  C   UNL     1       1.466  13.533  -3.567  1.00  0.00     0.000 C 
BRANCH   3   4
ATOM      4  C   UNL     1       0.926  14.668  -4.451  1.00  0.00     0.006 C 
BRANCH   4   5
ATOM      5  C   UNL     1       1.337  14.506  -5.920  1.00  0.00     0.053 C 
BRANCH   5   6
ATOM      6  C   UNL     1       0.657  13.336  -6.561  1.00  0.00     0.041 C 
ATOM      7  O   UNL     1      -0.585  13.357  -6.762  1.00  0.00    -0.550 OA
ATOM      8  O   UNL     1       1.392  12.208  -6.906  1.00  0.00    -0.550 OA
ENDBRANCH   5   6
ENDBRANCH   4   5
ENDBRANCH   3   4
ENDBRANCH   2   3
ENDBRANCH   1   2
BRANCH   1   9
ATOM      9  C   UNL     1      -1.974  13.658  -1.728  1.00  0.00     0.000 C 
BRANCH   9  10
ATOM     10  C   UNL     1      -1.901  15.004  -0.987  1.00  0.00    -0.000 C 
BRANCH  10  11
ATOM     11  C   UNL     1      -1.464  16.165  -1.896  1.00  0.00    -0.000 C 
BRANCH  11  12
ATOM     12  C   UNL     1      -0.146  16.859  -1.494  1.00  0.00    -0.000 C 
BRANCH  12  13
ATOM     13  C   UNL     1       0.590  16.218  -0.304  1.00  0.00    -0.003 C 
ATOM     14  C   UNL     1       2.000  15.749  -0.659  1.00  0.00     0.004 C 
ENDBRANCH  12  13
ENDBRANCH  11  12
ENDBRANCH  10  11
ENDBRANCH   9  10
ENDBRANCH   1   9
TORSDOF 10
ENDMDL
MODEL 4
REMARK VINA RESULT:    -2.004      1.137      1.864
REMARK INTER + INTRA:          -4.771
REMARK INTER:                  -3.568
REMARK INTRA:                  -1.204
REMARK UNBOUND:                -1.596
REMARK SMILES CCCCCCCCCCCC(=O)[O-]
REMARK SMILES IDX 7 1 8 2 9 3 10 4 11 5 12 6 13 7 14 8 6 9 5 10 4 11 3 12 2 13
REMARK SMILES IDX 1 14
REMARK H PARENT
REMARK Flexibility Score: inf
ROOT
ATOM      1  C   UNL     1       0.929  16.724  -3.594  1.00  0.00     0.000 C 
ENDROOT
BRANCH   1   2
ATOM      2  C   UNL     1       1.442  15.325  -3.202  1.00  0.00     0.000 C 
BRANCH   2   3
ATOM      3  C   UNL     1       1.891  14.490  -4.411  1.00  0.00     0.000 C 
BRANCH   3   4
ATOM      4  C   UNL     1       1.040  13.218  -4.546  1.00  0.00     0.006 C 
BRANCH   4   5
ATOM      5  C   UNL     1      -0.192  13.435  -5.434  1.00  0.00     0.053 C 
BRANCH   5   6
ATOM      6  C   UNL     1       0.034  12.938  -6.828  1.00  0.00     0.041 C 
ATOM      7  O   UNL     1      -0.796  13.200  -7.737  1.00  0.00    -0.550 OA
ATOM      8  O   UNL     1       1.147  12.158  -7.116  1.00  0.00    -0.550 OA
ENDBRANCH   5   6
ENDBRANCH   4   5
ENDBRANCH   3   4
ENDBRANCH   2   3
ENDBRANCH   1   2
BRANCH   1   9
ATOM      9  C   UNL     1       0.237  17.510  -2.464  1.00  0.00     0.000 C 
BRANCH   9  10
ATOM     10  C   UNL     1      -0.418  16.597  -1.413  1.00  0.00    -0.000 C 
BRANCH  10  11
ATOM     11  C   UNL     1      -1.904  16.322  -1.702  1.00  0.00    -0.000 C 
BRANCH  11  12
ATOM     12  C   UNL     1      -2.404  14.916  -1.310  1.00  0.00    -0.000 C 
BRANCH  12  13
ATOM     13  C   UNL     1      -1.728  13.753  -2.058  1.00  0.00    -0.003 C 
ATOM     14  C   UNL     1      -0.739  12.980  -1.187  1.00  0.00     0.004 C 
ENDBRANCH  12  13
ENDBRANCH  11  12
ENDBRANCH  10  11
ENDBRANCH   9  10
ENDBRANCH   1   9
TORSDOF 10
ENDMDL
MODEL 5
REMARK VINA RESULT:    -2.003      1.085      2.670
REMARK INTER + INTRA:          -4.770
REMARK INTER:                  -3.235
REMARK INTRA:                  -1.535
REMARK UNBOUND:                -1.596
REMARK SMILES CCCCCCCCCCCC(=O)[O-]
REMARK SMILES IDX 7 1 8 2 9 3 10 4 11 5 12 6 13 7 14 8 6 9 5 10 4 11 3 12 2 13
REMARK SMILES IDX 1 14
REMARK H PARENT
REMARK Flexibility Score: inf
ROOT
ATOM      1  C   UNL     1       2.564  14.621  -3.163  1.00  0.00     0.000 C 
ENDROOT
BRANCH   1   2
ATOM      2  C   UNL     1       2.181  14.772  -4.647  1.00  0.00     0.000 C 
BRANCH   2   3
ATOM      3  C   UNL     1       0.666  14.888  -4.869  1.00  0.00     0.000 C 
BRANCH   3   4
ATOM      4  C   UNL     1       0.063  13.534  -5.269  1.00  0.00     0.006 C 
BRANCH   4   5
ATOM      5  C   UNL     1       0.837  12.869  -6.414  1.00  0.00     0.053 C 
BRANCH   5   6
ATOM      6  C   UNL     1       0.271  13.233  -7.752  1.00  0.00     0.041 C 
ATOM      7  O   UNL     1       0.987  13.819  -8.605  1.00  0.00    -0.550 OA
ATOM      8  O   UNL     1      -1.058  12.953  -8.043  1.00  0.00    -0.550 OA
ENDBRANCH   5   6
ENDBRANCH   4   5
ENDBRANCH   3   4
ENDBRANCH   2   3
ENDBRANCH   1   2
BRANCH   1   9
ATOM      9  C   UNL     1       2.904  13.187  -2.715  1.00  0.00     0.000 C 
BRANCH   9  10
ATOM     10  C   UNL     1       1.683  12.421  -2.178  1.00  0.00    -0.000 C 
BRANCH  10  11
ATOM     11  C   UNL     1       0.776  13.289  -1.288  1.00  0.00    -0.000 C 
BRANCH  11  12
ATOM     12  C   UNL     1      -0.740  13.079  -1.485  1.00  0.00    -0.000 C 
BRANCH  12  13
ATOM     13  C   UNL     1      -1.520  14.334  -1.917  1.00  0.00    -0.003 C 
ATOM     14  C   UNL     1      -0.791  15.634  -1.578  1.00  0.00     0.004 C 
ENDBRANCH  12  13
ENDBRANCH  11  12
ENDBRANCH  10  11
ENDBRANCH   9  10
ENDBRANCH   1   9
TORSDOF 10
ENDMDL
MODEL 6
REMARK VINA RESULT:    -2.001      1.513      3.249
REMARK INTER + INTRA:          -4.767
REMARK INTER:                  -3.912
REMARK INTRA:                  -0.855
REMARK UNBOUND:                -1.596
REMARK SMILES CCCCCCCCCCCC(=O)[O-]
REMARK SMILES IDX 7 1 8 2 9 3 10 4 11 5 12 6 13 7 14 8 6 9 5 10 4 11 3 12 2 13
REMARK SMILES IDX 1 14
REMARK H PARENT
REMARK Flexibility Score: inf
ROOT
ATOM      1  C   UNL     1       1.717  14.034  -4.030  1.00  0.00     0.000 C 
ENDROOT
BRANCH   1   2
ATOM      2  C   UNL     1       0.736  14.589  -5.080  1.00  0.00     0.000 C 
BRANCH   2   3
ATOM      3  C   UNL     1      -0.057  13.490  -5.803  1.00  0.00     0.000 C 
BRANCH   3   4
ATOM      4  C   UNL     1       0.726  12.952  -7.010  1.00  0.00     0.006 C 
BRANCH   4   5
ATOM      5  C   UNL     1      -0.195  12.345  -8.076  1.00  0.00     0.053 C 
BRANCH   5   6
ATOM      6  C   UNL     1      -0.464  13.309  -9.190  1.00  0.00     0.041 C 
ATOM      7  O   UNL     1       0.441  14.090  -9.586  1.00  0.00    -0.550 OA
ATOM      8  O   UNL     1      -1.725  13.367  -9.769  1.00  0.00    -0.550 OA
ENDBRANCH   5   6
ENDBRANCH   4   5
ENDBRANCH   3   4
ENDBRANCH   2   3
ENDBRANCH   1   2
BRANCH   1   9
ATOM      9  C   UNL     1       1.181  12.862  -3.187  1.00  0.00     0.000 C 
BRANCH   9  10
ATOM     10  C   UNL     1       0.425  13.324  -1.930  1.00  0.00    -0.000 C 
BRANCH  10  11
ATOM     11  C   UNL     1      -1.102  13.342  -2.121  1.00  0.00    -0.000 C 
BRANCH  11  12
ATOM     12  C   UNL     1      -1.815  14.614  -1.617  1.00  0.00    -0.000 C 
BRANCH  12  13
ATOM     13  C   UNL     1      -1.040  15.926  -1.836  1.00  0.00    -0.003 C 
ATOM     14  C   UNL     1      -1.898  17.170  -1.611  1.00  0.00     0.004 C 
ENDBRANCH  12  13
ENDBRANCH  11  12
ENDBRANCH  10  11
ENDBRANCH   9  10
ENDBRANCH   1   9
TORSDOF 10
ENDMDL
MODEL 7
REMARK VINA RESULT:    -1.982      2.542      4.622
REMARK INTER + INTRA:          -4.737
REMARK INTER:                  -2.997
REMARK INTRA:                  -1.740
REMARK UNBOUND:                -1.596
REMARK SMILES CCCCCCCCCCCC(=O)[O-]
REMARK SMILES IDX 7 1 8 2 9 3 10 4 11 5 12 6 13 7 14 8 6 9 5 10 4 11 3 12 2 13
REMARK SMILES IDX 1 14
REMARK H PARENT
REMARK Flexibility Score: inf
ROOT
ATOM      1  C   UNL     1      -0.522  14.221  -2.922  1.00  0.00     0.000 C 
ENDROOT
BRANCH   1   2
ATOM      2  C   UNL     1       0.278  15.524  -3.108  1.00  0.00     0.000 C 
BRANCH   2   3
ATOM      3  C   UNL     1       1.587  15.544  -2.304  1.00  0.00     0.000 C 
BRANCH   3   4
ATOM      4  C   UNL     1       1.820  14.200  -1.598  1.00  0.00     0.006 C 
BRANCH   4   5
ATOM      5  C   UNL     1       2.897  13.358  -2.294  1.00  0.00     0.053 C 
BRANCH   5   6
ATOM      6  C   UNL     1       2.506  11.914  -2.372  1.00  0.00     0.041 C 
ATOM      7  O   UNL     1       3.000  11.171  -3.261  1.00  0.00    -0.550 OA
ATOM      8  O   UNL     1       1.573  11.397  -1.483  1.00  0.00    -0.550 OA
ENDBRANCH   5   6
ENDBRANCH   4   5
ENDBRANCH   3   4
ENDBRANCH   2   3
ENDBRANCH   1   2
BRANCH   1   9
ATOM      9  C   UNL     1      -0.531  13.277  -4.139  1.00  0.00     0.000 C 
BRANCH   9  10
ATOM     10  C   UNL     1       0.232  13.848  -5.346  1.00  0.00    -0.000 C 
BRANCH  10  11
ATOM     11  C   UNL     1       1.352  12.916  -5.842  1.00  0.00    -0.000 C 
BRANCH  11  12
ATOM     12  C   UNL     1       2.734  13.579  -6.015  1.00  0.00    -0.000 C 
BRANCH  12  13
ATOM     13  C   UNL     1       2.740  15.114  -5.890  1.00  0.00    -0.003 C 
ATOM     14  C   UNL     1       3.947  15.644  -5.118  1.00  0.00     0.004 C 
ENDBRANCH  12  13
ENDBRANCH  11  12
ENDBRANCH  10  11
ENDBRANCH   9  10
ENDBRANCH   1   9
TORSDOF 10
ENDMDL
MODEL 8
REMARK VINA RESULT:    -1.965      3.648      5.373
REMARK INTER + INTRA:          -4.709
REMARK INTER:                  -3.491
REMARK INTRA:                  -1.218
REMARK UNBOUND:                -1.596
REMARK SMILES CCCCCCCCCCCC(=O)[O-]
REMARK SMILES IDX 7 1 8 2 9 3 10 4 11 5 12 6 13 7 14 8 6 9 5 10 4 11 3 12 2 13
REMARK SMILES IDX 1 14
REMARK H PARENT
REMARK Flexibility Score: inf
ROOT
ATOM      1  C   UNL     1       2.032  13.388  -3.022  1.00  0.00     0.000 C 
ENDROOT
BRANCH   1   2
ATOM      2  C   UNL     1       1.773  12.136  -2.163  1.00  0.00     0.000 C 
BRANCH   2   3
ATOM      3  C   UNL     1       1.524  12.463  -0.684  1.00  0.00     0.000 C 
BRANCH   3   4
ATOM      4  C   UNL     1       0.421  11.566  -0.101  1.00  0.00     0.006 C 
BRANCH   4   5
ATOM      5  C   UNL     1       0.989  10.307   0.568  1.00  0.00     0.053 C 
BRANCH   5   6
ATOM      6  C   UNL     1       0.131   9.107   0.310  1.00  0.00     0.041 C 
ATOM      7  O   UNL     1       0.603   8.108  -0.293  1.00  0.00    -0.550 OA
ATOM      8  O   UNL     1      -1.200   9.106   0.708  1.00  0.00    -0.550 OA
ENDBRANCH   5   6
ENDBRANCH   4   5
ENDBRANCH   3   4
ENDBRANCH   2   3
ENDBRANCH   1   2
BRANCH   1   9
ATOM      9  C   UNL     1       0.777  14.195  -3.402  1.00  0.00     0.000 C 
BRANCH   9  10
ATOM     10  C   UNL     1      -0.441  13.304  -3.700  1.00  0.00    -0.000 C 
BRANCH  10  11
ATOM     11  C   UNL     1      -1.590  13.505  -2.697  1.00  0.00    -0.000 C 
BRANCH  11  12
ATOM     12  C   UNL     1      -1.425  14.702  -1.736  1.00  0.00    -0.000 C 
BRANCH  12  13
ATOM     13  C   UNL     1      -1.859  14.434  -0.283  1.00  0.00    -0.003 C 
ATOM     14  C   UNL     1      -2.892  13.314  -0.167  1.00  0.00     0.004 C 
ENDBRANCH  12  13
ENDBRANCH  11  12
ENDBRANCH  10  11
ENDBRANCH   9  10
ENDBRANCH   1   9
TORSDOF 10
ENDMDL
MODEL 9
REMARK VINA RESULT:    -1.934      3.320      5.095
REMARK INTER + INTRA:          -4.661
REMARK INTER:                  -3.084
REMARK INTRA:                  -1.576
REMARK UNBOUND:                -1.596
REMARK SMILES CCCCCCCCCCCC(=O)[O-]
REMARK SMILES IDX 7 1 8 2 9 3 10 4 11 5 12 6 13 7 14 8 6 9 5 10 4 11 3 12 2 13
REMARK SMILES IDX 1 14
REMARK H PARENT
REMARK Flexibility Score: inf
ROOT
ATOM      1  C   UNL     1       2.397  12.359  -5.043  1.00  0.00     0.000 C 
ENDROOT
BRANCH   1   2
ATOM      2  C   UNL     1       3.281  13.334  -4.243  1.00  0.00     0.000 C 
BRANCH   2   3
ATOM      3  C   UNL     1       3.247  13.073  -2.730  1.00  0.00     0.000 C 
BRANCH   3   4
ATOM      4  C   UNL     1       2.429  11.812  -2.408  1.00  0.00     0.006 C 
BRANCH   4   5
ATOM      5  C   UNL     1       1.786  11.876  -1.017  1.00  0.00     0.053 C 
BRANCH   5   6
ATOM      6  C   UNL     1       2.093  10.654  -0.208  1.00  0.00     0.041 C 
ATOM      7  O   UNL     1       2.998  10.683   0.667  1.00  0.00    -0.550 OA
ATOM      8  O   UNL     1       1.399   9.473  -0.443  1.00  0.00    -0.550 OA
ENDBRANCH   5   6
ENDBRANCH   4   5
ENDBRANCH   3   4
ENDBRANCH   2   3
ENDBRANCH   1   2
BRANCH   1   9
ATOM      9  C   UNL     1       1.386  13.022  -5.997  1.00  0.00     0.000 C 
BRANCH   9  10
ATOM     10  C   UNL     1       0.429  13.988  -5.279  1.00  0.00    -0.000 C 
BRANCH  10  11
ATOM     11  C   UNL     1      -0.490  13.280  -4.268  1.00  0.00    -0.000 C 
BRANCH  11  12
ATOM     12  C   UNL     1      -0.654  13.996  -2.911  1.00  0.00    -0.000 C 
BRANCH  12  13
ATOM     13  C   UNL     1      -0.111  15.435  -2.865  1.00  0.00    -0.003 C 
ATOM     14  C   UNL     1       0.883  15.660  -1.726  1.00  0.00     0.004 C 
ENDBRANCH  12  13
ENDBRANCH  11  12
ENDBRANCH  10  11
ENDBRANCH   9  10
ENDBRANCH   1   9
TORSDOF 10
ENDMDL
