MODEL 1
REMARK VINA RESULT:    -3.437      0.000      0.000
REMARK INTER + INTRA:          -5.745
REMARK INTER:                  -5.246
REMARK INTRA:                  -0.500
REMARK UNBOUND:                -0.500
REMARK SMILES CC1=CCC[C@@H](C)C(=O)C[C@@H](C(C)C)C(=O)C1
REMARK SMILES IDX 8 1 9 2 6 3 7 4 5 5 4 6 3 7 2 8 1 9 10 11 11 12 15 13 16 14
REMARK SMILES IDX 17 15 12 17 13 18 14 19
REMARK H PARENT
REMARK Flexibility Score: 70.00
ROOT
ATOM      1  C   UNL     1      55.054  18.291  -4.294  1.00  0.00     0.136 C 
ATOM      2  O   UNL     1      56.262  18.406  -4.451  1.00  0.00    -0.299 OA
ENDROOT
BRANCH   1   3
ATOM      3  C   UNL     1      54.513  17.722  -2.999  1.00  0.00     0.053 C 
ATOM      4  C   UNL     1      54.900  18.643  -1.837  1.00  0.00     0.016 C 
BRANCH   3   5
ATOM      5  C   UNL     1      55.018  16.284  -2.731  1.00  0.00     0.015 C 
BRANCH   5   6
ATOM      6  C   UNL     1      54.738  15.304  -3.878  1.00  0.00     0.028 C 
BRANCH   6   7
ATOM      7  C   UNL     1      53.300  14.845  -3.873  1.00  0.00    -0.028 C 
ATOM      8  C   UNL     1      52.396  15.117  -4.840  1.00  0.00    -0.070 CG0
ATOM      9  C   UNL     1      50.998  14.575  -4.678  1.00  0.00     0.039 C 
ATOM     10  G   UNL     1      52.732  15.928  -6.078  1.00  0.00     0.000 G0
ENDBRANCH   6   7
ENDBRANCH   5   6
ENDBRANCH   3   5
ENDBRANCH   1   3
BRANCH   1  11
ATOM     11  C   UNL     1      54.122  18.779  -5.376  1.00  0.00     0.087 C 
BRANCH  11  12
ATOM     12  C   UNL     1      52.632  18.423  -5.130  1.00  0.00     0.066 C 
BRANCH  12  13
ATOM     13  C   UNL     1      52.176  17.342  -6.107  1.00  0.00     0.140 C 
ATOM     14  O   UNL     1      51.272  17.600  -6.889  1.00  0.00    -0.299 OA
BRANCH  13  15
ATOM     15  C   UNL     1      52.725  15.929  -6.097  1.00  0.00     0.106 CG0
ATOM     16  G   UNL     1      52.376  15.131  -4.853  1.00  0.00     0.000 G0
ENDBRANCH  13  15
ENDBRANCH  12  13
BRANCH  12  17
ATOM     17  C   UNL     1      51.715  19.683  -5.252  1.00  0.00    -0.006 C 
ATOM     18  C   UNL     1      52.435  20.861  -5.936  1.00  0.00     0.008 C 
ATOM     19  C   UNL     1      51.206  20.147  -3.875  1.00  0.00     0.008 C 
ENDBRANCH  12  17
ENDBRANCH  11  12
ENDBRANCH   1  11
TORSDOF 1
ENDMDL
MODEL 2
REMARK VINA RESULT:    -3.404      2.203      4.443
REMARK INTER + INTRA:          -5.695
REMARK INTER:                  -5.392
REMARK INTRA:                  -0.302
REMARK UNBOUND:                -0.500
REMARK SMILES CC1=CCC[C@@H](C)C(=O)C[C@@H](C(C)C)C(=O)C1
REMARK SMILES IDX 8 1 9 2 6 3 7 4 5 5 4 6 3 7 2 8 1 9 10 11 11 12 15 13 16 14
REMARK SMILES IDX 17 15 12 17 13 18 14 19
REMARK H PARENT
REMARK Flexibility Score: 70.00
ROOT
ATOM      1  C   UNL     1      54.984  18.418  -3.208  1.00  0.00     0.136 C 
ATOM      2  O   UNL     1      54.941  19.321  -2.383  1.00  0.00    -0.299 OA
ENDROOT
BRANCH   1   3
ATOM      3  C   UNL     1      55.200  18.743  -4.671  1.00  0.00     0.053 C 
ATOM      4  C   UNL     1      56.583  19.379  -4.852  1.00  0.00     0.016 C 
BRANCH   3   5
ATOM      5  C   UNL     1      54.104  19.679  -5.236  1.00  0.00     0.015 C 
BRANCH   5   6
ATOM      6  C   UNL     1      52.720  19.022  -5.339  1.00  0.00     0.028 C 
BRANCH   6   7
ATOM      7  C   UNL     1      51.787  19.533  -4.269  1.00  0.00    -0.028 C 
ATOM      8  C   UNL     1      51.094  18.755  -3.408  1.00  0.00    -0.070 CG0
ATOM      9  C   UNL     1      50.206  19.432  -2.395  1.00  0.00     0.039 C 
ATOM     10  G   UNL     1      51.183  17.240  -3.413  1.00  0.00     0.000 G0
ENDBRANCH   6   7
ENDBRANCH   5   6
ENDBRANCH   3   5
ENDBRANCH   1   3
BRANCH   1  11
ATOM     11  C   UNL     1      54.880  16.987  -2.738  1.00  0.00     0.087 C 
BRANCH  11  12
ATOM     12  C   UNL     1      53.660  16.223  -3.318  1.00  0.00     0.066 C 
BRANCH  12  13
ATOM     13  C   UNL     1      52.373  16.681  -2.636  1.00  0.00     0.140 C 
ATOM     14  O   UNL     1      52.260  16.523  -1.429  1.00  0.00    -0.299 OA
BRANCH  13  15
ATOM     15  C   UNL     1      51.185  17.238  -3.395  1.00  0.00     0.106 CG0
ATOM     16  G   UNL     1      51.105  18.754  -3.407  1.00  0.00     0.000 G0
ENDBRANCH  13  15
ENDBRANCH  12  13
BRANCH  12  17
ATOM     17  C   UNL     1      53.831  14.676  -3.166  1.00  0.00    -0.006 C 
ATOM     18  C   UNL     1      55.310  14.263  -3.056  1.00  0.00     0.008 C 
ATOM     19  C   UNL     1      53.192  13.919  -4.345  1.00  0.00     0.008 C 
ENDBRANCH  12  17
ENDBRANCH  11  12
ENDBRANCH   1  11
TORSDOF 1
ENDMDL
MODEL 3
REMARK VINA RESULT:    -3.396      2.636      5.032
REMARK INTER + INTRA:          -5.682
REMARK INTER:                  -5.292
REMARK INTRA:                  -0.390
REMARK UNBOUND:                -0.500
REMARK SMILES CC1=CCC[C@@H](C)C(=O)C[C@@H](C(C)C)C(=O)C1
REMARK SMILES IDX 8 1 9 2 6 3 7 4 5 5 4 6 3 7 2 8 1 9 10 11 11 12 15 13 16 14
REMARK SMILES IDX 17 15 12 17 13 18 14 19
REMARK H PARENT
REMARK Flexibility Score: 70.00
ROOT
ATOM      1  C   UNL     1      54.280  16.847  -4.877  1.00  0.00     0.136 C 
ATOM      2  O   UNL     1      53.555  16.080  -5.497  1.00  0.00    -0.299 OA
ENDROOT
BRANCH   1   3
ATOM      3  C   UNL     1      54.461  18.270  -5.362  1.00  0.00     0.053 C 
ATOM      4  C   UNL     1      55.638  18.914  -4.620  1.00  0.00     0.016 C 
BRANCH   3   5
ATOM      5  C   UNL     1      53.183  19.123  -5.177  1.00  0.00     0.015 C 
BRANCH   5   6
ATOM      6  C   UNL     1      53.038  19.728  -3.773  1.00  0.00     0.028 C 
BRANCH   6   7
ATOM      7  C   UNL     1      51.914  19.075  -3.006  1.00  0.00    -0.028 C 
ATOM      8  C   UNL     1      52.075  18.257  -1.941  1.00  0.00    -0.070 CG0
ATOM      9  C   UNL     1      50.840  17.691  -1.287  1.00  0.00     0.039 C 
ATOM     10  G   UNL     1      53.437  17.900  -1.375  1.00  0.00     0.000 G0
ENDBRANCH   6   7
ENDBRANCH   5   6
ENDBRANCH   3   5
ENDBRANCH   1   3
BRANCH   1  11
ATOM     11  C   UNL     1      54.932  16.373  -3.602  1.00  0.00     0.087 C 
BRANCH  11  12
ATOM     12  C   UNL     1      53.978  15.589  -2.661  1.00  0.00     0.066 C 
BRANCH  12  13
ATOM     13  C   UNL     1      53.730  16.379  -1.379  1.00  0.00     0.140 C 
ATOM     14  O   UNL     1      53.680  15.776  -0.317  1.00  0.00    -0.299 OA
BRANCH  13  15
ATOM     15  C   UNL     1      53.446  17.869  -1.364  1.00  0.00     0.106 CG0
ATOM     16  G   UNL     1      52.092  18.253  -1.934  1.00  0.00     0.000 G0
ENDBRANCH  13  15
ENDBRANCH  12  13
BRANCH  12  17
ATOM     17  C   UNL     1      54.547  14.173  -2.322  1.00  0.00    -0.006 C 
ATOM     18  C   UNL     1      56.057  14.070  -2.606  1.00  0.00     0.008 C 
ATOM     19  C   UNL     1      53.819  13.068  -3.109  1.00  0.00     0.008 C 
ENDBRANCH  12  17
ENDBRANCH  11  12
ENDBRANCH   1  11
TORSDOF 1
ENDMDL
MODEL 4
REMARK VINA RESULT:    -3.219      1.992      4.047
REMARK INTER + INTRA:          -5.413
REMARK INTER:                  -4.914
REMARK INTRA:                  -0.499
REMARK UNBOUND:                -0.500
REMARK SMILES CC1=CCC[C@@H](C)C(=O)C[C@@H](C(C)C)C(=O)C1
REMARK SMILES IDX 8 1 9 2 6 3 7 4 5 5 4 6 3 7 2 8 1 9 10 11 11 12 15 13 16 14
REMARK SMILES IDX 17 15 12 17 13 18 14 19
REMARK H PARENT
REMARK Flexibility Score: 70.00
ROOT
ATOM      1  C   UNL     1      51.909  20.240  -4.191  1.00  0.00     0.136 C 
ATOM      2  O   UNL     1      51.189  21.092  -3.685  1.00  0.00    -0.299 OA
ENDROOT
BRANCH   1   3
ATOM      3  C   UNL     1      52.124  20.229  -5.690  1.00  0.00     0.053 C 
ATOM      4  C   UNL     1      52.543  21.627  -6.155  1.00  0.00     0.016 C 
BRANCH   3   5
ATOM      5  C   UNL     1      50.866  19.764  -6.462  1.00  0.00     0.015 C 
BRANCH   5   6
ATOM      6  C   UNL     1      50.902  18.286  -6.876  1.00  0.00     0.028 C 
BRANCH   6   7
ATOM      7  C   UNL     1      50.151  17.421  -5.894  1.00  0.00    -0.028 C 
ATOM      8  C   UNL     1      50.713  16.481  -5.100  1.00  0.00    -0.070 CG0
ATOM      9  C   UNL     1      49.813  15.706  -4.171  1.00  0.00     0.039 C 
ATOM     10  G   UNL     1      52.201  16.187  -5.099  1.00  0.00     0.000 G0
ENDBRANCH   6   7
ENDBRANCH   5   6
ENDBRANCH   3   5
ENDBRANCH   1   3
BRANCH   1  11
ATOM     11  C   UNL     1      52.619  19.253  -3.297  1.00  0.00     0.087 C 
BRANCH  11  12
ATOM     12  C   UNL     1      53.534  18.259  -4.061  1.00  0.00     0.066 C 
BRANCH  12  13
ATOM     13  C   UNL     1      52.972  16.843  -3.971  1.00  0.00     0.140 C 
ATOM     14  O   UNL     1      53.221  16.174  -2.977  1.00  0.00    -0.299 OA
BRANCH  13  15
ATOM     15  C   UNL     1      52.196  16.184  -5.095  1.00  0.00     0.106 CG0
ATOM     16  G   UNL     1      50.707  16.476  -5.081  1.00  0.00     0.000 G0
ENDBRANCH  13  15
ENDBRANCH  12  13
BRANCH  12  17
ATOM     17  C   UNL     1      54.999  18.295  -3.515  1.00  0.00    -0.006 C 
ATOM     18  C   UNL     1      55.104  19.066  -2.186  1.00  0.00     0.008 C 
ATOM     19  C   UNL     1      55.965  18.928  -4.532  1.00  0.00     0.008 C 
ENDBRANCH  12  17
ENDBRANCH  11  12
ENDBRANCH   1  11
TORSDOF 1
ENDMDL
MODEL 5
REMARK VINA RESULT:    -3.141      1.703      4.031
REMARK INTER + INTRA:          -5.294
REMARK INTER:                  -5.723
REMARK INTRA:                   0.429
REMARK UNBOUND:                -0.500
REMARK SMILES CC1=CCC[C@@H](C)C(=O)C[C@@H](C(C)C)C(=O)C1
REMARK SMILES IDX 8 1 9 2 6 3 7 4 5 5 4 6 3 7 2 8 1 9 10 11 11 12 15 13 16 14
REMARK SMILES IDX 17 15 12 17 13 18 14 19
REMARK H PARENT
REMARK Flexibility Score: 70.00
ROOT
ATOM      1  C   UNL     1      55.055  18.611  -3.042  1.00  0.00     0.136 C 
ATOM      2  O   UNL     1      55.287  19.560  -2.304  1.00  0.00    -0.299 OA
ENDROOT
BRANCH   1   3
ATOM      3  C   UNL     1      55.354  18.718  -4.523  1.00  0.00     0.053 C 
ATOM      4  C   UNL     1      56.729  19.364  -4.719  1.00  0.00     0.016 C 
BRANCH   3   5
ATOM      5  C   UNL     1      54.273  19.521  -5.286  1.00  0.00     0.015 C 
BRANCH   5   6
ATOM      6  C   UNL     1      52.882  19.459  -4.640  1.00  0.00     0.028 C 
BRANCH   6   7
ATOM      7  C   UNL     1      51.929  18.628  -5.464  1.00  0.00    -0.028 C 
ATOM      8  C   UNL     1      51.620  17.334  -5.222  1.00  0.00    -0.070 CG0
ATOM      9  C   UNL     1      50.642  16.652  -6.146  1.00  0.00     0.039 C 
ATOM     10  G   UNL     1      52.204  16.551  -4.061  1.00  0.00     0.000 G0
ENDBRANCH   6   7
ENDBRANCH   5   6
ENDBRANCH   3   5
ENDBRANCH   1   3
BRANCH   1  11
ATOM     11  C   UNL     1      54.531  17.327  -2.447  1.00  0.00     0.087 C 
BRANCH  11  12
ATOM     12  C   UNL     1      54.735  16.085  -3.355  1.00  0.00     0.066 C 
BRANCH  12  13
ATOM     13  C   UNL     1      53.551  15.921  -4.305  1.00  0.00     0.140 C 
ATOM     14  O   UNL     1      53.724  15.336  -5.364  1.00  0.00    -0.299 OA
BRANCH  13  15
ATOM     15  C   UNL     1      52.188  16.531  -4.044  1.00  0.00     0.106 CG0
ATOM     16  G   UNL     1      51.625  17.325  -5.208  1.00  0.00     0.000 G0
ENDBRANCH  13  15
ENDBRANCH  12  13
BRANCH  12  17
ATOM     17  C   UNL     1      54.933  14.785  -2.508  1.00  0.00    -0.006 C 
ATOM     18  C   UNL     1      53.639  13.956  -2.406  1.00  0.00     0.008 C 
ATOM     19  C   UNL     1      55.428  15.107  -1.087  1.00  0.00     0.008 C 
ENDBRANCH  12  17
ENDBRANCH  11  12
ENDBRANCH   1  11
TORSDOF 1
ENDMDL
MODEL 6
REMARK VINA RESULT:    -3.116      2.762      4.724
REMARK INTER + INTRA:          -5.255
REMARK INTER:                  -4.916
REMARK INTRA:                  -0.339
REMARK UNBOUND:                -0.500
REMARK SMILES CC1=CCC[C@@H](C)C(=O)C[C@@H](C(C)C)C(=O)C1
REMARK SMILES IDX 8 1 9 2 6 3 7 4 5 5 4 6 3 7 2 8 1 9 10 11 11 12 15 13 16 14
REMARK SMILES IDX 17 15 12 17 13 18 14 19
REMARK H PARENT
REMARK Flexibility Score: 70.00
ROOT
ATOM      1  C   UNL     1      55.033  16.888  -3.586  1.00  0.00     0.136 C 
ATOM      2  O   UNL     1      55.124  15.695  -3.844  1.00  0.00    -0.299 OA
ENDROOT
BRANCH   1   3
ATOM      3  C   UNL     1      55.265  17.915  -4.673  1.00  0.00     0.053 C 
ATOM      4  C   UNL     1      55.784  19.213  -4.045  1.00  0.00     0.016 C 
BRANCH   3   5
ATOM      5  C   UNL     1      53.987  18.196  -5.500  1.00  0.00     0.015 C 
BRANCH   5   6
ATOM      6  C   UNL     1      53.076  19.270  -4.889  1.00  0.00     0.028 C 
BRANCH   6   7
ATOM      7  C   UNL     1      51.696  18.726  -4.607  1.00  0.00    -0.028 C 
ATOM      8  C   UNL     1      51.189  18.497  -3.375  1.00  0.00    -0.070 CG0
ATOM      9  C   UNL     1      49.786  17.954  -3.274  1.00  0.00     0.039 C 
ATOM     10  G   UNL     1      51.964  18.775  -2.101  1.00  0.00     0.000 G0
ENDBRANCH   6   7
ENDBRANCH   5   6
ENDBRANCH   3   5
ENDBRANCH   1   3
BRANCH   1  11
ATOM     11  C   UNL     1      54.630  17.310  -2.193  1.00  0.00     0.087 C 
BRANCH  11  12
ATOM     12  C   UNL     1      53.388  16.558  -1.644  1.00  0.00     0.066 C 
BRANCH  12  13
ATOM     13  C   UNL     1      52.290  17.550  -1.268  1.00  0.00     0.140 C 
ATOM     14  O   UNL     1      51.588  17.309  -0.296  1.00  0.00    -0.299 OA
BRANCH  13  15
ATOM     15  C   UNL     1      51.962  18.778  -2.095  1.00  0.00     0.106 CG0
ATOM     16  G   UNL     1      51.178  18.488  -3.361  1.00  0.00     0.000 G0
ENDBRANCH  13  15
ENDBRANCH  12  13
BRANCH  12  17
ATOM     17  C   UNL     1      53.757  15.668  -0.413  1.00  0.00    -0.006 C 
ATOM     18  C   UNL     1      55.211  15.886   0.046  1.00  0.00     0.008 C 
ATOM     19  C   UNL     1      53.554  14.172  -0.716  1.00  0.00     0.008 C 
ENDBRANCH  12  17
ENDBRANCH  11  12
ENDBRANCH   1  11
TORSDOF 1
ENDMDL
MODEL 7
REMARK VINA RESULT:    -3.080      1.723      2.468
REMARK INTER + INTRA:          -5.200
REMARK INTER:                  -5.526
REMARK INTRA:                   0.326
REMARK UNBOUND:                -0.500
REMARK SMILES CC1=CCC[C@@H](C)C(=O)C[C@@H](C(C)C)C(=O)C1
REMARK SMILES IDX 8 1 9 2 6 3 7 4 5 5 4 6 3 7 2 8 1 9 10 11 11 12 15 13 16 14
REMARK SMILES IDX 17 15 12 17 13 18 14 19
REMARK H PARENT
REMARK Flexibility Score: 70.00
ROOT
ATOM      1  C   UNL     1      54.777  16.654  -1.996  1.00  0.00     0.136 C 
ATOM      2  O   UNL     1      54.470  17.529  -1.197  1.00  0.00    -0.299 OA
ENDROOT
BRANCH   1   3
ATOM      3  C   UNL     1      54.769  15.203  -1.564  1.00  0.00     0.053 C 
ATOM      4  C   UNL     1      54.974  15.122  -0.048  1.00  0.00     0.016 C 
BRANCH   3   5
ATOM      5  C   UNL     1      55.847  14.365  -2.293  1.00  0.00     0.015 C 
BRANCH   5   6
ATOM      6  C   UNL     1      55.284  13.438  -3.379  1.00  0.00     0.028 C 
BRANCH   6   7
ATOM      7  C   UNL     1      53.775  13.405  -3.348  1.00  0.00    -0.028 C 
ATOM      8  C   UNL     1      52.966  14.195  -4.088  1.00  0.00    -0.070 CG0
ATOM      9  C   UNL     1      51.475  14.027  -3.936  1.00  0.00     0.039 C 
ATOM     10  G   UNL     1      53.494  15.226  -5.068  1.00  0.00     0.000 G0
ENDBRANCH   6   7
ENDBRANCH   5   6
ENDBRANCH   3   5
ENDBRANCH   1   3
BRANCH   1  11
ATOM     11  C   UNL     1      55.098  17.038  -3.420  1.00  0.00     0.087 C 
BRANCH  11  12
ATOM     12  C   UNL     1      53.921  17.719  -4.168  1.00  0.00     0.066 C 
BRANCH  12  13
ATOM     13  C   UNL     1      53.018  16.667  -4.806  1.00  0.00     0.140 C 
ATOM     14  O   UNL     1      51.853  16.956  -5.040  1.00  0.00    -0.299 OA
BRANCH  13  15
ATOM     15  C   UNL     1      53.466  15.245  -5.080  1.00  0.00     0.106 CG0
ATOM     16  G   UNL     1      52.958  14.224  -4.078  1.00  0.00     0.000 G0
ENDBRANCH  13  15
ENDBRANCH  12  13
BRANCH  12  17
ATOM     17  C   UNL     1      54.437  18.719  -5.254  1.00  0.00    -0.006 C 
ATOM     18  C   UNL     1      55.845  19.251  -4.931  1.00  0.00     0.008 C 
ATOM     19  C   UNL     1      53.482  19.915  -5.420  1.00  0.00     0.008 C 
ENDBRANCH  12  17
ENDBRANCH  11  12
ENDBRANCH   1  11
TORSDOF 1
ENDMDL
MODEL 8
REMARK VINA RESULT:    -3.064      2.070      3.092
REMARK INTER + INTRA:          -5.175
REMARK INTER:                  -4.963
REMARK INTRA:                  -0.213
REMARK UNBOUND:                -0.500
REMARK SMILES CC1=CCC[C@@H](C)C(=O)C[C@@H](C(C)C)C(=O)C1
REMARK SMILES IDX 8 1 9 2 6 3 7 4 5 5 4 6 3 7 2 8 1 9 10 11 11 12 15 13 16 14
REMARK SMILES IDX 17 15 12 17 13 18 14 19
REMARK H PARENT
REMARK Flexibility Score: 70.00
ROOT
ATOM      1  C   UNL     1      55.109  15.113  -2.825  1.00  0.00     0.136 C 
ATOM      2  O   UNL     1      55.658  14.077  -3.176  1.00  0.00    -0.299 OA
ENDROOT
BRANCH   1   3
ATOM      3  C   UNL     1      54.318  15.147  -1.534  1.00  0.00     0.053 C 
ATOM      4  C   UNL     1      55.282  15.257  -0.348  1.00  0.00     0.016 C 
BRANCH   3   5
ATOM      5  C   UNL     1      53.408  13.906  -1.368  1.00  0.00     0.015 C 
BRANCH   5   6
ATOM      6  C   UNL     1      52.326  13.780  -2.450  1.00  0.00     0.028 C 
BRANCH   6   7
ATOM      7  C   UNL     1      51.338  14.918  -2.377  1.00  0.00    -0.028 C 
ATOM      8  C   UNL     1      51.243  15.922  -3.277  1.00  0.00    -0.070 CG0
ATOM      9  C   UNL     1      50.193  16.981  -3.053  1.00  0.00     0.039 C 
ATOM     10  G   UNL     1      52.137  16.019  -4.500  1.00  0.00     0.000 G0
ENDBRANCH   6   7
ENDBRANCH   5   6
ENDBRANCH   3   5
ENDBRANCH   1   3
BRANCH   1  11
ATOM     11  C   UNL     1      55.285  16.359  -3.660  1.00  0.00     0.087 C 
BRANCH  11  12
ATOM     12  C   UNL     1      54.179  17.424  -3.439  1.00  0.00     0.066 C 
BRANCH  12  13
ATOM     13  C   UNL     1      53.064  17.252  -4.468  1.00  0.00     0.140 C 
ATOM     14  O   UNL     1      52.853  18.158  -5.262  1.00  0.00    -0.299 OA
BRANCH  13  15
ATOM     15  C   UNL     1      52.139  16.051  -4.496  1.00  0.00     0.106 CG0
ATOM     16  G   UNL     1      51.247  15.920  -3.275  1.00  0.00     0.000 G0
ENDBRANCH  13  15
ENDBRANCH  12  13
BRANCH  12  17
ATOM     17  C   UNL     1      54.760  18.874  -3.509  1.00  0.00    -0.006 C 
ATOM     18  C   UNL     1      55.947  18.978  -4.484  1.00  0.00     0.008 C 
ATOM     19  C   UNL     1      55.213  19.368  -2.123  1.00  0.00     0.008 C 
ENDBRANCH  12  17
ENDBRANCH  11  12
ENDBRANCH   1  11
TORSDOF 1
ENDMDL
MODEL 9
REMARK VINA RESULT:    -2.955      2.207      4.128
REMARK INTER + INTRA:          -5.009
REMARK INTER:                  -4.724
REMARK INTRA:                  -0.285
REMARK UNBOUND:                -0.500
REMARK SMILES CC1=CCC[C@@H](C)C(=O)C[C@@H](C(C)C)C(=O)C1
REMARK SMILES IDX 8 1 9 2 6 3 7 4 5 5 4 6 3 7 2 8 1 9 10 11 11 12 15 13 16 14
REMARK SMILES IDX 17 15 12 17 13 18 14 19
REMARK H PARENT
REMARK Flexibility Score: 70.00
ROOT
ATOM      1  C   UNL     1      53.536  15.998  -5.095  1.00  0.00     0.136 C 
ATOM      2  O   UNL     1      54.436  15.610  -4.363  1.00  0.00    -0.299 OA
ENDROOT
BRANCH   1   3
ATOM      3  C   UNL     1      52.293  15.151  -5.277  1.00  0.00     0.053 C 
ATOM      4  C   UNL     1      52.120  14.814  -6.762  1.00  0.00     0.016 C 
BRANCH   3   5
ATOM      5  C   UNL     1      51.021  15.847  -4.737  1.00  0.00     0.015 C 
BRANCH   5   6
ATOM      6  C   UNL     1      50.131  16.451  -5.831  1.00  0.00     0.028 C 
BRANCH   6   7
ATOM      7  C   UNL     1      49.497  17.743  -5.377  1.00  0.00    -0.028 C 
ATOM      8  C   UNL     1      49.993  18.977  -5.617  1.00  0.00    -0.070 CG0
ATOM      9  C   UNL     1      49.228  20.165  -5.091  1.00  0.00     0.039 C 
ATOM     10  G   UNL     1      51.272  19.212  -6.399  1.00  0.00     0.000 G0
ENDBRANCH   6   7
ENDBRANCH   5   6
ENDBRANCH   3   5
ENDBRANCH   1   3
BRANCH   1  11
ATOM     11  C   UNL     1      53.657  17.349  -5.757  1.00  0.00     0.087 C 
BRANCH  11  12
ATOM     12  C   UNL     1      53.362  18.542  -4.809  1.00  0.00     0.066 C 
BRANCH  12  13
ATOM     13  C   UNL     1      52.485  19.575  -5.513  1.00  0.00     0.140 C 
ATOM     14  O   UNL     1      52.698  20.762  -5.310  1.00  0.00    -0.299 OA
BRANCH  13  15
ATOM     15  C   UNL     1      51.299  19.204  -6.381  1.00  0.00     0.106 CG0
ATOM     16  G   UNL     1      50.010  18.972  -5.614  1.00  0.00     0.000 G0
ENDBRANCH  13  15
ENDBRANCH  12  13
BRANCH  12  17
ATOM     17  C   UNL     1      54.682  19.209  -4.302  1.00  0.00    -0.006 C 
ATOM     18  C   UNL     1      55.864  18.956  -5.256  1.00  0.00     0.008 C 
ATOM     19  C   UNL     1      55.064  18.708  -2.897  1.00  0.00     0.008 C 
ENDBRANCH  12  17
ENDBRANCH  11  12
ENDBRANCH   1  11
TORSDOF 1
ENDMDL
