MODEL 1
REMARK VINA RESULT:    -5.308      0.000      0.000
REMARK INTER + INTRA:         -16.473
REMARK INTER:                 -13.997
REMARK INTRA:                  -2.475
REMARK UNBOUND:                -2.475
REMARK SMILES CCCCCCCCCCCCCCCCCCCCCCCCCCCCCC(=O)[O-]
REMARK SMILES IDX 16 1 17 2 18 3 19 4 20 5 21 6 22 7 23 8 24 9 25 10 26 11
REMARK SMILES IDX 27 12 28 13 29 14 30 15 31 16 32 17 15 18 14 19 13 20 12 21
REMARK SMILES IDX 11 22 10 23 9 24 8 25 7 26 6 27 5 28 4 29 3 30 2 31 1 32
REMARK H PARENT
REMARK Flexibility Score: inf
ROOT
ATOM      1  C   UNL     1      30.037  -0.768  30.373  1.00  0.00     0.000 C 
ENDROOT
BRANCH   1   2
ATOM      2  C   UNL     1      29.277   0.059  31.423  1.00  0.00     0.000 C 
BRANCH   2   3
ATOM      3  C   UNL     1      27.840  -0.441  31.656  1.00  0.00     0.000 C 
BRANCH   3   4
ATOM      4  C   UNL     1      26.726   0.496  31.146  1.00  0.00     0.000 C 
BRANCH   4   5
ATOM      5  C   UNL     1      26.388   0.354  29.648  1.00  0.00     0.000 C 
BRANCH   5   6
ATOM      6  C   UNL     1      26.757   1.570  28.777  1.00  0.00     0.000 C 
BRANCH   6   7
ATOM      7  C   UNL     1      27.633   2.628  29.473  1.00  0.00     0.000 C 
BRANCH   7   8
ATOM      8  C   UNL     1      27.619   3.987  28.748  1.00  0.00     0.000 C 
BRANCH   8   9
ATOM      9  C   UNL     1      26.901   5.084  29.559  1.00  0.00     0.000 C 
BRANCH   9  10
ATOM     10  C   UNL     1      27.673   5.546  30.806  1.00  0.00     0.000 C 
BRANCH  10  11
ATOM     11  C   UNL     1      28.186   6.991  30.698  1.00  0.00     0.000 C 
BRANCH  11  12
ATOM     12  C   UNL     1      27.115   7.949  30.139  1.00  0.00     0.000 C 
BRANCH  12  13
ATOM     13  C   UNL     1      27.656   9.345  29.776  1.00  0.00     0.006 C 
BRANCH  13  14
ATOM     14  C   UNL     1      27.872  10.273  30.987  1.00  0.00     0.053 C 
BRANCH  14  15
ATOM     15  C   UNL     1      26.591  10.684  31.652  1.00  0.00     0.041 C 
ATOM     16  O   UNL     1      25.582  10.995  30.963  1.00  0.00    -0.550 OA
ATOM     17  O   UNL     1      26.537  10.804  33.035  1.00  0.00    -0.550 OA
ENDBRANCH  14  15
ENDBRANCH  13  14
ENDBRANCH  12  13
ENDBRANCH  11  12
ENDBRANCH  10  11
ENDBRANCH   9  10
ENDBRANCH   8   9
ENDBRANCH   7   8
ENDBRANCH   6   7
ENDBRANCH   5   6
ENDBRANCH   4   5
ENDBRANCH   3   4
ENDBRANCH   2   3
ENDBRANCH   1   2
BRANCH   1  18
ATOM     18  C   UNL     1      29.254  -2.014  29.916  1.00  0.00     0.000 C 
BRANCH  18  19
ATOM     19  C   UNL     1      30.121  -3.244  29.586  1.00  0.00     0.000 C 
BRANCH  19  20
ATOM     20  C   UNL     1      29.879  -4.419  30.549  1.00  0.00     0.000 C 
BRANCH  20  21
ATOM     21  C   UNL     1      28.518  -5.098  30.324  1.00  0.00     0.000 C 
BRANCH  21  22
ATOM     22  C   UNL     1      27.376  -4.391  31.077  1.00  0.00     0.000 C 
BRANCH  22  23
ATOM     23  C   UNL     1      26.225  -3.957  30.151  1.00  0.00     0.000 C 
BRANCH  23  24
ATOM     24  C   UNL     1      25.087  -3.184  30.844  1.00  0.00    -0.000 C 
BRANCH  24  25
ATOM     25  C   UNL     1      23.697  -3.772  30.547  1.00  0.00    -0.000 C 
BRANCH  25  26
ATOM     26  C   UNL     1      22.557  -2.819  30.942  1.00  0.00    -0.000 C 
BRANCH  26  27
ATOM     27  C   UNL     1      22.793  -1.385  30.446  1.00  0.00    -0.000 C 
BRANCH  27  28
ATOM     28  C   UNL     1      21.467  -0.697  30.097  1.00  0.00    -0.000 C 
BRANCH  28  29
ATOM     29  C   UNL     1      20.872  -1.189  28.765  1.00  0.00    -0.000 C 
BRANCH  29  30
ATOM     30  C   UNL     1      20.645  -0.061  27.737  1.00  0.00    -0.000 C 
BRANCH  30  31
ATOM     31  C   UNL     1      21.223  -0.409  26.356  1.00  0.00    -0.003 C 
ATOM     32  C   UNL     1      21.928   0.793  25.735  1.00  0.00     0.004 C 
ENDBRANCH  30  31
ENDBRANCH  29  30
ENDBRANCH  28  29
ENDBRANCH  27  28
ENDBRANCH  26  27
ENDBRANCH  25  26
ENDBRANCH  24  25
ENDBRANCH  23  24
ENDBRANCH  22  23
ENDBRANCH  21  22
ENDBRANCH  20  21
ENDBRANCH  19  20
ENDBRANCH  18  19
ENDBRANCH   1  18
TORSDOF 28
ENDMDL
MODEL 2
REMARK VINA RESULT:    -5.209      2.982      7.451
REMARK INTER + INTRA:         -16.211
REMARK INTER:                 -13.398
REMARK INTRA:                  -2.813
REMARK UNBOUND:                -2.475
REMARK SMILES CCCCCCCCCCCCCCCCCCCCCCCCCCCCCC(=O)[O-]
REMARK SMILES IDX 16 1 17 2 18 3 19 4 20 5 21 6 22 7 23 8 24 9 25 10 26 11
REMARK SMILES IDX 27 12 28 13 29 14 30 15 31 16 32 17 15 18 14 19 13 20 12 21
REMARK SMILES IDX 11 22 10 23 9 24 8 25 7 26 6 27 5 28 4 29 3 30 2 31 1 32
REMARK H PARENT
REMARK Flexibility Score: inf
ROOT
ATOM      1  C   UNL     1      26.450  -3.036  30.797  1.00  0.00     0.000 C 
ENDROOT
BRANCH   1   2
ATOM      2  C   UNL     1      27.270  -1.735  30.786  1.00  0.00     0.000 C 
BRANCH   2   3
ATOM      3  C   UNL     1      26.618  -0.621  29.946  1.00  0.00     0.000 C 
BRANCH   3   4
ATOM      4  C   UNL     1      27.573   0.133  28.999  1.00  0.00     0.000 C 
BRANCH   4   5
ATOM      5  C   UNL     1      29.067  -0.207  29.171  1.00  0.00     0.000 C 
BRANCH   5   6
ATOM      6  C   UNL     1      29.879   0.813  29.995  1.00  0.00     0.000 C 
BRANCH   6   7
ATOM      7  C   UNL     1      29.469   0.927  31.475  1.00  0.00     0.000 C 
BRANCH   7   8
ATOM      8  C   UNL     1      29.308   2.386  31.940  1.00  0.00     0.000 C 
BRANCH   8   9
ATOM      9  C   UNL     1      28.072   3.072  31.322  1.00  0.00     0.000 C 
BRANCH   9  10
ATOM     10  C   UNL     1      28.031   4.594  31.536  1.00  0.00     0.000 C 
BRANCH  10  11
ATOM     11  C   UNL     1      27.372   5.350  30.372  1.00  0.00     0.000 C 
BRANCH  11  12
ATOM     12  C   UNL     1      28.290   6.446  29.794  1.00  0.00     0.000 C 
BRANCH  12  13
ATOM     13  C   UNL     1      28.142   7.813  30.489  1.00  0.00     0.006 C 
BRANCH  13  14
ATOM     14  C   UNL     1      26.692   8.329  30.568  1.00  0.00     0.053 C 
BRANCH  14  15
ATOM     15  C   UNL     1      26.529   9.489  31.505  1.00  0.00     0.041 C 
ATOM     16  O   UNL     1      26.921  10.641  31.174  1.00  0.00    -0.550 OA
ATOM     17  O   UNL     1      26.016   9.281  32.779  1.00  0.00    -0.550 OA
ENDBRANCH  14  15
ENDBRANCH  13  14
ENDBRANCH  12  13
ENDBRANCH  11  12
ENDBRANCH  10  11
ENDBRANCH   9  10
ENDBRANCH   8   9
ENDBRANCH   7   8
ENDBRANCH   6   7
ENDBRANCH   5   6
ENDBRANCH   4   5
ENDBRANCH   3   4
ENDBRANCH   2   3
ENDBRANCH   1   2
BRANCH   1  18
ATOM     18  C   UNL     1      27.299  -4.271  31.151  1.00  0.00     0.000 C 
BRANCH  18  19
ATOM     19  C   UNL     1      27.528  -5.260  29.992  1.00  0.00     0.000 C 
BRANCH  19  20
ATOM     20  C   UNL     1      29.016  -5.429  29.638  1.00  0.00     0.000 C 
BRANCH  20  21
ATOM     21  C   UNL     1      29.720  -4.087  29.382  1.00  0.00     0.000 C 
BRANCH  21  22
ATOM     22  C   UNL     1      30.878  -3.833  30.363  1.00  0.00     0.000 C 
BRANCH  22  23
ATOM     23  C   UNL     1      31.722  -2.600  29.990  1.00  0.00     0.000 C 
BRANCH  23  24
ATOM     24  C   UNL     1      33.246  -2.803  30.074  1.00  0.00    -0.000 C 
BRANCH  24  25
ATOM     25  C   UNL     1      34.040  -1.574  29.598  1.00  0.00    -0.000 C 
BRANCH  25  26
ATOM     26  C   UNL     1      33.679  -0.300  30.379  1.00  0.00    -0.000 C 
BRANCH  26  27
ATOM     27  C   UNL     1      34.920   0.434  30.910  1.00  0.00    -0.000 C 
BRANCH  27  28
ATOM     28  C   UNL     1      35.681  -0.432  31.922  1.00  0.00    -0.000 C 
BRANCH  28  29
ATOM     29  C   UNL     1      35.427  -0.008  33.380  1.00  0.00    -0.000 C 
BRANCH  29  30
ATOM     30  C   UNL     1      35.002   1.468  33.529  1.00  0.00    -0.000 C 
BRANCH  30  31
ATOM     31  C   UNL     1      34.291   1.736  34.864  1.00  0.00    -0.003 C 
ATOM     32  C   UNL     1      32.805   1.400  34.774  1.00  0.00     0.004 C 
ENDBRANCH  30  31
ENDBRANCH  29  30
ENDBRANCH  28  29
ENDBRANCH  27  28
ENDBRANCH  26  27
ENDBRANCH  25  26
ENDBRANCH  24  25
ENDBRANCH  23  24
ENDBRANCH  22  23
ENDBRANCH  21  22
ENDBRANCH  20  21
ENDBRANCH  19  20
ENDBRANCH  18  19
ENDBRANCH   1  18
TORSDOF 28
ENDMDL
MODEL 3
REMARK VINA RESULT:    -5.140      4.727      8.434
REMARK INTER + INTRA:         -16.030
REMARK INTER:                 -12.945
REMARK INTRA:                  -3.085
REMARK UNBOUND:                -2.475
REMARK SMILES CCCCCCCCCCCCCCCCCCCCCCCCCCCCCC(=O)[O-]
REMARK SMILES IDX 16 1 17 2 18 3 19 4 20 5 21 6 22 7 23 8 24 9 25 10 26 11
REMARK SMILES IDX 27 12 28 13 29 14 30 15 31 16 32 17 15 18 14 19 13 20 12 21
REMARK SMILES IDX 11 22 10 23 9 24 8 25 7 26 6 27 5 28 4 29 3 30 2 31 1 32
REMARK H PARENT
REMARK Flexibility Score: inf
ROOT
ATOM      1  C   UNL     1      27.764   2.631  29.290  1.00  0.00     0.000 C 
ENDROOT
BRANCH   1   2
ATOM      2  C   UNL     1      27.437   3.974  28.616  1.00  0.00     0.000 C 
BRANCH   2   3
ATOM      3  C   UNL     1      27.066   5.077  29.624  1.00  0.00     0.000 C 
BRANCH   3   4
ATOM      4  C   UNL     1      28.205   6.055  29.978  1.00  0.00     0.000 C 
BRANCH   4   5
ATOM      5  C   UNL     1      28.869   5.817  31.349  1.00  0.00     0.000 C 
BRANCH   5   6
ATOM      6  C   UNL     1      28.386   4.561  32.099  1.00  0.00     0.000 C 
BRANCH   6   7
ATOM      7  C   UNL     1      29.508   3.655  32.641  1.00  0.00     0.000 C 
BRANCH   7   8
ATOM      8  C   UNL     1      30.605   4.441  33.383  1.00  0.00     0.000 C 
BRANCH   8   9
ATOM      9  C   UNL     1      31.119   3.702  34.636  1.00  0.00     0.000 C 
BRANCH   9  10
ATOM     10  C   UNL     1      31.469   2.226  34.389  1.00  0.00     0.000 C 
BRANCH  10  11
ATOM     11  C   UNL     1      32.534   1.688  35.358  1.00  0.00     0.000 C 
BRANCH  11  12
ATOM     12  C   UNL     1      33.968   1.971  34.865  1.00  0.00     0.000 C 
BRANCH  12  13
ATOM     13  C   UNL     1      34.604   0.800  34.091  1.00  0.00     0.006 C 
BRANCH  13  14
ATOM     14  C   UNL     1      35.435   1.229  32.867  1.00  0.00     0.053 C 
BRANCH  14  15
ATOM     15  C   UNL     1      35.383   0.238  31.742  1.00  0.00     0.041 C 
ATOM     16  O   UNL     1      34.844   0.542  30.643  1.00  0.00    -0.550 OA
ATOM     17  O   UNL     1      35.860  -1.053  31.935  1.00  0.00    -0.550 OA
ENDBRANCH  14  15
ENDBRANCH  13  14
ENDBRANCH  12  13
ENDBRANCH  11  12
ENDBRANCH  10  11
ENDBRANCH   9  10
ENDBRANCH   8   9
ENDBRANCH   7   8
ENDBRANCH   6   7
ENDBRANCH   5   6
ENDBRANCH   4   5
ENDBRANCH   3   4
ENDBRANCH   2   3
ENDBRANCH   1   2
BRANCH   1  18
ATOM     18  C   UNL     1      26.772   1.516  28.909  1.00  0.00     0.000 C 
BRANCH  18  19
ATOM     19  C   UNL     1      26.399   0.556  30.054  1.00  0.00     0.000 C 
BRANCH  19  20
ATOM     20  C   UNL     1      26.976   0.994  31.412  1.00  0.00     0.000 C 
BRANCH  20  21
ATOM     21  C   UNL     1      27.843  -0.094  32.065  1.00  0.00     0.000 C 
BRANCH  21  22
ATOM     22  C   UNL     1      29.341   0.264  32.059  1.00  0.00     0.000 C 
BRANCH  22  23
ATOM     23  C   UNL     1      29.962   0.223  30.650  1.00  0.00     0.000 C 
BRANCH  23  24
ATOM     24  C   UNL     1      30.294  -1.187  30.125  1.00  0.00    -0.000 C 
BRANCH  24  25
ATOM     25  C   UNL     1      29.123  -1.834  29.366  1.00  0.00    -0.000 C 
BRANCH  25  26
ATOM     26  C   UNL     1      28.736  -3.207  29.940  1.00  0.00    -0.000 C 
BRANCH  26  27
ATOM     27  C   UNL     1      29.954  -4.119  30.152  1.00  0.00    -0.000 C 
BRANCH  27  28
ATOM     28  C   UNL     1      29.530  -5.486  30.703  1.00  0.00    -0.000 C 
BRANCH  28  29
ATOM     29  C   UNL     1      28.385  -6.125  29.899  1.00  0.00    -0.000 C 
BRANCH  29  30
ATOM     30  C   UNL     1      28.150  -7.613  30.235  1.00  0.00    -0.000 C 
BRANCH  30  31
ATOM     31  C   UNL     1      29.129  -8.538  29.494  1.00  0.00    -0.003 C 
ATOM     32  C   UNL     1      29.273  -8.129  28.031  1.00  0.00     0.004 C 
ENDBRANCH  30  31
ENDBRANCH  29  30
ENDBRANCH  28  29
ENDBRANCH  27  28
ENDBRANCH  26  27
ENDBRANCH  25  26
ENDBRANCH  24  25
ENDBRANCH  23  24
ENDBRANCH  22  23
ENDBRANCH  21  22
ENDBRANCH  20  21
ENDBRANCH  19  20
ENDBRANCH  18  19
ENDBRANCH   1  18
TORSDOF 28
ENDMDL
MODEL 4
REMARK VINA RESULT:    -5.084      3.796      8.477
REMARK INTER + INTRA:         -15.882
REMARK INTER:                 -13.377
REMARK INTRA:                  -2.505
REMARK UNBOUND:                -2.475
REMARK SMILES CCCCCCCCCCCCCCCCCCCCCCCCCCCCCC(=O)[O-]
REMARK SMILES IDX 16 1 17 2 18 3 19 4 20 5 21 6 22 7 23 8 24 9 25 10 26 11
REMARK SMILES IDX 27 12 28 13 29 14 30 15 31 16 32 17 15 18 14 19 13 20 12 21
REMARK SMILES IDX 11 22 10 23 9 24 8 25 7 26 6 27 5 28 4 29 3 30 2 31 1 32
REMARK H PARENT
REMARK Flexibility Score: inf
ROOT
ATOM      1  C   UNL     1      28.431   4.278  31.694  1.00  0.00     0.000 C 
ENDROOT
BRANCH   1   2
ATOM      2  C   UNL     1      27.967   5.361  30.708  1.00  0.00     0.000 C 
BRANCH   2   3
ATOM      3  C   UNL     1      27.814   4.837  29.268  1.00  0.00     0.000 C 
BRANCH   3   4
ATOM      4  C   UNL     1      26.374   4.842  28.716  1.00  0.00     0.000 C 
BRANCH   4   5
ATOM      5  C   UNL     1      26.033   3.674  27.770  1.00  0.00     0.000 C 
BRANCH   5   6
ATOM      6  C   UNL     1      24.799   3.897  26.873  1.00  0.00     0.000 C 
BRANCH   6   7
ATOM      7  C   UNL     1      24.656   2.904  25.705  1.00  0.00     0.000 C 
BRANCH   7   8
ATOM      8  C   UNL     1      24.620   1.436  26.169  1.00  0.00     0.000 C 
BRANCH   8   9
ATOM      9  C   UNL     1      23.503   0.624  25.482  1.00  0.00     0.000 C 
BRANCH   9  10
ATOM     10  C   UNL     1      22.086   0.992  25.952  1.00  0.00     0.000 C 
BRANCH  10  11
ATOM     11  C   UNL     1      21.266  -0.226  26.407  1.00  0.00     0.000 C 
BRANCH  11  12
ATOM     12  C   UNL     1      20.616  -0.009  27.789  1.00  0.00     0.000 C 
BRANCH  12  13
ATOM     13  C   UNL     1      20.827  -1.180  28.767  1.00  0.00     0.006 C 
BRANCH  13  14
ATOM     14  C   UNL     1      21.354  -0.760  30.152  1.00  0.00     0.053 C 
BRANCH  14  15
ATOM     15  C   UNL     1      22.643  -1.432  30.523  1.00  0.00     0.041 C 
ATOM     16  O   UNL     1      22.656  -2.641  30.880  1.00  0.00    -0.550 OA
ATOM     17  O   UNL     1      23.822  -0.698  30.553  1.00  0.00    -0.550 OA
ENDBRANCH  14  15
ENDBRANCH  13  14
ENDBRANCH  12  13
ENDBRANCH  11  12
ENDBRANCH  10  11
ENDBRANCH   9  10
ENDBRANCH   8   9
ENDBRANCH   7   8
ENDBRANCH   6   7
ENDBRANCH   5   6
ENDBRANCH   4   5
ENDBRANCH   3   4
ENDBRANCH   2   3
ENDBRANCH   1   2
BRANCH   1  18
ATOM     18  C   UNL     1      28.022   2.859  31.256  1.00  0.00     0.000 C 
BRANCH  18  19
ATOM     19  C   UNL     1      29.175   1.839  31.186  1.00  0.00     0.000 C 
BRANCH  19  20
ATOM     20  C   UNL     1      29.351   1.233  29.783  1.00  0.00     0.000 C 
BRANCH  20  21
ATOM     21  C   UNL     1      28.034   0.690  29.205  1.00  0.00     0.000 C 
BRANCH  21  22
ATOM     22  C   UNL     1      28.120  -0.805  28.849  1.00  0.00     0.000 C 
BRANCH  22  23
ATOM     23  C   UNL     1      28.447  -1.694  30.063  1.00  0.00     0.000 C 
BRANCH  23  24
ATOM     24  C   UNL     1      27.239  -2.069  30.941  1.00  0.00    -0.000 C 
BRANCH  24  25
ATOM     25  C   UNL     1      27.201  -3.565  31.299  1.00  0.00    -0.000 C 
BRANCH  25  26
ATOM     26  C   UNL     1      27.808  -4.450  30.198  1.00  0.00    -0.000 C 
BRANCH  26  27
ATOM     27  C   UNL     1      28.949  -5.336  30.719  1.00  0.00    -0.000 C 
BRANCH  27  28
ATOM     28  C   UNL     1      29.140  -6.570  29.828  1.00  0.00    -0.000 C 
BRANCH  28  29
ATOM     29  C   UNL     1      27.972  -7.567  29.929  1.00  0.00    -0.000 C 
BRANCH  29  30
ATOM     30  C   UNL     1      28.403  -8.981  30.370  1.00  0.00    -0.000 C 
BRANCH  30  31
ATOM     31  C   UNL     1      29.049  -8.982  31.764  1.00  0.00    -0.003 C 
ATOM     32  C   UNL     1      28.047  -8.567  32.837  1.00  0.00     0.004 C 
ENDBRANCH  30  31
ENDBRANCH  29  30
ENDBRANCH  28  29
ENDBRANCH  27  28
ENDBRANCH  26  27
ENDBRANCH  25  26
ENDBRANCH  24  25
ENDBRANCH  23  24
ENDBRANCH  22  23
ENDBRANCH  21  22
ENDBRANCH  20  21
ENDBRANCH  19  20
ENDBRANCH  18  19
ENDBRANCH   1  18
TORSDOF 28
ENDMDL
MODEL 5
REMARK VINA RESULT:    -5.034      5.874     11.526
REMARK INTER + INTRA:         -15.749
REMARK INTER:                 -13.088
REMARK INTRA:                  -2.662
REMARK UNBOUND:                -2.475
REMARK SMILES CCCCCCCCCCCCCCCCCCCCCCCCCCCCCC(=O)[O-]
REMARK SMILES IDX 16 1 17 2 18 3 19 4 20 5 21 6 22 7 23 8 24 9 25 10 26 11
REMARK SMILES IDX 27 12 28 13 29 14 30 15 31 16 32 17 15 18 14 19 13 20 12 21
REMARK SMILES IDX 11 22 10 23 9 24 8 25 7 26 6 27 5 28 4 29 3 30 2 31 1 32
REMARK H PARENT
REMARK Flexibility Score: inf
ROOT
ATOM      1  C   UNL     1      27.576   4.271  28.905  1.00  0.00     0.000 C 
ENDROOT
BRANCH   1   2
ATOM      2  C   UNL     1      26.701   3.102  28.424  1.00  0.00     0.000 C 
BRANCH   2   3
ATOM      3  C   UNL     1      27.283   1.724  28.791  1.00  0.00     0.000 C 
BRANCH   3   4
ATOM      4  C   UNL     1      26.251   0.676  29.254  1.00  0.00     0.000 C 
BRANCH   4   5
ATOM      5  C   UNL     1      26.379   0.241  30.728  1.00  0.00     0.000 C 
BRANCH   5   6
ATOM      6  C   UNL     1      27.441   1.002  31.545  1.00  0.00     0.000 C 
BRANCH   6   7
ATOM      7  C   UNL     1      28.688   0.179  31.918  1.00  0.00     0.000 C 
BRANCH   7   8
ATOM      8  C   UNL     1      29.825   0.317  30.888  1.00  0.00     0.000 C 
BRANCH   8   9
ATOM      9  C   UNL     1      30.248  -1.039  30.287  1.00  0.00     0.000 C 
BRANCH   9  10
ATOM     10  C   UNL     1      29.070  -1.912  29.826  1.00  0.00     0.000 C 
BRANCH  10  11
ATOM     11  C   UNL     1      29.415  -3.408  29.764  1.00  0.00     0.000 C 
BRANCH  11  12
ATOM     12  C   UNL     1      28.332  -4.285  30.425  1.00  0.00     0.000 C 
BRANCH  12  13
ATOM     13  C   UNL     1      28.294  -5.732  29.898  1.00  0.00     0.006 C 
BRANCH  13  14
ATOM     14  C   UNL     1      29.161  -6.720  30.702  1.00  0.00     0.053 C 
BRANCH  14  15
ATOM     15  C   UNL     1      28.668  -8.136  30.625  1.00  0.00     0.041 C 
ATOM     16  O   UNL     1      28.508  -8.699  29.509  1.00  0.00    -0.550 OA
ATOM     17  O   UNL     1      28.307  -8.806  31.787  1.00  0.00    -0.550 OA
ENDBRANCH  14  15
ENDBRANCH  13  14
ENDBRANCH  12  13
ENDBRANCH  11  12
ENDBRANCH  10  11
ENDBRANCH   9  10
ENDBRANCH   8   9
ENDBRANCH   7   8
ENDBRANCH   6   7
ENDBRANCH   5   6
ENDBRANCH   4   5
ENDBRANCH   3   4
ENDBRANCH   2   3
ENDBRANCH   1   2
BRANCH   1  18
ATOM     18  C   UNL     1      26.748   5.465  29.415  1.00  0.00     0.000 C 
BRANCH  18  19
ATOM     19  C   UNL     1      27.379   6.246  30.584  1.00  0.00     0.000 C 
BRANCH  19  20
ATOM     20  C   UNL     1      28.739   5.671  31.019  1.00  0.00     0.000 C 
BRANCH  20  21
ATOM     21  C   UNL     1      28.604   4.590  32.103  1.00  0.00     0.000 C 
BRANCH  21  22
ATOM     22  C   UNL     1      29.856   4.490  32.994  1.00  0.00     0.000 C 
BRANCH  22  23
ATOM     23  C   UNL     1      30.243   3.037  33.325  1.00  0.00     0.000 C 
BRANCH  23  24
ATOM     24  C   UNL     1      31.194   2.873  34.525  1.00  0.00    -0.000 C 
BRANCH  24  25
ATOM     25  C   UNL     1      31.864   1.489  34.573  1.00  0.00    -0.000 C 
BRANCH  25  26
ATOM     26  C   UNL     1      33.167   1.493  35.390  1.00  0.00    -0.000 C 
BRANCH  26  27
ATOM     27  C   UNL     1      34.375   1.957  34.563  1.00  0.00    -0.000 C 
BRANCH  27  28
ATOM     28  C   UNL     1      35.154   0.759  34.004  1.00  0.00    -0.000 C 
BRANCH  28  29
ATOM     29  C   UNL     1      35.824   1.061  32.652  1.00  0.00    -0.000 C 
BRANCH  29  30
ATOM     30  C   UNL     1      35.726  -0.101  31.641  1.00  0.00    -0.000 C 
BRANCH  30  31
ATOM     31  C   UNL     1      34.792   0.228  30.466  1.00  0.00    -0.003 C 
ATOM     32  C   UNL     1      33.911  -0.966  30.111  1.00  0.00     0.004 C 
ENDBRANCH  30  31
ENDBRANCH  29  30
ENDBRANCH  28  29
ENDBRANCH  27  28
ENDBRANCH  26  27
ENDBRANCH  25  26
ENDBRANCH  24  25
ENDBRANCH  23  24
ENDBRANCH  22  23
ENDBRANCH  21  22
ENDBRANCH  20  21
ENDBRANCH  19  20
ENDBRANCH  18  19
ENDBRANCH   1  18
TORSDOF 28
ENDMDL
MODEL 6
REMARK VINA RESULT:    -4.978      5.348      9.582
REMARK INTER + INTRA:         -15.603
REMARK INTER:                 -12.505
REMARK INTRA:                  -3.097
REMARK UNBOUND:                -2.475
REMARK SMILES CCCCCCCCCCCCCCCCCCCCCCCCCCCCCC(=O)[O-]
REMARK SMILES IDX 16 1 17 2 18 3 19 4 20 5 21 6 22 7 23 8 24 9 25 10 26 11
REMARK SMILES IDX 27 12 28 13 29 14 30 15 31 16 32 17 15 18 14 19 13 20 12 21
REMARK SMILES IDX 11 22 10 23 9 24 8 25 7 26 6 27 5 28 4 29 3 30 2 31 1 32
REMARK H PARENT
REMARK Flexibility Score: inf
ROOT
ATOM      1  C   UNL     1      28.991   3.789  32.284  1.00  0.00     0.000 C 
ENDROOT
BRANCH   1   2
ATOM      2  C   UNL     1      28.492   2.540  31.539  1.00  0.00     0.000 C 
BRANCH   2   3
ATOM      3  C   UNL     1      29.463   1.350  31.644  1.00  0.00     0.000 C 
BRANCH   3   4
ATOM      4  C   UNL     1      30.029   0.841  30.302  1.00  0.00     0.000 C 
BRANCH   4   5
ATOM      5  C   UNL     1      29.136   1.108  29.074  1.00  0.00     0.000 C 
BRANCH   5   6
ATOM      6  C   UNL     1      28.286  -0.092  28.612  1.00  0.00     0.000 C 
BRANCH   6   7
ATOM      7  C   UNL     1      26.763   0.113  28.713  1.00  0.00     0.000 C 
BRANCH   7   8
ATOM      8  C   UNL     1      26.246   0.048  30.163  1.00  0.00     0.000 C 
BRANCH   8   9
ATOM      9  C   UNL     1      25.812  -1.373  30.575  1.00  0.00     0.000 C 
BRANCH   9  10
ATOM     10  C   UNL     1      26.970  -2.263  31.059  1.00  0.00     0.000 C 
BRANCH  10  11
ATOM     11  C   UNL     1      26.866  -3.712  30.558  1.00  0.00     0.000 C 
BRANCH  11  12
ATOM     12  C   UNL     1      28.218  -4.452  30.631  1.00  0.00     0.000 C 
BRANCH  12  13
ATOM     13  C   UNL     1      28.171  -5.889  30.077  1.00  0.00     0.006 C 
BRANCH  13  14
ATOM     14  C   UNL     1      28.622  -6.968  31.080  1.00  0.00     0.053 C 
BRANCH  14  15
ATOM     15  C   UNL     1      28.924  -8.287  30.433  1.00  0.00     0.041 C 
ATOM     16  O   UNL     1      29.896  -8.987  30.827  1.00  0.00    -0.550 OA
ATOM     17  O   UNL     1      28.180  -8.706  29.337  1.00  0.00    -0.550 OA
ENDBRANCH  14  15
ENDBRANCH  13  14
ENDBRANCH  12  13
ENDBRANCH  11  12
ENDBRANCH  10  11
ENDBRANCH   9  10
ENDBRANCH   8   9
ENDBRANCH   7   8
ENDBRANCH   6   7
ENDBRANCH   5   6
ENDBRANCH   4   5
ENDBRANCH   3   4
ENDBRANCH   2   3
ENDBRANCH   1   2
BRANCH   1  18
ATOM     18  C   UNL     1      28.782   5.086  31.480  1.00  0.00     0.000 C 
BRANCH  18  19
ATOM     19  C   UNL     1      27.311   5.490  31.263  1.00  0.00     0.000 C 
BRANCH  19  20
ATOM     20  C   UNL     1      27.031   5.972  29.829  1.00  0.00     0.000 C 
BRANCH  20  21
ATOM     21  C   UNL     1      27.652   5.053  28.764  1.00  0.00     0.000 C 
BRANCH  21  22
ATOM     22  C   UNL     1      26.820   3.779  28.529  1.00  0.00     0.000 C 
BRANCH  22  23
ATOM     23  C   UNL     1      25.533   4.042  27.726  1.00  0.00     0.000 C 
BRANCH  23  24
ATOM     24  C   UNL     1      25.418   3.261  26.404  1.00  0.00    -0.000 C 
BRANCH  24  25
ATOM     25  C   UNL     1      24.027   2.638  26.195  1.00  0.00    -0.000 C 
BRANCH  25  26
ATOM     26  C   UNL     1      24.094   1.130  25.902  1.00  0.00    -0.000 C 
BRANCH  26  27
ATOM     27  C   UNL     1      22.867   0.629  25.126  1.00  0.00    -0.000 C 
BRANCH  27  28
ATOM     28  C   UNL     1      21.596   0.731  25.979  1.00  0.00    -0.000 C 
BRANCH  28  29
ATOM     29  C   UNL     1      21.420  -0.464  26.933  1.00  0.00    -0.000 C 
BRANCH  29  30
ATOM     30  C   UNL     1      20.550  -0.145  28.168  1.00  0.00    -0.000 C 
BRANCH  30  31
ATOM     31  C   UNL     1      20.743  -1.171  29.295  1.00  0.00    -0.003 C 
ATOM     32  C   UNL     1      22.023  -0.895  30.078  1.00  0.00     0.004 C 
ENDBRANCH  30  31
ENDBRANCH  29  30
ENDBRANCH  28  29
ENDBRANCH  27  28
ENDBRANCH  26  27
ENDBRANCH  25  26
ENDBRANCH  24  25
ENDBRANCH  23  24
ENDBRANCH  22  23
ENDBRANCH  21  22
ENDBRANCH  20  21
ENDBRANCH  19  20
ENDBRANCH  18  19
ENDBRANCH   1  18
TORSDOF 28
ENDMDL
MODEL 7
REMARK VINA RESULT:    -4.794      2.832      7.211
REMARK INTER + INTRA:         -15.117
REMARK INTER:                 -12.929
REMARK INTRA:                  -2.188
REMARK UNBOUND:                -2.475
REMARK SMILES CCCCCCCCCCCCCCCCCCCCCCCCCCCCCC(=O)[O-]
REMARK SMILES IDX 16 1 17 2 18 3 19 4 20 5 21 6 22 7 23 8 24 9 25 10 26 11
REMARK SMILES IDX 27 12 28 13 29 14 30 15 31 16 32 17 15 18 14 19 13 20 12 21
REMARK SMILES IDX 11 22 10 23 9 24 8 25 7 26 6 27 5 28 4 29 3 30 2 31 1 32
REMARK H PARENT
REMARK Flexibility Score: inf
ROOT
ATOM      1  C   UNL     1      28.081  -4.833  31.242  1.00  0.00     0.000 C 
ENDROOT
BRANCH   1   2
ATOM      2  C   UNL     1      26.860  -4.578  30.343  1.00  0.00     0.000 C 
BRANCH   2   3
ATOM      3  C   UNL     1      26.084  -3.306  30.730  1.00  0.00     0.000 C 
BRANCH   3   4
ATOM      4  C   UNL     1      26.919  -2.010  30.765  1.00  0.00     0.000 C 
BRANCH   4   5
ATOM      5  C   UNL     1      26.190  -0.749  30.259  1.00  0.00     0.000 C 
BRANCH   5   6
ATOM      6  C   UNL     1      26.907   0.009  29.125  1.00  0.00     0.000 C 
BRANCH   6   7
ATOM      7  C   UNL     1      26.363   1.422  28.841  1.00  0.00     0.000 C 
BRANCH   7   8
ATOM      8  C   UNL     1      27.350   2.534  29.242  1.00  0.00     0.000 C 
BRANCH   8   9
ATOM      9  C   UNL     1      27.026   3.884  28.571  1.00  0.00     0.000 C 
BRANCH   9  10
ATOM     10  C   UNL     1      27.939   5.038  29.018  1.00  0.00     0.000 C 
BRANCH  10  11
ATOM     11  C   UNL     1      27.363   5.843  30.193  1.00  0.00     0.000 C 
BRANCH  11  12
ATOM     12  C   UNL     1      28.137   7.155  30.437  1.00  0.00     0.000 C 
BRANCH  12  13
ATOM     13  C   UNL     1      27.325   8.426  30.120  1.00  0.00     0.006 C 
BRANCH  13  14
ATOM     14  C   UNL     1      26.499   8.959  31.306  1.00  0.00     0.053 C 
BRANCH  14  15
ATOM     15  C   UNL     1      26.931  10.323  31.760  1.00  0.00     0.041 C 
ATOM     16  O   UNL     1      26.172  11.030  32.476  1.00  0.00    -0.550 OA
ATOM     17  O   UNL     1      28.141  10.846  31.322  1.00  0.00    -0.550 OA
ENDBRANCH  14  15
ENDBRANCH  13  14
ENDBRANCH  12  13
ENDBRANCH  11  12
ENDBRANCH  10  11
ENDBRANCH   9  10
ENDBRANCH   8   9
ENDBRANCH   7   8
ENDBRANCH   6   7
ENDBRANCH   5   6
ENDBRANCH   4   5
ENDBRANCH   3   4
ENDBRANCH   2   3
ENDBRANCH   1   2
BRANCH   1  18
ATOM     18  C   UNL     1      29.388  -4.989  30.442  1.00  0.00     0.000 C 
BRANCH  18  19
ATOM     19  C   UNL     1      29.664  -3.870  29.419  1.00  0.00     0.000 C 
BRANCH  19  20
ATOM     20  C   UNL     1      30.523  -2.732  29.997  1.00  0.00     0.000 C 
BRANCH  20  21
ATOM     21  C   UNL     1      29.921  -1.343  29.730  1.00  0.00     0.000 C 
BRANCH  21  22
ATOM     22  C   UNL     1      30.740  -0.212  30.379  1.00  0.00     0.000 C 
BRANCH  22  23
ATOM     23  C   UNL     1      29.863   0.942  30.899  1.00  0.00     0.000 C 
BRANCH  23  24
ATOM     24  C   UNL     1      29.825   1.093  32.431  1.00  0.00    -0.000 C 
BRANCH  24  25
ATOM     25  C   UNL     1      31.216   0.971  33.078  1.00  0.00    -0.000 C 
BRANCH  25  26
ATOM     26  C   UNL     1      31.379   1.888  34.301  1.00  0.00    -0.000 C 
BRANCH  26  27
ATOM     27  C   UNL     1      32.485   1.405  35.253  1.00  0.00    -0.000 C 
BRANCH  27  28
ATOM     28  C   UNL     1      33.824   2.078  34.927  1.00  0.00    -0.000 C 
BRANCH  28  29
ATOM     29  C   UNL     1      34.906   1.075  34.488  1.00  0.00    -0.000 C 
BRANCH  29  30
ATOM     30  C   UNL     1      35.420   1.312  33.052  1.00  0.00    -0.000 C 
BRANCH  30  31
ATOM     31  C   UNL     1      35.481   0.012  32.235  1.00  0.00    -0.003 C 
ATOM     32  C   UNL     1      34.946   0.225  30.822  1.00  0.00     0.004 C 
ENDBRANCH  30  31
ENDBRANCH  29  30
ENDBRANCH  28  29
ENDBRANCH  27  28
ENDBRANCH  26  27
ENDBRANCH  25  26
ENDBRANCH  24  25
ENDBRANCH  23  24
ENDBRANCH  22  23
ENDBRANCH  21  22
ENDBRANCH  20  21
ENDBRANCH  19  20
ENDBRANCH  18  19
ENDBRANCH   1  18
TORSDOF 28
ENDMDL
MODEL 8
REMARK VINA RESULT:    -4.761      4.183      9.778
REMARK INTER + INTRA:         -15.029
REMARK INTER:                 -12.737
REMARK INTRA:                  -2.292
REMARK UNBOUND:                -2.475
REMARK SMILES CCCCCCCCCCCCCCCCCCCCCCCCCCCCCC(=O)[O-]
REMARK SMILES IDX 16 1 17 2 18 3 19 4 20 5 21 6 22 7 23 8 24 9 25 10 26 11
REMARK SMILES IDX 27 12 28 13 29 14 30 15 31 16 32 17 15 18 14 19 13 20 12 21
REMARK SMILES IDX 11 22 10 23 9 24 8 25 7 26 6 27 5 28 4 29 3 30 2 31 1 32
REMARK H PARENT
REMARK Flexibility Score: inf
ROOT
ATOM      1  C   UNL     1      26.523  -1.039  30.365  1.00  0.00     0.000 C 
ENDROOT
BRANCH   1   2
ATOM      2  C   UNL     1      27.261  -2.126  31.164  1.00  0.00     0.000 C 
BRANCH   2   3
ATOM      3  C   UNL     1      27.166  -3.519  30.515  1.00  0.00     0.000 C 
BRANCH   3   4
ATOM      4  C   UNL     1      28.147  -4.572  31.069  1.00  0.00     0.000 C 
BRANCH   4   5
ATOM      5  C   UNL     1      29.527  -4.604  30.382  1.00  0.00     0.000 C 
BRANCH   5   6
ATOM      6  C   UNL     1      29.843  -3.386  29.492  1.00  0.00     0.000 C 
BRANCH   6   7
ATOM      7  C   UNL     1      30.989  -2.490  29.998  1.00  0.00     0.000 C 
BRANCH   7   8
ATOM      8  C   UNL     1      30.542  -1.041  30.264  1.00  0.00     0.000 C 
BRANCH   8   9
ATOM      9  C   UNL     1      31.732  -0.069  30.404  1.00  0.00     0.000 C 
BRANCH   9  10
ATOM     10  C   UNL     1      33.089  -0.686  30.026  1.00  0.00     0.000 C 
BRANCH  10  11
ATOM     11  C   UNL     1      34.277   0.244  30.319  1.00  0.00     0.000 C 
BRANCH  11  12
ATOM     12  C   UNL     1      35.094  -0.221  31.542  1.00  0.00     0.000 C 
BRANCH  12  13
ATOM     13  C   UNL     1      35.383   0.899  32.561  1.00  0.00     0.006 C 
BRANCH  13  14
ATOM     14  C   UNL     1      35.063   0.523  34.020  1.00  0.00     0.053 C 
BRANCH  14  15
ATOM     15  C   UNL     1      34.007   1.394  34.635  1.00  0.00     0.041 C 
ATOM     16  O   UNL     1      34.324   2.330  35.419  1.00  0.00    -0.550 OA
ATOM     17  O   UNL     1      32.665   1.120  34.406  1.00  0.00    -0.550 OA
ENDBRANCH  14  15
ENDBRANCH  13  14
ENDBRANCH  12  13
ENDBRANCH  11  12
ENDBRANCH  10  11
ENDBRANCH   9  10
ENDBRANCH   8   9
ENDBRANCH   7   8
ENDBRANCH   6   7
ENDBRANCH   5   6
ENDBRANCH   4   5
ENDBRANCH   3   4
ENDBRANCH   2   3
ENDBRANCH   1   2
BRANCH   1  18
ATOM     18  C   UNL     1      26.980   0.385  30.734  1.00  0.00     0.000 C 
BRANCH  18  19
ATOM     19  C   UNL     1      27.326   1.290  29.536  1.00  0.00     0.000 C 
BRANCH  19  20
ATOM     20  C   UNL     1      28.117   2.544  29.946  1.00  0.00     0.000 C 
BRANCH  20  21
ATOM     21  C   UNL     1      28.019   2.839  31.451  1.00  0.00     0.000 C 
BRANCH  21  22
ATOM     22  C   UNL     1      27.886   4.344  31.749  1.00  0.00     0.000 C 
BRANCH  22  23
ATOM     23  C   UNL     1      28.333   5.230  30.572  1.00  0.00     0.000 C 
BRANCH  23  24
ATOM     24  C   UNL     1      27.259   6.200  30.042  1.00  0.00    -0.000 C 
BRANCH  24  25
ATOM     25  C   UNL     1      27.241   7.541  30.794  1.00  0.00    -0.000 C 
BRANCH  25  26
ATOM     26  C   UNL     1      28.203   8.573  30.184  1.00  0.00    -0.000 C 
BRANCH  26  27
ATOM     27  C   UNL     1      27.485   9.860  29.750  1.00  0.00    -0.000 C 
BRANCH  27  28
ATOM     28  C   UNL     1      26.093   9.956  30.388  1.00  0.00    -0.000 C 
BRANCH  28  29
ATOM     29  C   UNL     1      25.971  11.124  31.382  1.00  0.00    -0.000 C 
BRANCH  29  30
ATOM     30  C   UNL     1      26.896  10.989  32.610  1.00  0.00    -0.000 C 
BRANCH  30  31
ATOM     31  C   UNL     1      26.257  10.153  33.729  1.00  0.00    -0.003 C 
ATOM     32  C   UNL     1      26.577  10.736  35.103  1.00  0.00     0.004 C 
ENDBRANCH  30  31
ENDBRANCH  29  30
ENDBRANCH  28  29
ENDBRANCH  27  28
ENDBRANCH  26  27
ENDBRANCH  25  26
ENDBRANCH  24  25
ENDBRANCH  23  24
ENDBRANCH  22  23
ENDBRANCH  21  22
ENDBRANCH  20  21
ENDBRANCH  19  20
ENDBRANCH  18  19
ENDBRANCH   1  18
TORSDOF 28
ENDMDL
MODEL 9
REMARK VINA RESULT:    -4.749      3.232      9.970
REMARK INTER + INTRA:         -14.998
REMARK INTER:                 -12.646
REMARK INTRA:                  -2.352
REMARK UNBOUND:                -2.475
REMARK SMILES CCCCCCCCCCCCCCCCCCCCCCCCCCCCCC(=O)[O-]
REMARK SMILES IDX 16 1 17 2 18 3 19 4 20 5 21 6 22 7 23 8 24 9 25 10 26 11
REMARK SMILES IDX 27 12 28 13 29 14 30 15 31 16 32 17 15 18 14 19 13 20 12 21
REMARK SMILES IDX 11 22 10 23 9 24 8 25 7 26 6 27 5 28 4 29 3 30 2 31 1 32
REMARK H PARENT
REMARK Flexibility Score: inf
ROOT
ATOM      1  C   UNL     1      27.482  -0.590  29.644  1.00  0.00     0.000 C 
ENDROOT
BRANCH   1   2
ATOM      2  C   UNL     1      28.932  -0.883  29.225  1.00  0.00     0.000 C 
BRANCH   2   3
ATOM      3  C   UNL     1      29.579  -2.012  30.049  1.00  0.00     0.000 C 
BRANCH   3   4
ATOM      4  C   UNL     1      29.423  -3.429  29.462  1.00  0.00     0.000 C 
BRANCH   4   5
ATOM      5  C   UNL     1      28.709  -4.442  30.378  1.00  0.00     0.000 C 
BRANCH   5   6
ATOM      6  C   UNL     1      27.205  -4.631  30.097  1.00  0.00     0.000 C 
BRANCH   6   7
ATOM      7  C   UNL     1      26.276  -3.656  30.843  1.00  0.00     0.000 C 
BRANCH   7   8
ATOM      8  C   UNL     1      24.807  -3.770  30.396  1.00  0.00     0.000 C 
BRANCH   8   9
ATOM      9  C   UNL     1      23.943  -2.591  30.888  1.00  0.00     0.000 C 
BRANCH   9  10
ATOM     10  C   UNL     1      22.457  -2.705  30.508  1.00  0.00     0.000 C 
BRANCH  10  11
ATOM     11  C   UNL     1      21.795  -1.342  30.249  1.00  0.00     0.000 C 
BRANCH  11  12
ATOM     12  C   UNL     1      20.857  -1.373  29.025  1.00  0.00     0.000 C 
BRANCH  12  13
ATOM     13  C   UNL     1      21.040  -0.178  28.070  1.00  0.00     0.006 C 
BRANCH  13  14
ATOM     14  C   UNL     1      21.442  -0.571  26.635  1.00  0.00     0.053 C 
BRANCH  14  15
ATOM     15  C   UNL     1      22.168   0.521  25.906  1.00  0.00     0.041 C 
ATOM     16  O   UNL     1      21.529   1.421  25.299  1.00  0.00    -0.550 OA
ATOM     17  O   UNL     1      23.555   0.496  25.829  1.00  0.00    -0.550 OA
ENDBRANCH  14  15
ENDBRANCH  13  14
ENDBRANCH  12  13
ENDBRANCH  11  12
ENDBRANCH  10  11
ENDBRANCH   9  10
ENDBRANCH   8   9
ENDBRANCH   7   8
ENDBRANCH   6   7
ENDBRANCH   5   6
ENDBRANCH   4   5
ENDBRANCH   3   4
ENDBRANCH   2   3
ENDBRANCH   1   2
BRANCH   1  18
ATOM     18  C   UNL     1      27.356  -0.222  31.135  1.00  0.00     0.000 C 
BRANCH  18  19
ATOM     19  C   UNL     1      26.885   1.218  31.414  1.00  0.00     0.000 C 
BRANCH  19  20
ATOM     20  C   UNL     1      27.934   2.274  31.022  1.00  0.00     0.000 C 
BRANCH  20  21
ATOM     21  C   UNL     1      27.739   2.798  29.590  1.00  0.00     0.000 C 
BRANCH  21  22
ATOM     22  C   UNL     1      27.332   4.282  29.557  1.00  0.00     0.000 C 
BRANCH  22  23
ATOM     23  C   UNL     1      27.636   5.018  30.876  1.00  0.00     0.000 C 
BRANCH  23  24
ATOM     24  C   UNL     1      28.803   6.021  30.808  1.00  0.00    -0.000 C 
BRANCH  24  25
ATOM     25  C   UNL     1      28.341   7.455  30.498  1.00  0.00    -0.000 C 
BRANCH  25  26
ATOM     26  C   UNL     1      26.904   7.727  30.970  1.00  0.00    -0.000 C 
BRANCH  26  27
ATOM     27  C   UNL     1      26.522   9.212  30.863  1.00  0.00    -0.000 C 
BRANCH  27  28
ATOM     28  C   UNL     1      27.773  10.098  30.798  1.00  0.00    -0.000 C 
BRANCH  28  29
ATOM     29  C   UNL     1      27.840  11.122  31.945  1.00  0.00    -0.000 C 
BRANCH  29  30
ATOM     30  C   UNL     1      26.595  11.109  32.858  1.00  0.00    -0.000 C 
BRANCH  30  31
ATOM     31  C   UNL     1      26.936  10.708  34.301  1.00  0.00    -0.003 C 
ATOM     32  C   UNL     1      25.878   9.771  34.878  1.00  0.00     0.004 C 
ENDBRANCH  30  31
ENDBRANCH  29  30
ENDBRANCH  28  29
ENDBRANCH  27  28
ENDBRANCH  26  27
ENDBRANCH  25  26
ENDBRANCH  24  25
ENDBRANCH  23  24
ENDBRANCH  22  23
ENDBRANCH  21  22
ENDBRANCH  20  21
ENDBRANCH  19  20
ENDBRANCH  18  19
ENDBRANCH   1  18
TORSDOF 28
ENDMDL
