MODEL 1
REMARK VINA RESULT:    -3.587      0.000      0.000
REMARK INTER + INTRA:          -5.836
REMARK INTER:                  -5.474
REMARK INTRA:                  -0.363
REMARK UNBOUND:                -0.363
REMARK SMILES CC1=CCC[C@H](C)C(=O)C[C@H](C(C)C)C(=O)C1
REMARK SMILES IDX 8 1 9 2 6 3 7 4 5 5 4 6 3 7 2 8 1 9 10 11 11 12 15 13 16 14
REMARK SMILES IDX 17 15 12 17 13 18 14 19
REMARK H PARENT
REMARK Flexibility Score: 70.00
ROOT
ATOM      1  C   UNL     1      -8.840   5.756  53.966  1.00  0.00     0.136 C 
ATOM      2  O   UNL     1      -9.602   6.438  54.635  1.00  0.00    -0.299 OA
ENDROOT
BRANCH   1   3
ATOM      3  C   UNL     1      -9.262   5.345  52.566  1.00  0.00     0.053 C 
ATOM      4  C   UNL     1     -10.525   6.122  52.172  1.00  0.00     0.016 C 
BRANCH   3   5
ATOM      5  C   UNL     1      -8.148   5.543  51.504  1.00  0.00     0.015 C 
BRANCH   5   6
ATOM      6  C   UNL     1      -7.547   4.253  50.902  1.00  0.00     0.028 C 
BRANCH   6   7
ATOM      7  C   UNL     1      -7.938   2.951  51.560  1.00  0.00    -0.028 C 
ATOM      8  C   UNL     1      -7.250   2.315  52.536  1.00  0.00    -0.070 CG0
ATOM      9  C   UNL     1      -7.677   0.906  52.875  1.00  0.00     0.039 C 
ATOM     10  G   UNL     1      -6.053   2.924  53.251  1.00  0.00     0.000 G0
ENDBRANCH   6   7
ENDBRANCH   5   6
ENDBRANCH   3   5
ENDBRANCH   1   3
BRANCH   1  11
ATOM     11  C   UNL     1      -7.449   5.469  54.495  1.00  0.00     0.087 C 
BRANCH  11  12
ATOM     12  C   UNL     1      -7.321   4.135  55.277  1.00  0.00     0.066 C 
BRANCH  12  13
ATOM     13  C   UNL     1      -6.295   3.142  54.732  1.00  0.00     0.140 C 
ATOM     14  O   UNL     1      -5.641   2.499  55.541  1.00  0.00    -0.299 OA
BRANCH  13  15
ATOM     15  C   UNL     1      -6.028   2.910  53.259  1.00  0.00     0.106 CG0
ATOM     16  G   UNL     1      -7.248   2.324  52.564  1.00  0.00     0.000 G0
ENDBRANCH  13  15
ENDBRANCH  12  13
BRANCH  12  17
ATOM     17  C   UNL     1      -7.115   4.411  56.801  1.00  0.00    -0.006 C 
ATOM     18  C   UNL     1      -8.430   4.410  57.601  1.00  0.00     0.008 C 
ATOM     19  C   UNL     1      -6.351   5.721  57.053  1.00  0.00     0.008 C 
ENDBRANCH  12  17
ENDBRANCH  11  12
ENDBRANCH   1  11
TORSDOF 1
ENDMDL
MODEL 2
REMARK VINA RESULT:    -3.418      2.165      3.607
REMARK INTER + INTRA:          -5.578
REMARK INTER:                  -5.126
REMARK INTRA:                  -0.453
REMARK UNBOUND:                -0.363
REMARK SMILES CC1=CCC[C@H](C)C(=O)C[C@H](C(C)C)C(=O)C1
REMARK SMILES IDX 8 1 9 2 6 3 7 4 5 5 4 6 3 7 2 8 1 9 10 11 11 12 15 13 16 14
REMARK SMILES IDX 17 15 12 17 13 18 14 19
REMARK H PARENT
REMARK Flexibility Score: 70.00
ROOT
ATOM      1  C   UNL     1     -10.001   5.473  51.633  1.00  0.00     0.136 C 
ATOM      2  O   UNL     1     -10.148   6.085  50.585  1.00  0.00    -0.299 OA
ENDROOT
BRANCH   1   3
ATOM      3  C   UNL     1      -9.635   3.999  51.574  1.00  0.00     0.053 C 
ATOM      4  C   UNL     1     -10.640   3.266  50.676  1.00  0.00     0.016 C 
BRANCH   3   5
ATOM      5  C   UNL     1      -8.184   3.744  51.089  1.00  0.00     0.015 C 
BRANCH   5   6
ATOM      6  C   UNL     1      -7.060   4.358  51.954  1.00  0.00     0.028 C 
BRANCH   6   7
ATOM      7  C   UNL     1      -6.755   3.665  53.261  1.00  0.00    -0.028 C 
ATOM      8  C   UNL     1      -6.906   4.196  54.497  1.00  0.00    -0.070 CG0
ATOM      9  C   UNL     1      -6.306   3.431  55.653  1.00  0.00     0.039 C 
ATOM     10  G   UNL     1      -7.588   5.531  54.758  1.00  0.00     0.000 G0
ENDBRANCH   6   7
ENDBRANCH   5   6
ENDBRANCH   3   5
ENDBRANCH   1   3
BRANCH   1  11
ATOM     11  C   UNL     1     -10.042   6.231  52.944  1.00  0.00     0.087 C 
BRANCH  11  12
ATOM     12  C   UNL     1     -10.213   5.336  54.200  1.00  0.00     0.066 C 
BRANCH  12  13
ATOM     13  C   UNL     1      -9.038   5.330  55.177  1.00  0.00     0.140 C 
ATOM     14  O   UNL     1      -9.285   5.168  56.363  1.00  0.00    -0.299 OA
BRANCH  13  15
ATOM     15  C   UNL     1      -7.590   5.523  54.774  1.00  0.00     0.106 CG0
ATOM     16  G   UNL     1      -6.918   4.190  54.481  1.00  0.00     0.000 G0
ENDBRANCH  13  15
ENDBRANCH  12  13
BRANCH  12  17
ATOM     17  C   UNL     1     -11.566   5.649  54.915  1.00  0.00    -0.006 C 
ATOM     18  C   UNL     1     -12.622   4.544  54.728  1.00  0.00     0.008 C 
ATOM     19  C   UNL     1     -12.147   7.006  54.485  1.00  0.00     0.008 C 
ENDBRANCH  12  17
ENDBRANCH  11  12
ENDBRANCH   1  11
TORSDOF 1
ENDMDL
MODEL 3
REMARK VINA RESULT:    -3.279      2.357      4.046
REMARK INTER + INTRA:          -5.367
REMARK INTER:                  -5.094
REMARK INTRA:                  -0.272
REMARK UNBOUND:                -0.363
REMARK SMILES CC1=CCC[C@H](C)C(=O)C[C@H](C(C)C)C(=O)C1
REMARK SMILES IDX 8 1 9 2 6 3 7 4 5 5 4 6 3 7 2 8 1 9 10 11 11 12 15 13 16 14
REMARK SMILES IDX 17 15 12 17 13 18 14 19
REMARK H PARENT
REMARK Flexibility Score: 70.00
ROOT
ATOM      1  C   UNL     1      -9.241   6.023  55.452  1.00  0.00     0.136 C 
ATOM      2  O   UNL     1      -9.606   7.182  55.583  1.00  0.00    -0.299 OA
ENDROOT
BRANCH   1   3
ATOM      3  C   UNL     1     -10.223   4.907  55.766  1.00  0.00     0.053 C 
ATOM      4  C   UNL     1     -10.074   4.505  57.239  1.00  0.00     0.016 C 
BRANCH   3   5
ATOM      5  C   UNL     1     -11.696   5.277  55.450  1.00  0.00     0.015 C 
BRANCH   5   6
ATOM      6  C   UNL     1     -12.072   5.349  53.953  1.00  0.00     0.028 C 
BRANCH   6   7
ATOM      7  C   UNL     1     -11.565   4.232  53.072  1.00  0.00    -0.028 C 
ATOM      8  C   UNL     1     -10.626   4.346  52.105  1.00  0.00    -0.070 CG0
ATOM      9  C   UNL     1     -10.448   3.169  51.174  1.00  0.00     0.039 C 
ATOM     10  G   UNL     1      -9.800   5.604  51.882  1.00  0.00     0.000 G0
ENDBRANCH   6   7
ENDBRANCH   5   6
ENDBRANCH   3   5
ENDBRANCH   1   3
BRANCH   1  11
ATOM     11  C   UNL     1      -7.881   5.740  54.845  1.00  0.00     0.087 C 
BRANCH  11  12
ATOM     12  C   UNL     1      -7.908   4.775  53.630  1.00  0.00     0.066 C 
BRANCH  12  13
ATOM     13  C   UNL     1      -8.331   5.395  52.299  1.00  0.00     0.140 C 
ATOM     14  O   UNL     1      -7.448   5.749  51.531  1.00  0.00    -0.299 OA
BRANCH  13  15
ATOM     15  C   UNL     1      -9.769   5.610  51.874  1.00  0.00     0.106 CG0
ATOM     16  G   UNL     1     -10.604   4.358  52.104  1.00  0.00     0.000 G0
ENDBRANCH  13  15
ENDBRANCH  12  13
BRANCH  12  17
ATOM     17  C   UNL     1      -6.554   4.005  53.513  1.00  0.00    -0.006 C 
ATOM     18  C   UNL     1      -6.692   2.635  52.825  1.00  0.00     0.008 C 
ATOM     19  C   UNL     1      -5.863   3.839  54.876  1.00  0.00     0.008 C 
ENDBRANCH  12  17
ENDBRANCH  11  12
ENDBRANCH   1  11
TORSDOF 1
ENDMDL
MODEL 4
REMARK VINA RESULT:    -3.262      2.870      6.390
REMARK INTER + INTRA:          -5.341
REMARK INTER:                  -5.268
REMARK INTRA:                  -0.072
REMARK UNBOUND:                -0.363
REMARK SMILES CC1=CCC[C@H](C)C(=O)C[C@H](C(C)C)C(=O)C1
REMARK SMILES IDX 8 1 9 2 6 3 7 4 5 5 4 6 3 7 2 8 1 9 10 11 11 12 15 13 16 14
REMARK SMILES IDX 17 15 12 17 13 18 14 19
REMARK H PARENT
REMARK Flexibility Score: 70.00
ROOT
ATOM      1  C   UNL     1      -5.178   3.699  57.429  1.00  0.00     0.136 C 
ATOM      2  O   UNL     1      -4.460   2.805  57.008  1.00  0.00    -0.299 OA
ENDROOT
BRANCH   1   3
ATOM      3  C   UNL     1      -5.209   3.970  58.924  1.00  0.00     0.053 C 
ATOM      4  C   UNL     1      -4.069   3.198  59.600  1.00  0.00     0.016 C 
BRANCH   3   5
ATOM      5  C   UNL     1      -5.128   5.479  59.277  1.00  0.00     0.015 C 
BRANCH   5   6
ATOM      6  C   UNL     1      -6.400   6.101  59.898  1.00  0.00     0.028 C 
BRANCH   6   7
ATOM      7  C   UNL     1      -7.611   5.204  60.003  1.00  0.00    -0.028 C 
ATOM      8  C   UNL     1      -8.578   5.063  59.068  1.00  0.00    -0.070 CG0
ATOM      9  C   UNL     1      -9.826   4.315  59.474  1.00  0.00     0.039 C 
ATOM     10  G   UNL     1      -8.491   5.664  57.673  1.00  0.00     0.000 G0
ENDBRANCH   6   7
ENDBRANCH   5   6
ENDBRANCH   3   5
ENDBRANCH   1   3
BRANCH   1  11
ATOM     11  C   UNL     1      -5.896   4.597  56.442  1.00  0.00     0.087 C 
BRANCH  11  12
ATOM     12  C   UNL     1      -7.241   4.028  55.916  1.00  0.00     0.066 C 
BRANCH  12  13
ATOM     13  C   UNL     1      -8.500   4.570  56.590  1.00  0.00     0.140 C 
ATOM     14  O   UNL     1      -9.576   4.110  56.239  1.00  0.00    -0.299 OA
BRANCH  13  15
ATOM     15  C   UNL     1      -8.503   5.647  57.657  1.00  0.00     0.106 CG0
ATOM     16  G   UNL     1      -8.577   5.041  59.050  1.00  0.00     0.000 G0
ENDBRANCH  13  15
ENDBRANCH  12  13
BRANCH  12  17
ATOM     17  C   UNL     1      -7.314   4.147  54.359  1.00  0.00    -0.006 C 
ATOM     18  C   UNL     1      -5.989   3.791  53.661  1.00  0.00     0.008 C 
ATOM     19  C   UNL     1      -7.787   5.538  53.907  1.00  0.00     0.008 C 
ENDBRANCH  12  17
ENDBRANCH  11  12
ENDBRANCH   1  11
TORSDOF 1
ENDMDL
MODEL 5
REMARK VINA RESULT:    -3.256      2.539      3.433
REMARK INTER + INTRA:          -5.332
REMARK INTER:                  -4.927
REMARK INTRA:                  -0.404
REMARK UNBOUND:                -0.363
REMARK SMILES CC1=CCC[C@H](C)C(=O)C[C@H](C(C)C)C(=O)C1
REMARK SMILES IDX 8 1 9 2 6 3 7 4 5 5 4 6 3 7 2 8 1 9 10 11 11 12 15 13 16 14
REMARK SMILES IDX 17 15 12 17 13 18 14 19
REMARK H PARENT
REMARK Flexibility Score: 70.00
ROOT
ATOM      1  C   UNL     1      -7.589   5.751  56.497  1.00  0.00     0.136 C 
ATOM      2  O   UNL     1      -8.085   6.864  56.408  1.00  0.00    -0.299 OA
ENDROOT
BRANCH   1   3
ATOM      3  C   UNL     1      -8.036   4.672  55.524  1.00  0.00     0.053 C 
ATOM      4  C   UNL     1      -9.530   4.849  55.226  1.00  0.00     0.016 C 
BRANCH   3   5
ATOM      5  C   UNL     1      -7.217   4.654  54.207  1.00  0.00     0.015 C 
BRANCH   5   6
ATOM      6  C   UNL     1      -5.912   3.827  54.230  1.00  0.00     0.028 C 
BRANCH   6   7
ATOM      7  C   UNL     1      -5.990   2.451  54.849  1.00  0.00    -0.028 C 
ATOM      8  C   UNL     1      -5.354   2.048  55.973  1.00  0.00    -0.070 CG0
ATOM      9  C   UNL     1      -5.365   0.568  56.278  1.00  0.00     0.039 C 
ATOM     10  G   UNL     1      -4.594   2.992  56.892  1.00  0.00     0.000 G0
ENDBRANCH   6   7
ENDBRANCH   5   6
ENDBRANCH   3   5
ENDBRANCH   1   3
BRANCH   1  11
ATOM     11  C   UNL     1      -6.449   5.524  57.469  1.00  0.00     0.087 C 
BRANCH  11  12
ATOM     12  C   UNL     1      -6.549   4.205  58.280  1.00  0.00     0.066 C 
BRANCH  12  13
ATOM     13  C   UNL     1      -5.342   3.273  58.182  1.00  0.00     0.140 C 
ATOM     14  O   UNL     1      -4.965   2.721  59.206  1.00  0.00    -0.299 OA
BRANCH  13  15
ATOM     15  C   UNL     1      -4.577   2.996  56.904  1.00  0.00     0.106 CG0
ATOM     16  G   UNL     1      -5.360   2.073  55.982  1.00  0.00     0.000 G0
ENDBRANCH  13  15
ENDBRANCH  12  13
BRANCH  12  17
ATOM     17  C   UNL     1      -6.938   4.503  59.764  1.00  0.00    -0.006 C 
ATOM     18  C   UNL     1      -8.329   3.966  60.145  1.00  0.00     0.008 C 
ATOM     19  C   UNL     1      -6.846   6.001  60.096  1.00  0.00     0.008 C 
ENDBRANCH  12  17
ENDBRANCH  11  12
ENDBRANCH   1  11
TORSDOF 1
ENDMDL
MODEL 6
REMARK VINA RESULT:    -3.217      1.652      3.830
REMARK INTER + INTRA:          -5.272
REMARK INTER:                  -4.839
REMARK INTRA:                  -0.433
REMARK UNBOUND:                -0.363
REMARK SMILES CC1=CCC[C@H](C)C(=O)C[C@H](C(C)C)C(=O)C1
REMARK SMILES IDX 8 1 9 2 6 3 7 4 5 5 4 6 3 7 2 8 1 9 10 11 11 12 15 13 16 14
REMARK SMILES IDX 17 15 12 17 13 18 14 19
REMARK H PARENT
REMARK Flexibility Score: 70.00
ROOT
ATOM      1  C   UNL     1      -8.870   4.690  55.639  1.00  0.00     0.136 C 
ATOM      2  O   UNL     1      -9.056   4.245  56.762  1.00  0.00    -0.299 OA
ENDROOT
BRANCH   1   3
ATOM      3  C   UNL     1      -7.572   5.423  55.349  1.00  0.00     0.053 C 
ATOM      4  C   UNL     1      -7.418   6.586  56.337  1.00  0.00     0.016 C 
BRANCH   3   5
ATOM      5  C   UNL     1      -6.322   4.503  55.393  1.00  0.00     0.015 C 
BRANCH   5   6
ATOM      6  C   UNL     1      -5.888   3.884  54.045  1.00  0.00     0.028 C 
BRANCH   6   7
ATOM      7  C   UNL     1      -6.284   2.448  53.799  1.00  0.00    -0.028 C 
ATOM      8  C   UNL     1      -7.167   2.015  52.870  1.00  0.00    -0.070 CG0
ATOM      9  C   UNL     1      -7.610   0.573  52.958  1.00  0.00     0.039 C 
ATOM     10  G   UNL     1      -7.766   2.915  51.798  1.00  0.00     0.000 G0
ENDBRANCH   6   7
ENDBRANCH   5   6
ENDBRANCH   3   5
ENDBRANCH   1   3
BRANCH   1  11
ATOM     11  C   UNL     1      -9.867   4.372  54.543  1.00  0.00     0.087 C 
BRANCH  11  12
ATOM     12  C   UNL     1      -9.357   4.662  53.106  1.00  0.00     0.066 C 
BRANCH  12  13
ATOM     13  C   UNL     1      -9.141   3.436  52.219  1.00  0.00     0.140 C 
ATOM     14  O   UNL     1     -10.130   2.829  51.838  1.00  0.00    -0.299 OA
BRANCH  13  15
ATOM     15  C   UNL     1      -7.782   2.920  51.791  1.00  0.00     0.106 CG0
ATOM     16  G   UNL     1      -7.165   2.038  52.866  1.00  0.00     0.000 G0
ENDBRANCH  13  15
ENDBRANCH  12  13
BRANCH  12  17
ATOM     17  C   UNL     1     -10.256   5.734  52.412  1.00  0.00    -0.006 C 
ATOM     18  C   UNL     1      -9.789   6.090  50.990  1.00  0.00     0.008 C 
ATOM     19  C   UNL     1     -10.386   7.013  53.256  1.00  0.00     0.008 C 
ENDBRANCH  12  17
ENDBRANCH  11  12
ENDBRANCH   1  11
TORSDOF 1
ENDMDL
MODEL 7
REMARK VINA RESULT:    -3.137      2.785      5.510
REMARK INTER + INTRA:          -5.150
REMARK INTER:                  -4.805
REMARK INTRA:                  -0.345
REMARK UNBOUND:                -0.363
REMARK SMILES CC1=CCC[C@H](C)C(=O)C[C@H](C(C)C)C(=O)C1
REMARK SMILES IDX 8 1 9 2 6 3 7 4 5 5 4 6 3 7 2 8 1 9 10 11 11 12 15 13 16 14
REMARK SMILES IDX 17 15 12 17 13 18 14 19
REMARK H PARENT
REMARK Flexibility Score: 70.00
ROOT
ATOM      1  C   UNL     1      -5.101   3.494  59.055  1.00  0.00     0.136 C 
ATOM      2  O   UNL     1      -4.779   2.622  59.848  1.00  0.00    -0.299 OA
ENDROOT
BRANCH   1   3
ATOM      3  C   UNL     1      -5.760   4.757  59.585  1.00  0.00     0.053 C 
ATOM      4  C   UNL     1      -4.899   5.969  59.210  1.00  0.00     0.016 C 
BRANCH   3   5
ATOM      5  C   UNL     1      -7.216   4.948  59.084  1.00  0.00     0.015 C 
BRANCH   5   6
ATOM      6  C   UNL     1      -7.440   6.087  58.064  1.00  0.00     0.028 C 
BRANCH   6   7
ATOM      7  C   UNL     1      -8.278   5.757  56.852  1.00  0.00    -0.028 C 
ATOM      8  C   UNL     1      -7.811   5.360  55.646  1.00  0.00    -0.070 CG0
ATOM      9  C   UNL     1      -8.796   5.327  54.501  1.00  0.00     0.039 C 
ATOM     10  G   UNL     1      -6.353   5.010  55.386  1.00  0.00     0.000 G0
ENDBRANCH   6   7
ENDBRANCH   5   6
ENDBRANCH   3   5
ENDBRANCH   1   3
BRANCH   1  11
ATOM     11  C   UNL     1      -4.704   3.354  57.600  1.00  0.00     0.087 C 
BRANCH  11  12
ATOM     12  C   UNL     1      -5.792   2.717  56.695  1.00  0.00     0.066 C 
BRANCH  12  13
ATOM     13  C   UNL     1      -6.140   3.497  55.428  1.00  0.00     0.140 C 
ATOM     14  O   UNL     1      -6.252   2.867  54.386  1.00  0.00    -0.299 OA
BRANCH  13  15
ATOM     15  C   UNL     1      -6.346   4.997  55.376  1.00  0.00     0.106 CG0
ATOM     16  G   UNL     1      -7.798   5.363  55.646  1.00  0.00     0.000 G0
ENDBRANCH  13  15
ENDBRANCH  12  13
BRANCH  12  17
ATOM     17  C   UNL     1      -5.443   1.225  56.386  1.00  0.00    -0.006 C 
ATOM     18  C   UNL     1      -6.366   0.225  57.106  1.00  0.00     0.008 C 
ATOM     19  C   UNL     1      -3.974   0.899  56.698  1.00  0.00     0.008 C 
ENDBRANCH  12  17
ENDBRANCH  11  12
ENDBRANCH   1  11
TORSDOF 1
ENDMDL
MODEL 8
REMARK VINA RESULT:    -3.116     10.111     12.312
REMARK INTER + INTRA:          -5.119
REMARK INTER:                  -4.834
REMARK INTRA:                  -0.285
REMARK UNBOUND:                -0.363
REMARK SMILES CC1=CCC[C@H](C)C(=O)C[C@H](C(C)C)C(=O)C1
REMARK SMILES IDX 8 1 9 2 6 3 7 4 5 5 4 6 3 7 2 8 1 9 10 11 11 12 15 13 16 14
REMARK SMILES IDX 17 15 12 17 13 18 14 19
REMARK H PARENT
REMARK Flexibility Score: 70.00
ROOT
ATOM      1  C   UNL     1       0.770  -1.331  54.959  1.00  0.00     0.136 C 
ATOM      2  O   UNL     1       0.687  -0.582  55.922  1.00  0.00    -0.299 OA
ENDROOT
BRANCH   1   3
ATOM      3  C   UNL     1       2.051  -1.334  54.143  1.00  0.00     0.053 C 
ATOM      4  C   UNL     1       2.290   0.070  53.574  1.00  0.00     0.016 C 
BRANCH   3   5
ATOM      5  C   UNL     1       3.290  -1.814  54.944  1.00  0.00     0.015 C 
BRANCH   5   6
ATOM      6  C   UNL     1       3.780  -3.249  54.643  1.00  0.00     0.028 C 
BRANCH   6   7
ATOM      7  C   UNL     1       3.530  -4.289  55.710  1.00  0.00    -0.028 C 
ATOM      8  C   UNL     1       2.576  -5.248  55.677  1.00  0.00    -0.070 CG0
ATOM      9  C   UNL     1       2.332  -6.022  56.951  1.00  0.00     0.039 C 
ATOM     10  G   UNL     1       1.717  -5.535  54.454  1.00  0.00     0.000 G0
ENDBRANCH   6   7
ENDBRANCH   5   6
ENDBRANCH   3   5
ENDBRANCH   1   3
BRANCH   1  11
ATOM     11  C   UNL     1      -0.341  -2.328  54.701  1.00  0.00     0.087 C 
BRANCH  11  12
ATOM     12  C   UNL     1       0.063  -3.520  53.793  1.00  0.00     0.066 C 
BRANCH  12  13
ATOM     13  C   UNL     1       0.383  -4.827  54.518  1.00  0.00     0.140 C 
ATOM     14  O   UNL     1      -0.492  -5.319  55.216  1.00  0.00    -0.299 OA
BRANCH  13  15
ATOM     15  C   UNL     1       1.714  -5.547  54.437  1.00  0.00     0.106 CG0
ATOM     16  G   UNL     1       2.570  -5.259  55.662  1.00  0.00     0.000 G0
ENDBRANCH  13  15
ENDBRANCH  12  13
BRANCH  12  17
ATOM     17  C   UNL     1      -0.989  -3.724  52.656  1.00  0.00    -0.006 C 
ATOM     18  C   UNL     1      -0.704  -4.957  51.780  1.00  0.00     0.008 C 
ATOM     19  C   UNL     1      -1.133  -2.476  51.772  1.00  0.00     0.008 C 
ENDBRANCH  12  17
ENDBRANCH  11  12
ENDBRANCH   1  11
TORSDOF 1
ENDMDL
MODEL 9
REMARK VINA RESULT:    -3.072      2.974      6.375
REMARK INTER + INTRA:          -5.051
REMARK INTER:                  -4.865
REMARK INTRA:                  -0.185
REMARK UNBOUND:                -0.363
REMARK SMILES CC1=CCC[C@H](C)C(=O)C[C@H](C(C)C)C(=O)C1
REMARK SMILES IDX 8 1 9 2 6 3 7 4 5 5 4 6 3 7 2 8 1 9 10 11 11 12 15 13 16 14
REMARK SMILES IDX 17 15 12 17 13 18 14 19
REMARK H PARENT
REMARK Flexibility Score: 70.00
ROOT
ATOM      1  C   UNL     1      -5.373   1.633  56.272  1.00  0.00     0.136 C 
ATOM      2  O   UNL     1      -5.859   0.709  55.637  1.00  0.00    -0.299 OA
ENDROOT
BRANCH   1   3
ATOM      3  C   UNL     1      -4.581   1.319  57.530  1.00  0.00     0.053 C 
ATOM      4  C   UNL     1      -3.172   1.912  57.400  1.00  0.00     0.016 C 
BRANCH   3   5
ATOM      5  C   UNL     1      -5.265   1.821  58.829  1.00  0.00     0.015 C 
BRANCH   5   6
ATOM      6  C   UNL     1      -4.838   3.222  59.324  1.00  0.00     0.028 C 
BRANCH   6   7
ATOM      7  C   UNL     1      -5.945   4.166  59.726  1.00  0.00    -0.028 C 
ATOM      8  C   UNL     1      -6.420   5.196  58.988  1.00  0.00    -0.070 CG0
ATOM      9  C   UNL     1      -7.349   6.168  59.676  1.00  0.00     0.039 C 
ATOM     10  G   UNL     1      -6.019   5.446  57.542  1.00  0.00     0.000 G0
ENDBRANCH   6   7
ENDBRANCH   5   6
ENDBRANCH   3   5
ENDBRANCH   1   3
BRANCH   1  11
ATOM     11  C   UNL     1      -5.449   3.038  55.710  1.00  0.00     0.087 C 
BRANCH  11  12
ATOM     12  C   UNL     1      -6.873   3.656  55.714  1.00  0.00     0.066 C 
BRANCH  12  13
ATOM     13  C   UNL     1      -7.049   4.913  56.565  1.00  0.00     0.140 C 
ATOM     14  O   UNL     1      -8.091   5.540  56.445  1.00  0.00    -0.299 OA
BRANCH  13  15
ATOM     15  C   UNL     1      -6.013   5.439  57.538  1.00  0.00     0.106 CG0
ATOM     16  G   UNL     1      -6.433   5.188  58.979  1.00  0.00     0.000 G0
ENDBRANCH  13  15
ENDBRANCH  12  13
BRANCH  12  17
ATOM     17  C   UNL     1      -7.385   3.863  54.252  1.00  0.00    -0.006 C 
ATOM     18  C   UNL     1      -8.483   2.864  53.847  1.00  0.00     0.008 C 
ATOM     19  C   UNL     1      -6.239   3.826  53.229  1.00  0.00     0.008 C 
ENDBRANCH  12  17
ENDBRANCH  11  12
ENDBRANCH   1  11
TORSDOF 1
ENDMDL
