MODEL 1
REMARK VINA RESULT:    -4.671      0.000      0.000
REMARK INTER + INTRA:          -8.308
REMARK INTER:                  -6.582
REMARK INTRA:                  -1.726
REMARK UNBOUND:                -1.726
REMARK SMILES C=CC(=C)CCC=C(C)CCC=C(C)C
REMARK SMILES IDX 8 1 7 2 9 3 10 4 11 5 12 6 14 7 13 8 15 9 6 10 5 11 3 12
REMARK SMILES IDX 4 13 2 14 1 15
REMARK H PARENT
REMARK Flexibility Score: inf
ROOT
ATOM      1  C   UNL     1     167.240 164.025 197.508  1.00  0.00    -0.077 C 
ATOM      2  C   UNL     1     166.729 162.909 196.938  1.00  0.00    -0.028 C 
ATOM      3  C   UNL     1     166.353 165.142 198.003  1.00  0.00     0.039 C 
ENDROOT
BRANCH   1   4
ATOM      4  C   UNL     1     168.744 164.174 197.615  1.00  0.00     0.034 C 
BRANCH   4   5
ATOM      5  C   UNL     1     169.329 163.145 198.588  1.00  0.00     0.032 C 
BRANCH   5   6
ATOM      6  C   UNL     1     169.218 163.612 200.018  1.00  0.00    -0.028 C 
ATOM      7  C   UNL     1     167.448 161.922 200.516  1.00  0.00     0.039 C 
ATOM      8  C   UNL     1     168.361 163.059 200.904  1.00  0.00    -0.080 C 
ATOM      9  C   UNL     1     168.300 163.572 202.319  1.00  0.00     0.039 C 
ENDBRANCH   5   6
ENDBRANCH   4   5
ENDBRANCH   1   4
BRANCH   2  10
ATOM     10  C   UNL     1     165.257 162.639 196.745  1.00  0.00     0.032 C 
BRANCH  10  11
ATOM     11  C   UNL     1     164.655 161.804 197.886  1.00  0.00     0.039 C 
BRANCH  11  12
ATOM     12  C   UNL     1     163.800 162.640 198.819  1.00  0.00    -0.055 C 
ATOM     13  C   UNL     1     162.791 163.350 198.302  1.00  0.00     0.012 C 
BRANCH  12  14
ATOM     14  C   UNL     1     164.016 162.688 200.291  1.00  0.00    -0.005 C 
ATOM     15  C   UNL     1     163.760 163.747 201.059  1.00  0.00     0.009 C 
ENDBRANCH  12  14
ENDBRANCH  11  12
ENDBRANCH  10  11
ENDBRANCH   2  10
TORSDOF 7
ENDMDL
MODEL 2
REMARK VINA RESULT:    -4.658      4.607      7.215
REMARK INTER + INTRA:          -8.289
REMARK INTER:                  -6.356
REMARK INTRA:                  -1.933
REMARK UNBOUND:                -1.726
REMARK SMILES C=CC(=C)CCC=C(C)CCC=C(C)C
REMARK SMILES IDX 8 1 7 2 9 3 10 4 11 5 12 6 14 7 13 8 15 9 6 10 5 11 3 12
REMARK SMILES IDX 4 13 2 14 1 15
REMARK H PARENT
REMARK Flexibility Score: inf
ROOT
ATOM      1  C   UNL     1     164.777 167.971 197.491  1.00  0.00    -0.077 C 
ATOM      2  C   UNL     1     165.272 169.158 197.068  1.00  0.00    -0.028 C 
ATOM      3  C   UNL     1     165.675 166.795 197.790  1.00  0.00     0.039 C 
ENDROOT
BRANCH   1   4
ATOM      4  C   UNL     1     163.277 167.808 197.630  1.00  0.00     0.034 C 
BRANCH   4   5
ATOM      5  C   UNL     1     162.701 168.842 198.603  1.00  0.00     0.032 C 
BRANCH   5   6
ATOM      6  C   UNL     1     162.825 168.384 200.035  1.00  0.00    -0.028 C 
ATOM      7  C   UNL     1     164.535 170.136 200.531  1.00  0.00     0.039 C 
ATOM      8  C   UNL     1     163.661 168.969 200.921  1.00  0.00    -0.080 C 
ATOM      9  C   UNL     1     163.737 168.462 202.337  1.00  0.00     0.039 C 
ENDBRANCH   5   6
ENDBRANCH   4   5
ENDBRANCH   1   4
BRANCH   2  10
ATOM     10  C   UNL     1     166.738 169.452 196.863  1.00  0.00     0.032 C 
BRANCH  10  11
ATOM     11  C   UNL     1     167.359 170.214 198.044  1.00  0.00     0.039 C 
BRANCH  11  12
ATOM     12  C   UNL     1     168.277 169.337 198.873  1.00  0.00    -0.055 C 
ATOM     13  C   UNL     1     169.311 168.739 198.270  1.00  0.00     0.012 C 
BRANCH  12  14
ATOM     14  C   UNL     1     168.097 169.129 200.335  1.00  0.00    -0.005 C 
ATOM     15  C   UNL     1     167.480 168.081 200.880  1.00  0.00     0.009 C 
ENDBRANCH  12  14
ENDBRANCH  11  12
ENDBRANCH  10  11
ENDBRANCH   2  10
TORSDOF 7
ENDMDL
MODEL 3
REMARK VINA RESULT:    -4.632      3.736      5.805
REMARK INTER + INTRA:          -8.254
REMARK INTER:                  -7.334
REMARK INTRA:                  -0.919
REMARK UNBOUND:                -1.726
REMARK SMILES C=CC(=C)CCC=C(C)CCC=C(C)C
REMARK SMILES IDX 8 1 7 2 9 3 10 4 11 5 12 6 14 7 13 8 15 9 6 10 5 11 3 12
REMARK SMILES IDX 4 13 2 14 1 15
REMARK H PARENT
REMARK Flexibility Score: inf
ROOT
ATOM      1  C   UNL     1     163.191 167.597 200.577  1.00  0.00    -0.077 C 
ATOM      2  C   UNL     1     162.544 166.659 199.846  1.00  0.00    -0.028 C 
ATOM      3  C   UNL     1     163.750 167.291 201.946  1.00  0.00     0.039 C 
ENDROOT
BRANCH   1   4
ATOM      4  C   UNL     1     163.321 169.001 200.023  1.00  0.00     0.034 C 
BRANCH   4   5
ATOM      5  C   UNL     1     164.520 169.726 200.643  1.00  0.00     0.032 C 
BRANCH   5   6
ATOM      6  C   UNL     1     165.581 170.022 199.613  1.00  0.00    -0.028 C 
ATOM      7  C   UNL     1     167.340 168.902 200.986  1.00  0.00     0.039 C 
ATOM      8  C   UNL     1     166.871 169.650 199.763  1.00  0.00    -0.080 C 
ATOM      9  C   UNL     1     167.881 169.978 198.694  1.00  0.00     0.039 C 
ENDBRANCH   5   6
ENDBRANCH   4   5
ENDBRANCH   1   4
BRANCH   2  10
ATOM     10  C   UNL     1     162.320 165.232 200.283  1.00  0.00     0.032 C 
BRANCH  10  11
ATOM     11  C   UNL     1     162.957 164.213 199.324  1.00  0.00     0.039 C 
BRANCH  11  12
ATOM     12  C   UNL     1     163.908 163.272 200.038  1.00  0.00    -0.055 C 
ATOM     13  C   UNL     1     164.041 163.376 201.365  1.00  0.00     0.012 C 
BRANCH  12  14
ATOM     14  C   UNL     1     164.684 162.217 199.331  1.00  0.00    -0.005 C 
ATOM     15  C   UNL     1     164.391 161.745 198.120  1.00  0.00     0.009 C 
ENDBRANCH  12  14
ENDBRANCH  11  12
ENDBRANCH  10  11
ENDBRANCH   2  10
TORSDOF 7
ENDMDL
MODEL 4
REMARK VINA RESULT:    -4.591      2.939      5.678
REMARK INTER + INTRA:          -8.195
REMARK INTER:                  -7.300
REMARK INTRA:                  -0.895
REMARK UNBOUND:                -1.726
REMARK SMILES C=CC(=C)CCC=C(C)CCC=C(C)C
REMARK SMILES IDX 8 1 7 2 9 3 10 4 11 5 12 6 14 7 13 8 15 9 6 10 5 11 3 12
REMARK SMILES IDX 4 13 2 14 1 15
REMARK H PARENT
REMARK Flexibility Score: inf
ROOT
ATOM      1  C   UNL     1     168.771 164.104 200.326  1.00  0.00    -0.077 C 
ATOM      2  C   UNL     1     169.309 165.115 199.604  1.00  0.00    -0.028 C 
ATOM      3  C   UNL     1     168.508 164.236 201.807  1.00  0.00     0.039 C 
ENDROOT
BRANCH   1   4
ATOM      4  C   UNL     1     168.462 162.792 199.635  1.00  0.00     0.034 C 
BRANCH   4   5
ATOM      5  C   UNL     1     167.338 162.043 200.359  1.00  0.00     0.032 C 
BRANCH   5   6
ATOM      6  C   UNL     1     166.119 161.894 199.482  1.00  0.00    -0.028 C 
ATOM      7  C   UNL     1     164.693 163.132 201.116  1.00  0.00     0.039 C 
ATOM      8  C   UNL     1     164.908 162.387 199.821  1.00  0.00    -0.080 C 
ATOM      9  C   UNL     1     163.731 162.203 198.900  1.00  0.00     0.039 C 
ENDBRANCH   5   6
ENDBRANCH   4   5
ENDBRANCH   1   4
BRANCH   2  10
ATOM     10  C   UNL     1     169.687 166.465 200.166  1.00  0.00     0.032 C 
BRANCH  10  11
ATOM     11  C   UNL     1     169.208 167.628 199.283  1.00  0.00     0.039 C 
BRANCH  11  12
ATOM     12  C   UNL     1     168.294 168.578 200.032  1.00  0.00    -0.055 C 
ATOM     13  C   UNL     1     167.940 168.274 201.286  1.00  0.00     0.012 C 
BRANCH  12  14
ATOM     14  C   UNL     1     167.792 169.850 199.446  1.00  0.00    -0.005 C 
ATOM     15  C   UNL     1     167.730 170.108 198.140  1.00  0.00     0.009 C 
ENDBRANCH  12  14
ENDBRANCH  11  12
ENDBRANCH  10  11
ENDBRANCH   2  10
TORSDOF 7
ENDMDL
MODEL 5
REMARK VINA RESULT:    -4.563      1.413      5.226
REMARK INTER + INTRA:          -8.156
REMARK INTER:                  -6.895
REMARK INTRA:                  -1.261
REMARK UNBOUND:                -1.726
REMARK SMILES C=CC(=C)CCC=C(C)CCC=C(C)C
REMARK SMILES IDX 8 1 7 2 9 3 10 4 11 5 12 6 14 7 13 8 15 9 6 10 5 11 3 12
REMARK SMILES IDX 4 13 2 14 1 15
REMARK H PARENT
REMARK Flexibility Score: inf
ROOT
ATOM      1  C   UNL     1     165.884 162.294 198.325  1.00  0.00    -0.077 C 
ATOM      2  C   UNL     1     166.190 161.855 199.568  1.00  0.00    -0.028 C 
ATOM      3  C   UNL     1     166.881 163.052 197.481  1.00  0.00     0.039 C 
ENDROOT
BRANCH   1   4
ATOM      4  C   UNL     1     164.490 162.053 197.782  1.00  0.00     0.034 C 
BRANCH   4   5
ATOM      5  C   UNL     1     163.436 162.239 198.879  1.00  0.00     0.032 C 
BRANCH   5   6
ATOM      6  C   UNL     1     162.942 163.664 198.935  1.00  0.00    -0.028 C 
ATOM      7  C   UNL     1     163.629 163.890 201.326  1.00  0.00     0.039 C 
ATOM      8  C   UNL     1     163.026 164.423 200.049  1.00  0.00    -0.080 C 
ATOM      9  C   UNL     1     162.513 165.840 200.039  1.00  0.00     0.039 C 
ENDBRANCH   5   6
ENDBRANCH   4   5
ENDBRANCH   1   4
BRANCH   2  10
ATOM     10  C   UNL     1     167.528 162.046 200.241  1.00  0.00     0.032 C 
BRANCH  10  11
ATOM     11  C   UNL     1     167.643 163.403 200.953  1.00  0.00     0.039 C 
BRANCH  11  12
ATOM     12  C   UNL     1     168.856 164.190 200.494  1.00  0.00    -0.055 C 
ATOM     13  C   UNL     1     169.764 163.580 199.723  1.00  0.00     0.012 C 
BRANCH  12  14
ATOM     14  C   UNL     1     169.072 165.621 200.841  1.00  0.00    -0.005 C 
ATOM     15  C   UNL     1     169.660 166.512 200.043  1.00  0.00     0.009 C 
ENDBRANCH  12  14
ENDBRANCH  11  12
ENDBRANCH  10  11
ENDBRANCH   2  10
TORSDOF 7
ENDMDL
MODEL 6
REMARK VINA RESULT:    -4.486      4.191      7.001
REMARK INTER + INTRA:          -8.048
REMARK INTER:                  -6.460
REMARK INTRA:                  -1.587
REMARK UNBOUND:                -1.726
REMARK SMILES C=CC(=C)CCC=C(C)CCC=C(C)C
REMARK SMILES IDX 8 1 7 2 9 3 10 4 11 5 12 6 14 7 13 8 15 9 6 10 5 11 3 12
REMARK SMILES IDX 4 13 2 14 1 15
REMARK H PARENT
REMARK Flexibility Score: inf
ROOT
ATOM      1  C   UNL     1     165.990 169.723 200.138  1.00  0.00    -0.077 C 
ATOM      2  C   UNL     1     166.675 170.107 199.036  1.00  0.00    -0.028 C 
ATOM      3  C   UNL     1     166.650 168.955 201.258  1.00  0.00     0.039 C 
ENDROOT
BRANCH   1   4
ATOM      4  C   UNL     1     164.511 170.037 200.231  1.00  0.00     0.034 C 
BRANCH   4   5
ATOM      5  C   UNL     1     163.732 169.345 199.106  1.00  0.00     0.032 C 
BRANCH   5   6
ATOM      6  C   UNL     1     162.913 168.191 199.630  1.00  0.00    -0.028 C 
ATOM      7  C   UNL     1     164.624 166.533 198.879  1.00  0.00     0.039 C 
ATOM      8  C   UNL     1     163.313 166.904 199.529  1.00  0.00    -0.080 C 
ATOM      9  C   UNL     1     162.447 165.798 200.073  1.00  0.00     0.039 C 
ENDBRANCH   5   6
ENDBRANCH   4   5
ENDBRANCH   1   4
BRANCH   2  10
ATOM     10  C   UNL     1     168.143 169.841 198.801  1.00  0.00     0.032 C 
BRANCH  10  11
ATOM     11  C   UNL     1     168.384 168.759 197.736  1.00  0.00     0.039 C 
BRANCH  11  12
ATOM     12  C   UNL     1     168.725 167.415 198.351  1.00  0.00    -0.055 C 
ATOM     13  C   UNL     1     168.229 166.307 197.790  1.00  0.00     0.012 C 
BRANCH  12  14
ATOM     14  C   UNL     1     169.608 167.269 199.540  1.00  0.00    -0.005 C 
ATOM     15  C   UNL     1     169.375 166.443 200.559  1.00  0.00     0.009 C 
ENDBRANCH  12  14
ENDBRANCH  11  12
ENDBRANCH  10  11
ENDBRANCH   2  10
TORSDOF 7
ENDMDL
MODEL 7
REMARK VINA RESULT:    -4.482      1.672      2.783
REMARK INTER + INTRA:          -8.042
REMARK INTER:                  -6.471
REMARK INTRA:                  -1.571
REMARK UNBOUND:                -1.726
REMARK SMILES C=CC(=C)CCC=C(C)CCC=C(C)C
REMARK SMILES IDX 8 1 7 2 9 3 10 4 11 5 12 6 14 7 13 8 15 9 6 10 5 11 3 12
REMARK SMILES IDX 4 13 2 14 1 15
REMARK H PARENT
REMARK Flexibility Score: inf
ROOT
ATOM      1  C   UNL     1     166.009 162.251 200.011  1.00  0.00    -0.077 C 
ATOM      2  C   UNL     1     165.276 161.910 198.925  1.00  0.00    -0.028 C 
ATOM      3  C   UNL     1     165.405 163.000 201.174  1.00  0.00     0.039 C 
ENDROOT
BRANCH   1   4
ATOM      4  C   UNL     1     167.484 161.907 200.040  1.00  0.00     0.034 C 
BRANCH   4   5
ATOM      5  C   UNL     1     168.244 162.659 198.942  1.00  0.00     0.032 C 
BRANCH   5   6
ATOM      6  C   UNL     1     169.062 163.792 199.511  1.00  0.00    -0.028 C 
ATOM      7  C   UNL     1     167.348 165.477 198.831  1.00  0.00     0.039 C 
ATOM      8  C   UNL     1     168.660 165.081 199.463  1.00  0.00    -0.080 C 
ATOM      9  C   UNL     1     169.525 166.165 200.051  1.00  0.00     0.039 C 
ENDBRANCH   5   6
ENDBRANCH   4   5
ENDBRANCH   1   4
BRANCH   2  10
ATOM     10  C   UNL     1     163.807 162.209 198.751  1.00  0.00     0.032 C 
BRANCH  10  11
ATOM     11  C   UNL     1     163.547 163.316 197.717  1.00  0.00     0.039 C 
BRANCH  11  12
ATOM     12  C   UNL     1     163.175 164.633 198.369  1.00  0.00    -0.055 C 
ATOM     13  C   UNL     1     163.632 165.769 197.829  1.00  0.00     0.012 C 
BRANCH  12  14
ATOM     14  C   UNL     1     162.301 164.725 199.570  1.00  0.00    -0.005 C 
ATOM     15  C   UNL     1     162.601 165.410 200.673  1.00  0.00     0.009 C 
ENDBRANCH  12  14
ENDBRANCH  11  12
ENDBRANCH  10  11
ENDBRANCH   2  10
TORSDOF 7
ENDMDL
MODEL 8
REMARK VINA RESULT:    -4.440      1.786      3.095
REMARK INTER + INTRA:          -7.983
REMARK INTER:                  -7.005
REMARK INTRA:                  -0.978
REMARK UNBOUND:                -1.726
REMARK SMILES C=CC(=C)CCC=C(C)CCC=C(C)C
REMARK SMILES IDX 8 1 7 2 9 3 10 4 11 5 12 6 14 7 13 8 15 9 6 10 5 11 3 12
REMARK SMILES IDX 4 13 2 14 1 15
REMARK H PARENT
REMARK Flexibility Score: inf
ROOT
ATOM      1  C   UNL     1     167.028 162.368 199.870  1.00  0.00    -0.077 C 
ATOM      2  C   UNL     1     165.850 162.421 199.208  1.00  0.00    -0.028 C 
ATOM      3  C   UNL     1     167.093 162.158 201.364  1.00  0.00     0.039 C 
ENDROOT
BRANCH   1   4
ATOM      4  C   UNL     1     168.316 162.565 199.096  1.00  0.00     0.034 C 
BRANCH   4   5
ATOM      5  C   UNL     1     169.395 163.198 199.982  1.00  0.00     0.032 C 
BRANCH   5   6
ATOM      6  C   UNL     1     169.682 164.622 199.573  1.00  0.00    -0.028 C 
ATOM      7  C   UNL     1     168.669 165.513 201.675  1.00  0.00     0.039 C 
ATOM      8  C   UNL     1     169.352 165.684 200.340  1.00  0.00    -0.080 C 
ATOM      9  C   UNL     1     169.666 167.081 199.873  1.00  0.00     0.039 C 
ENDBRANCH   5   6
ENDBRANCH   4   5
ENDBRANCH   1   4
BRANCH   2  10
ATOM     10  C   UNL     1     164.494 162.265 199.853  1.00  0.00     0.032 C 
BRANCH  10  11
ATOM     11  C   UNL     1     163.943 163.592 200.399  1.00  0.00     0.039 C 
BRANCH  11  12
ATOM     12  C   UNL     1     162.893 164.195 199.485  1.00  0.00    -0.055 C 
ATOM     13  C   UNL     1     162.273 165.316 199.872  1.00  0.00     0.012 C 
BRANCH  12  14
ATOM     14  C   UNL     1     162.537 163.612 198.164  1.00  0.00    -0.005 C 
ATOM     15  C   UNL     1     162.753 164.208 196.991  1.00  0.00     0.009 C 
ENDBRANCH  12  14
ENDBRANCH  11  12
ENDBRANCH  10  11
ENDBRANCH   2  10
TORSDOF 7
ENDMDL
MODEL 9
REMARK VINA RESULT:    -4.435      4.273      7.370
REMARK INTER + INTRA:          -7.976
REMARK INTER:                  -6.990
REMARK INTRA:                  -0.986
REMARK UNBOUND:                -1.726
REMARK SMILES C=CC(=C)CCC=C(C)CCC=C(C)C
REMARK SMILES IDX 8 1 7 2 9 3 10 4 11 5 12 6 14 7 13 8 15 9 6 10 5 11 3 12
REMARK SMILES IDX 4 13 2 14 1 15
REMARK H PARENT
REMARK Flexibility Score: inf
ROOT
ATOM      1  C   UNL     1     165.003 169.586 199.843  1.00  0.00    -0.077 C 
ATOM      2  C   UNL     1     166.187 169.515 199.190  1.00  0.00    -0.028 C 
ATOM      3  C   UNL     1     164.929 169.804 201.335  1.00  0.00     0.039 C 
ENDROOT
BRANCH   1   4
ATOM      4  C   UNL     1     163.719 169.399 199.059  1.00  0.00     0.034 C 
BRANCH   4   5
ATOM      5  C   UNL     1     162.625 168.785 199.939  1.00  0.00     0.032 C 
BRANCH   5   6
ATOM      6  C   UNL     1     162.333 167.359 199.544  1.00  0.00    -0.028 C 
ATOM      7  C   UNL     1     163.334 166.484 201.658  1.00  0.00     0.039 C 
ATOM      8  C   UNL     1     162.655 166.303 200.323  1.00  0.00    -0.080 C 
ATOM      9  C   UNL     1     162.335 164.903 199.869  1.00  0.00     0.039 C 
ENDBRANCH   5   6
ENDBRANCH   4   5
ENDBRANCH   1   4
BRANCH   2  10
ATOM     10  C   UNL     1     167.539 169.657 199.846  1.00  0.00     0.032 C 
BRANCH  10  11
ATOM     11  C   UNL     1     168.059 168.332 200.422  1.00  0.00     0.039 C 
BRANCH  11  12
ATOM     12  C   UNL     1     169.143 167.716 199.557  1.00  0.00    -0.055 C 
ATOM     13  C   UNL     1     169.765 166.615 199.993  1.00  0.00     0.012 C 
BRANCH  12  14
ATOM     14  C   UNL     1     169.531 168.268 198.231  1.00  0.00    -0.005 C 
ATOM     15  C   UNL     1     169.165 167.748 197.059  1.00  0.00     0.009 C 
ENDBRANCH  12  14
ENDBRANCH  11  12
ENDBRANCH  10  11
ENDBRANCH   2  10
TORSDOF 7
ENDMDL
