MODEL 1
REMARK VINA RESULT:    -3.813      0.000      0.000
REMARK INTER + INTRA:          -6.870
REMARK INTER:                  -5.820
REMARK INTRA:                  -1.050
REMARK UNBOUND:                -1.050
REMARK SMILES CCCCCCCCCCC(=O)[O-]
REMARK SMILES IDX 7 1 8 2 9 3 10 4 11 5 12 6 13 7 6 8 5 9 4 10 3 11 2 12 1 13
REMARK H PARENT
REMARK Flexibility Score: inf
ROOT
ATOM      1  C   UNL     1      95.023   6.364  23.525  1.00  0.00     0.000 C 
ENDROOT
BRANCH   1   2
ATOM      2  C   UNL     1      95.950   6.180  22.313  1.00  0.00     0.000 C 
BRANCH   2   3
ATOM      3  C   UNL     1      97.401   6.594  22.609  1.00  0.00     0.006 C 
BRANCH   3   4
ATOM      4  C   UNL     1      98.319   6.397  21.395  1.00  0.00     0.053 C 
BRANCH   4   5
ATOM      5  C   UNL     1      97.918   7.271  20.246  1.00  0.00     0.041 C 
ATOM      6  O   UNL     1      98.192   8.500  20.258  1.00  0.00    -0.550 OA
ATOM      7  O   UNL     1      97.217   6.732  19.175  1.00  0.00    -0.550 OA
ENDBRANCH   4   5
ENDBRANCH   3   4
ENDBRANCH   2   3
ENDBRANCH   1   2
BRANCH   1   8
ATOM      8  C   UNL     1      95.789   6.715  24.810  1.00  0.00     0.000 C 
BRANCH   8   9
ATOM      9  C   UNL     1      95.595   5.632  25.879  1.00  0.00    -0.000 C 
BRANCH   9  10
ATOM     10  C   UNL     1      96.946   5.075  26.350  1.00  0.00    -0.000 C 
BRANCH  10  11
ATOM     11  C   UNL     1      97.580   4.117  25.330  1.00  0.00    -0.000 C 
BRANCH  11  12
ATOM     12  C   UNL     1      96.852   2.766  25.256  1.00  0.00    -0.003 C 
ATOM     13  C   UNL     1      96.154   2.591  23.911  1.00  0.00     0.004 C 
ENDBRANCH  11  12
ENDBRANCH  10  11
ENDBRANCH   9  10
ENDBRANCH   8   9
ENDBRANCH   1   8
TORSDOF 9
ENDMDL
MODEL 2
REMARK VINA RESULT:    -3.804      3.491      5.148
REMARK INTER + INTRA:          -6.855
REMARK INTER:                  -5.618
REMARK INTRA:                  -1.237
REMARK UNBOUND:                -1.050
REMARK SMILES CCCCCCCCCCC(=O)[O-]
REMARK SMILES IDX 7 1 8 2 9 3 10 4 11 5 12 6 13 7 6 8 5 9 4 10 3 11 2 12 1 13
REMARK H PARENT
REMARK Flexibility Score: inf
ROOT
ATOM      1  C   UNL     1      97.594   4.251  26.199  1.00  0.00     0.000 C 
ENDROOT
BRANCH   1   2
ATOM      2  C   UNL     1      96.667   3.243  25.501  1.00  0.00     0.000 C 
BRANCH   2   3
ATOM      3  C   UNL     1      97.160   2.862  24.095  1.00  0.00     0.006 C 
BRANCH   3   4
ATOM      4  C   UNL     1      98.683   2.681  24.043  1.00  0.00     0.053 C 
BRANCH   4   5
ATOM      5  C   UNL     1      99.093   1.300  24.455  1.00  0.00     0.041 C 
ATOM      6  O   UNL     1      99.489   1.079  25.630  1.00  0.00    -0.550 OA
ATOM      7  O   UNL     1      99.065   0.263  23.531  1.00  0.00    -0.550 OA
ENDBRANCH   4   5
ENDBRANCH   3   4
ENDBRANCH   2   3
ENDBRANCH   1   2
BRANCH   1   8
ATOM      8  C   UNL     1      96.869   5.546  26.597  1.00  0.00     0.000 C 
BRANCH   8   9
ATOM      9  C   UNL     1      95.546   5.691  25.836  1.00  0.00    -0.000 C 
BRANCH   9  10
ATOM     10  C   UNL     1      95.671   6.722  24.705  1.00  0.00    -0.000 C 
BRANCH  10  11
ATOM     11  C   UNL     1      95.105   6.210  23.372  1.00  0.00    -0.000 C 
BRANCH  11  12
ATOM     12  C   UNL     1      96.162   6.167  22.258  1.00  0.00    -0.003 C 
ATOM     13  C   UNL     1      97.568   6.320  22.828  1.00  0.00     0.004 C 
ENDBRANCH  11  12
ENDBRANCH  10  11
ENDBRANCH   9  10
ENDBRANCH   8   9
ENDBRANCH   1   8
TORSDOF 9
ENDMDL
MODEL 3
REMARK VINA RESULT:    -3.764      3.390      4.580
REMARK INTER + INTRA:          -6.795
REMARK INTER:                  -5.554
REMARK INTRA:                  -1.242
REMARK UNBOUND:                -1.050
REMARK SMILES CCCCCCCCCCC(=O)[O-]
REMARK SMILES IDX 7 1 8 2 9 3 10 4 11 5 12 6 13 7 6 8 5 9 4 10 3 11 2 12 1 13
REMARK H PARENT
REMARK Flexibility Score: inf
ROOT
ATOM      1  C   UNL     1      97.843   6.124  22.552  1.00  0.00     0.000 C 
ENDROOT
BRANCH   1   2
ATOM      2  C   UNL     1      99.108   5.257  22.460  1.00  0.00     0.000 C 
BRANCH   2   3
ATOM      3  C   UNL     1      99.399   4.493  23.763  1.00  0.00     0.006 C 
BRANCH   3   4
ATOM      4  C   UNL     1      99.573   2.987  23.525  1.00  0.00     0.053 C 
BRANCH   4   5
ATOM      5  C   UNL     1      98.757   2.173  24.483  1.00  0.00     0.041 C 
ATOM      6  O   UNL     1      97.612   1.765  24.154  1.00  0.00    -0.550 OA
ATOM      7  O   UNL     1      99.251   1.891  25.750  1.00  0.00    -0.550 OA
ENDBRANCH   4   5
ENDBRANCH   3   4
ENDBRANCH   2   3
ENDBRANCH   1   2
BRANCH   1   8
ATOM      8  C   UNL     1      96.602   5.319  22.968  1.00  0.00     0.000 C 
BRANCH   8   9
ATOM      9  C   UNL     1      95.546   6.230  23.608  1.00  0.00    -0.000 C 
BRANCH   9  10
ATOM     10  C   UNL     1      95.446   5.977  25.119  1.00  0.00    -0.000 C 
BRANCH  10  11
ATOM     11  C   UNL     1      96.191   4.707  25.558  1.00  0.00    -0.000 C 
BRANCH  11  12
ATOM     12  C   UNL     1      97.165   4.963  26.718  1.00  0.00    -0.003 C 
ATOM     13  C   UNL     1      97.905   6.284  26.533  1.00  0.00     0.004 C 
ENDBRANCH  11  12
ENDBRANCH  10  11
ENDBRANCH   9  10
ENDBRANCH   8   9
ENDBRANCH   1   8
TORSDOF 9
ENDMDL
MODEL 4
REMARK VINA RESULT:    -3.762      3.182      5.334
REMARK INTER + INTRA:          -6.792
REMARK INTER:                  -5.676
REMARK INTRA:                  -1.117
REMARK UNBOUND:                -1.050
REMARK SMILES CCCCCCCCCCC(=O)[O-]
REMARK SMILES IDX 7 1 8 2 9 3 10 4 11 5 12 6 13 7 6 8 5 9 4 10 3 11 2 12 1 13
REMARK H PARENT
REMARK Flexibility Score: inf
ROOT
ATOM      1  C   UNL     1     100.210   4.224  24.490  1.00  0.00     0.000 C 
ENDROOT
BRANCH   1   2
ATOM      2  C   UNL     1      99.282   4.197  25.715  1.00  0.00     0.000 C 
BRANCH   2   3
ATOM      3  C   UNL     1      98.704   2.799  25.989  1.00  0.00     0.006 C 
BRANCH   3   4
ATOM      4  C   UNL     1      97.225   2.695  25.589  1.00  0.00     0.053 C 
BRANCH   4   5
ATOM      5  C   UNL     1      97.038   1.854  24.363  1.00  0.00     0.041 C 
ATOM      6  O   UNL     1      97.936   1.047  24.004  1.00  0.00    -0.550 OA
ATOM      7  O   UNL     1      95.883   1.982  23.603  1.00  0.00    -0.550 OA
ENDBRANCH   4   5
ENDBRANCH   3   4
ENDBRANCH   2   3
ENDBRANCH   1   2
BRANCH   1   8
ATOM      8  C   UNL     1      99.440   4.196  23.162  1.00  0.00     0.000 C 
BRANCH   8   9
ATOM      9  C   UNL     1      98.734   5.533  22.907  1.00  0.00    -0.000 C 
BRANCH   9  10
ATOM     10  C   UNL     1      97.209   5.379  23.010  1.00  0.00    -0.000 C 
BRANCH  10  11
ATOM     11  C   UNL     1      96.532   6.605  23.642  1.00  0.00    -0.000 C 
BRANCH  11  12
ATOM     12  C   UNL     1      96.476   6.525  25.175  1.00  0.00    -0.003 C 
ATOM     13  C   UNL     1      95.291   5.685  25.639  1.00  0.00     0.004 C 
ENDBRANCH  11  12
ENDBRANCH  10  11
ENDBRANCH   9  10
ENDBRANCH   8   9
ENDBRANCH   1   8
TORSDOF 9
ENDMDL
MODEL 5
REMARK VINA RESULT:    -3.758      4.203      6.016
REMARK INTER + INTRA:          -6.785
REMARK INTER:                  -5.591
REMARK INTRA:                  -1.194
REMARK UNBOUND:                -1.050
REMARK SMILES CCCCCCCCCCC(=O)[O-]
REMARK SMILES IDX 7 1 8 2 9 3 10 4 11 5 12 6 13 7 6 8 5 9 4 10 3 11 2 12 1 13
REMARK H PARENT
REMARK Flexibility Score: inf
ROOT
ATOM      1  C   UNL     1      99.899   4.248  24.005  1.00  0.00     0.000 C 
ENDROOT
BRANCH   1   2
ATOM      2  C   UNL     1      99.208   4.236  25.378  1.00  0.00     0.000 C 
BRANCH   2   3
ATOM      3  C   UNL     1      98.393   2.954  25.620  1.00  0.00     0.006 C 
BRANCH   3   4
ATOM      4  C   UNL     1      96.887   3.234  25.711  1.00  0.00     0.053 C 
BRANCH   4   5
ATOM      5  C   UNL     1      96.264   3.378  24.356  1.00  0.00     0.041 C 
ATOM      6  O   UNL     1      96.050   2.360  23.645  1.00  0.00    -0.550 OA
ATOM      7  O   UNL     1      95.946   4.638  23.867  1.00  0.00    -0.550 OA
ENDBRANCH   4   5
ENDBRANCH   3   4
ENDBRANCH   2   3
ENDBRANCH   1   2
BRANCH   1   8
ATOM      8  C   UNL     1     100.051   2.842  23.406  1.00  0.00     0.000 C 
BRANCH   8   9
ATOM      9  C   UNL     1     101.524   2.414  23.375  1.00  0.00    -0.000 C 
BRANCH   9  10
ATOM     10  C   UNL     1     101.888   1.606  24.629  1.00  0.00    -0.000 C 
BRANCH  10  11
ATOM     11  C   UNL     1     103.026   2.249  25.437  1.00  0.00    -0.000 C 
BRANCH  11  12
ATOM     12  C   UNL     1     102.518   3.008  26.673  1.00  0.00    -0.003 C 
ATOM     13  C   UNL     1     102.754   4.509  26.531  1.00  0.00     0.004 C 
ENDBRANCH  11  12
ENDBRANCH  10  11
ENDBRANCH   9  10
ENDBRANCH   8   9
ENDBRANCH   1   8
TORSDOF 9
ENDMDL
MODEL 6
REMARK VINA RESULT:    -3.747      1.170      2.022
REMARK INTER + INTRA:          -6.769
REMARK INTER:                  -5.528
REMARK INTRA:                  -1.241
REMARK UNBOUND:                -1.050
REMARK SMILES CCCCCCCCCCC(=O)[O-]
REMARK SMILES IDX 7 1 8 2 9 3 10 4 11 5 12 6 13 7 6 8 5 9 4 10 3 11 2 12 1 13
REMARK H PARENT
REMARK Flexibility Score: inf
ROOT
ATOM      1  C   UNL     1      95.450   5.757  25.716  1.00  0.00     0.000 C 
ENDROOT
BRANCH   1   2
ATOM      2  C   UNL     1      95.723   6.828  24.648  1.00  0.00     0.000 C 
BRANCH   2   3
ATOM      3  C   UNL     1      95.103   6.477  23.286  1.00  0.00     0.006 C 
BRANCH   3   4
ATOM      4  C   UNL     1      96.154   5.983  22.282  1.00  0.00     0.053 C 
BRANCH   4   5
ATOM      5  C   UNL     1      96.451   7.013  21.234  1.00  0.00     0.041 C 
ATOM      6  O   UNL     1      95.920   8.153  21.297  1.00  0.00    -0.550 OA
ATOM      7  O   UNL     1      97.291   6.701  20.173  1.00  0.00    -0.550 OA
ENDBRANCH   4   5
ENDBRANCH   3   4
ENDBRANCH   2   3
ENDBRANCH   1   2
BRANCH   1   8
ATOM      8  C   UNL     1      96.706   5.384  26.518  1.00  0.00     0.000 C 
BRANCH   8   9
ATOM      9  C   UNL     1      97.978   5.663  25.707  1.00  0.00    -0.000 C 
BRANCH   9  10
ATOM     10  C   UNL     1      98.742   4.363  25.418  1.00  0.00    -0.000 C 
BRANCH  10  11
ATOM     11  C   UNL     1      98.349   3.732  24.073  1.00  0.00    -0.000 C 
BRANCH  11  12
ATOM     12  C   UNL     1      97.603   2.400  24.239  1.00  0.00    -0.003 C 
ATOM     13  C   UNL     1      96.111   2.568  23.970  1.00  0.00     0.004 C 
ENDBRANCH  11  12
ENDBRANCH  10  11
ENDBRANCH   9  10
ENDBRANCH   8   9
ENDBRANCH   1   8
TORSDOF 9
ENDMDL
MODEL 7
REMARK VINA RESULT:    -3.737      1.927      3.528
REMARK INTER + INTRA:          -6.754
REMARK INTER:                  -5.581
REMARK INTRA:                  -1.172
REMARK UNBOUND:                -1.050
REMARK SMILES CCCCCCCCCCC(=O)[O-]
REMARK SMILES IDX 7 1 8 2 9 3 10 4 11 5 12 6 13 7 6 8 5 9 4 10 3 11 2 12 1 13
REMARK H PARENT
REMARK Flexibility Score: inf
ROOT
ATOM      1  C   UNL     1      97.482   5.276  26.507  1.00  0.00     0.000 C 
ENDROOT
BRANCH   1   2
ATOM      2  C   UNL     1      96.011   5.599  26.201  1.00  0.00     0.000 C 
BRANCH   2   3
ATOM      3  C   UNL     1      95.856   6.687  25.125  1.00  0.00     0.006 C 
BRANCH   3   4
ATOM      4  C   UNL     1      95.129   6.168  23.877  1.00  0.00     0.053 C 
BRANCH   4   5
ATOM      5  C   UNL     1      95.186   7.153  22.749  1.00  0.00     0.041 C 
ATOM      6  O   UNL     1      95.285   8.386  22.988  1.00  0.00    -0.550 OA
ATOM      7  O   UNL     1      95.101   6.710  21.436  1.00  0.00    -0.550 OA
ENDBRANCH   4   5
ENDBRANCH   3   4
ENDBRANCH   2   3
ENDBRANCH   1   2
BRANCH   1   8
ATOM      8  C   UNL     1      97.790   3.773  26.419  1.00  0.00     0.000 C 
BRANCH   8   9
ATOM      9  C   UNL     1      96.843   3.076  25.434  1.00  0.00    -0.000 C 
BRANCH   9  10
ATOM     10  C   UNL     1      97.389   3.147  24.001  1.00  0.00    -0.000 C 
BRANCH  10  11
ATOM     11  C   UNL     1      98.915   2.974  23.940  1.00  0.00    -0.000 C 
BRANCH  11  12
ATOM     12  C   UNL     1      99.614   4.137  23.220  1.00  0.00    -0.003 C 
ATOM     13  C   UNL     1      98.629   5.255  22.895  1.00  0.00     0.004 C 
ENDBRANCH  11  12
ENDBRANCH  10  11
ENDBRANCH   9  10
ENDBRANCH   8   9
ENDBRANCH   1   8
TORSDOF 9
ENDMDL
MODEL 8
REMARK VINA RESULT:    -3.728      2.517      3.779
REMARK INTER + INTRA:          -6.740
REMARK INTER:                  -5.376
REMARK INTRA:                  -1.363
REMARK UNBOUND:                -1.050
REMARK SMILES CCCCCCCCCCC(=O)[O-]
REMARK SMILES IDX 7 1 8 2 9 3 10 4 11 5 12 6 13 7 6 8 5 9 4 10 3 11 2 12 1 13
REMARK H PARENT
REMARK Flexibility Score: inf
ROOT
ATOM      1  C   UNL     1      96.126   4.240  23.881  1.00  0.00     0.000 C 
ENDROOT
BRANCH   1   2
ATOM      2  C   UNL     1      95.845   4.922  25.230  1.00  0.00     0.000 C 
BRANCH   2   3
ATOM      3  C   UNL     1      96.866   6.024  25.559  1.00  0.00     0.006 C 
BRANCH   3   4
ATOM      4  C   UNL     1      97.196   6.892  24.338  1.00  0.00     0.053 C 
BRANCH   4   5
ATOM      5  C   UNL     1      96.204   8.000  24.158  1.00  0.00     0.041 C 
ATOM      6  O   UNL     1      95.816   8.322  23.004  1.00  0.00    -0.550 OA
ATOM      7  O   UNL     1      95.731   8.695  25.263  1.00  0.00    -0.550 OA
ENDBRANCH   4   5
ENDBRANCH   3   4
ENDBRANCH   2   3
ENDBRANCH   1   2
BRANCH   1   8
ATOM      8  C   UNL     1      96.184   2.709  23.992  1.00  0.00     0.000 C 
BRANCH   8   9
ATOM      9  C   UNL     1      96.989   2.277  25.224  1.00  0.00    -0.000 C 
BRANCH   9  10
ATOM     10  C   UNL     1      98.486   2.178  24.895  1.00  0.00    -0.000 C 
BRANCH  10  11
ATOM     11  C   UNL     1      99.331   3.197  25.676  1.00  0.00    -0.000 C 
BRANCH  11  12
ATOM     12  C   UNL     1     100.045   4.201  24.757  1.00  0.00    -0.003 C 
ATOM     13  C   UNL     1      99.775   3.890  23.288  1.00  0.00     0.004 C 
ENDBRANCH  11  12
ENDBRANCH  10  11
ENDBRANCH   9  10
ENDBRANCH   8   9
ENDBRANCH   1   8
TORSDOF 9
ENDMDL
MODEL 9
REMARK VINA RESULT:    -3.682      4.967      6.886
REMARK INTER + INTRA:          -6.670
REMARK INTER:                  -5.556
REMARK INTRA:                  -1.114
REMARK UNBOUND:                -1.050
REMARK SMILES CCCCCCCCCCC(=O)[O-]
REMARK SMILES IDX 7 1 8 2 9 3 10 4 11 5 12 6 13 7 6 8 5 9 4 10 3 11 2 12 1 13
REMARK H PARENT
REMARK Flexibility Score: inf
ROOT
ATOM      1  C   UNL     1      99.850   0.529  23.603  1.00  0.00     0.000 C 
ENDROOT
BRANCH   1   2
ATOM      2  C   UNL     1      99.563   0.657  25.108  1.00  0.00     0.000 C 
BRANCH   2   3
ATOM      3  C   UNL     1      98.895   1.994  25.471  1.00  0.00     0.006 C 
BRANCH   3   4
ATOM      4  C   UNL     1      98.280   2.686  24.247  1.00  0.00     0.053 C 
BRANCH   4   5
ATOM      5  C   UNL     1      96.783   2.632  24.271  1.00  0.00     0.041 C 
ATOM      6  O   UNL     1      96.127   3.491  24.917  1.00  0.00    -0.550 OA
ATOM      7  O   UNL     1      96.114   1.615  23.602  1.00  0.00    -0.550 OA
ENDBRANCH   4   5
ENDBRANCH   3   4
ENDBRANCH   2   3
ENDBRANCH   1   2
BRANCH   1   8
ATOM      8  C   UNL     1     101.330   0.246  23.304  1.00  0.00     0.000 C 
BRANCH   8   9
ATOM      9  C   UNL     1     102.178   1.512  23.474  1.00  0.00    -0.000 C 
BRANCH   9  10
ATOM     10  C   UNL     1     103.423   1.230  24.326  1.00  0.00    -0.000 C 
BRANCH  10  11
ATOM     11  C   UNL     1     103.609   2.251  25.460  1.00  0.00    -0.000 C 
BRANCH  11  12
ATOM     12  C   UNL     1     102.415   3.208  25.595  1.00  0.00    -0.003 C 
ATOM     13  C   UNL     1     101.978   3.340  27.051  1.00  0.00     0.004 C 
ENDBRANCH  11  12
ENDBRANCH  10  11
ENDBRANCH   9  10
ENDBRANCH   8   9
ENDBRANCH   1   8
TORSDOF 9
ENDMDL
