MODEL 1
REMARK VINA RESULT:    -3.704      0.000      0.000
REMARK INTER + INTRA:          -5.369
REMARK INTER:                  -5.003
REMARK INTRA:                  -0.366
REMARK UNBOUND:                -0.366
REMARK SMILES CCCCCCC=CC(=O)[O-]
REMARK SMILES IDX 5 1 6 2 7 3 8 4 9 5 10 6 11 7 4 8 3 9 2 10 1 11
REMARK H PARENT
REMARK Flexibility Score: inf
ROOT
ATOM      1  C   UNL     1       3.168  -7.444   6.580  1.00  0.00     0.004 C 
ENDROOT
BRANCH   1   2
ATOM      2  C   UNL     1       3.231  -8.940   6.245  1.00  0.00     0.027 C 
BRANCH   2   3
ATOM      3  C   UNL     1       2.366  -9.278   5.063  1.00  0.00    -0.025 C 
ATOM      4  C   UNL     1       2.881  -9.450   3.843  1.00  0.00     0.020 C 
BRANCH   4   5
ATOM      5  C   UNL     1       2.039  -9.747   2.675  1.00  0.00     0.064 C 
ATOM      6  O   UNL     1       2.530 -10.369   1.697  1.00  0.00    -0.545 OA
ATOM      7  O   UNL     1       0.707  -9.351   2.634  1.00  0.00    -0.545 OA
ENDBRANCH   4   5
ENDBRANCH   2   3
ENDBRANCH   1   2
BRANCH   1   8
ATOM      8  C   UNL     1       4.545  -6.877   6.961  1.00  0.00     0.000 C 
BRANCH   8   9
ATOM      9  C   UNL     1       5.505  -7.999   7.374  1.00  0.00    -0.000 C 
BRANCH   9  10
ATOM     10  C   UNL     1       6.907  -7.762   6.799  1.00  0.00    -0.003 C 
ATOM     11  C   UNL     1       7.199  -6.271   6.657  1.00  0.00     0.004 C 
ENDBRANCH   9  10
ENDBRANCH   8   9
ENDBRANCH   1   8
TORSDOF 6
ENDMDL
MODEL 2
REMARK VINA RESULT:    -3.652      1.707      2.895
REMARK INTER + INTRA:          -5.299
REMARK INTER:                  -4.837
REMARK INTRA:                  -0.462
REMARK UNBOUND:                -0.366
REMARK SMILES CCCCCCC=CC(=O)[O-]
REMARK SMILES IDX 5 1 6 2 7 3 8 4 9 5 10 6 11 7 4 8 3 9 2 10 1 11
REMARK H PARENT
REMARK Flexibility Score: inf
ROOT
ATOM      1  C   UNL     1       6.436  -7.230   6.802  1.00  0.00     0.004 C 
ENDROOT
BRANCH   1   2
ATOM      2  C   UNL     1       6.115  -7.849   5.436  1.00  0.00     0.027 C 
BRANCH   2   3
ATOM      3  C   UNL     1       4.692  -8.329   5.367  1.00  0.00    -0.025 C 
ATOM      4  C   UNL     1       4.091  -8.576   4.200  1.00  0.00     0.020 C 
BRANCH   4   5
ATOM      5  C   UNL     1       2.688  -9.012   4.121  1.00  0.00     0.064 C 
ATOM      6  O   UNL     1       2.084  -9.354   5.171  1.00  0.00    -0.545 OA
ATOM      7  O   UNL     1       2.019  -9.054   2.903  1.00  0.00    -0.545 OA
ENDBRANCH   4   5
ENDBRANCH   2   3
ENDBRANCH   1   2
BRANCH   1   8
ATOM      8  C   UNL     1       7.091  -5.846   6.671  1.00  0.00     0.000 C 
BRANCH   8   9
ATOM      9  C   UNL     1       6.273  -4.780   7.409  1.00  0.00    -0.000 C 
BRANCH   9  10
ATOM     10  C   UNL     1       4.942  -5.356   7.907  1.00  0.00    -0.003 C 
ATOM     11  C   UNL     1       3.757  -4.648   7.256  1.00  0.00     0.004 C 
ENDBRANCH   9  10
ENDBRANCH   8   9
ENDBRANCH   1   8
TORSDOF 6
ENDMDL
MODEL 3
REMARK VINA RESULT:    -3.600      1.559      2.302
REMARK INTER + INTRA:          -5.228
REMARK INTER:                  -4.728
REMARK INTRA:                  -0.500
REMARK UNBOUND:                -0.366
REMARK SMILES CCCCCCC=CC(=O)[O-]
REMARK SMILES IDX 5 1 6 2 7 3 8 4 9 5 10 6 11 7 4 8 3 9 2 10 1 11
REMARK H PARENT
REMARK Flexibility Score: inf
ROOT
ATOM      1  C   UNL     1       4.829  -7.246   8.043  1.00  0.00     0.004 C 
ENDROOT
BRANCH   1   2
ATOM      2  C   UNL     1       3.481  -7.600   7.402  1.00  0.00     0.027 C 
BRANCH   2   3
ATOM      3  C   UNL     1       3.607  -7.785   5.916  1.00  0.00    -0.025 C 
ATOM      4  C   UNL     1       2.984  -8.780   5.278  1.00  0.00     0.020 C 
BRANCH   4   5
ATOM      5  C   UNL     1       3.129  -8.990   3.830  1.00  0.00     0.064 C 
ATOM      6  O   UNL     1       4.279  -9.019   3.318  1.00  0.00    -0.545 OA
ATOM      7  O   UNL     1       2.015  -9.156   3.015  1.00  0.00    -0.545 OA
ENDBRANCH   4   5
ENDBRANCH   2   3
ENDBRANCH   1   2
BRANCH   1   8
ATOM      8  C   UNL     1       6.008  -7.506   7.093  1.00  0.00     0.000 C 
BRANCH   8   9
ATOM      9  C   UNL     1       7.148  -8.230   7.819  1.00  0.00    -0.000 C 
BRANCH   9  10
ATOM     10  C   UNL     1       7.301  -9.667   7.306  1.00  0.00    -0.003 C 
ATOM     11  C   UNL     1       6.241 -10.583   7.913  1.00  0.00     0.004 C 
ENDBRANCH   9  10
ENDBRANCH   8   9
ENDBRANCH   1   8
TORSDOF 6
ENDMDL
MODEL 4
REMARK VINA RESULT:    -3.549      0.831      1.226
REMARK INTER + INTRA:          -5.160
REMARK INTER:                  -4.778
REMARK INTRA:                  -0.382
REMARK UNBOUND:                -0.366
REMARK SMILES CCCCCCC=CC(=O)[O-]
REMARK SMILES IDX 5 1 6 2 7 3 8 4 9 5 10 6 11 7 4 8 3 9 2 10 1 11
REMARK H PARENT
REMARK Flexibility Score: inf
ROOT
ATOM      1  C   UNL     1       4.450  -9.434   7.085  1.00  0.00     0.004 C 
ENDROOT
BRANCH   1   2
ATOM      2  C   UNL     1       3.335  -8.574   6.476  1.00  0.00     0.027 C 
BRANCH   2   3
ATOM      3  C   UNL     1       2.645  -9.283   5.344  1.00  0.00    -0.025 C 
ATOM      4  C   UNL     1       2.814  -8.906   4.074  1.00  0.00     0.020 C 
BRANCH   4   5
ATOM      5  C   UNL     1       2.116  -9.572   2.963  1.00  0.00     0.064 C 
ATOM      6  O   UNL     1       2.767 -10.298   2.167  1.00  0.00    -0.545 OA
ATOM      7  O   UNL     1       0.748  -9.411   2.777  1.00  0.00    -0.545 OA
ENDBRANCH   4   5
ENDBRANCH   2   3
ENDBRANCH   1   2
BRANCH   1   8
ATOM      8  C   UNL     1       5.749  -8.639   7.289  1.00  0.00     0.000 C 
BRANCH   8   9
ATOM      9  C   UNL     1       5.951  -7.619   6.162  1.00  0.00    -0.000 C 
BRANCH   9  10
ATOM     10  C   UNL     1       7.048  -6.610   6.524  1.00  0.00    -0.003 C 
ATOM     11  C   UNL     1       6.467  -5.406   7.260  1.00  0.00     0.004 C 
ENDBRANCH   9  10
ENDBRANCH   8   9
ENDBRANCH   1   8
TORSDOF 6
ENDMDL
MODEL 5
REMARK VINA RESULT:    -3.535      3.964      5.739
REMARK INTER + INTRA:          -5.141
REMARK INTER:                  -4.626
REMARK INTRA:                  -0.515
REMARK UNBOUND:                -0.366
REMARK SMILES CCCCCCC=CC(=O)[O-]
REMARK SMILES IDX 5 1 6 2 7 3 8 4 9 5 10 6 11 7 4 8 3 9 2 10 1 11
REMARK H PARENT
REMARK Flexibility Score: inf
ROOT
ATOM      1  C   UNL     1       3.897  -8.287   7.544  1.00  0.00     0.004 C 
ENDROOT
BRANCH   1   2
ATOM      2  C   UNL     1       5.346  -8.714   7.272  1.00  0.00     0.027 C 
BRANCH   2   3
ATOM      3  C   UNL     1       6.185  -7.556   6.808  1.00  0.00    -0.025 C 
ATOM      4  C   UNL     1       6.214  -6.400   7.477  1.00  0.00     0.020 C 
BRANCH   4   5
ATOM      5  C   UNL     1       7.005  -5.250   7.012  1.00  0.00     0.064 C 
ATOM      6  O   UNL     1       6.416  -4.215   6.603  1.00  0.00    -0.545 OA
ATOM      7  O   UNL     1       8.395  -5.288   7.016  1.00  0.00    -0.545 OA
ENDBRANCH   4   5
ENDBRANCH   2   3
ENDBRANCH   1   2
BRANCH   1   8
ATOM      8  C   UNL     1       3.122  -8.010   6.247  1.00  0.00     0.000 C 
BRANCH   8   9
ATOM      9  C   UNL     1       2.638  -9.317   5.607  1.00  0.00    -0.000 C 
BRANCH   9  10
ATOM     10  C   UNL     1       2.942  -9.337   4.104  1.00  0.00    -0.003 C 
ATOM     11  C   UNL     1       4.233  -8.587   3.792  1.00  0.00     0.004 C 
ENDBRANCH   9  10
ENDBRANCH   8   9
ENDBRANCH   1   8
TORSDOF 6
ENDMDL
MODEL 6
REMARK VINA RESULT:    -3.471     10.767     12.364
REMARK INTER + INTRA:          -5.055
REMARK INTER:                  -4.468
REMARK INTRA:                  -0.587
REMARK UNBOUND:                -0.366
REMARK SMILES CCCCCCC=CC(=O)[O-]
REMARK SMILES IDX 5 1 6 2 7 3 8 4 9 5 10 6 11 7 4 8 3 9 2 10 1 11
REMARK H PARENT
REMARK Flexibility Score: inf
ROOT
ATOM      1  C   UNL     1      14.749 -10.972  -2.392  1.00  0.00     0.004 C 
ENDROOT
BRANCH   1   2
ATOM      2  C   UNL     1      14.025  -9.620  -2.366  1.00  0.00     0.027 C 
BRANCH   2   3
ATOM      3  C   UNL     1      14.159  -8.948  -1.028  1.00  0.00    -0.025 C 
ATOM      4  C   UNL     1      13.089  -8.565  -0.325  1.00  0.00     0.020 C 
BRANCH   4   5
ATOM      5  C   UNL     1      13.211  -7.876   0.968  1.00  0.00     0.064 C 
ATOM      6  O   UNL     1      13.266  -8.551   2.029  1.00  0.00    -0.545 OA
ATOM      7  O   UNL     1      13.265  -6.489   1.038  1.00  0.00    -0.545 OA
ENDBRANCH   4   5
ENDBRANCH   2   3
ENDBRANCH   1   2
BRANCH   1   8
ATOM      8  C   UNL     1      14.563 -11.755  -1.083  1.00  0.00     0.000 C 
BRANCH   8   9
ATOM      9  C   UNL     1      13.455 -12.804  -1.224  1.00  0.00    -0.000 C 
BRANCH   9  10
ATOM     10  C   UNL     1      12.548 -12.815   0.013  1.00  0.00    -0.003 C 
ATOM     11  C   UNL     1      11.448 -11.763  -0.100  1.00  0.00     0.004 C 
ENDBRANCH   9  10
ENDBRANCH   8   9
ENDBRANCH   1   8
TORSDOF 6
ENDMDL
MODEL 7
REMARK VINA RESULT:    -3.448     11.580     14.185
REMARK INTER + INTRA:          -5.024
REMARK INTER:                  -4.828
REMARK INTRA:                  -0.196
REMARK UNBOUND:                -0.366
REMARK SMILES CCCCCCC=CC(=O)[O-]
REMARK SMILES IDX 5 1 6 2 7 3 8 4 9 5 10 6 11 7 4 8 3 9 2 10 1 11
REMARK H PARENT
REMARK Flexibility Score: inf
ROOT
ATOM      1  C   UNL     1       1.557 -13.757  -7.911  1.00  0.00     0.004 C 
ENDROOT
BRANCH   1   2
ATOM      2  C   UNL     1       1.873 -13.929  -6.420  1.00  0.00     0.027 C 
BRANCH   2   3
ATOM      3  C   UNL     1       1.283 -12.817  -5.598  1.00  0.00    -0.025 C 
ATOM      4  C   UNL     1      -0.001 -12.467  -5.711  1.00  0.00     0.020 C 
BRANCH   4   5
ATOM      5  C   UNL     1      -0.579 -11.358  -4.937  1.00  0.00     0.064 C 
ATOM      6  O   UNL     1      -1.397 -10.575  -5.487  1.00  0.00    -0.545 OA
ATOM      7  O   UNL     1      -0.234 -11.159  -3.605  1.00  0.00    -0.545 OA
ENDBRANCH   4   5
ENDBRANCH   2   3
ENDBRANCH   1   2
BRANCH   1   8
ATOM      8  C   UNL     1       2.752 -14.125  -8.803  1.00  0.00     0.000 C 
BRANCH   8   9
ATOM      9  C   UNL     1       2.603 -13.514 -10.201  1.00  0.00    -0.000 C 
BRANCH   9  10
ATOM     10  C   UNL     1       3.872 -12.758 -10.609  1.00  0.00    -0.003 C 
ATOM     11  C   UNL     1       3.540 -11.563 -11.498  1.00  0.00     0.004 C 
ENDBRANCH   9  10
ENDBRANCH   8   9
ENDBRANCH   1   8
TORSDOF 6
ENDMDL
MODEL 8
REMARK VINA RESULT:    -3.441     11.298     12.639
REMARK INTER + INTRA:          -5.014
REMARK INTER:                  -4.722
REMARK INTRA:                  -0.291
REMARK UNBOUND:                -0.366
REMARK SMILES CCCCCCC=CC(=O)[O-]
REMARK SMILES IDX 5 1 6 2 7 3 8 4 9 5 10 6 11 7 4 8 3 9 2 10 1 11
REMARK H PARENT
REMARK Flexibility Score: inf
ROOT
ATOM      1  C   UNL     1      13.779 -12.878  -1.306  1.00  0.00     0.004 C 
ENDROOT
BRANCH   1   2
ATOM      2  C   UNL     1      12.548 -12.427  -0.509  1.00  0.00     0.027 C 
BRANCH   2   3
ATOM      3  C   UNL     1      12.493 -10.930  -0.377  1.00  0.00    -0.025 C 
ATOM      4  C   UNL     1      13.010 -10.300   0.682  1.00  0.00     0.020 C 
BRANCH   4   5
ATOM      5  C   UNL     1      12.930  -8.840   0.836  1.00  0.00     0.064 C 
ATOM      6  O   UNL     1      13.551  -8.280   1.777  1.00  0.00    -0.545 OA
ATOM      7  O   UNL     1      12.178  -8.067  -0.041  1.00  0.00    -0.545 OA
ENDBRANCH   4   5
ENDBRANCH   2   3
ENDBRANCH   1   2
BRANCH   1   8
ATOM      8  C   UNL     1      14.613 -11.688  -1.807  1.00  0.00     0.000 C 
BRANCH   8   9
ATOM      9  C   UNL     1      15.007 -11.874  -3.277  1.00  0.00    -0.000 C 
BRANCH   9  10
ATOM     10  C   UNL     1      15.125 -10.522  -3.989  1.00  0.00    -0.003 C 
ATOM     11  C   UNL     1      14.518  -9.402  -3.149  1.00  0.00     0.004 C 
ENDBRANCH   9  10
ENDBRANCH   8   9
ENDBRANCH   1   8
TORSDOF 6
ENDMDL
MODEL 9
REMARK VINA RESULT:    -3.384     18.498     19.851
REMARK INTER + INTRA:          -4.936
REMARK INTER:                  -4.579
REMARK INTRA:                  -0.357
REMARK UNBOUND:                -0.366
REMARK SMILES CCCCCCC=CC(=O)[O-]
REMARK SMILES IDX 5 1 6 2 7 3 8 4 9 5 10 6 11 7 4 8 3 9 2 10 1 11
REMARK H PARENT
REMARK Flexibility Score: inf
ROOT
ATOM      1  C   UNL     1      14.006   1.721  -8.704  1.00  0.00     0.004 C 
ENDROOT
BRANCH   1   2
ATOM      2  C   UNL     1      13.865   3.248  -8.707  1.00  0.00     0.027 C 
BRANCH   2   3
ATOM      3  C   UNL     1      12.423   3.670  -8.655  1.00  0.00    -0.025 C 
ATOM      4  C   UNL     1      11.504   2.946  -8.012  1.00  0.00     0.020 C 
BRANCH   4   5
ATOM      5  C   UNL     1      10.085   3.332  -7.984  1.00  0.00     0.064 C 
ATOM      6  O   UNL     1       9.220   2.494  -7.619  1.00  0.00    -0.545 OA
ATOM      7  O   UNL     1       9.683   4.610  -8.356  1.00  0.00    -0.545 OA
ENDBRANCH   4   5
ENDBRANCH   2   3
ENDBRANCH   1   2
BRANCH   1   8
ATOM      8  C   UNL     1      14.645   1.195  -9.999  1.00  0.00     0.000 C 
BRANCH   8   9
ATOM      9  C   UNL     1      14.713  -0.337  -9.994  1.00  0.00    -0.000 C 
BRANCH   9  10
ATOM     10  C   UNL     1      13.896  -0.919  -8.834  1.00  0.00    -0.003 C 
ATOM     11  C   UNL     1      12.989  -2.050  -9.312  1.00  0.00     0.004 C 
ENDBRANCH   9  10
ENDBRANCH   8   9
ENDBRANCH   1   8
TORSDOF 6
ENDMDL
