MODEL 1
REMARK VINA RESULT:    60.723      0.000      0.000
REMARK INTER + INTRA:          85.841
REMARK INTER:                  85.573
REMARK INTRA:                   0.268
REMARK UNBOUND:                 0.268
REMARK SMILES COc1c(O[C@H]2O[C@H](C(=O)[O-])[C@H](O)[C@@H](O)[C@@H]2O)cc(O)c2c(=O)cc(-c3ccccc3)oc12
REMARK SMILES IDX 5 1 6 2 8 3 12 4 7 5 14 6 16 7 9 8 10 9 11 10 13 11 15 13
REMARK SMILES IDX 17 15 4 17 3 18 18 19 33 20 19 21 21 22 32 23 22 24 25 25
REMARK SMILES IDX 24 26 23 27 2 28 1 29 20 30 26 32 27 33 31 34 28 35 30 36
REMARK SMILES IDX 29 37
REMARK H PARENT 13 12 15 14 17 16 20 31
REMARK Flexibility Score: inf
ROOT
ATOM      1  O   UNL     1     -21.998 -15.190  -4.367  1.00  0.00    -0.458 OA
ENDROOT
BRANCH   1   2
ATOM      2  C   UNL     1     -22.023 -15.373  -2.948  1.00  0.00     0.339 C 
ATOM      3  C   UNL     1     -23.967 -16.690  -3.030  1.00  0.00     0.199 C 
ATOM      4  C   UNL     1     -23.234 -17.972  -2.577  1.00  0.00     0.180 C 
ATOM      5  O   UNL     1     -23.351 -15.540  -2.469  1.00  0.00    -0.328 OA
ATOM      6  C   UNL     1     -21.746 -17.897  -2.986  1.00  0.00     0.181 C 
ATOM      7  C   UNL     1     -21.125 -16.557  -2.542  1.00  0.00     0.214 C 
BRANCH   3   8
ATOM      8  C   UNL     1     -25.420 -16.719  -2.622  1.00  0.00     0.073 C 
ATOM      9  O   UNL     1     -26.027 -15.646  -2.356  1.00  0.00    -0.547 OA
ATOM     10  O   UNL     1     -26.125 -17.919  -2.615  1.00  0.00    -0.547 OA
ENDBRANCH   3   8
BRANCH   4  11
ATOM     11  O   UNL     1     -23.343 -18.113  -1.182  1.00  0.00    -0.387 OA
ATOM     12  H   UNL     1     -24.059 -18.780  -1.018  1.00  0.00     0.211 HD
ENDBRANCH   4  11
BRANCH   6  13
ATOM     13  O   UNL     1     -21.621 -18.029  -4.381  1.00  0.00    -0.387 OA
ATOM     14  H   UNL     1     -22.523 -17.885  -4.766  1.00  0.00     0.211 HD
ENDBRANCH   6  13
BRANCH   7  15
ATOM     15  O   UNL     1     -20.952 -16.540  -1.148  1.00  0.00    -0.384 OA
ATOM     16  H   UNL     1     -20.047 -16.168  -0.975  1.00  0.00     0.211 HD
ENDBRANCH   7  15
ENDBRANCH   1   2
BRANCH   1  17
ATOM     17  C   UNL     1     -21.074 -14.397  -5.068  1.00  0.00     0.172 A 
ATOM     18  C   UNL     1     -20.266 -15.022  -6.027  1.00  0.00     0.205 A 
ATOM     19  C   UNL     1     -20.955 -13.016  -4.840  1.00  0.00     0.097 A 
ATOM     20  C   UNL     1     -19.332 -14.253  -6.767  1.00  0.00     0.188 A 
ATOM     21  C   UNL     1     -20.043 -12.246  -5.563  1.00  0.00     0.134 A 
ATOM     22  C   UNL     1     -19.219 -12.857  -6.533  1.00  0.00     0.111 A 
ATOM     23  O   UNL     1     -18.555 -14.832  -7.682  1.00  0.00    -0.452 OA
ATOM     24  C   UNL     1     -18.276 -12.134  -7.292  1.00  0.00     0.197 A 
ATOM     25  C   UNL     1     -17.649 -14.180  -8.406  1.00  0.00     0.138 A 
ATOM     26  C   UNL     1     -17.490 -12.799  -8.230  1.00  0.00     0.100 A 
ATOM     27  O   UNL     1     -18.124 -10.892  -7.144  1.00  0.00    -0.289 OA
BRANCH  18  28
ATOM     28  O   UNL     1     -20.451 -16.408  -6.199  1.00  0.00    -0.490 OA
ATOM     29  C   UNL     1     -21.677 -17.068  -6.483  1.00  0.00     0.278 C 
ENDBRANCH  18  28
BRANCH  21  30
ATOM     30  O   UNL     1     -19.963 -10.875  -5.317  1.00  0.00    -0.507 OA
ATOM     31  H   UNL     1     -20.091 -10.489  -4.387  1.00  0.00     0.293 HD
ENDBRANCH  21  30
BRANCH  25  32
ATOM     32  C   UNL     1     -16.833 -14.936  -9.391  1.00  0.00     0.017 A 
ATOM     33  C   UNL     1     -15.582 -14.463  -9.833  1.00  0.00     0.012 A 
ATOM     34  C   UNL     1     -17.301 -16.168  -9.884  1.00  0.00     0.012 A 
ATOM     35  C   UNL     1     -14.830 -15.197 -10.756  1.00  0.00     0.001 A 
ATOM     36  C   UNL     1     -16.545 -16.899 -10.804  1.00  0.00     0.001 A 
ATOM     37  C   UNL     1     -15.312 -16.413 -11.242  1.00  0.00     0.000 A 
ENDBRANCH  25  32
ENDBRANCH   1  17
TORSDOF 9
ENDMDL
MODEL 2
REMARK VINA RESULT:    60.879      2.676      8.431
REMARK INTER + INTRA:          86.061
REMARK INTER:                  86.224
REMARK INTRA:                  -0.163
REMARK UNBOUND:                 0.268
REMARK SMILES COc1c(O[C@H]2O[C@H](C(=O)[O-])[C@H](O)[C@@H](O)[C@@H]2O)cc(O)c2c(=O)cc(-c3ccccc3)oc12
REMARK SMILES IDX 5 1 6 2 8 3 12 4 7 5 14 6 16 7 9 8 10 9 11 10 13 11 15 13
REMARK SMILES IDX 17 15 4 17 3 18 18 19 33 20 19 21 21 22 32 23 22 24 25 25
REMARK SMILES IDX 24 26 23 27 2 28 1 29 20 30 26 32 27 33 31 34 28 35 30 36
REMARK SMILES IDX 29 37
REMARK H PARENT 13 12 15 14 17 16 20 31
REMARK Flexibility Score: inf
ROOT
ATOM      1  O   UNL     1     -17.048 -14.331  -9.418  1.00  0.00    -0.458 OA
ENDROOT
BRANCH   1   2
ATOM      2  C   UNL     1     -15.729 -14.866  -9.271  1.00  0.00     0.339 C 
ATOM      3  C   UNL     1     -16.237 -16.789 -10.521  1.00  0.00     0.199 C 
ATOM      4  C   UNL     1     -15.300 -16.399 -11.685  1.00  0.00     0.180 C 
ATOM      5  O   UNL     1     -15.739 -16.287  -9.289  1.00  0.00    -0.328 OA
ATOM      6  C   UNL     1     -15.149 -14.862 -11.744  1.00  0.00     0.181 C 
ATOM      7  C   UNL     1     -14.794 -14.295 -10.354  1.00  0.00     0.214 C 
BRANCH   3   8
ATOM      8  C   UNL     1     -16.385 -18.288 -10.418  1.00  0.00     0.073 C 
ATOM      9  O   UNL     1     -17.526 -18.820 -10.496  1.00  0.00    -0.547 OA
ATOM     10  O   UNL     1     -15.261 -19.100 -10.319  1.00  0.00    -0.547 OA
ENDBRANCH   3   8
BRANCH   4  11
ATOM     11  O   UNL     1     -14.041 -16.999 -11.501  1.00  0.00    -0.387 OA
ATOM     12  H   UNL     1     -13.383 -16.434 -11.982  1.00  0.00     0.211 HD
ENDBRANCH   4  11
BRANCH   6  13
ATOM     13  O   UNL     1     -16.345 -14.276 -12.194  1.00  0.00    -0.387 OA
ATOM     14  H   UNL     1     -17.082 -14.687 -11.671  1.00  0.00     0.211 HD
ENDBRANCH   6  13
BRANCH   7  15
ATOM     15  O   UNL     1     -13.466 -14.615 -10.024  1.00  0.00    -0.384 OA
ATOM     16  H   UNL     1     -12.893 -13.905 -10.419  1.00  0.00     0.211 HD
ENDBRANCH   7  15
ENDBRANCH   1   2
BRANCH   1  17
ATOM     17  C   UNL     1     -17.887 -13.936  -8.362  1.00  0.00     0.172 A 
ATOM     18  C   UNL     1     -18.579 -14.935  -7.663  1.00  0.00     0.205 A 
ATOM     19  C   UNL     1     -18.035 -12.589  -7.993  1.00  0.00     0.097 A 
ATOM     20  C   UNL     1     -19.423 -14.578  -6.582  1.00  0.00     0.188 A 
ATOM     21  C   UNL     1     -18.860 -12.224  -6.928  1.00  0.00     0.134 A 
ATOM     22  C   UNL     1     -19.565 -13.215  -6.213  1.00  0.00     0.111 A 
ATOM     23  O   UNL     1     -20.088 -15.516  -5.908  1.00  0.00    -0.452 OA
ATOM     24  C   UNL     1     -20.416 -12.909  -5.130  1.00  0.00     0.197 A 
ATOM     25  C   UNL     1     -20.906 -15.258  -4.891  1.00  0.00     0.138 A 
ATOM     26  C   UNL     1     -21.087 -13.934  -4.469  1.00  0.00     0.100 A 
ATOM     27  O   UNL     1     -20.587 -11.722  -4.742  1.00  0.00    -0.289 OA
BRANCH  18  28
ATOM     28  O   UNL     1     -18.372 -16.261  -8.093  1.00  0.00    -0.490 OA
ATOM     29  C   UNL     1     -19.170 -16.982  -9.023  1.00  0.00     0.278 C 
ENDBRANCH  18  28
BRANCH  21  30
ATOM     30  O   UNL     1     -18.970 -10.876  -6.584  1.00  0.00    -0.507 OA
ATOM     31  H   UNL     1     -18.401 -10.461  -5.853  1.00  0.00     0.293 HD
ENDBRANCH  21  30
BRANCH  25  32
ATOM     32  C   UNL     1     -21.602 -16.388  -4.221  1.00  0.00     0.017 A 
ATOM     33  C   UNL     1     -21.121 -17.709  -4.312  1.00  0.00     0.012 A 
ATOM     34  C   UNL     1     -22.754 -16.140  -3.453  1.00  0.00     0.012 A 
ATOM     35  C   UNL     1     -21.790 -18.754  -3.665  1.00  0.00     0.001 A 
ATOM     36  C   UNL     1     -23.418 -17.187  -2.807  1.00  0.00     0.001 A 
ATOM     37  C   UNL     1     -22.938 -18.493  -2.915  1.00  0.00     0.000 A 
ENDBRANCH  25  32
ENDBRANCH   1  17
TORSDOF 9
ENDMDL
