MODEL 1
REMARK VINA RESULT:    -3.251      0.000      0.000
REMARK INTER + INTRA:          -3.845
REMARK INTER:                  -3.631
REMARK INTRA:                  -0.214
REMARK UNBOUND:                -0.214
REMARK SMILES CC(C)c1ccc(C(=O)[O-])cc1
REMARK SMILES IDX 7 1 6 2 11 3 5 4 12 5 4 6 8 7 9 8 10 9 2 10 1 11 3 12
REMARK H PARENT
REMARK Flexibility Score: inf
ROOT
ATOM      1  C   UNL     1      20.619   8.067   6.545  1.00  0.00    -0.003 A 
ATOM      2  C   UNL     1      21.763   7.942   5.741  1.00  0.00     0.010 A 
ATOM      3  C   UNL     1      20.193   6.960   7.299  1.00  0.00     0.010 A 
ATOM      4  C   UNL     1      22.467   6.736   5.688  1.00  0.00     0.004 A 
ATOM      5  C   UNL     1      20.896   5.753   7.248  1.00  0.00     0.004 A 
ATOM      6  C   UNL     1      22.043   5.628   6.441  1.00  0.00    -0.045 A 
ENDROOT
BRANCH   1   7
ATOM      7  C   UNL     1      19.877   9.346   6.598  1.00  0.00     0.071 C 
ATOM      8  O   UNL     1      18.657   9.392   6.289  1.00  0.00    -0.545 OA
ATOM      9  O   UNL     1      20.517  10.516   6.988  1.00  0.00    -0.545 OA
ENDBRANCH   1   7
BRANCH   6  10
ATOM     10  C   UNL     1      22.816   4.324   6.376  1.00  0.00     0.013 C 
ATOM     11  C   UNL     1      21.940   3.140   6.801  1.00  0.00     0.012 C 
ATOM     12  C   UNL     1      23.405   4.101   4.977  1.00  0.00     0.012 C 
ENDBRANCH   6  10
TORSDOF 2
ENDMDL
MODEL 2
REMARK VINA RESULT:    -3.202      0.042      1.398
REMARK INTER + INTRA:          -3.791
REMARK INTER:                  -3.577
REMARK INTRA:                  -0.214
REMARK UNBOUND:                -0.214
REMARK SMILES CC(C)c1ccc(C(=O)[O-])cc1
REMARK SMILES IDX 7 1 6 2 11 3 5 4 12 5 4 6 8 7 9 8 10 9 2 10 1 11 3 12
REMARK H PARENT
REMARK Flexibility Score: inf
ROOT
ATOM      1  C   UNL     1      20.643   8.074   6.531  1.00  0.00    -0.003 A 
ATOM      2  C   UNL     1      20.213   6.966   7.278  1.00  0.00     0.010 A 
ATOM      3  C   UNL     1      21.791   7.951   5.729  1.00  0.00     0.010 A 
ATOM      4  C   UNL     1      20.916   5.759   7.228  1.00  0.00     0.004 A 
ATOM      5  C   UNL     1      22.494   6.743   5.677  1.00  0.00     0.004 A 
ATOM      6  C   UNL     1      22.064   5.633   6.428  1.00  0.00    -0.045 A 
ENDROOT
BRANCH   1   7
ATOM      7  C   UNL     1      19.896   9.350   6.587  1.00  0.00     0.071 C 
ATOM      8  O   UNL     1      18.696   9.407   6.208  1.00  0.00    -0.545 OA
ATOM      9  O   UNL     1      20.509  10.505   7.058  1.00  0.00    -0.545 OA
ENDBRANCH   1   7
BRANCH   6  10
ATOM     10  C   UNL     1      22.817   4.317   6.382  1.00  0.00     0.013 C 
ATOM     11  C   UNL     1      21.913   3.148   6.791  1.00  0.00     0.012 C 
ATOM     12  C   UNL     1      23.431   4.080   4.997  1.00  0.00     0.012 C 
ENDBRANCH   6  10
TORSDOF 2
ENDMDL
MODEL 3
REMARK VINA RESULT:    -2.705      2.989      5.079
REMARK INTER + INTRA:          -3.236
REMARK INTER:                  -3.024
REMARK INTRA:                  -0.211
REMARK UNBOUND:                -0.214
REMARK SMILES CC(C)c1ccc(C(=O)[O-])cc1
REMARK SMILES IDX 7 1 6 2 11 3 5 4 12 5 4 6 8 7 9 8 10 9 2 10 1 11 3 12
REMARK H PARENT
REMARK Flexibility Score: inf
ROOT
ATOM      1  C   UNL     1      21.785   5.565   6.454  1.00  0.00    -0.003 A 
ATOM      2  C   UNL     1      22.084   6.633   5.593  1.00  0.00     0.010 A 
ATOM      3  C   UNL     1      20.822   5.752   7.461  1.00  0.00     0.010 A 
ATOM      4  C   UNL     1      21.437   7.864   5.735  1.00  0.00     0.004 A 
ATOM      5  C   UNL     1      20.174   6.983   7.603  1.00  0.00     0.004 A 
ATOM      6  C   UNL     1      20.475   8.053   6.741  1.00  0.00    -0.045 A 
ENDROOT
BRANCH   1   7
ATOM      7  C   UNL     1      22.472   4.264   6.300  1.00  0.00     0.071 C 
ATOM      8  O   UNL     1      23.498   4.164   5.576  1.00  0.00    -0.545 OA
ATOM      9  O   UNL     1      21.994   3.134   6.951  1.00  0.00    -0.545 OA
ENDBRANCH   1   7
BRANCH   6  10
ATOM     10  C   UNL     1      19.779   9.394   6.884  1.00  0.00     0.013 C 
ATOM     11  C   UNL     1      20.771  10.552   6.720  1.00  0.00     0.012 C 
ATOM     12  C   UNL     1      18.616   9.521   5.893  1.00  0.00     0.012 C 
ENDBRANCH   6  10
TORSDOF 2
ENDMDL
MODEL 4
REMARK VINA RESULT:    -2.633      2.688      4.227
REMARK INTER + INTRA:          -3.156
REMARK INTER:                  -2.952
REMARK INTRA:                  -0.203
REMARK UNBOUND:                -0.214
REMARK SMILES CC(C)c1ccc(C(=O)[O-])cc1
REMARK SMILES IDX 7 1 6 2 11 3 5 4 12 5 4 6 8 7 9 8 10 9 2 10 1 11 3 12
REMARK H PARENT
REMARK Flexibility Score: inf
ROOT
ATOM      1  C   UNL     1      19.137  11.699   6.176  1.00  0.00    -0.003 A 
ATOM      2  C   UNL     1      20.412  11.362   6.656  1.00  0.00     0.010 A 
ATOM      3  C   UNL     1      18.245  10.669   5.830  1.00  0.00     0.010 A 
ATOM      4  C   UNL     1      20.792  10.023   6.787  1.00  0.00     0.004 A 
ATOM      5  C   UNL     1      18.623   9.329   5.961  1.00  0.00     0.004 A 
ATOM      6  C   UNL     1      19.903   8.992   6.442  1.00  0.00    -0.045 A 
ENDROOT
BRANCH   1   7
ATOM      7  C   UNL     1      18.740  13.118   6.039  1.00  0.00     0.071 C 
ATOM      8  O   UNL     1      18.627  13.644   4.900  1.00  0.00    -0.545 OA
ATOM      9  O   UNL     1      18.487  13.890   7.166  1.00  0.00    -0.545 OA
ENDBRANCH   1   7
BRANCH   6  10
ATOM     10  C   UNL     1      20.326   7.542   6.590  1.00  0.00     0.013 C 
ATOM     11  C   UNL     1      21.736   7.319   6.030  1.00  0.00     0.012 C 
ATOM     12  C   UNL     1      20.234   7.086   8.051  1.00  0.00     0.012 C 
ENDBRANCH   6  10
TORSDOF 2
ENDMDL
MODEL 5
REMARK VINA RESULT:    -1.787      3.119      5.216
REMARK INTER + INTRA:          -2.210
REMARK INTER:                  -2.000
REMARK INTRA:                  -0.210
REMARK UNBOUND:                -0.214
REMARK SMILES CC(C)c1ccc(C(=O)[O-])cc1
REMARK SMILES IDX 7 1 6 2 11 3 5 4 12 5 4 6 8 7 9 8 10 9 2 10 1 11 3 12
REMARK H PARENT
REMARK Flexibility Score: inf
ROOT
ATOM      1  C   UNL     1      22.001   5.297   6.286  1.00  0.00    -0.003 A 
ATOM      2  C   UNL     1      20.850   5.596   7.033  1.00  0.00     0.010 A 
ATOM      3  C   UNL     1      22.667   6.337   5.614  1.00  0.00     0.010 A 
ATOM      4  C   UNL     1      20.372   6.908   7.107  1.00  0.00     0.004 A 
ATOM      5  C   UNL     1      22.190   7.649   5.688  1.00  0.00     0.004 A 
ATOM      6  C   UNL     1      21.036   7.949   6.436  1.00  0.00    -0.045 A 
ENDROOT
BRANCH   1   7
ATOM      7  C   UNL     1      22.503   3.907   6.210  1.00  0.00     0.071 C 
ATOM      8  O   UNL     1      22.176   3.060   7.082  1.00  0.00    -0.545 OA
ATOM      9  O   UNL     1      23.345   3.518   5.175  1.00  0.00    -0.545 OA
ENDBRANCH   1   7
BRANCH   6  10
ATOM     10  C   UNL     1      20.507   9.368   6.526  1.00  0.00     0.013 C 
ATOM     11  C   UNL     1      18.999   9.415   6.254  1.00  0.00     0.012 C 
ATOM     12  C   UNL     1      20.842   9.998   7.883  1.00  0.00     0.012 C 
ENDBRANCH   6  10
TORSDOF 2
ENDMDL
MODEL 6
REMARK VINA RESULT:    -1.706      3.040      6.418
REMARK INTER + INTRA:          -2.120
REMARK INTER:                  -1.915
REMARK INTRA:                  -0.205
REMARK UNBOUND:                -0.214
REMARK SMILES CC(C)c1ccc(C(=O)[O-])cc1
REMARK SMILES IDX 7 1 6 2 11 3 5 4 12 5 4 6 8 7 9 8 10 9 2 10 1 11 3 12
REMARK H PARENT
REMARK Flexibility Score: inf
ROOT
ATOM      1  C   UNL     1      20.015   9.052   6.604  1.00  0.00    -0.003 A 
ATOM      2  C   UNL     1      18.733   9.361   6.121  1.00  0.00     0.010 A 
ATOM      3  C   UNL     1      20.923  10.099   6.841  1.00  0.00     0.010 A 
ATOM      4  C   UNL     1      18.366  10.688   5.878  1.00  0.00     0.004 A 
ATOM      5  C   UNL     1      20.556  11.426   6.599  1.00  0.00     0.004 A 
ATOM      6  C   UNL     1      19.272  11.735   6.113  1.00  0.00    -0.045 A 
ENDROOT
BRANCH   1   7
ATOM      7  C   UNL     1      20.399   7.647   6.860  1.00  0.00     0.071 C 
ATOM      8  O   UNL     1      20.943   6.957   5.959  1.00  0.00    -0.545 OA
ATOM      9  O   UNL     1      20.162   7.068   8.101  1.00  0.00    -0.545 OA
ENDBRANCH   1   7
BRANCH   6  10
ATOM     10  C   UNL     1      18.860  13.171   5.846  1.00  0.00     0.013 C 
ATOM     11  C   UNL     1      17.876  13.671   6.910  1.00  0.00     0.012 C 
ATOM     12  C   UNL     1      20.086  14.088   5.753  1.00  0.00     0.012 C 
ENDBRANCH   6  10
TORSDOF 2
ENDMDL
