MODEL 1
REMARK VINA RESULT:    -4.727      0.000      0.000
REMARK INTER + INTRA:          -4.865
REMARK INTER:                  -4.865
REMARK INTRA:                   0.000
REMARK UNBOUND:                 0.000
REMARK SMILES Nc1ncnc2nc[nH]c12
REMARK SMILES IDX 8 1 7 2 6 3 5 4 4 5 3 6 2 7 10 8 9 9 1 11
REMARK H PARENT 9 10 1 12 1 13
REMARK Flexibility Score: inf
ROOT
ATOM      1  C   UNL     1      31.770  49.027  65.972  1.00  0.00     0.199 A 
ATOM      2  N   UNL     1      33.106  48.783  66.061  1.00  0.00    -0.217 NA
ATOM      3  C   UNL     1      33.352  49.011  67.362  1.00  0.00     0.182 A 
ATOM      4  N   UNL     1      34.549  48.910  67.988  1.00  0.00    -0.215 NA
ATOM      5  C   UNL     1      34.602  49.183  69.327  1.00  0.00     0.226 A 
ATOM      6  N   UNL     1      33.469  49.550  70.007  1.00  0.00    -0.217 NA
ATOM      7  C   UNL     1      32.261  49.654  69.377  1.00  0.00     0.152 A 
ATOM      8  C   UNL     1      32.223  49.372  68.015  1.00  0.00     0.127 A 
ATOM      9  N   UNL     1      31.201  49.389  67.150  1.00  0.00    -0.340 N 
ATOM     10  H   UNL     1      30.200  49.623  67.327  1.00  0.00     0.168 HD
ENDROOT
BRANCH   7  11
ATOM     11  N   UNL     1      31.095  50.037  70.108  1.00  0.00    -0.382 N 
ATOM     12  H   UNL     1      30.166  49.605  69.913  1.00  0.00     0.158 HD
ATOM     13  H   UNL     1      31.161  50.765  70.853  1.00  0.00     0.158 HD
ENDBRANCH   7  11
TORSDOF 1
ENDMDL
MODEL 2
REMARK VINA RESULT:    -4.610     16.454     17.680
REMARK INTER + INTRA:          -4.745
REMARK INTER:                  -4.745
REMARK INTRA:                   0.000
REMARK UNBOUND:                 0.000
REMARK SMILES Nc1ncnc2nc[nH]c12
REMARK SMILES IDX 8 1 7 2 6 3 5 4 4 5 3 6 2 7 10 8 9 9 1 11
REMARK H PARENT 9 10 1 12 1 13
REMARK Flexibility Score: inf
ROOT
ATOM      1  C   UNL     1      44.755  50.906  57.406  1.00  0.00     0.199 A 
ATOM      2  N   UNL     1      44.456  51.497  56.216  1.00  0.00    -0.217 NA
ATOM      3  C   UNL     1      45.127  52.657  56.299  1.00  0.00     0.182 A 
ATOM      4  N   UNL     1      45.168  53.635  55.362  1.00  0.00    -0.215 NA
ATOM      5  C   UNL     1      45.912  54.752  55.627  1.00  0.00     0.226 A 
ATOM      6  N   UNL     1      46.593  54.870  56.812  1.00  0.00    -0.217 NA
ATOM      7  C   UNL     1      46.552  53.885  57.758  1.00  0.00     0.152 A 
ATOM      8  C   UNL     1      45.792  52.755  57.473  1.00  0.00     0.127 A 
ATOM      9  N   UNL     1      45.570  51.649  58.196  1.00  0.00    -0.340 N 
ATOM     10  H   UNL     1      45.932  51.405  59.144  1.00  0.00     0.168 HD
ENDROOT
BRANCH   7  11
ATOM     11  N   UNL     1      47.271  54.029  58.984  1.00  0.00    -0.382 N 
ATOM     12  H   UNL     1      48.169  54.558  59.028  1.00  0.00     0.158 HD
ATOM     13  H   UNL     1      46.900  53.600  59.860  1.00  0.00     0.158 HD
ENDBRANCH   7  11
TORSDOF 1
ENDMDL
MODEL 3
REMARK VINA RESULT:    -4.566     16.584     17.752
REMARK INTER + INTRA:          -4.700
REMARK INTER:                  -4.700
REMARK INTRA:                   0.000
REMARK UNBOUND:                 0.000
REMARK SMILES Nc1ncnc2nc[nH]c12
REMARK SMILES IDX 8 1 7 2 6 3 5 4 4 5 3 6 2 7 10 8 9 9 1 11
REMARK H PARENT 9 10 1 12 1 13
REMARK Flexibility Score: inf
ROOT
ATOM      1  C   UNL     1      46.866  54.651  57.812  1.00  0.00     0.199 A 
ATOM      2  N   UNL     1      46.272  54.935  56.621  1.00  0.00    -0.217 NA
ATOM      3  C   UNL     1      45.638  53.785  56.338  1.00  0.00     0.182 A 
ATOM      4  N   UNL     1      44.884  53.526  55.243  1.00  0.00    -0.215 NA
ATOM      5  C   UNL     1      44.315  52.288  55.128  1.00  0.00     0.226 A 
ATOM      6  N   UNL     1      44.510  51.340  56.100  1.00  0.00    -0.217 NA
ATOM      7  C   UNL     1      45.271  51.599  57.205  1.00  0.00     0.152 A 
ATOM      8  C   UNL     1      45.843  52.863  57.307  1.00  0.00     0.127 A 
ATOM      9  N   UNL     1      46.623  53.393  58.258  1.00  0.00    -0.340 N 
ATOM     10  H   UNL     1      46.968  52.952  59.139  1.00  0.00     0.168 HD
ENDROOT
BRANCH   7  11
ATOM     11  N   UNL     1      45.460  50.595  58.204  1.00  0.00    -0.382 N 
ATOM     12  H   UNL     1      46.080  50.759  59.027  1.00  0.00     0.158 HD
ATOM     13  H   UNL     1      44.973  49.676  58.119  1.00  0.00     0.158 HD
ENDBRANCH   7  11
TORSDOF 1
ENDMDL
MODEL 4
REMARK VINA RESULT:    -4.538      9.944     11.706
REMARK INTER + INTRA:          -4.671
REMARK INTER:                  -4.671
REMARK INTRA:                   0.000
REMARK UNBOUND:                 0.000
REMARK SMILES Nc1ncnc2nc[nH]c12
REMARK SMILES IDX 8 1 7 2 6 3 5 4 4 5 3 6 2 7 10 8 9 9 1 11
REMARK H PARENT 9 10 1 12 1 13
REMARK Flexibility Score: inf
ROOT
ATOM      1  C   UNL     1      33.125  48.876  58.250  1.00  0.00     0.199 A 
ATOM      2  N   UNL     1      33.231  48.520  56.941  1.00  0.00    -0.217 NA
ATOM      3  C   UNL     1      34.189  49.351  56.497  1.00  0.00     0.182 A 
ATOM      4  N   UNL     1      34.683  49.414  55.237  1.00  0.00    -0.215 NA
ATOM      5  C   UNL     1      35.663  50.331  54.973  1.00  0.00     0.226 A 
ATOM      6  N   UNL     1      36.125  51.160  55.964  1.00  0.00    -0.217 NA
ATOM      7  C   UNL     1      35.627  51.098  57.235  1.00  0.00     0.152 A 
ATOM      8  C   UNL     1      34.631  50.159  57.487  1.00  0.00     0.127 A 
ATOM      9  N   UNL     1      33.967  49.875  58.615  1.00  0.00    -0.340 N 
ATOM     10  H   UNL     1      34.066  50.311  59.558  1.00  0.00     0.168 HD
ENDROOT
BRANCH   7  11
ATOM     11  N   UNL     1      36.125  51.971  58.250  1.00  0.00    -0.382 N 
ATOM     12  H   UNL     1      36.871  51.664  58.911  1.00  0.00     0.158 HD
ATOM     13  H   UNL     1      35.741  52.936  58.342  1.00  0.00     0.158 HD
ENDBRANCH   7  11
TORSDOF 1
ENDMDL
MODEL 5
REMARK VINA RESULT:    -4.529      0.862      3.470
REMARK INTER + INTRA:          -4.662
REMARK INTER:                  -4.662
REMARK INTRA:                   0.000
REMARK UNBOUND:                 0.000
REMARK SMILES Nc1ncnc2nc[nH]c12
REMARK SMILES IDX 8 1 7 2 6 3 5 4 4 5 3 6 2 7 10 8 9 9 1 11
REMARK H PARENT 9 10 1 12 1 13
REMARK Flexibility Score: inf
ROOT
ATOM      1  C   UNL     1      35.008  48.638  69.232  1.00  0.00     0.199 A 
ATOM      2  N   UNL     1      34.153  49.082  70.195  1.00  0.00    -0.217 NA
ATOM      3  C   UNL     1      33.055  49.383  69.482  1.00  0.00     0.182 A 
ATOM      4  N   UNL     1      31.888  49.874  69.965  1.00  0.00    -0.215 NA
ATOM      5  C   UNL     1      30.875  50.119  69.080  1.00  0.00     0.226 A 
ATOM      6  N   UNL     1      31.046  49.872  67.742  1.00  0.00    -0.217 NA
ATOM      7  C   UNL     1      32.221  49.377  67.253  1.00  0.00     0.152 A 
ATOM      8  C   UNL     1      33.243  49.132  68.166  1.00  0.00     0.127 A 
ATOM      9  N   UNL     1      34.481  48.657  67.982  1.00  0.00    -0.340 N 
ATOM     10  H   UNL     1      34.943  48.365  67.093  1.00  0.00     0.168 HD
ENDROOT
BRANCH   7  11
ATOM     11  N   UNL     1      32.375  49.126  65.855  1.00  0.00    -0.382 N 
ATOM     12  H   UNL     1      31.695  48.533  65.331  1.00  0.00     0.158 HD
ATOM     13  H   UNL     1      33.182  49.539  65.336  1.00  0.00     0.158 HD
ENDBRANCH   7  11
TORSDOF 1
ENDMDL
MODEL 6
REMARK VINA RESULT:    -4.529     16.210     17.583
REMARK INTER + INTRA:          -4.662
REMARK INTER:                  -4.662
REMARK INTRA:                   0.000
REMARK UNBOUND:                 0.000
REMARK SMILES Nc1ncnc2nc[nH]c12
REMARK SMILES IDX 8 1 7 2 6 3 5 4 4 5 3 6 2 7 10 8 9 9 1 11
REMARK H PARENT 9 10 1 12 1 13
REMARK Flexibility Score: inf
ROOT
ATOM      1  C   UNL     1      41.515  42.233  57.387  1.00  0.00     0.199 A 
ATOM      2  N   UNL     1      42.140  42.067  56.188  1.00  0.00    -0.217 NA
ATOM      3  C   UNL     1      42.928  41.004  56.424  1.00  0.00     0.182 A 
ATOM      4  N   UNL     1      43.774  40.416  55.545  1.00  0.00    -0.215 NA
ATOM      5  C   UNL     1      44.498  39.336  55.970  1.00  0.00     0.226 A 
ATOM      6  N   UNL     1      44.364  38.870  57.253  1.00  0.00    -0.217 NA
ATOM      7  C   UNL     1      43.511  39.463  58.141  1.00  0.00     0.152 A 
ATOM      8  C   UNL     1      42.782  40.560  57.693  1.00  0.00     0.127 A 
ATOM      9  N   UNL     1      41.886  41.328  58.327  1.00  0.00    -0.340 N 
ATOM     10  H   UNL     1      41.545  41.257  59.310  1.00  0.00     0.168 HD
ENDROOT
BRANCH   7  11
ATOM     11  N   UNL     1      43.388  38.959  59.472  1.00  0.00    -0.382 N 
ATOM     12  H   UNL     1      43.397  37.935  59.668  1.00  0.00     0.158 HD
ATOM     13  H   UNL     1      43.285  39.620  60.273  1.00  0.00     0.158 HD
ENDBRANCH   7  11
TORSDOF 1
ENDMDL
MODEL 7
REMARK VINA RESULT:    -4.450     16.053     17.468
REMARK INTER + INTRA:          -4.580
REMARK INTER:                  -4.580
REMARK INTRA:                   0.000
REMARK UNBOUND:                 0.000
REMARK SMILES Nc1ncnc2nc[nH]c12
REMARK SMILES IDX 8 1 7 2 6 3 5 4 4 5 3 6 2 7 10 8 9 9 1 11
REMARK H PARENT 9 10 1 12 1 13
REMARK Flexibility Score: inf
ROOT
ATOM      1  C   UNL     1      44.071  38.936  57.869  1.00  0.00     0.199 A 
ATOM      2  N   UNL     1      44.430  39.321  56.613  1.00  0.00    -0.217 NA
ATOM      3  C   UNL     1      43.727  40.454  56.451  1.00  0.00     0.182 A 
ATOM      4  N   UNL     1      43.719  41.250  55.355  1.00  0.00    -0.215 NA
ATOM      5  C   UNL     1      42.935  42.370  55.376  1.00  0.00     0.226 A 
ATOM      6  N   UNL     1      42.179  42.669  56.481  1.00  0.00    -0.217 NA
ATOM      7  C   UNL     1      42.184  41.867  57.587  1.00  0.00     0.152 A 
ATOM      8  C   UNL     1      42.988  40.731  57.550  1.00  0.00     0.127 A 
ATOM      9  N   UNL     1      43.192  39.778  58.468  1.00  0.00    -0.340 N 
ATOM     10  H   UNL     1      42.778  39.691  59.422  1.00  0.00     0.168 HD
ENDROOT
BRANCH   7  11
ATOM     11  N   UNL     1      41.389  42.199  58.726  1.00  0.00    -0.382 N 
ATOM     12  H   UNL     1      41.626  41.841  59.677  1.00  0.00     0.158 HD
ATOM     13  H   UNL     1      40.551  42.811  58.617  1.00  0.00     0.158 HD
ENDBRANCH   7  11
TORSDOF 1
ENDMDL
MODEL 8
REMARK VINA RESULT:    -4.398     16.707     17.906
REMARK INTER + INTRA:          -4.526
REMARK INTER:                  -4.526
REMARK INTRA:                   0.000
REMARK UNBOUND:                 0.000
REMARK SMILES Nc1ncnc2nc[nH]c12
REMARK SMILES IDX 8 1 7 2 6 3 5 4 4 5 3 6 2 7 10 8 9 9 1 11
REMARK H PARENT 9 10 1 12 1 13
REMARK Flexibility Score: inf
ROOT
ATOM      1  C   UNL     1      45.497  54.114  55.826  1.00  0.00     0.199 A 
ATOM      2  N   UNL     1      46.118  53.363  54.875  1.00  0.00    -0.217 NA
ATOM      3  C   UNL     1      46.163  52.152  55.454  1.00  0.00     0.182 A 
ATOM      4  N   UNL     1      46.690  51.022  54.924  1.00  0.00    -0.215 NA
ATOM      5  C   UNL     1      46.643  49.876  55.668  1.00  0.00     0.226 A 
ATOM      6  N   UNL     1      46.076  49.881  56.918  1.00  0.00    -0.217 NA
ATOM      7  C   UNL     1      45.544  51.019  57.454  1.00  0.00     0.152 A 
ATOM      8  C   UNL     1      45.600  52.177  56.684  1.00  0.00     0.127 A 
ATOM      9  N   UNL     1      45.168  53.418  56.943  1.00  0.00    -0.340 N 
ATOM     10  H   UNL     1      44.689  53.777  57.798  1.00  0.00     0.168 HD
ENDROOT
BRANCH   7  11
ATOM     11  N   UNL     1      44.959  51.000  58.757  1.00  0.00    -0.382 N 
ATOM     12  H   UNL     1      45.483  50.637  59.583  1.00  0.00     0.158 HD
ATOM     13  H   UNL     1      43.987  51.353  58.898  1.00  0.00     0.158 HD
ENDBRANCH   7  11
TORSDOF 1
ENDMDL
MODEL 9
REMARK VINA RESULT:    -4.290      9.952     11.630
REMARK INTER + INTRA:          -4.415
REMARK INTER:                  -4.415
REMARK INTRA:                   0.000
REMARK UNBOUND:                 0.000
REMARK SMILES Nc1ncnc2nc[nH]c12
REMARK SMILES IDX 8 1 7 2 6 3 5 4 4 5 3 6 2 7 10 8 9 9 1 11
REMARK H PARENT 9 10 1 12 1 13
REMARK Flexibility Score: inf
ROOT
ATOM      1  C   UNL     1      35.768  49.663  58.619  1.00  0.00     0.199 A 
ATOM      2  N   UNL     1      36.256  49.444  57.367  1.00  0.00    -0.217 NA
ATOM      3  C   UNL     1      35.156  49.062  56.696  1.00  0.00     0.182 A 
ATOM      4  N   UNL     1      35.086  48.719  55.387  1.00  0.00    -0.215 NA
ATOM      5  C   UNL     1      33.870  48.356  54.879  1.00  0.00     0.226 A 
ATOM      6  N   UNL     1      32.757  48.342  55.681  1.00  0.00    -0.217 NA
ATOM      7  C   UNL     1      32.825  48.687  57.001  1.00  0.00     0.152 A 
ATOM      8  C   UNL     1      34.070  49.054  57.503  1.00  0.00     0.127 A 
ATOM      9  N   UNL     1      34.436  49.434  58.734  1.00  0.00    -0.340 N 
ATOM     10  H   UNL     1      33.845  49.535  59.589  1.00  0.00     0.168 HD
ENDROOT
BRANCH   7  11
ATOM     11  N   UNL     1      31.652  48.666  57.816  1.00  0.00    -0.382 N 
ATOM     12  H   UNL     1      31.714  48.691  58.857  1.00  0.00     0.158 HD
ATOM     13  H   UNL     1      30.709  48.622  57.372  1.00  0.00     0.158 HD
ENDBRANCH   7  11
TORSDOF 1
ENDMDL
