MODEL 1
REMARK VINA RESULT:    63.984      0.000      0.000
REMARK INTER + INTRA:          65.854
REMARK INTER:                  65.854
REMARK INTRA:                   0.000
REMARK UNBOUND:                 0.000
REMARK SMILES C[C@@H]1CC[C@@]2(OC1)O[C@H]1C[C@@H]3[C@H]4CC=C5C[C@H](O)CC[C@@]5(C)[C@@H]4CC[C@]3(C)[C@@H]1[C@@H]2C
REMARK SMILES IDX 1 1 2 2 3 3 4 4 5 5 29 6 28 7 9 8 8 9 10 10 11 11 26 12
REMARK SMILES IDX 25 13 24 14 23 15 12 16 13 17 14 18 15 19 21 20 20 21 19 22
REMARK SMILES IDX 17 23 16 24 22 25 27 26 30 27 6 28 7 29 18 30
REMARK H PARENT 18 31
REMARK Flexibility Score: inf
ROOT
ATOM      1  C   UNL     1      13.774   9.324  18.416  1.00  0.00     0.010 C 
ATOM      2  C   UNL     1      14.597   8.876  17.199  1.00  0.00     0.012 C 
ATOM      3  C   UNL     1      14.665   9.979  16.133  1.00  0.00     0.011 C 
ATOM      4  C   UNL     1      13.356  10.105  15.340  1.00  0.00     0.066 C 
ATOM      5  C   UNL     1      12.672   8.725  15.096  1.00  0.00     0.171 C 
ATOM      6  C   UNL     1      12.033   8.675  13.648  1.00  0.00     0.052 C 
ATOM      7  C   UNL     1      10.570   8.780  14.023  1.00  0.00     0.033 C 
ATOM      8  C   UNL     1      10.529   8.063  15.314  1.00  0.00     0.126 C 
ATOM      9  O   UNL     1      11.608   8.565  16.050  1.00  0.00    -0.346 OA
ATOM     10  C   UNL     1       9.122   8.339  15.833  1.00  0.00     0.037 C 
ATOM     11  C   UNL     1       8.273   8.617  14.544  1.00  0.00     0.002 C 
ATOM     12  C   UNL     1       9.248   8.399  13.324  1.00  0.00    -0.024 C 
ATOM     13  C   UNL     1       9.227   6.930  12.761  1.00  0.00     0.008 C 
ATOM     14  C   UNL     1       8.016   6.080  13.166  1.00  0.00     0.005 C 
ATOM     15  C   UNL     1       6.738   6.922  13.300  1.00  0.00     0.003 C 
ATOM     16  C   UNL     1       6.898   7.863  14.512  1.00  0.00     0.000 C 
ATOM     17  C   UNL     1       5.724   8.853  14.525  1.00  0.00     0.031 C 
ATOM     18  C   UNL     1       4.391   8.166  14.404  1.00  0.00    -0.027 C 
ATOM     19  C   UNL     1       4.223   6.967  13.804  1.00  0.00    -0.065 C 
ATOM     20  C   UNL     1       5.406   6.077  13.386  1.00  0.00    -0.008 C 
ATOM     21  C   UNL     1       5.093   5.481  11.976  1.00  0.00     0.014 C 
ATOM     22  C   UNL     1       3.684   4.875  11.855  1.00  0.00     0.033 C 
ATOM     23  C   UNL     1       2.603   5.900  12.221  1.00  0.00     0.118 C 
ATOM     24  C   UNL     1       2.815   6.425  13.642  1.00  0.00     0.063 C 
ATOM     25  C   UNL     1       5.537   4.921  14.417  1.00  0.00     0.016 C 
ATOM     26  C   UNL     1       8.968   9.407  12.185  1.00  0.00     0.012 C 
ATOM     27  C   UNL     1      12.435   7.437  12.830  1.00  0.00     0.014 C 
ATOM     28  O   UNL     1      13.628   7.681  15.247  1.00  0.00    -0.349 OA
ATOM     29  C   UNL     1      14.060   7.551  16.593  1.00  0.00     0.167 C 
ENDROOT
BRANCH  23  30
ATOM     30  O   UNL     1       1.336   5.300  12.138  1.00  0.00    -0.393 OA
ATOM     31  H   UNL     1       1.140   4.918  13.033  1.00  0.00     0.210 HD
ENDBRANCH  23  30
TORSDOF 1
ENDMDL
