MODEL 1
REMARK VINA RESULT:    19.699      0.000      0.000
REMARK INTER + INTRA:          34.879
REMARK INTER:                  35.821
REMARK INTRA:                  -0.942
REMARK UNBOUND:                -0.942
REMARK SMILES CCCCCC=CCC=CCCCCCCCC(=O)[O-]
REMARK SMILES IDX 11 1 12 2 13 3 14 4 15 5 16 6 17 7 18 8 19 9 20 10 10 11
REMARK SMILES IDX 9 12 8 13 7 14 6 15 5 16 4 17 3 18 2 19 1 20
REMARK H PARENT
REMARK Flexibility Score: inf
ROOT
ATOM      1  C   UNL     1       6.400 -13.002 -19.257  1.00  0.00     0.027 C 
ENDROOT
BRANCH   1   2
ATOM      2  C   UNL     1       6.965 -13.550 -17.938  1.00  0.00     0.004 C 
BRANCH   2   3
ATOM      3  C   UNL     1       7.669 -12.455 -17.106  1.00  0.00     0.000 C 
BRANCH   3   4
ATOM      4  C   UNL     1       8.449 -13.001 -15.890  1.00  0.00     0.000 C 
BRANCH   4   5
ATOM      5  C   UNL     1       9.979 -12.921 -16.015  1.00  0.00     0.000 C 
BRANCH   5   6
ATOM      6  C   UNL     1      10.549 -11.594 -15.480  1.00  0.00     0.006 C 
BRANCH   6   7
ATOM      7  C   UNL     1      10.770 -10.568 -16.598  1.00  0.00     0.053 C 
BRANCH   7   8
ATOM      8  C   UNL     1      11.308  -9.272 -16.069  1.00  0.00     0.041 C 
ATOM      9  O   UNL     1      11.334  -9.058 -14.828  1.00  0.00    -0.550 OA
ATOM     10  O   UNL     1      11.786  -8.305 -16.946  1.00  0.00    -0.550 OA
ENDBRANCH   7   8
ENDBRANCH   6   7
ENDBRANCH   5   6
ENDBRANCH   4   5
ENDBRANCH   3   4
ENDBRANCH   2   3
ENDBRANCH   1   2
BRANCH   1  11
ATOM     11  C   UNL     1       7.026 -11.678 -19.614  1.00  0.00    -0.031 C 
ATOM     12  C   UNL     1       6.480 -10.825 -20.498  1.00  0.00    -0.027 C 
BRANCH  12  13
ATOM     13  C   UNL     1       5.172 -11.097 -21.201  1.00  0.00     0.054 C 
BRANCH  13  14
ATOM     14  C   UNL     1       4.030 -10.360 -20.555  1.00  0.00    -0.027 C 
ATOM     15  C   UNL     1       2.850 -10.966 -20.360  1.00  0.00    -0.031 C 
BRANCH  15  16
ATOM     16  C   UNL     1       1.676 -10.241 -19.756  1.00  0.00     0.027 C 
BRANCH  16  17
ATOM     17  C   UNL     1       1.858  -9.958 -18.257  1.00  0.00     0.004 C 
BRANCH  17  18
ATOM     18  C   UNL     1       1.445 -11.153 -17.382  1.00  0.00     0.000 C 
BRANCH  18  19
ATOM     19  C   UNL     1       1.555 -10.848 -15.880  1.00  0.00    -0.003 C 
ATOM     20  C   UNL     1       0.210 -10.939 -15.158  1.00  0.00     0.004 C 
ENDBRANCH  18  19
ENDBRANCH  17  18
ENDBRANCH  16  17
ENDBRANCH  15  16
ENDBRANCH  13  14
ENDBRANCH  12  13
ENDBRANCH   1  11
TORSDOF 14
ENDMDL
MODEL 2
REMARK VINA RESULT:    20.137      1.850      2.901
REMARK INTER + INTRA:          35.676
REMARK INTER:                  36.512
REMARK INTRA:                  -0.836
REMARK UNBOUND:                -0.942
REMARK SMILES CCCCCC=CCC=CCCCCCCCC(=O)[O-]
REMARK SMILES IDX 11 1 12 2 13 3 14 4 15 5 16 6 17 7 18 8 19 9 20 10 10 11
REMARK SMILES IDX 9 12 8 13 7 14 6 15 5 16 4 17 3 18 2 19 1 20
REMARK H PARENT
REMARK Flexibility Score: inf
ROOT
ATOM      1  C   UNL     1       6.542 -13.351 -17.789  1.00  0.00     0.027 C 
ENDROOT
BRANCH   1   2
ATOM      2  C   UNL     1       7.689 -12.603 -17.094  1.00  0.00     0.004 C 
BRANCH   2   3
ATOM      3  C   UNL     1       7.871 -13.048 -15.626  1.00  0.00     0.000 C 
BRANCH   3   4
ATOM      4  C   UNL     1       9.338 -13.330 -15.238  1.00  0.00     0.000 C 
BRANCH   4   5
ATOM      5  C   UNL     1      10.385 -12.573 -16.071  1.00  0.00     0.000 C 
BRANCH   5   6
ATOM      6  C   UNL     1      10.607 -11.132 -15.578  1.00  0.00     0.006 C 
BRANCH   6   7
ATOM      7  C   UNL     1      10.990 -10.182 -16.720  1.00  0.00     0.053 C 
BRANCH   7   8
ATOM      8  C   UNL     1      11.464  -8.854 -16.209  1.00  0.00     0.041 C 
ATOM      9  O   UNL     1      11.331  -8.563 -14.990  1.00  0.00    -0.550 OA
ATOM     10  O   UNL     1      12.057  -7.944 -17.075  1.00  0.00    -0.550 OA
ENDBRANCH   7   8
ENDBRANCH   6   7
ENDBRANCH   5   6
ENDBRANCH   4   5
ENDBRANCH   3   4
ENDBRANCH   2   3
ENDBRANCH   1   2
BRANCH   1  11
ATOM     11  C   UNL     1       6.878 -13.659 -19.225  1.00  0.00    -0.031 C 
ATOM     12  C   UNL     1       6.824 -12.738 -20.203  1.00  0.00    -0.027 C 
BRANCH  12  13
ATOM     13  C   UNL     1       6.446 -11.298 -19.954  1.00  0.00     0.054 C 
BRANCH  13  14
ATOM     14  C   UNL     1       5.265 -10.882 -20.790  1.00  0.00    -0.027 C 
ATOM     15  C   UNL     1       4.027 -10.889 -20.275  1.00  0.00    -0.031 C 
BRANCH  15  16
ATOM     16  C   UNL     1       2.822 -10.520 -21.100  1.00  0.00     0.027 C 
BRANCH  16  17
ATOM     17  C   UNL     1       1.677  -9.942 -20.254  1.00  0.00     0.004 C 
BRANCH  17  18
ATOM     18  C   UNL     1       0.784  -8.981 -21.057  1.00  0.00     0.000 C 
BRANCH  18  19
ATOM     19  C   UNL     1       1.568  -7.795 -21.638  1.00  0.00    -0.003 C 
ATOM     20  C   UNL     1       1.194  -7.491 -23.089  1.00  0.00     0.004 C 
ENDBRANCH  18  19
ENDBRANCH  17  18
ENDBRANCH  16  17
ENDBRANCH  15  16
ENDBRANCH  13  14
ENDBRANCH  12  13
ENDBRANCH   1  11
TORSDOF 14
ENDMDL
MODEL 3
REMARK VINA RESULT:    20.371      1.988      3.202
REMARK INTER + INTRA:          36.102
REMARK INTER:                  36.832
REMARK INTRA:                  -0.731
REMARK UNBOUND:                -0.942
REMARK SMILES CCCCCC=CCC=CCCCCCCCC(=O)[O-]
REMARK SMILES IDX 11 1 12 2 13 3 14 4 15 5 16 6 17 7 18 8 19 9 20 10 10 11
REMARK SMILES IDX 9 12 8 13 7 14 6 15 5 16 4 17 3 18 2 19 1 20
REMARK H PARENT
REMARK Flexibility Score: inf
ROOT
ATOM      1  C   UNL     1       7.431 -12.823 -16.325  1.00  0.00     0.027 C 
ENDROOT
BRANCH   1   2
ATOM      2  C   UNL     1       8.197 -13.374 -15.113  1.00  0.00     0.004 C 
BRANCH   2   3
ATOM      3  C   UNL     1       9.726 -13.353 -15.330  1.00  0.00     0.000 C 
BRANCH   3   4
ATOM      4  C   UNL     1      10.295 -11.948 -15.625  1.00  0.00     0.000 C 
BRANCH   4   5
ATOM      5  C   UNL     1      10.159 -11.489 -17.087  1.00  0.00     0.000 C 
BRANCH   5   6
ATOM      6  C   UNL     1      11.090 -10.312 -17.427  1.00  0.00     0.006 C 
BRANCH   6   7
ATOM      7  C   UNL     1      11.460  -9.490 -16.186  1.00  0.00     0.053 C 
BRANCH   7   8
ATOM      8  C   UNL     1      11.838  -8.082 -16.540  1.00  0.00     0.041 C 
ATOM      9  O   UNL     1      12.381  -7.834 -17.649  1.00  0.00    -0.550 OA
ATOM     10  O   UNL     1      11.584  -7.046 -15.649  1.00  0.00    -0.550 OA
ENDBRANCH   7   8
ENDBRANCH   6   7
ENDBRANCH   5   6
ENDBRANCH   4   5
ENDBRANCH   3   4
ENDBRANCH   2   3
ENDBRANCH   1   2
BRANCH   1  11
ATOM     11  C   UNL     1       7.028 -13.929 -17.267  1.00  0.00    -0.031 C 
ATOM     12  C   UNL     1       6.921 -13.756 -18.595  1.00  0.00    -0.027 C 
BRANCH  12  13
ATOM     13  C   UNL     1       7.220 -12.444 -19.279  1.00  0.00     0.054 C 
BRANCH  13  14
ATOM     14  C   UNL     1       6.147 -12.076 -20.268  1.00  0.00    -0.027 C 
ATOM     15  C   UNL     1       5.727 -10.808 -20.381  1.00  0.00    -0.031 C 
BRANCH  15  16
ATOM     16  C   UNL     1       4.625 -10.417 -21.329  1.00  0.00     0.027 C 
BRANCH  16  17
ATOM     17  C   UNL     1       3.245 -10.921 -20.877  1.00  0.00     0.004 C 
BRANCH  17  18
ATOM     18  C   UNL     1       2.463  -9.856 -20.089  1.00  0.00     0.000 C 
BRANCH  18  19
ATOM     19  C   UNL     1       1.016  -9.704 -20.581  1.00  0.00    -0.003 C 
ATOM     20  C   UNL     1       0.734  -8.323 -21.174  1.00  0.00     0.004 C 
ENDBRANCH  18  19
ENDBRANCH  17  18
ENDBRANCH  16  17
ENDBRANCH  15  16
ENDBRANCH  13  14
ENDBRANCH  12  13
ENDBRANCH   1  11
TORSDOF 14
ENDMDL
MODEL 4
REMARK VINA RESULT:    20.581      4.221      8.481
REMARK INTER + INTRA:          36.483
REMARK INTER:                  37.426
REMARK INTRA:                  -0.943
REMARK UNBOUND:                -0.942
REMARK SMILES CCCCCC=CCC=CCCCCCCCC(=O)[O-]
REMARK SMILES IDX 11 1 12 2 13 3 14 4 15 5 16 6 17 7 18 8 19 9 20 10 10 11
REMARK SMILES IDX 9 12 8 13 7 14 6 15 5 16 4 17 3 18 2 19 1 20
REMARK H PARENT
REMARK Flexibility Score: inf
ROOT
ATOM      1  C   UNL     1       4.217 -11.432 -20.370  1.00  0.00     0.027 C 
ENDROOT
BRANCH   1   2
ATOM      2  C   UNL     1       3.189 -10.378 -20.809  1.00  0.00     0.004 C 
BRANCH   2   3
ATOM      3  C   UNL     1       2.106 -10.137 -19.735  1.00  0.00     0.000 C 
BRANCH   3   4
ATOM      4  C   UNL     1       2.261 -11.027 -18.483  1.00  0.00     0.000 C 
BRANCH   4   5
ATOM      5  C   UNL     1       1.855 -10.358 -17.160  1.00  0.00     0.000 C 
BRANCH   5   6
ATOM      6  C   UNL     1       1.187 -11.339 -16.180  1.00  0.00     0.006 C 
BRANCH   6   7
ATOM      7  C   UNL     1       0.450 -10.613 -15.047  1.00  0.00     0.053 C 
BRANCH   7   8
ATOM      8  C   UNL     1      -0.798 -11.338 -14.637  1.00  0.00     0.041 C 
ATOM      9  O   UNL     1      -1.766 -11.431 -15.437  1.00  0.00    -0.550 OA
ATOM     10  O   UNL     1      -0.887 -11.915 -13.376  1.00  0.00    -0.550 OA
ENDBRANCH   7   8
ENDBRANCH   6   7
ENDBRANCH   5   6
ENDBRANCH   4   5
ENDBRANCH   3   4
ENDBRANCH   2   3
ENDBRANCH   1   2
BRANCH   1  11
ATOM     11  C   UNL     1       5.614 -10.867 -20.367  1.00  0.00    -0.031 C 
ATOM     12  C   UNL     1       6.680 -11.556 -19.925  1.00  0.00    -0.027 C 
BRANCH  12  13
ATOM     13  C   UNL     1       6.588 -12.972 -19.411  1.00  0.00     0.054 C 
BRANCH  13  14
ATOM     14  C   UNL     1       7.085 -13.084 -17.995  1.00  0.00    -0.027 C 
ATOM     15  C   UNL     1       8.151 -12.380 -17.588  1.00  0.00    -0.031 C 
BRANCH  15  16
ATOM     16  C   UNL     1       8.698 -12.504 -16.191  1.00  0.00     0.027 C 
BRANCH  16  17
ATOM     17  C   UNL     1      10.071 -11.832 -16.027  1.00  0.00     0.004 C 
BRANCH  17  18
ATOM     18  C   UNL     1      10.327 -10.757 -17.097  1.00  0.00     0.000 C 
BRANCH  18  19
ATOM     19  C   UNL     1      11.344  -9.701 -16.638  1.00  0.00    -0.003 C 
ATOM     20  C   UNL     1      11.216  -9.361 -15.153  1.00  0.00     0.004 C 
ENDBRANCH  18  19
ENDBRANCH  17  18
ENDBRANCH  16  17
ENDBRANCH  15  16
ENDBRANCH  13  14
ENDBRANCH  12  13
ENDBRANCH   1  11
TORSDOF 14
ENDMDL
MODEL 5
REMARK VINA RESULT:    20.685      0.860      2.000
REMARK INTER + INTRA:          36.672
REMARK INTER:                  37.656
REMARK INTRA:                  -0.985
REMARK UNBOUND:                -0.942
REMARK SMILES CCCCCC=CCC=CCCCCCCCC(=O)[O-]
REMARK SMILES IDX 11 1 12 2 13 3 14 4 15 5 16 6 17 7 18 8 19 9 20 10 10 11
REMARK SMILES IDX 9 12 8 13 7 14 6 15 5 16 4 17 3 18 2 19 1 20
REMARK H PARENT
REMARK Flexibility Score: inf
ROOT
ATOM      1  C   UNL     1       7.051 -13.117 -17.201  1.00  0.00     0.027 C 
ENDROOT
BRANCH   1   2
ATOM      2  C   UNL     1       8.285 -13.843 -16.643  1.00  0.00     0.004 C 
BRANCH   2   3
ATOM      3  C   UNL     1       8.789 -13.209 -15.328  1.00  0.00     0.000 C 
BRANCH   3   4
ATOM      4  C   UNL     1       9.853 -12.109 -15.534  1.00  0.00     0.000 C 
BRANCH   4   5
ATOM      5  C   UNL     1      10.007 -11.621 -16.984  1.00  0.00     0.000 C 
BRANCH   5   6
ATOM      6  C   UNL     1      11.010 -10.461 -17.116  1.00  0.00     0.006 C 
BRANCH   6   7
ATOM      7  C   UNL     1      11.467  -9.934 -15.750  1.00  0.00     0.053 C 
BRANCH   7   8
ATOM      8  C   UNL     1      11.311  -8.446 -15.644  1.00  0.00     0.041 C 
ATOM      9  O   UNL     1      11.806  -7.694 -16.524  1.00  0.00    -0.550 OA
ATOM     10  O   UNL     1      10.612  -7.892 -14.578  1.00  0.00    -0.550 OA
ENDBRANCH   7   8
ENDBRANCH   6   7
ENDBRANCH   5   6
ENDBRANCH   4   5
ENDBRANCH   3   4
ENDBRANCH   2   3
ENDBRANCH   1   2
BRANCH   1  11
ATOM     11  C   UNL     1       6.586 -13.740 -18.492  1.00  0.00    -0.031 C 
ATOM     12  C   UNL     1       6.509 -13.058 -19.647  1.00  0.00    -0.027 C 
BRANCH  12  13
ATOM     13  C   UNL     1       6.905 -11.607 -19.772  1.00  0.00     0.054 C 
BRANCH  13  14
ATOM     14  C   UNL     1       5.805 -10.781 -20.381  1.00  0.00    -0.027 C 
ATOM     15  C   UNL     1       4.537 -11.218 -20.372  1.00  0.00    -0.031 C 
BRANCH  15  16
ATOM     16  C   UNL     1       3.422 -10.434 -21.012  1.00  0.00     0.027 C 
BRANCH  16  17
ATOM     17  C   UNL     1       2.108 -10.515 -20.220  1.00  0.00     0.004 C 
BRANCH  17  18
ATOM     18  C   UNL     1       2.276 -10.068 -18.759  1.00  0.00     0.000 C 
BRANCH  18  19
ATOM     19  C   UNL     1       1.813 -11.138 -17.758  1.00  0.00    -0.003 C 
ATOM     20  C   UNL     1       1.474 -10.557 -16.385  1.00  0.00     0.004 C 
ENDBRANCH  18  19
ENDBRANCH  17  18
ENDBRANCH  16  17
ENDBRANCH  15  16
ENDBRANCH  13  14
ENDBRANCH  12  13
ENDBRANCH   1  11
TORSDOF 14
ENDMDL
MODEL 6
REMARK VINA RESULT:    20.724      3.974      8.522
REMARK INTER + INTRA:          36.744
REMARK INTER:                  36.808
REMARK INTRA:                  -0.064
REMARK UNBOUND:                -0.942
REMARK SMILES CCCCCC=CCC=CCCCCCCCC(=O)[O-]
REMARK SMILES IDX 11 1 12 2 13 3 14 4 15 5 16 6 17 7 18 8 19 9 20 10 10 11
REMARK SMILES IDX 9 12 8 13 7 14 6 15 5 16 4 17 3 18 2 19 1 20
REMARK H PARENT
REMARK Flexibility Score: inf
ROOT
ATOM      1  C   UNL     1       7.537 -12.823 -16.295  1.00  0.00     0.027 C 
ENDROOT
BRANCH   1   2
ATOM      2  C   UNL     1       7.379 -13.737 -17.520  1.00  0.00     0.004 C 
BRANCH   2   3
ATOM      3  C   UNL     1       6.353 -13.182 -18.532  1.00  0.00     0.000 C 
BRANCH   3   4
ATOM      4  C   UNL     1       6.982 -12.319 -19.648  1.00  0.00     0.000 C 
BRANCH   4   5
ATOM      5  C   UNL     1       6.245 -11.002 -19.940  1.00  0.00     0.000 C 
BRANCH   5   6
ATOM      6  C   UNL     1       5.126 -11.167 -20.984  1.00  0.00     0.006 C 
BRANCH   6   7
ATOM      7  C   UNL     1       4.038 -10.097 -20.840  1.00  0.00     0.053 C 
BRANCH   7   8
ATOM      8  C   UNL     1       2.697 -10.698 -20.540  1.00  0.00     0.041 C 
ATOM      9  O   UNL     1       1.705  -9.953 -20.323  1.00  0.00    -0.550 OA
ATOM     10  O   UNL     1       2.543 -12.079 -20.507  1.00  0.00    -0.550 OA
ENDBRANCH   7   8
ENDBRANCH   6   7
ENDBRANCH   5   6
ENDBRANCH   4   5
ENDBRANCH   3   4
ENDBRANCH   2   3
ENDBRANCH   1   2
BRANCH   1  11
ATOM     11  C   UNL     1       8.756 -13.192 -15.490  1.00  0.00    -0.031 C 
ATOM     12  C   UNL     1       9.993 -12.763 -15.795  1.00  0.00    -0.027 C 
BRANCH  12  13
ATOM     13  C   UNL     1      10.280 -11.848 -16.961  1.00  0.00     0.054 C 
BRANCH  13  14
ATOM     14  C   UNL     1      10.554 -10.440 -16.508  1.00  0.00    -0.027 C 
ATOM     15  C   UNL     1      11.180 -10.206 -15.345  1.00  0.00    -0.031 C 
BRANCH  15  16
ATOM     16  C   UNL     1      11.429  -8.808 -14.844  1.00  0.00     0.027 C 
BRANCH  16  17
ATOM     17  C   UNL     1      11.502  -7.774 -15.979  1.00  0.00     0.004 C 
BRANCH  17  18
ATOM     18  C   UNL     1      12.072  -8.369 -17.277  1.00  0.00     0.000 C 
BRANCH  18  19
ATOM     19  C   UNL     1      12.556  -7.289 -18.257  1.00  0.00    -0.003 C 
ATOM     20  C   UNL     1      12.823  -7.839 -19.659  1.00  0.00     0.004 C 
ENDBRANCH  18  19
ENDBRANCH  17  18
ENDBRANCH  16  17
ENDBRANCH  15  16
ENDBRANCH  13  14
ENDBRANCH  12  13
ENDBRANCH   1  11
TORSDOF 14
ENDMDL
MODEL 7
REMARK VINA RESULT:    20.757      4.340      8.882
REMARK INTER + INTRA:          36.803
REMARK INTER:                  36.826
REMARK INTRA:                  -0.023
REMARK UNBOUND:                -0.942
REMARK SMILES CCCCCC=CCC=CCCCCCCCC(=O)[O-]
REMARK SMILES IDX 11 1 12 2 13 3 14 4 15 5 16 6 17 7 18 8 19 9 20 10 10 11
REMARK SMILES IDX 9 12 8 13 7 14 6 15 5 16 4 17 3 18 2 19 1 20
REMARK H PARENT
REMARK Flexibility Score: inf
ROOT
ATOM      1  C   UNL     1      11.766  -9.205 -16.623  1.00  0.00     0.027 C 
ENDROOT
BRANCH   1   2
ATOM      2  C   UNL     1      10.949 -10.430 -17.062  1.00  0.00     0.004 C 
BRANCH   2   3
ATOM      3  C   UNL     1      10.245 -11.117 -15.872  1.00  0.00     0.000 C 
BRANCH   3   4
ATOM      4  C   UNL     1       9.877 -12.594 -16.135  1.00  0.00     0.000 C 
BRANCH   4   5
ATOM      5  C   UNL     1       8.502 -13.024 -15.596  1.00  0.00     0.000 C 
BRANCH   5   6
ATOM      6  C   UNL     1       7.451 -13.179 -16.709  1.00  0.00     0.006 C 
BRANCH   6   7
ATOM      7  C   UNL     1       7.666 -12.178 -17.851  1.00  0.00     0.053 C 
BRANCH   7   8
ATOM      8  C   UNL     1       6.905 -12.564 -19.084  1.00  0.00     0.041 C 
ATOM      9  O   UNL     1       6.563 -13.762 -19.266  1.00  0.00    -0.550 OA
ATOM     10  O   UNL     1       6.568 -11.600 -20.027  1.00  0.00    -0.550 OA
ENDBRANCH   7   8
ENDBRANCH   6   7
ENDBRANCH   5   6
ENDBRANCH   4   5
ENDBRANCH   3   4
ENDBRANCH   2   3
ENDBRANCH   1   2
BRANCH   1  11
ATOM     11  C   UNL     1      11.114  -8.499 -15.463  1.00  0.00    -0.031 C 
ATOM     12  C   UNL     1      11.313  -8.857 -14.183  1.00  0.00    -0.027 C 
BRANCH  12  13
ATOM     13  C   UNL     1      12.230  -9.986 -13.779  1.00  0.00     0.054 C 
BRANCH  13  14
ATOM     14  C   UNL     1      12.249 -10.179 -12.287  1.00  0.00    -0.027 C 
ATOM     15  C   UNL     1      12.307 -11.410 -11.758  1.00  0.00    -0.031 C 
BRANCH  15  16
ATOM     16  C   UNL     1      12.283 -11.637 -10.270  1.00  0.00     0.027 C 
BRANCH  16  17
ATOM     17  C   UNL     1      11.277 -12.720  -9.849  1.00  0.00     0.004 C 
BRANCH  17  18
ATOM     18  C   UNL     1      11.071 -12.767  -8.326  1.00  0.00     0.000 C 
BRANCH  18  19
ATOM     19  C   UNL     1       9.680 -12.269  -7.904  1.00  0.00    -0.003 C 
ATOM     20  C   UNL     1       8.692 -12.217  -9.069  1.00  0.00     0.004 C 
ENDBRANCH  18  19
ENDBRANCH  17  18
ENDBRANCH  16  17
ENDBRANCH  15  16
ENDBRANCH  13  14
ENDBRANCH  12  13
ENDBRANCH   1  11
TORSDOF 14
ENDMDL
MODEL 8
REMARK VINA RESULT:    20.933      4.318      7.485
REMARK INTER + INTRA:          37.124
REMARK INTER:                  37.622
REMARK INTRA:                  -0.498
REMARK UNBOUND:                -0.942
REMARK SMILES CCCCCC=CCC=CCCCCCCCC(=O)[O-]
REMARK SMILES IDX 11 1 12 2 13 3 14 4 15 5 16 6 17 7 18 8 19 9 20 10 10 11
REMARK SMILES IDX 9 12 8 13 7 14 6 15 5 16 4 17 3 18 2 19 1 20
REMARK H PARENT
REMARK Flexibility Score: inf
ROOT
ATOM      1  C   UNL     1      11.679 -10.488 -14.190  1.00  0.00     0.027 C 
ENDROOT
BRANCH   1   2
ATOM      2  C   UNL     1      12.294 -10.355 -12.789  1.00  0.00     0.004 C 
BRANCH   2   3
ATOM      3  C   UNL     1      13.090 -11.614 -12.380  1.00  0.00     0.000 C 
BRANCH   3   4
ATOM      4  C   UNL     1      12.594 -12.268 -11.072  1.00  0.00     0.000 C 
BRANCH   4   5
ATOM      5  C   UNL     1      12.107 -11.280  -9.999  1.00  0.00     0.000 C 
BRANCH   5   6
ATOM      6  C   UNL     1      11.688 -11.981  -8.694  1.00  0.00     0.006 C 
BRANCH   6   7
ATOM      7  C   UNL     1      10.530 -12.962  -8.911  1.00  0.00     0.053 C 
BRANCH   7   8
ATOM      8  C   UNL     1       9.203 -12.341  -8.591  1.00  0.00     0.041 C 
ATOM      9  O   UNL     1       9.038 -11.729  -7.502  1.00  0.00    -0.550 OA
ATOM     10  O   UNL     1       8.154 -12.429  -9.498  1.00  0.00    -0.550 OA
ENDBRANCH   7   8
ENDBRANCH   6   7
ENDBRANCH   5   6
ENDBRANCH   4   5
ENDBRANCH   3   4
ENDBRANCH   2   3
ENDBRANCH   1   2
BRANCH   1  11
ATOM     11  C   UNL     1      11.506  -9.140 -14.842  1.00  0.00    -0.031 C 
ATOM     12  C   UNL     1      11.300  -8.987 -16.161  1.00  0.00    -0.027 C 
BRANCH  12  13
ATOM     13  C   UNL     1      11.195 -10.151 -17.117  1.00  0.00     0.054 C 
BRANCH  13  14
ATOM     14  C   UNL     1       9.934 -10.941 -16.895  1.00  0.00    -0.027 C 
ATOM     15  C   UNL     1       9.974 -12.131 -16.276  1.00  0.00    -0.031 C 
BRANCH  15  16
ATOM     16  C   UNL     1       8.735 -12.964 -16.079  1.00  0.00     0.027 C 
BRANCH  16  17
ATOM     17  C   UNL     1       7.600 -12.579 -17.041  1.00  0.00     0.004 C 
BRANCH  17  18
ATOM     18  C   UNL     1       7.055 -13.789 -17.818  1.00  0.00     0.000 C 
BRANCH  18  19
ATOM     19  C   UNL     1       6.616 -13.424 -19.244  1.00  0.00    -0.003 C 
ATOM     20  C   UNL     1       6.849 -11.950 -19.576  1.00  0.00     0.004 C 
ENDBRANCH  18  19
ENDBRANCH  17  18
ENDBRANCH  16  17
ENDBRANCH  15  16
ENDBRANCH  13  14
ENDBRANCH  12  13
ENDBRANCH   1  11
TORSDOF 14
ENDMDL
MODEL 9
REMARK VINA RESULT:    21.199      3.606      8.173
REMARK INTER + INTRA:          37.607
REMARK INTER:                  38.736
REMARK INTRA:                  -1.129
REMARK UNBOUND:                -0.942
REMARK SMILES CCCCCC=CCC=CCCCCCCCC(=O)[O-]
REMARK SMILES IDX 11 1 12 2 13 3 14 4 15 5 16 6 17 7 18 8 19 9 20 10 10 11
REMARK SMILES IDX 9 12 8 13 7 14 6 15 5 16 4 17 3 18 2 19 1 20
REMARK H PARENT
REMARK Flexibility Score: inf
ROOT
ATOM      1  C   UNL     1       7.545 -13.760 -17.561  1.00  0.00     0.027 C 
ENDROOT
BRANCH   1   2
ATOM      2  C   UNL     1       6.631 -13.288 -18.702  1.00  0.00     0.004 C 
BRANCH   2   3
ATOM      3  C   UNL     1       7.162 -12.007 -19.382  1.00  0.00     0.000 C 
BRANCH   3   4
ATOM      4  C   UNL     1       6.359 -11.587 -20.632  1.00  0.00     0.000 C 
BRANCH   4   5
ATOM      5  C   UNL     1       5.211 -10.600 -20.362  1.00  0.00     0.000 C 
BRANCH   5   6
ATOM      6  C   UNL     1       3.994 -10.843 -21.273  1.00  0.00     0.006 C 
BRANCH   6   7
ATOM      7  C   UNL     1       2.733 -11.189 -20.473  1.00  0.00     0.053 C 
BRANCH   7   8
ATOM      8  C   UNL     1       1.991  -9.960 -20.038  1.00  0.00     0.041 C 
ATOM      9  O   UNL     1       2.337  -9.350 -18.992  1.00  0.00    -0.550 OA
ATOM     10  O   UNL     1       0.924  -9.486 -20.792  1.00  0.00    -0.550 OA
ENDBRANCH   7   8
ENDBRANCH   6   7
ENDBRANCH   5   6
ENDBRANCH   4   5
ENDBRANCH   3   4
ENDBRANCH   2   3
ENDBRANCH   1   2
BRANCH   1  11
ATOM     11  C   UNL     1       7.168 -13.113 -16.253  1.00  0.00    -0.031 C 
ATOM     12  C   UNL     1       8.059 -12.856 -15.280  1.00  0.00    -0.027 C 
BRANCH  12  13
ATOM     13  C   UNL     1       9.530 -13.166 -15.411  1.00  0.00     0.054 C 
BRANCH  13  14
ATOM     14  C   UNL     1      10.302 -11.987 -15.938  1.00  0.00    -0.027 C 
ATOM     15  C   UNL     1       9.986 -11.437 -17.120  1.00  0.00    -0.031 C 
BRANCH  15  16
ATOM     16  C   UNL     1      10.768 -10.284 -17.693  1.00  0.00     0.027 C 
BRANCH  16  17
ATOM     17  C   UNL     1      11.808  -9.724 -16.710  1.00  0.00     0.004 C 
BRANCH  17  18
ATOM     18  C   UNL     1      11.416  -8.339 -16.170  1.00  0.00     0.000 C 
BRANCH  18  19
ATOM     19  C   UNL     1      10.934  -8.390 -14.712  1.00  0.00    -0.003 C 
ATOM     20  C   UNL     1      11.650  -9.462 -13.889  1.00  0.00     0.004 C 
ENDBRANCH  18  19
ENDBRANCH  17  18
ENDBRANCH  16  17
ENDBRANCH  15  16
ENDBRANCH  13  14
ENDBRANCH  12  13
ENDBRANCH   1  11
TORSDOF 14
ENDMDL
