MODEL 1
REMARK VINA RESULT:    -6.599      0.000      0.000
REMARK INTER + INTRA:         -10.352
REMARK INTER:                  -8.721
REMARK INTRA:                  -1.631
REMARK UNBOUND:                -1.631
REMARK SMILES CC[C@@H](C=C[C@@H](C)[C@@H]1CC[C@@H]2[C@@H]3CC=C4C[C@H](O)CC[C@]4(C)[C@@H]3CC[C@]21C)C(C)C
REMARK SMILES IDX 6 1 7 2 5 3 4 4 3 5 2 6 1 7 28 8 29 9 30 10 8 11 9 12 26 13
REMARK SMILES IDX 10 14 11 15 25 16 27 17 12 18 24 19 23 20 13 21 21 22 14 23
REMARK SMILES IDX 15 24 20 25 22 26 16 27 19 28 17 29 18 30
REMARK H PARENT 18 31
REMARK Flexibility Score: inf
ROOT
ATOM      1  C   UNL     1      -5.412 -23.960  33.417  1.00  0.00     0.012 C 
ATOM      2  C   UNL     1      -6.448 -24.572  32.460  1.00  0.00     0.012 C 
ENDROOT
BRANCH   1   3
ATOM      3  C   UNL     1      -4.836 -25.074  34.272  1.00  0.00    -0.028 C 
ATOM      4  C   UNL     1      -5.502 -25.773  35.215  1.00  0.00    -0.027 C 
BRANCH   4   5
ATOM      5  C   UNL     1      -6.954 -25.574  35.631  1.00  0.00     0.014 C 
BRANCH   5   6
ATOM      6  C   UNL     1      -6.968 -24.949  37.057  1.00  0.00     0.004 C 
ATOM      7  C   UNL     1      -7.748 -23.633  37.125  1.00  0.00     0.004 C 
ENDBRANCH   5   6
BRANCH   5   8
ATOM      8  C   UNL     1      -7.704 -26.945  35.568  1.00  0.00    -0.011 C 
ATOM      9  C   UNL     1      -9.175 -26.830  36.002  1.00  0.00     0.008 C 
ATOM     10  C   UNL     1      -7.654 -27.548  34.152  1.00  0.00     0.008 C 
ENDBRANCH   5   8
ENDBRANCH   4   5
ENDBRANCH   1   3
BRANCH   1  11
ATOM     11  C   UNL     1      -6.062 -22.834  34.290  1.00  0.00     0.002 C 
ATOM     12  C   UNL     1      -7.279 -22.184  33.575  1.00  0.00     0.005 C 
ATOM     13  C   UNL     1      -5.170 -21.618  34.726  1.00  0.00    -0.026 C 
ATOM     14  C   UNL     1      -7.314 -20.702  33.972  1.00  0.00     0.005 C 
ATOM     15  C   UNL     1      -6.271 -20.594  35.075  1.00  0.00    -0.001 C 
ATOM     16  C   UNL     1      -4.279 -21.870  35.987  1.00  0.00     0.007 C 
ATOM     17  C   UNL     1      -4.272 -21.165  33.542  1.00  0.00     0.012 C 
ATOM     18  C   UNL     1      -5.813 -19.200  35.609  1.00  0.00     0.000 C 
ATOM     19  C   UNL     1      -4.444 -20.830  37.123  1.00  0.00     0.005 C 
ATOM     20  C   UNL     1      -4.666 -19.338  36.687  1.00  0.00     0.003 C 
ATOM     21  C   UNL     1      -5.568 -18.092  34.556  1.00  0.00     0.031 C 
ATOM     22  C   UNL     1      -3.373 -18.431  36.434  1.00  0.00    -0.008 C 
ATOM     23  C   UNL     1      -4.152 -18.038  34.090  1.00  0.00    -0.027 C 
ATOM     24  C   UNL     1      -3.125 -18.194  34.943  1.00  0.00    -0.065 C 
ATOM     25  C   UNL     1      -2.082 -19.053  37.050  1.00  0.00     0.014 C 
ATOM     26  C   UNL     1      -3.604 -17.047  37.104  1.00  0.00     0.016 C 
ATOM     27  C   UNL     1      -1.714 -18.256  34.389  1.00  0.00     0.063 C 
ATOM     28  C   UNL     1      -0.797 -18.240  36.785  1.00  0.00     0.033 C 
ATOM     29  C   UNL     1      -0.713 -17.624  35.367  1.00  0.00     0.118 C 
BRANCH  29  30
ATOM     30  O   UNL     1       0.593 -17.775  34.874  1.00  0.00    -0.393 OA
ATOM     31  H   UNL     1       1.208 -17.655  35.644  1.00  0.00     0.210 HD
ENDBRANCH  29  30
ENDBRANCH   1  11
TORSDOF 6
ENDMDL
MODEL 2
REMARK VINA RESULT:    -6.142      1.356      1.849
REMARK INTER + INTRA:          -9.748
REMARK INTER:                  -8.972
REMARK INTRA:                  -0.776
REMARK UNBOUND:                -1.631
REMARK SMILES CC[C@@H](C=C[C@@H](C)[C@@H]1CC[C@@H]2[C@@H]3CC=C4C[C@H](O)CC[C@]4(C)[C@@H]3CC[C@]21C)C(C)C
REMARK SMILES IDX 6 1 7 2 5 3 4 4 3 5 2 6 1 7 28 8 29 9 30 10 8 11 9 12 26 13
REMARK SMILES IDX 10 14 11 15 25 16 27 17 12 18 24 19 23 20 13 21 21 22 14 23
REMARK SMILES IDX 15 24 20 25 22 26 16 27 19 28 17 29 18 30
REMARK H PARENT 18 31
REMARK Flexibility Score: inf
ROOT
ATOM      1  C   UNL     1      -6.947 -23.818  32.606  1.00  0.00     0.012 C 
ATOM      2  C   UNL     1      -8.096 -23.328  31.710  1.00  0.00     0.012 C 
ENDROOT
BRANCH   1   3
ATOM      3  C   UNL     1      -6.991 -25.335  32.653  1.00  0.00    -0.028 C 
ATOM      4  C   UNL     1      -7.010 -26.091  33.771  1.00  0.00    -0.027 C 
BRANCH   4   5
ATOM      5  C   UNL     1      -6.965 -25.584  35.206  1.00  0.00     0.014 C 
BRANCH   5   6
ATOM      6  C   UNL     1      -5.542 -25.861  35.774  1.00  0.00     0.004 C 
ATOM      7  C   UNL     1      -5.516 -27.010  36.785  1.00  0.00     0.004 C 
ENDBRANCH   5   6
BRANCH   5   8
ATOM      8  C   UNL     1      -8.090 -26.284  36.038  1.00  0.00    -0.011 C 
ATOM      9  C   UNL     1      -9.143 -25.290  36.555  1.00  0.00     0.008 C 
ATOM     10  C   UNL     1      -8.803 -27.374  35.215  1.00  0.00     0.008 C 
ENDBRANCH   5   8
ENDBRANCH   4   5
ENDBRANCH   1   3
BRANCH   1  11
ATOM     11  C   UNL     1      -7.052 -23.189  34.037  1.00  0.00     0.002 C 
ATOM     12  C   UNL     1      -8.500 -22.724  34.353  1.00  0.00     0.005 C 
ATOM     13  C   UNL     1      -6.159 -21.943  34.373  1.00  0.00    -0.026 C 
ATOM     14  C   UNL     1      -8.404 -21.471  35.235  1.00  0.00     0.005 C 
ATOM     15  C   UNL     1      -6.927 -21.389  35.591  1.00  0.00    -0.001 C 
ATOM     16  C   UNL     1      -4.689 -22.276  34.795  1.00  0.00     0.007 C 
ATOM     17  C   UNL     1      -6.140 -20.961  33.169  1.00  0.00     0.012 C 
ATOM     18  C   UNL     1      -6.344 -20.122  36.294  1.00  0.00     0.000 C 
ATOM     19  C   UNL     1      -4.243 -21.668  36.148  1.00  0.00     0.005 C 
ATOM     20  C   UNL     1      -4.779 -20.231  36.485  1.00  0.00     0.003 C 
ATOM     21  C   UNL     1      -6.826 -18.746  35.772  1.00  0.00     0.031 C 
ATOM     22  C   UNL     1      -3.934 -18.975  35.968  1.00  0.00    -0.008 C 
ATOM     23  C   UNL     1      -5.945 -18.188  34.707  1.00  0.00    -0.027 C 
ATOM     24  C   UNL     1      -4.606 -18.286  34.780  1.00  0.00    -0.065 C 
ATOM     25  C   UNL     1      -2.484 -19.368  35.548  1.00  0.00     0.014 C 
ATOM     26  C   UNL     1      -3.833 -17.941  37.125  1.00  0.00     0.016 C 
ATOM     27  C   UNL     1      -3.771 -17.812  33.606  1.00  0.00     0.063 C 
ATOM     28  C   UNL     1      -1.646 -18.198  34.990  1.00  0.00     0.033 C 
ATOM     29  C   UNL     1      -2.436 -17.222  34.085  1.00  0.00     0.118 C 
BRANCH  29  30
ATOM     30  O   UNL     1      -1.645 -16.875  32.977  1.00  0.00    -0.393 OA
ATOM     31  H   UNL     1      -0.909 -16.302  33.317  1.00  0.00     0.210 HD
ENDBRANCH  29  30
ENDBRANCH   1  11
TORSDOF 6
ENDMDL
MODEL 3
REMARK VINA RESULT:    -5.633      2.685      7.569
REMARK INTER + INTRA:          -9.075
REMARK INTER:                  -7.667
REMARK INTRA:                  -1.408
REMARK UNBOUND:                -1.631
REMARK SMILES CC[C@@H](C=C[C@@H](C)[C@@H]1CC[C@@H]2[C@@H]3CC=C4C[C@H](O)CC[C@]4(C)[C@@H]3CC[C@]21C)C(C)C
REMARK SMILES IDX 6 1 7 2 5 3 4 4 3 5 2 6 1 7 28 8 29 9 30 10 8 11 9 12 26 13
REMARK SMILES IDX 10 14 11 15 25 16 27 17 12 18 24 19 23 20 13 21 21 22 14 23
REMARK SMILES IDX 15 24 20 25 22 26 16 27 19 28 17 29 18 30
REMARK H PARENT 18 31
REMARK Flexibility Score: inf
ROOT
ATOM      1  C   UNL     1      -1.907 -18.169  36.074  1.00  0.00     0.012 C 
ATOM      2  C   UNL     1      -1.390 -16.876  36.725  1.00  0.00     0.012 C 
ENDROOT
BRANCH   1   3
ATOM      3  C   UNL     1      -1.024 -18.491  34.883  1.00  0.00    -0.028 C 
ATOM      4  C   UNL     1       0.240 -18.962  34.939  1.00  0.00    -0.027 C 
BRANCH   4   5
ATOM      5  C   UNL     1       1.044 -19.244  36.201  1.00  0.00     0.014 C 
BRANCH   5   6
ATOM      6  C   UNL     1       2.397 -18.480  36.094  1.00  0.00     0.004 C 
ATOM      7  C   UNL     1       2.226 -17.021  35.661  1.00  0.00     0.004 C 
ENDBRANCH   5   6
BRANCH   5   8
ATOM      8  C   UNL     1       1.237 -20.788  36.360  1.00  0.00    -0.011 C 
ATOM      9  C   UNL     1      -0.069 -21.507  36.739  1.00  0.00     0.008 C 
ATOM     10  C   UNL     1       1.791 -21.421  35.070  1.00  0.00     0.008 C 
ENDBRANCH   5   8
ENDBRANCH   4   5
ENDBRANCH   1   3
BRANCH   1  11
ATOM     11  C   UNL     1      -3.410 -18.019  35.660  1.00  0.00     0.002 C 
ATOM     12  C   UNL     1      -4.199 -17.141  36.671  1.00  0.00     0.005 C 
ATOM     13  C   UNL     1      -4.278 -19.319  35.511  1.00  0.00    -0.026 C 
ATOM     14  C   UNL     1      -5.630 -17.690  36.745  1.00  0.00     0.005 C 
ATOM     15  C   UNL     1      -5.690 -18.707  35.614  1.00  0.00    -0.001 C 
ATOM     16  C   UNL     1      -4.132 -20.058  34.140  1.00  0.00     0.007 C 
ATOM     17  C   UNL     1      -3.958 -20.307  36.666  1.00  0.00     0.012 C 
ATOM     18  C   UNL     1      -6.906 -19.676  35.475  1.00  0.00     0.000 C 
ATOM     19  C   UNL     1      -5.465 -20.323  33.395  1.00  0.00     0.005 C 
ATOM     20  C   UNL     1      -6.706 -20.693  34.283  1.00  0.00     0.003 C 
ATOM     21  C   UNL     1      -7.443 -20.320  36.777  1.00  0.00     0.031 C 
ATOM     22  C   UNL     1      -6.934 -22.234  34.647  1.00  0.00    -0.008 C 
ATOM     23  C   UNL     1      -6.814 -21.639  37.074  1.00  0.00    -0.027 C 
ATOM     24  C   UNL     1      -6.570 -22.536  36.102  1.00  0.00    -0.065 C 
ATOM     25  C   UNL     1      -6.111 -23.189  33.730  1.00  0.00     0.014 C 
ATOM     26  C   UNL     1      -8.441 -22.567  34.454  1.00  0.00     0.016 C 
ATOM     27  C   UNL     1      -5.814 -23.805  36.447  1.00  0.00     0.063 C 
ATOM     28  C   UNL     1      -6.257 -24.685  34.079  1.00  0.00     0.033 C 
ATOM     29  C   UNL     1      -6.307 -24.985  35.597  1.00  0.00     0.118 C 
BRANCH  29  30
ATOM     30  O   UNL     1      -5.532 -26.124  35.870  1.00  0.00    -0.393 OA
ATOM     31  H   UNL     1      -4.811 -25.840  36.492  1.00  0.00     0.210 HD
ENDBRANCH  29  30
ENDBRANCH   1  11
TORSDOF 6
ENDMDL
MODEL 4
REMARK VINA RESULT:    -5.426      1.345      2.552
REMARK INTER + INTRA:          -8.802
REMARK INTER:                  -9.368
REMARK INTRA:                   0.566
REMARK UNBOUND:                -1.631
REMARK SMILES CC[C@@H](C=C[C@@H](C)[C@@H]1CC[C@@H]2[C@@H]3CC=C4C[C@H](O)CC[C@]4(C)[C@@H]3CC[C@]21C)C(C)C
REMARK SMILES IDX 6 1 7 2 5 3 4 4 3 5 2 6 1 7 28 8 29 9 30 10 8 11 9 12 26 13
REMARK SMILES IDX 10 14 11 15 25 16 27 17 12 18 24 19 23 20 13 21 21 22 14 23
REMARK SMILES IDX 15 24 20 25 22 26 16 27 19 28 17 29 18 30
REMARK H PARENT 18 31
REMARK Flexibility Score: inf
ROOT
ATOM      1  C   UNL     1      -7.386 -22.674  36.857  1.00  0.00     0.012 C 
ATOM      2  C   UNL     1      -5.983 -23.262  37.075  1.00  0.00     0.012 C 
ENDROOT
BRANCH   1   3
ATOM      3  C   UNL     1      -8.277 -23.761  36.284  1.00  0.00    -0.028 C 
ATOM      4  C   UNL     1      -7.860 -24.838  35.585  1.00  0.00    -0.027 C 
BRANCH   4   5
ATOM      5  C   UNL     1      -6.422 -25.170  35.208  1.00  0.00     0.014 C 
BRANCH   5   6
ATOM      6  C   UNL     1      -6.227 -24.834  33.700  1.00  0.00     0.004 C 
ATOM      7  C   UNL     1      -4.796 -24.407  33.365  1.00  0.00     0.004 C 
ENDBRANCH   5   6
BRANCH   5   8
ATOM      8  C   UNL     1      -6.135 -26.674  35.531  1.00  0.00    -0.011 C 
ATOM      9  C   UNL     1      -6.390 -27.016  37.008  1.00  0.00     0.008 C 
ATOM     10  C   UNL     1      -6.988 -27.609  34.654  1.00  0.00     0.008 C 
ENDBRANCH   5   8
ENDBRANCH   4   5
ENDBRANCH   1   3
BRANCH   1  11
ATOM     11  C   UNL     1      -7.322 -21.421  35.919  1.00  0.00     0.002 C 
ATOM     12  C   UNL     1      -7.669 -21.787  34.448  1.00  0.00     0.005 C 
ATOM     13  C   UNL     1      -5.969 -20.632  35.815  1.00  0.00    -0.026 C 
ATOM     14  C   UNL     1      -6.826 -20.888  33.535  1.00  0.00     0.005 C 
ATOM     15  C   UNL     1      -6.201 -19.880  34.489  1.00  0.00    -0.001 C 
ATOM     16  C   UNL     1      -5.719 -19.596  36.961  1.00  0.00     0.007 C 
ATOM     17  C   UNL     1      -4.777 -21.626  35.750  1.00  0.00     0.012 C 
ATOM     18  C   UNL     1      -5.077 -18.911  34.004  1.00  0.00     0.000 C 
ATOM     19  C   UNL     1      -5.403 -18.157  36.484  1.00  0.00     0.005 C 
ATOM     20  C   UNL     1      -4.527 -18.021  35.188  1.00  0.00     0.003 C 
ATOM     21  C   UNL     1      -3.976 -19.512  33.096  1.00  0.00     0.031 C 
ATOM     22  C   UNL     1      -2.936 -18.007  35.356  1.00  0.00    -0.008 C 
ATOM     23  C   UNL     1      -2.798 -20.009  33.863  1.00  0.00    -0.027 C 
ATOM     24  C   UNL     1      -2.304 -19.327  34.912  1.00  0.00    -0.065 C 
ATOM     25  C   UNL     1      -2.498 -17.727  36.826  1.00  0.00     0.014 C 
ATOM     26  C   UNL     1      -2.357 -16.875  34.461  1.00  0.00     0.016 C 
ATOM     27  C   UNL     1      -1.186 -19.946  35.728  1.00  0.00     0.063 C 
ATOM     28  C   UNL     1      -0.971 -17.758  37.050  1.00  0.00     0.033 C 
ATOM     29  C   UNL     1      -0.232 -18.865  36.259  1.00  0.00     0.118 C 
BRANCH  29  30
ATOM     30  O   UNL     1       0.740 -19.454  37.085  1.00  0.00    -0.393 OA
ATOM     31  H   UNL     1       0.306 -19.632  37.960  1.00  0.00     0.210 HD
ENDBRANCH  29  30
ENDBRANCH   1  11
TORSDOF 6
ENDMDL
MODEL 5
REMARK VINA RESULT:    -4.871      1.502      2.465
REMARK INTER + INTRA:          -8.068
REMARK INTER:                  -6.900
REMARK INTRA:                  -1.168
REMARK UNBOUND:                -1.631
REMARK SMILES CC[C@@H](C=C[C@@H](C)[C@@H]1CC[C@@H]2[C@@H]3CC=C4C[C@H](O)CC[C@]4(C)[C@@H]3CC[C@]21C)C(C)C
REMARK SMILES IDX 6 1 7 2 5 3 4 4 3 5 2 6 1 7 28 8 29 9 30 10 8 11 9 12 26 13
REMARK SMILES IDX 10 14 11 15 25 16 27 17 12 18 24 19 23 20 13 21 21 22 14 23
REMARK SMILES IDX 15 24 20 25 22 26 16 27 19 28 17 29 18 30
REMARK H PARENT 18 31
REMARK Flexibility Score: inf
ROOT
ATOM      1  C   UNL     1      -8.077 -22.592  34.699  1.00  0.00     0.012 C 
ATOM      2  C   UNL     1      -9.070 -21.904  33.749  1.00  0.00     0.012 C 
ENDROOT
BRANCH   1   3
ATOM      3  C   UNL     1      -8.739 -23.835  35.264  1.00  0.00    -0.028 C 
ATOM      4  C   UNL     1      -8.129 -25.014  35.510  1.00  0.00    -0.027 C 
BRANCH   4   5
ATOM      5  C   UNL     1      -6.667 -25.346  35.250  1.00  0.00     0.014 C 
BRANCH   5   6
ATOM      6  C   UNL     1      -6.390 -25.159  33.729  1.00  0.00     0.004 C 
ATOM      7  C   UNL     1      -5.064 -24.447  33.447  1.00  0.00     0.004 C 
ENDBRANCH   5   6
BRANCH   5   8
ATOM      8  C   UNL     1      -6.370 -26.802  35.740  1.00  0.00    -0.011 C 
ATOM      9  C   UNL     1      -5.481 -26.831  36.994  1.00  0.00     0.008 C 
ATOM     10  C   UNL     1      -7.672 -27.569  36.041  1.00  0.00     0.008 C 
ENDBRANCH   5   8
ENDBRANCH   4   5
ENDBRANCH   1   3
BRANCH   1  11
ATOM     11  C   UNL     1      -7.622 -21.610  35.832  1.00  0.00     0.002 C 
ATOM     12  C   UNL     1      -8.718 -20.557  36.152  1.00  0.00     0.005 C 
ATOM     13  C   UNL     1      -6.320 -20.762  35.607  1.00  0.00    -0.026 C 
ATOM     14  C   UNL     1      -8.010 -19.251  36.535  1.00  0.00     0.005 C 
ATOM     15  C   UNL     1      -6.546 -19.649  36.652  1.00  0.00    -0.001 C 
ATOM     16  C   UNL     1      -4.982 -21.508  35.927  1.00  0.00     0.007 C 
ATOM     17  C   UNL     1      -6.277 -20.228  34.150  1.00  0.00     0.012 C 
ATOM     18  C   UNL     1      -5.432 -18.566  36.801  1.00  0.00     0.000 C 
ATOM     19  C   UNL     1      -4.048 -20.777  36.924  1.00  0.00     0.005 C 
ATOM     20  C   UNL     1      -3.990 -19.212  36.818  1.00  0.00     0.003 C 
ATOM     21  C   UNL     1      -5.554 -17.307  35.908  1.00  0.00     0.031 C 
ATOM     22  C   UNL     1      -2.936 -18.568  35.801  1.00  0.00    -0.008 C 
ATOM     23  C   UNL     1      -4.826 -17.440  34.613  1.00  0.00    -0.027 C 
ATOM     24  C   UNL     1      -3.616 -18.022  34.545  1.00  0.00    -0.065 C 
ATOM     25  C   UNL     1      -1.840 -19.586  35.359  1.00  0.00     0.014 C 
ATOM     26  C   UNL     1      -2.227 -17.382  36.514  1.00  0.00     0.016 C 
ATOM     27  C   UNL     1      -2.984 -18.241  33.183  1.00  0.00     0.063 C 
ATOM     28  C   UNL     1      -0.830 -19.026  34.335  1.00  0.00     0.033 C 
ATOM     29  C   UNL     1      -1.456 -18.105  33.260  1.00  0.00     0.118 C 
BRANCH  29  30
ATOM     30  O   UNL     1      -0.889 -18.402  32.009  1.00  0.00    -0.393 OA
ATOM     31  H   UNL     1      -1.304 -19.248  31.698  1.00  0.00     0.210 HD
ENDBRANCH  29  30
ENDBRANCH   1  11
TORSDOF 6
ENDMDL
MODEL 6
REMARK VINA RESULT:    -4.274      2.471      7.377
REMARK INTER + INTRA:          -7.280
REMARK INTER:                  -8.055
REMARK INTRA:                   0.775
REMARK UNBOUND:                -1.631
REMARK SMILES CC[C@@H](C=C[C@@H](C)[C@@H]1CC[C@@H]2[C@@H]3CC=C4C[C@H](O)CC[C@]4(C)[C@@H]3CC[C@]21C)C(C)C
REMARK SMILES IDX 6 1 7 2 5 3 4 4 3 5 2 6 1 7 28 8 29 9 30 10 8 11 9 12 26 13
REMARK SMILES IDX 10 14 11 15 25 16 27 17 12 18 24 19 23 20 13 21 21 22 14 23
REMARK SMILES IDX 15 24 20 25 22 26 16 27 19 28 17 29 18 30
REMARK H PARENT 18 31
REMARK Flexibility Score: inf
ROOT
ATOM      1  C   UNL     1      -3.670 -18.809  33.024  1.00  0.00     0.012 C 
ATOM      2  C   UNL     1      -2.858 -20.060  33.397  1.00  0.00     0.012 C 
ENDROOT
BRANCH   1   3
ATOM      3  C   UNL     1      -2.943 -17.590  33.561  1.00  0.00    -0.028 C 
ATOM      4  C   UNL     1      -1.998 -17.593  34.525  1.00  0.00    -0.027 C 
BRANCH   4   5
ATOM      5  C   UNL     1      -1.487 -18.809  35.286  1.00  0.00     0.014 C 
BRANCH   5   6
ATOM      6  C   UNL     1      -1.847 -18.626  36.790  1.00  0.00     0.004 C 
ATOM      7  C   UNL     1      -2.473 -17.261  37.091  1.00  0.00     0.004 C 
ENDBRANCH   5   6
BRANCH   5   8
ATOM      8  C   UNL     1       0.052 -18.959  35.050  1.00  0.00    -0.011 C 
ATOM      9  C   UNL     1       0.826 -17.674  35.388  1.00  0.00     0.008 C 
ATOM     10  C   UNL     1       0.637 -20.119  35.878  1.00  0.00     0.008 C 
ENDBRANCH   5   8
ENDBRANCH   4   5
ENDBRANCH   1   3
BRANCH   1  11
ATOM     11  C   UNL     1      -5.130 -18.909  33.585  1.00  0.00     0.002 C 
ATOM     12  C   UNL     1      -5.355 -17.933  34.773  1.00  0.00     0.005 C 
ATOM     13  C   UNL     1      -5.632 -20.297  34.119  1.00  0.00    -0.026 C 
ATOM     14  C   UNL     1      -6.332 -18.606  35.747  1.00  0.00     0.005 C 
ATOM     15  C   UNL     1      -6.819 -19.832  34.989  1.00  0.00    -0.001 C 
ATOM     16  C   UNL     1      -6.152 -21.280  33.017  1.00  0.00     0.007 C 
ATOM     17  C   UNL     1      -4.511 -20.989  34.940  1.00  0.00     0.012 C 
ATOM     18  C   UNL     1      -7.660 -20.934  35.706  1.00  0.00     0.000 C 
ATOM     19  C   UNL     1      -7.579 -21.833  33.255  1.00  0.00     0.005 C 
ATOM     20  C   UNL     1      -7.976 -22.145  34.742  1.00  0.00     0.003 C 
ATOM     21  C   UNL     1      -7.203 -21.353  37.125  1.00  0.00     0.031 C 
ATOM     22  C   UNL     1      -7.627 -23.595  35.322  1.00  0.00    -0.008 C 
ATOM     23  C   UNL     1      -6.261 -22.509  37.113  1.00  0.00    -0.027 C 
ATOM     24  C   UNL     1      -6.440 -23.553  36.286  1.00  0.00    -0.065 C 
ATOM     25  C   UNL     1      -7.304 -24.623  34.194  1.00  0.00     0.014 C 
ATOM     26  C   UNL     1      -8.862 -24.119  36.108  1.00  0.00     0.016 C 
ATOM     27  C   UNL     1      -5.380 -24.637  36.231  1.00  0.00     0.063 C 
ATOM     28  C   UNL     1      -6.908 -26.024  34.708  1.00  0.00     0.033 C 
ATOM     29  C   UNL     1      -6.014 -26.011  35.971  1.00  0.00     0.118 C 
BRANCH  29  30
ATOM     30  O   UNL     1      -5.006 -26.980  35.835  1.00  0.00    -0.393 OA
ATOM     31  H   UNL     1      -4.777 -27.289  36.750  1.00  0.00     0.210 HD
ENDBRANCH  29  30
ENDBRANCH   1  11
TORSDOF 6
ENDMDL
MODEL 7
REMARK VINA RESULT:    -3.912      2.707      7.696
REMARK INTER + INTRA:          -6.801
REMARK INTER:                  -5.716
REMARK INTRA:                  -1.086
REMARK UNBOUND:                -1.631
REMARK SMILES CC[C@@H](C=C[C@@H](C)[C@@H]1CC[C@@H]2[C@@H]3CC=C4C[C@H](O)CC[C@]4(C)[C@@H]3CC[C@]21C)C(C)C
REMARK SMILES IDX 6 1 7 2 5 3 4 4 3 5 2 6 1 7 28 8 29 9 30 10 8 11 9 12 26 13
REMARK SMILES IDX 10 14 11 15 25 16 27 17 12 18 24 19 23 20 13 21 21 22 14 23
REMARK SMILES IDX 15 24 20 25 22 26 16 27 19 28 17 29 18 30
REMARK H PARENT 18 31
REMARK Flexibility Score: inf
ROOT
ATOM      1  C   UNL     1      -4.734 -18.155  36.103  1.00  0.00     0.012 C 
ATOM      2  C   UNL     1      -5.228 -17.107  35.092  1.00  0.00     0.012 C 
ENDROOT
BRANCH   1   3
ATOM      3  C   UNL     1      -3.735 -17.490  37.032  1.00  0.00    -0.028 C 
ATOM      4  C   UNL     1      -2.406 -17.721  37.061  1.00  0.00    -0.027 C 
BRANCH   4   5
ATOM      5  C   UNL     1      -1.641 -18.711  36.192  1.00  0.00     0.014 C 
BRANCH   5   6
ATOM      6  C   UNL     1      -0.778 -19.610  37.125  1.00  0.00     0.004 C 
ATOM      7  C   UNL     1      -1.053 -21.104  36.934  1.00  0.00     0.004 C 
ENDBRANCH   5   6
BRANCH   5   8
ATOM      8  C   UNL     1      -0.779 -17.926  35.148  1.00  0.00    -0.011 C 
ATOM      9  C   UNL     1       0.569 -17.466  35.727  1.00  0.00     0.008 C 
ATOM     10  C   UNL     1      -0.512 -18.773  33.890  1.00  0.00     0.008 C 
ENDBRANCH   5   8
ENDBRANCH   4   5
ENDBRANCH   1   3
BRANCH   1  11
ATOM     11  C   UNL     1      -4.108 -19.387  35.363  1.00  0.00     0.002 C 
ATOM     12  C   UNL     1      -3.899 -19.101  33.850  1.00  0.00     0.005 C 
ATOM     13  C   UNL     1      -4.881 -20.752  35.400  1.00  0.00    -0.026 C 
ATOM     14  C   UNL     1      -4.125 -20.417  33.094  1.00  0.00     0.005 C 
ATOM     15  C   UNL     1      -4.223 -21.460  34.197  1.00  0.00    -0.001 C 
ATOM     16  C   UNL     1      -4.653 -21.606  36.691  1.00  0.00     0.007 C 
ATOM     17  C   UNL     1      -6.402 -20.509  35.204  1.00  0.00     0.012 C 
ATOM     18  C   UNL     1      -4.685 -22.918  33.880  1.00  0.00     0.000 C 
ATOM     19  C   UNL     1      -4.182 -23.060  36.439  1.00  0.00     0.005 C 
ATOM     20  C   UNL     1      -4.791 -23.793  35.192  1.00  0.00     0.003 C 
ATOM     21  C   UNL     1      -5.879 -23.080  32.909  1.00  0.00     0.031 C 
ATOM     22  C   UNL     1      -6.172 -24.578  35.384  1.00  0.00    -0.008 C 
ATOM     23  C   UNL     1      -7.194 -23.141  33.611  1.00  0.00    -0.027 C 
ATOM     24  C   UNL     1      -7.347 -23.827  34.757  1.00  0.00    -0.065 C 
ATOM     25  C   UNL     1      -6.503 -24.836  36.886  1.00  0.00     0.014 C 
ATOM     26  C   UNL     1      -6.055 -25.958  34.676  1.00  0.00     0.016 C 
ATOM     27  C   UNL     1      -8.674 -23.747  35.488  1.00  0.00     0.063 C 
ATOM     28  C   UNL     1      -7.854 -25.544  37.125  1.00  0.00     0.033 C 
ATOM     29  C   UNL     1      -8.994 -25.075  36.189  1.00  0.00     0.118 C 
BRANCH  29  30
ATOM     30  O   UNL     1     -10.179 -24.946  36.932  1.00  0.00    -0.393 OA
ATOM     31  H   UNL     1     -10.920 -25.264  36.352  1.00  0.00     0.210 HD
ENDBRANCH  29  30
ENDBRANCH   1  11
TORSDOF 6
ENDMDL
