MODEL 1
REMARK VINA RESULT:    -3.574      0.000      0.000
REMARK INTER + INTRA:          -4.978
REMARK INTER:                  -4.618
REMARK INTRA:                  -0.360
REMARK UNBOUND:                -0.360
REMARK SMILES CCCCCCC(=O)[O-]
REMARK SMILES IDX 5 1 6 2 7 3 8 4 9 5 4 6 3 7 2 8 1 9
REMARK H PARENT
REMARK Flexibility Score: inf
ROOT
ATOM      1  C   UNL     1     -20.027 -30.052  18.876  1.00  0.00     0.006 C 
ENDROOT
BRANCH   1   2
ATOM      2  C   UNL     1     -18.572 -29.808  18.457  1.00  0.00     0.053 C 
BRANCH   2   3
ATOM      3  C   UNL     1     -17.938 -28.711  19.256  1.00  0.00     0.041 C 
ATOM      4  O   UNL     1     -17.013 -28.973  20.068  1.00  0.00    -0.550 OA
ATOM      5  O   UNL     1     -18.394 -27.405  19.129  1.00  0.00    -0.550 OA
ENDBRANCH   2   3
ENDBRANCH   1   2
BRANCH   1   6
ATOM      6  C   UNL     1     -20.144 -31.104  19.990  1.00  0.00     0.000 C 
BRANCH   6   7
ATOM      7  C   UNL     1     -19.464 -32.416  19.580  1.00  0.00    -0.000 C 
BRANCH   7   8
ATOM      8  C   UNL     1     -18.792 -33.087  20.784  1.00  0.00    -0.003 C 
ATOM      9  C   UNL     1     -17.977 -32.081  21.592  1.00  0.00     0.004 C 
ENDBRANCH   7   8
ENDBRANCH   6   7
ENDBRANCH   1   6
TORSDOF 5
ENDMDL
MODEL 2
REMARK VINA RESULT:    -3.518      0.782      1.710
REMARK INTER + INTRA:          -4.906
REMARK INTER:                  -4.620
REMARK INTRA:                  -0.286
REMARK UNBOUND:                -0.360
REMARK SMILES CCCCCCC(=O)[O-]
REMARK SMILES IDX 5 1 6 2 7 3 8 4 9 5 4 6 3 7 2 8 1 9
REMARK H PARENT
REMARK Flexibility Score: inf
ROOT
ATOM      1  C   UNL     1     -20.064 -29.846  19.040  1.00  0.00     0.006 C 
ENDROOT
BRANCH   1   2
ATOM      2  C   UNL     1     -18.562 -29.790  18.733  1.00  0.00     0.053 C 
BRANCH   2   3
ATOM      3  C   UNL     1     -17.930 -28.541  19.266  1.00  0.00     0.041 C 
ATOM      4  O   UNL     1     -18.396 -27.414  18.956  1.00  0.00    -0.550 OA
ATOM      5  O   UNL     1     -16.805 -28.621  20.076  1.00  0.00    -0.550 OA
ENDBRANCH   2   3
ENDBRANCH   1   2
BRANCH   1   6
ATOM      6  C   UNL     1     -20.431 -31.036  19.940  1.00  0.00     0.000 C 
BRANCH   6   7
ATOM      7  C   UNL     1     -19.180 -31.827  20.342  1.00  0.00    -0.000 C 
BRANCH   7   8
ATOM      8  C   UNL     1     -19.305 -33.299  19.932  1.00  0.00    -0.003 C 
ATOM      9  C   UNL     1     -19.216 -33.458  18.417  1.00  0.00     0.004 C 
ENDBRANCH   7   8
ENDBRANCH   6   7
ENDBRANCH   1   6
TORSDOF 5
ENDMDL
MODEL 3
REMARK VINA RESULT:    -3.511      1.137      1.808
REMARK INTER + INTRA:          -4.898
REMARK INTER:                  -4.477
REMARK INTRA:                  -0.421
REMARK UNBOUND:                -0.360
REMARK SMILES CCCCCCC(=O)[O-]
REMARK SMILES IDX 5 1 6 2 7 3 8 4 9 5 4 6 3 7 2 8 1 9
REMARK H PARENT
REMARK Flexibility Score: inf
ROOT
ATOM      1  C   UNL     1     -20.029 -31.360  20.096  1.00  0.00     0.006 C 
ENDROOT
BRANCH   1   2
ATOM      2  C   UNL     1     -19.870 -30.301  18.997  1.00  0.00     0.053 C 
BRANCH   2   3
ATOM      3  C   UNL     1     -18.430 -29.984  18.733  1.00  0.00     0.041 C 
ATOM      4  O   UNL     1     -17.879 -30.377  17.673  1.00  0.00    -0.550 OA
ATOM      5  O   UNL     1     -17.688 -29.283  19.676  1.00  0.00    -0.550 OA
ENDBRANCH   2   3
ENDBRANCH   1   2
BRANCH   1   6
ATOM      6  C   UNL     1     -19.626 -32.763  19.616  1.00  0.00     0.000 C 
BRANCH   6   7
ATOM      7  C   UNL     1     -18.579 -33.383  20.549  1.00  0.00    -0.000 C 
BRANCH   7   8
ATOM      8  C   UNL     1     -18.177 -32.400  21.654  1.00  0.00    -0.003 C 
ATOM      9  C   UNL     1     -16.684 -32.091  21.600  1.00  0.00     0.004 C 
ENDBRANCH   7   8
ENDBRANCH   6   7
ENDBRANCH   1   6
TORSDOF 5
ENDMDL
MODEL 4
REMARK VINA RESULT:    -3.510      0.514      1.153
REMARK INTER + INTRA:          -4.896
REMARK INTER:                  -4.607
REMARK INTRA:                  -0.290
REMARK UNBOUND:                -0.360
REMARK SMILES CCCCCCC(=O)[O-]
REMARK SMILES IDX 5 1 6 2 7 3 8 4 9 5 4 6 3 7 2 8 1 9
REMARK H PARENT
REMARK Flexibility Score: inf
ROOT
ATOM      1  C   UNL     1     -18.752 -30.358  18.117  1.00  0.00     0.006 C 
ENDROOT
BRANCH   1   2
ATOM      2  C   UNL     1     -17.944 -29.078  17.869  1.00  0.00     0.053 C 
BRANCH   2   3
ATOM      3  C   UNL     1     -17.724 -28.304  19.133  1.00  0.00     0.041 C 
ATOM      4  O   UNL     1     -17.053 -28.804  20.072  1.00  0.00    -0.550 OA
ATOM      5  O   UNL     1     -18.291 -27.045  19.286  1.00  0.00    -0.550 OA
ENDBRANCH   2   3
ENDBRANCH   1   2
BRANCH   1   6
ATOM      6  C   UNL     1     -20.047 -30.087  18.900  1.00  0.00     0.000 C 
BRANCH   6   7
ATOM      7  C   UNL     1     -20.229 -31.108  20.029  1.00  0.00    -0.000 C 
BRANCH   7   8
ATOM      8  C   UNL     1     -19.416 -32.379  19.758  1.00  0.00    -0.003 C 
ATOM      9  C   UNL     1     -18.631 -32.805  20.995  1.00  0.00     0.004 C 
ENDBRANCH   7   8
ENDBRANCH   6   7
ENDBRANCH   1   6
TORSDOF 5
ENDMDL
MODEL 5
REMARK VINA RESULT:    -3.454      2.823      4.290
REMARK INTER + INTRA:          -4.824
REMARK INTER:                  -4.585
REMARK INTRA:                  -0.239
REMARK UNBOUND:                -0.360
REMARK SMILES CCCCCCC(=O)[O-]
REMARK SMILES IDX 5 1 6 2 7 3 8 4 9 5 4 6 3 7 2 8 1 9
REMARK H PARENT
REMARK Flexibility Score: inf
ROOT
ATOM      1  C   UNL     1     -20.153 -31.006  19.996  1.00  0.00     0.006 C 
ENDROOT
BRANCH   1   2
ATOM      2  C   UNL     1     -18.895 -31.717  20.512  1.00  0.00     0.053 C 
BRANCH   2   3
ATOM      3  C   UNL     1     -18.861 -33.156  20.100  1.00  0.00     0.041 C 
ATOM      4  O   UNL     1     -18.111 -33.969  20.701  1.00  0.00    -0.550 OA
ATOM      5  O   UNL     1     -19.632 -33.593  19.030  1.00  0.00    -0.550 OA
ENDBRANCH   2   3
ENDBRANCH   1   2
BRANCH   1   6
ATOM      6  C   UNL     1     -19.836 -29.996  18.882  1.00  0.00     0.000 C 
BRANCH   6   7
ATOM      7  C   UNL     1     -18.326 -29.916  18.627  1.00  0.00    -0.000 C 
BRANCH   7   8
ATOM      8  C   UNL     1     -17.931 -28.532  18.097  1.00  0.00    -0.003 C 
ATOM      9  C   UNL     1     -18.330 -27.432  19.077  1.00  0.00     0.004 C 
ENDBRANCH   7   8
ENDBRANCH   6   7
ENDBRANCH   1   6
TORSDOF 5
ENDMDL
MODEL 6
REMARK VINA RESULT:    -3.350      1.716      2.760
REMARK INTER + INTRA:          -4.689
REMARK INTER:                  -4.312
REMARK INTRA:                  -0.377
REMARK UNBOUND:                -0.360
REMARK SMILES CCCCCCC(=O)[O-]
REMARK SMILES IDX 5 1 6 2 7 3 8 4 9 5 4 6 3 7 2 8 1 9
REMARK H PARENT
REMARK Flexibility Score: inf
ROOT
ATOM      1  C   UNL     1     -19.399 -33.021  19.816  1.00  0.00     0.006 C 
ENDROOT
BRANCH   1   2
ATOM      2  C   UNL     1     -19.716 -31.563  20.173  1.00  0.00     0.053 C 
BRANCH   2   3
ATOM      3  C   UNL     1     -19.142 -30.607  19.172  1.00  0.00     0.041 C 
ATOM      4  O   UNL     1     -18.095 -29.963  19.441  1.00  0.00    -0.550 OA
ATOM      5  O   UNL     1     -19.785 -30.402  17.958  1.00  0.00    -0.550 OA
ENDBRANCH   2   3
ENDBRANCH   1   2
BRANCH   1   6
ATOM      6  C   UNL     1     -18.251 -33.591  20.664  1.00  0.00     0.000 C 
BRANCH   6   7
ATOM      7  C   UNL     1     -17.967 -32.697  21.877  1.00  0.00    -0.000 C 
BRANCH   7   8
ATOM      8  C   UNL     1     -16.469 -32.393  21.998  1.00  0.00    -0.003 C 
ATOM      9  C   UNL     1     -15.755 -32.605  20.666  1.00  0.00     0.004 C 
ENDBRANCH   7   8
ENDBRANCH   6   7
ENDBRANCH   1   6
TORSDOF 5
ENDMDL
MODEL 7
REMARK VINA RESULT:    -3.326      2.264      3.432
REMARK INTER + INTRA:          -4.659
REMARK INTER:                  -4.231
REMARK INTRA:                  -0.428
REMARK UNBOUND:                -0.360
REMARK SMILES CCCCCCC(=O)[O-]
REMARK SMILES IDX 5 1 6 2 7 3 8 4 9 5 4 6 3 7 2 8 1 9
REMARK H PARENT
REMARK Flexibility Score: inf
ROOT
ATOM      1  C   UNL     1     -19.567 -32.955  19.706  1.00  0.00     0.006 C 
ENDROOT
BRANCH   1   2
ATOM      2  C   UNL     1     -19.638 -31.532  20.275  1.00  0.00     0.053 C 
BRANCH   2   3
ATOM      3  C   UNL     1     -19.173 -30.512  19.282  1.00  0.00     0.041 C 
ATOM      4  O   UNL     1     -19.815 -30.329  18.215  1.00  0.00    -0.550 OA
ATOM      5  O   UNL     1     -18.012 -29.787  19.519  1.00  0.00    -0.550 OA
ENDBRANCH   2   3
ENDBRANCH   1   2
BRANCH   1   6
ATOM      6  C   UNL     1     -18.127 -33.379  19.376  1.00  0.00     0.000 C 
BRANCH   6   7
ATOM      7  C   UNL     1     -17.972 -33.680  17.881  1.00  0.00    -0.000 C 
BRANCH   7   8
ATOM      8  C   UNL     1     -19.341 -33.789  17.197  1.00  0.00    -0.003 C 
ATOM      9  C   UNL     1     -19.363 -33.016  15.882  1.00  0.00     0.004 C 
ENDBRANCH   7   8
ENDBRANCH   6   7
ENDBRANCH   1   6
TORSDOF 5
ENDMDL
MODEL 8
REMARK VINA RESULT:    -3.311      2.299      4.100
REMARK INTER + INTRA:          -4.639
REMARK INTER:                  -4.315
REMARK INTRA:                  -0.324
REMARK UNBOUND:                -0.360
REMARK SMILES CCCCCCC(=O)[O-]
REMARK SMILES IDX 5 1 6 2 7 3 8 4 9 5 4 6 3 7 2 8 1 9
REMARK H PARENT
REMARK Flexibility Score: inf
ROOT
ATOM      1  C   UNL     1     -20.080 -31.235  20.066  1.00  0.00     0.006 C 
ENDROOT
BRANCH   1   2
ATOM      2  C   UNL     1     -19.548 -32.665  19.903  1.00  0.00     0.053 C 
BRANCH   2   3
ATOM      3  C   UNL     1     -18.427 -32.954  20.853  1.00  0.00     0.041 C 
ATOM      4  O   UNL     1     -18.127 -32.124  21.750  1.00  0.00    -0.550 OA
ATOM      5  O   UNL     1     -17.690 -34.124  20.724  1.00  0.00    -0.550 OA
ENDBRANCH   2   3
ENDBRANCH   1   2
BRANCH   1   6
ATOM      6  C   UNL     1     -19.862 -30.386  18.804  1.00  0.00     0.000 C 
BRANCH   6   7
ATOM      7  C   UNL     1     -18.647 -29.464  18.964  1.00  0.00    -0.000 C 
BRANCH   7   8
ATOM      8  C   UNL     1     -17.759 -29.504  17.715  1.00  0.00    -0.003 C 
ATOM      9  C   UNL     1     -17.288 -30.925  17.419  1.00  0.00     0.004 C 
ENDBRANCH   7   8
ENDBRANCH   6   7
ENDBRANCH   1   6
TORSDOF 5
ENDMDL
MODEL 9
REMARK VINA RESULT:    -3.251      3.006      4.401
REMARK INTER + INTRA:          -4.561
REMARK INTER:                  -4.413
REMARK INTRA:                  -0.148
REMARK UNBOUND:                -0.360
REMARK SMILES CCCCCCC(=O)[O-]
REMARK SMILES IDX 5 1 6 2 7 3 8 4 9 5 4 6 3 7 2 8 1 9
REMARK H PARENT
REMARK Flexibility Score: inf
ROOT
ATOM      1  C   UNL     1     -17.606 -33.754  19.436  1.00  0.00     0.006 C 
ENDROOT
BRANCH   1   2
ATOM      2  C   UNL     1     -17.305 -34.089  20.903  1.00  0.00     0.053 C 
BRANCH   2   3
ATOM      3  C   UNL     1     -16.083 -33.378  21.397  1.00  0.00     0.041 C 
ATOM      4  O   UNL     1     -16.087 -32.819  22.525  1.00  0.00    -0.550 OA
ATOM      5  O   UNL     1     -14.950 -33.301  20.596  1.00  0.00    -0.550 OA
ENDBRANCH   2   3
ENDBRANCH   1   2
BRANCH   1   6
ATOM      6  C   UNL     1     -18.986 -33.101  19.260  1.00  0.00     0.000 C 
BRANCH   6   7
ATOM      7  C   UNL     1     -19.259 -32.084  20.375  1.00  0.00    -0.000 C 
BRANCH   7   8
ATOM      8  C   UNL     1     -20.395 -31.131  19.984  1.00  0.00    -0.003 C 
ATOM      9  C   UNL     1     -19.919 -30.093  18.972  1.00  0.00     0.004 C 
ENDBRANCH   7   8
ENDBRANCH   6   7
ENDBRANCH   1   6
TORSDOF 5
ENDMDL
