MODEL 1
REMARK VINA RESULT:    -3.318      0.000      0.000
REMARK INTER + INTRA:          -5.382
REMARK INTER:                  -4.676
REMARK INTRA:                  -0.706
REMARK UNBOUND:                -0.706
REMARK SMILES CCCCCCCCC(=O)[O-]
REMARK SMILES IDX 6 1 7 2 8 3 9 4 10 5 11 6 5 7 4 8 3 9 2 10 1 11
REMARK H PARENT
REMARK Flexibility Score: inf
ROOT
ATOM      1  C   UNL     1       7.379 -31.213  15.023  1.00  0.00     0.000 C 
ENDROOT
BRANCH   1   2
ATOM      2  C   UNL     1       7.917 -29.833  14.604  1.00  0.00     0.006 C 
BRANCH   2   3
ATOM      3  C   UNL     1       9.363 -29.610  15.066  1.00  0.00     0.053 C 
BRANCH   3   4
ATOM      4  C   UNL     1      10.283 -29.352  13.912  1.00  0.00     0.041 C 
ATOM      5  O   UNL     1       9.973 -29.741  12.755  1.00  0.00    -0.550 OA
ATOM      6  O   UNL     1      11.496 -28.707  14.120  1.00  0.00    -0.550 OA
ENDBRANCH   3   4
ENDBRANCH   2   3
ENDBRANCH   1   2
BRANCH   1   7
ATOM      7  C   UNL     1       6.795 -31.213  16.445  1.00  0.00     0.000 C 
BRANCH   7   8
ATOM      8  C   UNL     1       6.073 -29.902  16.789  1.00  0.00    -0.000 C 
BRANCH   8   9
ATOM      9  C   UNL     1       6.509 -29.381  18.164  1.00  0.00    -0.000 C 
BRANCH   9  10
ATOM     10  C   UNL     1       7.890 -29.925  18.547  1.00  0.00    -0.003 C 
ATOM     11  C   UNL     1       8.905 -28.796  18.695  1.00  0.00     0.004 C 
ENDBRANCH   9  10
ENDBRANCH   8   9
ENDBRANCH   7   8
ENDBRANCH   1   7
TORSDOF 7
ENDMDL
MODEL 2
REMARK VINA RESULT:    -3.193      2.790      4.715
REMARK INTER + INTRA:          -5.205
REMARK INTER:                  -4.536
REMARK INTRA:                  -0.669
REMARK UNBOUND:                -0.706
REMARK SMILES CCCCCCCCC(=O)[O-]
REMARK SMILES IDX 6 1 7 2 8 3 9 4 10 5 11 6 5 7 4 8 3 9 2 10 1 11
REMARK H PARENT
REMARK Flexibility Score: inf
ROOT
ATOM      1  C   UNL     1       7.179 -30.714  14.463  1.00  0.00     0.000 C 
ENDROOT
BRANCH   1   2
ATOM      2  C   UNL     1       7.123 -29.854  15.737  1.00  0.00     0.006 C 
BRANCH   2   3
ATOM      3  C   UNL     1       8.482 -29.782  16.447  1.00  0.00     0.053 C 
BRANCH   3   4
ATOM      4  C   UNL     1       8.329 -29.559  17.920  1.00  0.00     0.041 C 
ATOM      5  O   UNL     1       9.295 -29.120  18.599  1.00  0.00    -0.550 OA
ATOM      6  O   UNL     1       7.128 -29.864  18.549  1.00  0.00    -0.550 OA
ENDBRANCH   3   4
ENDBRANCH   2   3
ENDBRANCH   1   2
BRANCH   1   7
ATOM      7  C   UNL     1       7.133 -29.872  13.178  1.00  0.00     0.000 C 
BRANCH   7   8
ATOM      8  C   UNL     1       8.521 -29.668  12.553  1.00  0.00    -0.000 C 
BRANCH   8   9
ATOM      9  C   UNL     1       9.403 -30.905  12.762  1.00  0.00    -0.000 C 
BRANCH   9  10
ATOM     10  C   UNL     1      10.851 -30.504  13.068  1.00  0.00    -0.003 C 
ATOM     11  C   UNL     1      10.914 -29.133  13.735  1.00  0.00     0.004 C 
ENDBRANCH   9  10
ENDBRANCH   8   9
ENDBRANCH   7   8
ENDBRANCH   1   7
TORSDOF 7
ENDMDL
MODEL 3
REMARK VINA RESULT:    -3.168      2.241      4.153
REMARK INTER + INTRA:          -5.171
REMARK INTER:                  -4.614
REMARK INTRA:                  -0.557
REMARK UNBOUND:                -0.706
REMARK SMILES CCCCCCCCC(=O)[O-]
REMARK SMILES IDX 6 1 7 2 8 3 9 4 10 5 11 6 5 7 4 8 3 9 2 10 1 11
REMARK H PARENT
REMARK Flexibility Score: inf
ROOT
ATOM      1  C   UNL     1       6.309 -29.865  16.272  1.00  0.00     0.000 C 
ENDROOT
BRANCH   1   2
ATOM      2  C   UNL     1       6.946 -29.899  17.672  1.00  0.00     0.006 C 
BRANCH   2   3
ATOM      3  C   UNL     1       8.447 -30.212  17.617  1.00  0.00     0.053 C 
BRANCH   3   4
ATOM      4  C   UNL     1       9.272 -29.080  18.149  1.00  0.00     0.041 C 
ATOM      5  O   UNL     1       9.987 -28.396  17.371  1.00  0.00    -0.550 OA
ATOM      6  O   UNL     1       9.271 -28.798  19.510  1.00  0.00    -0.550 OA
ENDBRANCH   3   4
ENDBRANCH   2   3
ENDBRANCH   1   2
BRANCH   1   7
ATOM      7  C   UNL     1       7.118 -30.657  15.234  1.00  0.00     0.000 C 
BRANCH   7   8
ATOM      8  C   UNL     1       7.138 -29.981  13.855  1.00  0.00    -0.000 C 
BRANCH   8   9
ATOM      9  C   UNL     1       8.501 -30.159  13.176  1.00  0.00    -0.000 C 
BRANCH   9  10
ATOM     10  C   UNL     1       9.634 -30.166  14.208  1.00  0.00    -0.003 C 
ATOM     11  C   UNL     1      10.779 -29.255  13.777  1.00  0.00     0.004 C 
ENDBRANCH   9  10
ENDBRANCH   8   9
ENDBRANCH   7   8
ENDBRANCH   1   7
TORSDOF 7
ENDMDL
MODEL 4
REMARK VINA RESULT:    -3.007      2.794      4.924
REMARK INTER + INTRA:          -4.944
REMARK INTER:                  -4.244
REMARK INTRA:                  -0.700
REMARK UNBOUND:                -0.706
REMARK SMILES CCCCCCCCC(=O)[O-]
REMARK SMILES IDX 6 1 7 2 8 3 9 4 10 5 11 6 5 7 4 8 3 9 2 10 1 11
REMARK H PARENT
REMARK Flexibility Score: inf
ROOT
ATOM      1  C   UNL     1      10.028 -30.012  14.106  1.00  0.00     0.000 C 
ENDROOT
BRANCH   1   2
ATOM      2  C   UNL     1       9.602 -29.190  15.335  1.00  0.00     0.006 C 
BRANCH   2   3
ATOM      3  C   UNL     1       8.307 -29.721  15.965  1.00  0.00     0.053 C 
BRANCH   3   4
ATOM      4  C   UNL     1       8.412 -29.820  17.456  1.00  0.00     0.041 C 
ATOM      5  O   UNL     1       9.294 -29.166  18.074  1.00  0.00    -0.550 OA
ATOM      6  O   UNL     1       7.555 -30.656  18.160  1.00  0.00    -0.550 OA
ENDBRANCH   3   4
ENDBRANCH   2   3
ENDBRANCH   1   2
BRANCH   1   7
ATOM      7  C   UNL     1       9.693 -29.310  12.780  1.00  0.00     0.000 C 
BRANCH   7   8
ATOM      8  C   UNL     1       8.628 -30.059  11.966  1.00  0.00    -0.000 C 
BRANCH   8   9
ATOM      9  C   UNL     1       7.233 -29.474  12.219  1.00  0.00    -0.000 C 
BRANCH   9  10
ATOM     10  C   UNL     1       6.338 -30.480  12.951  1.00  0.00    -0.003 C 
ATOM     11  C   UNL     1       6.983 -31.862  12.997  1.00  0.00     0.004 C 
ENDBRANCH   9  10
ENDBRANCH   8   9
ENDBRANCH   7   8
ENDBRANCH   1   7
TORSDOF 7
ENDMDL
MODEL 5
REMARK VINA RESULT:    -2.906      3.187      5.368
REMARK INTER + INTRA:          -4.801
REMARK INTER:                  -4.421
REMARK INTRA:                  -0.380
REMARK UNBOUND:                -0.706
REMARK SMILES CCCCCCCCC(=O)[O-]
REMARK SMILES IDX 6 1 7 2 8 3 9 4 10 5 11 6 5 7 4 8 3 9 2 10 1 11
REMARK H PARENT
REMARK Flexibility Score: inf
ROOT
ATOM      1  C   UNL     1       9.954 -29.590  14.546  1.00  0.00     0.000 C 
ENDROOT
BRANCH   1   2
ATOM      2  C   UNL     1       8.587 -29.438  15.237  1.00  0.00     0.006 C 
BRANCH   2   3
ATOM      3  C   UNL     1       8.408 -30.435  16.391  1.00  0.00     0.053 C 
BRANCH   3   4
ATOM      4  C   UNL     1       8.375 -29.746  17.721  1.00  0.00     0.041 C 
ATOM      5  O   UNL     1       7.391 -29.900  18.490  1.00  0.00    -0.550 OA
ATOM      6  O   UNL     1       9.420 -28.911  18.097  1.00  0.00    -0.550 OA
ENDBRANCH   3   4
ENDBRANCH   2   3
ENDBRANCH   1   2
BRANCH   1   7
ATOM      7  C   UNL     1       9.878 -29.362  13.028  1.00  0.00     0.000 C 
BRANCH   7   8
ATOM      8  C   UNL     1      10.326 -30.589  12.221  1.00  0.00    -0.000 C 
BRANCH   8   9
ATOM      9  C   UNL     1      10.426 -31.829  13.117  1.00  0.00    -0.000 C 
BRANCH   9  10
ATOM     10  C   UNL     1      11.739 -32.581  12.873  1.00  0.00    -0.003 C 
ATOM     11  C   UNL     1      11.757 -33.914  13.613  1.00  0.00     0.004 C 
ENDBRANCH   9  10
ENDBRANCH   8   9
ENDBRANCH   7   8
ENDBRANCH   1   7
TORSDOF 7
ENDMDL
MODEL 6
REMARK VINA RESULT:    -2.887      1.385      2.953
REMARK INTER + INTRA:          -4.774
REMARK INTER:                  -4.165
REMARK INTRA:                  -0.609
REMARK UNBOUND:                -0.706
REMARK SMILES CCCCCCCCC(=O)[O-]
REMARK SMILES IDX 6 1 7 2 8 3 9 4 10 5 11 6 5 7 4 8 3 9 2 10 1 11
REMARK H PARENT
REMARK Flexibility Score: inf
ROOT
ATOM      1  C   UNL     1       8.889 -29.424  16.492  1.00  0.00     0.000 C 
ENDROOT
BRANCH   1   2
ATOM      2  C   UNL     1       8.366 -29.806  15.097  1.00  0.00     0.006 C 
BRANCH   2   3
ATOM      3  C   UNL     1       9.475 -30.369  14.197  1.00  0.00     0.053 C 
BRANCH   3   4
ATOM      4  C   UNL     1      10.178 -29.286  13.437  1.00  0.00     0.041 C 
ATOM      5  O   UNL     1      11.264 -28.814  13.865  1.00  0.00    -0.550 OA
ATOM      6  O   UNL     1       9.618 -28.779  12.271  1.00  0.00    -0.550 OA
ENDBRANCH   3   4
ENDBRANCH   2   3
ENDBRANCH   1   2
BRANCH   1   7
ATOM      7  C   UNL     1       8.162 -30.170  17.622  1.00  0.00     0.000 C 
BRANCH   7   8
ATOM      8  C   UNL     1       7.108 -31.157  17.098  1.00  0.00    -0.000 C 
BRANCH   8   9
ATOM      9  C   UNL     1       7.522 -32.605  17.384  1.00  0.00    -0.000 C 
BRANCH   9  10
ATOM     10  C   UNL     1       6.829 -33.577  16.422  1.00  0.00    -0.003 C 
ATOM     11  C   UNL     1       7.372 -33.430  15.004  1.00  0.00     0.004 C 
ENDBRANCH   9  10
ENDBRANCH   8   9
ENDBRANCH   7   8
ENDBRANCH   1   7
TORSDOF 7
ENDMDL
MODEL 7
REMARK VINA RESULT:    -2.796      2.912      4.725
REMARK INTER + INTRA:          -4.646
REMARK INTER:                  -3.883
REMARK INTRA:                  -0.763
REMARK UNBOUND:                -0.706
REMARK SMILES CCCCCCCCC(=O)[O-]
REMARK SMILES IDX 6 1 7 2 8 3 9 4 10 5 11 6 5 7 4 8 3 9 2 10 1 11
REMARK H PARENT
REMARK Flexibility Score: inf
ROOT
ATOM      1  C   UNL     1       7.729 -32.824  15.077  1.00  0.00     0.000 C 
ENDROOT
BRANCH   1   2
ATOM      2  C   UNL     1       6.802 -32.357  16.214  1.00  0.00     0.006 C 
BRANCH   2   3
ATOM      3  C   UNL     1       7.512 -31.403  17.184  1.00  0.00     0.053 C 
BRANCH   3   4
ATOM      4  C   UNL     1       6.796 -30.092  17.299  1.00  0.00     0.041 C 
ATOM      5  O   UNL     1       6.384 -29.502  16.266  1.00  0.00    -0.550 OA
ATOM      6  O   UNL     1       6.610 -29.509  18.546  1.00  0.00    -0.550 OA
ENDBRANCH   3   4
ENDBRANCH   2   3
ENDBRANCH   1   2
BRANCH   1   7
ATOM      7  C   UNL     1       9.140 -32.224  15.179  1.00  0.00     0.000 C 
BRANCH   7   8
ATOM      8  C   UNL     1       9.530 -31.412  13.935  1.00  0.00    -0.000 C 
BRANCH   8   9
ATOM      9  C   UNL     1       9.047 -29.961  14.053  1.00  0.00    -0.000 C 
BRANCH   9  10
ATOM     10  C   UNL     1       8.331 -29.513  12.774  1.00  0.00    -0.003 C 
ATOM     11  C   UNL     1       6.854 -29.894  12.807  1.00  0.00     0.004 C 
ENDBRANCH   9  10
ENDBRANCH   8   9
ENDBRANCH   7   8
ENDBRANCH   1   7
TORSDOF 7
ENDMDL
MODEL 8
REMARK VINA RESULT:    -2.783      1.161      1.815
REMARK INTER + INTRA:          -4.628
REMARK INTER:                  -4.147
REMARK INTRA:                  -0.481
REMARK UNBOUND:                -0.706
REMARK SMILES CCCCCCCCC(=O)[O-]
REMARK SMILES IDX 6 1 7 2 8 3 9 4 10 5 11 6 5 7 4 8 3 9 2 10 1 11
REMARK H PARENT
REMARK Flexibility Score: inf
ROOT
ATOM      1  C   UNL     1       6.953 -30.314  13.227  1.00  0.00     0.000 C 
ENDROOT
BRANCH   1   2
ATOM      2  C   UNL     1       8.329 -29.757  12.823  1.00  0.00     0.006 C 
BRANCH   2   3
ATOM      3  C   UNL     1       9.229 -29.501  14.039  1.00  0.00     0.053 C 
BRANCH   3   4
ATOM      4  C   UNL     1      10.682 -29.602  13.688  1.00  0.00     0.041 C 
ATOM      5  O   UNL     1      11.501 -28.752  14.126  1.00  0.00    -0.550 OA
ATOM      6  O   UNL     1      11.126 -30.618  12.850  1.00  0.00    -0.550 OA
ENDBRANCH   3   4
ENDBRANCH   2   3
ENDBRANCH   1   2
BRANCH   1   7
ATOM      7  C   UNL     1       7.031 -31.277  14.423  1.00  0.00     0.000 C 
BRANCH   7   8
ATOM      8  C   UNL     1       5.907 -31.047  15.444  1.00  0.00    -0.000 C 
BRANCH   8   9
ATOM      9  C   UNL     1       6.243 -29.876  16.376  1.00  0.00    -0.000 C 
BRANCH   9  10
ATOM     10  C   UNL     1       7.562 -30.125  17.118  1.00  0.00    -0.003 C 
ATOM     11  C   UNL     1       7.380 -29.985  18.626  1.00  0.00     0.004 C 
ENDBRANCH   9  10
ENDBRANCH   8   9
ENDBRANCH   7   8
ENDBRANCH   1   7
TORSDOF 7
ENDMDL
MODEL 9
REMARK VINA RESULT:    -2.736      3.265      4.988
REMARK INTER + INTRA:          -4.561
REMARK INTER:                  -3.753
REMARK INTRA:                  -0.808
REMARK UNBOUND:                -0.706
REMARK SMILES CCCCCCCCC(=O)[O-]
REMARK SMILES IDX 6 1 7 2 8 3 9 4 10 5 11 6 5 7 4 8 3 9 2 10 1 11
REMARK H PARENT
REMARK Flexibility Score: inf
ROOT
ATOM      1  C   UNL     1       8.470 -30.158  17.464  1.00  0.00     0.000 C 
ENDROOT
BRANCH   1   2
ATOM      2  C   UNL     1       7.247 -31.092  17.474  1.00  0.00     0.006 C 
BRANCH   2   3
ATOM      3  C   UNL     1       7.649 -32.572  17.523  1.00  0.00     0.053 C 
BRANCH   3   4
ATOM      4  C   UNL     1       6.680 -33.438  16.778  1.00  0.00     0.041 C 
ATOM      5  O   UNL     1       6.238 -33.076  15.656  1.00  0.00    -0.550 OA
ATOM      6  O   UNL     1       6.241 -34.632  17.338  1.00  0.00    -0.550 OA
ENDBRANCH   3   4
ENDBRANCH   2   3
ENDBRANCH   1   2
BRANCH   1   7
ATOM      7  C   UNL     1       8.712 -29.515  16.090  1.00  0.00     0.000 C 
BRANCH   7   8
ATOM      8  C   UNL     1       7.617 -29.862  15.071  1.00  0.00    -0.000 C 
BRANCH   8   9
ATOM      9  C   UNL     1       8.215 -30.532  13.829  1.00  0.00    -0.000 C 
BRANCH   9  10
ATOM     10  C   UNL     1       9.597 -31.122  14.132  1.00  0.00    -0.003 C 
ATOM     11  C   UNL     1       9.519 -32.631  14.337  1.00  0.00     0.004 C 
ENDBRANCH   9  10
ENDBRANCH   8   9
ENDBRANCH   7   8
ENDBRANCH   1   7
TORSDOF 7
ENDMDL
