MODEL 1
REMARK VINA RESULT:    -4.263      0.000      0.000
REMARK INTER + INTRA:          -6.174
REMARK INTER:                  -6.007
REMARK INTRA:                  -0.167
REMARK UNBOUND:                -0.167
REMARK SMILES C=CCCCCCCC(=O)[O-]
REMARK SMILES IDX 6 1 7 2 8 3 9 4 10 5 11 6 5 7 4 8 3 9 2 10 1 11
REMARK H PARENT
REMARK Flexibility Score: inf
ROOT
ATOM      1  C   UNL     1      20.900 -23.637  17.134  1.00  0.00     0.000 C 
ENDROOT
BRANCH   1   2
ATOM      2  C   UNL     1      22.226 -24.163  16.563  1.00  0.00     0.006 C 
BRANCH   2   3
ATOM      3  C   UNL     1      23.125 -23.008  16.111  1.00  0.00     0.053 C 
BRANCH   3   4
ATOM      4  C   UNL     1      24.496 -23.153  16.690  1.00  0.00     0.041 C 
ATOM      5  O   UNL     1      24.803 -24.186  17.342  1.00  0.00    -0.550 OA
ATOM      6  O   UNL     1      25.453 -22.171  16.467  1.00  0.00    -0.550 OA
ENDBRANCH   3   4
ENDBRANCH   2   3
ENDBRANCH   1   2
BRANCH   1   7
ATOM      7  C   UNL     1      19.759 -23.669  16.105  1.00  0.00     0.000 C 
BRANCH   7   8
ATOM      8  C   UNL     1      18.423 -24.129  16.716  1.00  0.00     0.004 C 
BRANCH   8   9
ATOM      9  C   UNL     1      17.747 -25.220  15.872  1.00  0.00     0.027 C 
BRANCH   9  10
ATOM     10  C   UNL     1      16.345 -25.517  16.335  1.00  0.00    -0.035 C 
ATOM     11  C   UNL     1      16.103 -26.305  17.388  1.00  0.00     0.004 C 
ENDBRANCH   9  10
ENDBRANCH   8   9
ENDBRANCH   7   8
ENDBRANCH   1   7
TORSDOF 7
ENDMDL
MODEL 2
REMARK VINA RESULT:    -4.133     15.668     16.407
REMARK INTER + INTRA:          -5.992
REMARK INTER:                  -5.595
REMARK INTRA:                  -0.397
REMARK UNBOUND:                -0.167
REMARK SMILES C=CCCCCCCC(=O)[O-]
REMARK SMILES IDX 6 1 7 2 8 3 9 4 10 5 11 6 5 7 4 8 3 9 2 10 1 11
REMARK H PARENT
REMARK Flexibility Score: inf
ROOT
ATOM      1  C   UNL     1      29.093 -34.342  26.727  1.00  0.00     0.000 C 
ENDROOT
BRANCH   1   2
ATOM      2  C   UNL     1      30.453 -33.961  26.122  1.00  0.00     0.006 C 
BRANCH   2   3
ATOM      3  C   UNL     1      30.541 -34.394  24.656  1.00  0.00     0.053 C 
BRANCH   3   4
ATOM      4  C   UNL     1      31.960 -34.371  24.186  1.00  0.00     0.041 C 
ATOM      5  O   UNL     1      32.818 -33.677  24.794  1.00  0.00    -0.550 OA
ATOM      6  O   UNL     1      32.350 -35.156  23.109  1.00  0.00    -0.550 OA
ENDBRANCH   3   4
ENDBRANCH   2   3
ENDBRANCH   1   2
BRANCH   1   7
ATOM      7  C   UNL     1      28.054 -34.716  25.658  1.00  0.00     0.000 C 
BRANCH   7   8
ATOM      8  C   UNL     1      26.610 -34.434  26.111  1.00  0.00     0.004 C 
BRANCH   8   9
ATOM      9  C   UNL     1      26.553 -33.875  27.540  1.00  0.00     0.027 C 
BRANCH   9  10
ATOM     10  C   UNL     1      25.962 -34.856  28.518  1.00  0.00    -0.035 C 
ATOM     11  C   UNL     1      25.756 -36.137  28.192  1.00  0.00     0.004 C 
ENDBRANCH   9  10
ENDBRANCH   8   9
ENDBRANCH   7   8
ENDBRANCH   1   7
TORSDOF 7
ENDMDL
MODEL 3
REMARK VINA RESULT:    -4.102      1.472      1.721
REMARK INTER + INTRA:          -5.948
REMARK INTER:                  -5.601
REMARK INTRA:                  -0.346
REMARK UNBOUND:                -0.167
REMARK SMILES C=CCCCCCCC(=O)[O-]
REMARK SMILES IDX 6 1 7 2 8 3 9 4 10 5 11 6 5 7 4 8 3 9 2 10 1 11
REMARK H PARENT
REMARK Flexibility Score: inf
ROOT
ATOM      1  C   UNL     1      21.088 -23.788  15.137  1.00  0.00     0.000 C 
ENDROOT
BRANCH   1   2
ATOM      2  C   UNL     1      21.946 -24.235  16.331  1.00  0.00     0.006 C 
BRANCH   2   3
ATOM      3  C   UNL     1      23.213 -23.384  16.445  1.00  0.00     0.053 C 
BRANCH   3   4
ATOM      4  C   UNL     1      23.283 -22.723  17.784  1.00  0.00     0.041 C 
ATOM      5  O   UNL     1      24.343 -22.153  18.155  1.00  0.00    -0.550 OA
ATOM      6  O   UNL     1      22.162 -22.691  18.604  1.00  0.00    -0.550 OA
ENDBRANCH   3   4
ENDBRANCH   2   3
ENDBRANCH   1   2
BRANCH   1   7
ATOM      7  C   UNL     1      19.599 -24.121  15.321  1.00  0.00     0.000 C 
BRANCH   7   8
ATOM      8  C   UNL     1      19.101 -23.838  16.750  1.00  0.00     0.004 C 
BRANCH   8   9
ATOM      9  C   UNL     1      17.590 -24.076  16.892  1.00  0.00     0.027 C 
BRANCH   9  10
ATOM     10  C   UNL     1      17.188 -25.470  16.488  1.00  0.00    -0.035 C 
ATOM     11  C   UNL     1      16.443 -26.246  17.282  1.00  0.00     0.004 C 
ENDBRANCH   9  10
ENDBRANCH   8   9
ENDBRANCH   7   8
ENDBRANCH   1   7
TORSDOF 7
ENDMDL
MODEL 4
REMARK VINA RESULT:    -4.029     14.801     15.960
REMARK INTER + INTRA:          -5.845
REMARK INTER:                  -5.421
REMARK INTRA:                  -0.424
REMARK UNBOUND:                -0.167
REMARK SMILES C=CCCCCCCC(=O)[O-]
REMARK SMILES IDX 6 1 7 2 8 3 9 4 10 5 11 6 5 7 4 8 3 9 2 10 1 11
REMARK H PARENT
REMARK Flexibility Score: inf
ROOT
ATOM      1  C   UNL     1      29.913 -34.328  25.301  1.00  0.00     0.000 C 
ENDROOT
BRANCH   1   2
ATOM      2  C   UNL     1      28.560 -35.023  25.515  1.00  0.00     0.006 C 
BRANCH   2   3
ATOM      3  C   UNL     1      27.752 -34.323  26.611  1.00  0.00     0.053 C 
BRANCH   3   4
ATOM      4  C   UNL     1      26.541 -33.665  26.032  1.00  0.00     0.041 C 
ATOM      5  O   UNL     1      26.057 -34.074  24.943  1.00  0.00    -0.550 OA
ATOM      6  O   UNL     1      25.914 -32.632  26.717  1.00  0.00    -0.550 OA
ENDBRANCH   3   4
ENDBRANCH   2   3
ENDBRANCH   1   2
BRANCH   1   7
ATOM      7  C   UNL     1      30.347 -34.318  23.827  1.00  0.00     0.000 C 
BRANCH   7   8
ATOM      8  C   UNL     1      29.151 -34.321  22.857  1.00  0.00     0.004 C 
BRANCH   8   9
ATOM      9  C   UNL     1      29.342 -35.322  21.709  1.00  0.00     0.027 C 
BRANCH   9  10
ATOM     10  C   UNL     1      30.782 -35.442  21.285  1.00  0.00    -0.035 C 
ATOM     11  C   UNL     1      31.124 -35.869  20.065  1.00  0.00     0.004 C 
ENDBRANCH   9  10
ENDBRANCH   8   9
ENDBRANCH   7   8
ENDBRANCH   1   7
TORSDOF 7
ENDMDL
MODEL 5
REMARK VINA RESULT:    -4.028      3.706      6.388
REMARK INTER + INTRA:          -5.843
REMARK INTER:                  -5.417
REMARK INTRA:                  -0.427
REMARK UNBOUND:                -0.167
REMARK SMILES C=CCCCCCCC(=O)[O-]
REMARK SMILES IDX 6 1 7 2 8 3 9 4 10 5 11 6 5 7 4 8 3 9 2 10 1 11
REMARK H PARENT
REMARK Flexibility Score: inf
ROOT
ATOM      1  C   UNL     1      20.599 -23.884  15.007  1.00  0.00     0.000 C 
ENDROOT
BRANCH   1   2
ATOM      2  C   UNL     1      19.276 -24.634  14.782  1.00  0.00     0.006 C 
BRANCH   2   3
ATOM      3  C   UNL     1      18.237 -24.240  15.834  1.00  0.00     0.053 C 
BRANCH   3   4
ATOM      4  C   UNL     1      17.243 -25.340  16.028  1.00  0.00     0.041 C 
ATOM      5  O   UNL     1      17.390 -26.169  16.966  1.00  0.00    -0.550 OA
ATOM      6  O   UNL     1      16.126 -25.423  15.207  1.00  0.00    -0.550 OA
ENDBRANCH   3   4
ENDBRANCH   2   3
ENDBRANCH   1   2
BRANCH   1   7
ATOM      7  C   UNL     1      20.627 -23.123  16.342  1.00  0.00     0.000 C 
BRANCH   7   8
ATOM      8  C   UNL     1      21.662 -23.695  17.328  1.00  0.00     0.004 C 
BRANCH   8   9
ATOM      9  C   UNL     1      22.847 -24.351  16.603  1.00  0.00     0.027 C 
BRANCH   9  10
ATOM     10  C   UNL     1      24.163 -23.714  16.961  1.00  0.00    -0.035 C 
ATOM     11  C   UNL     1      24.554 -22.555  16.421  1.00  0.00     0.004 C 
ENDBRANCH   9  10
ENDBRANCH   8   9
ENDBRANCH   7   8
ENDBRANCH   1   7
TORSDOF 7
ENDMDL
MODEL 6
REMARK VINA RESULT:    -4.026      2.056      2.818
REMARK INTER + INTRA:          -5.840
REMARK INTER:                  -5.563
REMARK INTRA:                  -0.277
REMARK UNBOUND:                -0.167
REMARK SMILES C=CCCCCCCC(=O)[O-]
REMARK SMILES IDX 6 1 7 2 8 3 9 4 10 5 11 6 5 7 4 8 3 9 2 10 1 11
REMARK H PARENT
REMARK Flexibility Score: inf
ROOT
ATOM      1  C   UNL     1      19.593 -24.436  14.431  1.00  0.00     0.000 C 
ENDROOT
BRANCH   1   2
ATOM      2  C   UNL     1      20.358 -23.285  15.103  1.00  0.00     0.006 C 
BRANCH   2   3
ATOM      3  C   UNL     1      21.442 -23.823  16.041  1.00  0.00     0.053 C 
BRANCH   3   4
ATOM      4  C   UNL     1      21.062 -23.594  17.469  1.00  0.00     0.041 C 
ATOM      5  O   UNL     1      19.939 -23.973  17.894  1.00  0.00    -0.550 OA
ATOM      6  O   UNL     1      21.967 -23.007  18.344  1.00  0.00    -0.550 OA
ENDBRANCH   3   4
ENDBRANCH   2   3
ENDBRANCH   1   2
BRANCH   1   7
ATOM      7  C   UNL     1      18.101 -24.452  14.802  1.00  0.00     0.000 C 
BRANCH   7   8
ATOM      8  C   UNL     1      17.762 -25.536  15.842  1.00  0.00     0.004 C 
BRANCH   8   9
ATOM      9  C   UNL     1      16.270 -25.537  16.206  1.00  0.00     0.027 C 
BRANCH   9  10
ATOM     10  C   UNL     1      15.988 -26.313  17.466  1.00  0.00    -0.035 C 
ATOM     11  C   UNL     1      14.749 -26.689  17.800  1.00  0.00     0.004 C 
ENDBRANCH   9  10
ENDBRANCH   8   9
ENDBRANCH   7   8
ENDBRANCH   1   7
TORSDOF 7
ENDMDL
MODEL 7
REMARK VINA RESULT:    -3.979      3.275      6.069
REMARK INTER + INTRA:          -5.775
REMARK INTER:                  -5.087
REMARK INTRA:                  -0.687
REMARK UNBOUND:                -0.167
REMARK SMILES C=CCCCCCCC(=O)[O-]
REMARK SMILES IDX 6 1 7 2 8 3 9 4 10 5 11 6 5 7 4 8 3 9 2 10 1 11
REMARK H PARENT
REMARK Flexibility Score: inf
ROOT
ATOM      1  C   UNL     1      23.988 -23.695  17.004  1.00  0.00     0.000 C 
ENDROOT
BRANCH   1   2
ATOM      2  C   UNL     1      22.637 -24.259  16.538  1.00  0.00     0.006 C 
BRANCH   2   3
ATOM      3  C   UNL     1      21.475 -23.440  17.109  1.00  0.00     0.053 C 
BRANCH   3   4
ATOM      4  C   UNL     1      20.198 -23.788  16.414  1.00  0.00     0.041 C 
ATOM      5  O   UNL     1      19.208 -24.200  17.076  1.00  0.00    -0.550 OA
ATOM      6  O   UNL     1      20.081 -23.609  15.042  1.00  0.00    -0.550 OA
ENDBRANCH   3   4
ENDBRANCH   2   3
ENDBRANCH   1   2
BRANCH   1   7
ATOM      7  C   UNL     1      23.836 -22.428  17.862  1.00  0.00     0.000 C 
BRANCH   7   8
ATOM      8  C   UNL     1      24.503 -21.197  17.223  1.00  0.00     0.004 C 
BRANCH   8   9
ATOM      9  C   UNL     1      25.095 -21.513  15.841  1.00  0.00     0.027 C 
BRANCH   9  10
ATOM     10  C   UNL     1      24.315 -20.875  14.723  1.00  0.00    -0.035 C 
ATOM     11  C   UNL     1      23.320 -21.517  14.102  1.00  0.00     0.004 C 
ENDBRANCH   9  10
ENDBRANCH   8   9
ENDBRANCH   7   8
ENDBRANCH   1   7
TORSDOF 7
ENDMDL
MODEL 8
REMARK VINA RESULT:    -3.973      3.136      5.795
REMARK INTER + INTRA:          -5.766
REMARK INTER:                  -4.962
REMARK INTRA:                  -0.805
REMARK UNBOUND:                -0.167
REMARK SMILES C=CCCCCCCC(=O)[O-]
REMARK SMILES IDX 6 1 7 2 8 3 9 4 10 5 11 6 5 7 4 8 3 9 2 10 1 11
REMARK H PARENT
REMARK Flexibility Score: inf
ROOT
ATOM      1  C   UNL     1      22.197 -22.395  13.983  1.00  0.00     0.000 C 
ENDROOT
BRANCH   1   2
ATOM      2  C   UNL     1      21.259 -23.336  14.756  1.00  0.00     0.006 C 
BRANCH   2   3
ATOM      3  C   UNL     1      20.749 -22.670  16.037  1.00  0.00     0.053 C 
BRANCH   3   4
ATOM      4  C   UNL     1      20.246 -23.699  16.998  1.00  0.00     0.041 C 
ATOM      5  O   UNL     1      20.885 -23.945  18.055  1.00  0.00    -0.550 OA
ATOM      6  O   UNL     1      19.044 -24.352  16.754  1.00  0.00    -0.550 OA
ENDBRANCH   3   4
ENDBRANCH   2   3
ENDBRANCH   1   2
BRANCH   1   7
ATOM      7  C   UNL     1      22.819 -21.313  14.880  1.00  0.00     0.000 C 
BRANCH   7   8
ATOM      8  C   UNL     1      24.321 -21.541  15.128  1.00  0.00     0.004 C 
BRANCH   8   9
ATOM      9  C   UNL     1      24.673 -21.484  16.622  1.00  0.00     0.027 C 
BRANCH   9  10
ATOM     10  C   UNL     1      24.111 -22.652  17.389  1.00  0.00    -0.035 C 
ATOM     11  C   UNL     1      24.282 -23.912  16.978  1.00  0.00     0.004 C 
ENDBRANCH   9  10
ENDBRANCH   8   9
ENDBRANCH   7   8
ENDBRANCH   1   7
TORSDOF 7
ENDMDL
MODEL 9
REMARK VINA RESULT:    -3.949     15.085     15.953
REMARK INTER + INTRA:          -5.732
REMARK INTER:                  -5.370
REMARK INTRA:                  -0.362
REMARK UNBOUND:                -0.167
REMARK SMILES C=CCCCCCCC(=O)[O-]
REMARK SMILES IDX 6 1 7 2 8 3 9 4 10 5 11 6 5 7 4 8 3 9 2 10 1 11
REMARK H PARENT
REMARK Flexibility Score: inf
ROOT
ATOM      1  C   UNL     1      29.486 -34.747  25.642  1.00  0.00     0.000 C 
ENDROOT
BRANCH   1   2
ATOM      2  C   UNL     1      28.602 -35.103  24.437  1.00  0.00     0.006 C 
BRANCH   2   3
ATOM      3  C   UNL     1      29.431 -35.738  23.318  1.00  0.00     0.053 C 
BRANCH   3   4
ATOM      4  C   UNL     1      29.597 -34.782  22.180  1.00  0.00     0.041 C 
ATOM      5  O   UNL     1      29.102 -33.626  22.247  1.00  0.00    -0.550 OA
ATOM      6  O   UNL     1      30.342 -35.147  21.066  1.00  0.00    -0.550 OA
ENDBRANCH   3   4
ENDBRANCH   2   3
ENDBRANCH   1   2
BRANCH   1   7
ATOM      7  C   UNL     1      28.667 -34.341  26.878  1.00  0.00     0.000 C 
BRANCH   7   8
ATOM      8  C   UNL     1      27.174 -34.141  26.559  1.00  0.00     0.004 C 
BRANCH   8   9
ATOM      9  C   UNL     1      26.352 -33.826  27.817  1.00  0.00     0.027 C 
BRANCH   9  10
ATOM     10  C   UNL     1      26.129 -35.043  28.676  1.00  0.00    -0.035 C 
ATOM     11  C   UNL     1      25.650 -36.184  28.169  1.00  0.00     0.004 C 
ENDBRANCH   9  10
ENDBRANCH   8   9
ENDBRANCH   7   8
ENDBRANCH   1   7
TORSDOF 7
ENDMDL
