MODEL 1
REMARK VINA RESULT:    -3.937      0.000      0.000
REMARK INTER + INTRA:         -13.861
REMARK INTER:                  -9.922
REMARK INTRA:                  -3.939
REMARK UNBOUND:                -3.939
REMARK SMILES CCCCCCCCCCCCCCCCCCCCCCCCCCCC(=O)[O-]
REMARK SMILES IDX 15 1 16 2 17 3 18 4 19 5 20 6 21 7 22 8 23 9 24 10 25 11
REMARK SMILES IDX 26 12 27 13 28 14 29 15 30 16 14 17 13 18 12 19 11 20 10 21
REMARK SMILES IDX 9 22 8 23 7 24 6 25 5 26 4 27 3 28 2 29 1 30
REMARK H PARENT
REMARK Flexibility Score: inf
ROOT
ATOM      1  C   UNL     1     -94.339 145.797 240.451  1.00  0.00     0.000 C 
ENDROOT
BRANCH   1   2
ATOM      2  C   UNL     1     -95.618 145.024 240.096  1.00  0.00     0.000 C 
BRANCH   2   3
ATOM      3  C   UNL     1     -96.898 145.754 240.537  1.00  0.00     0.000 C 
BRANCH   3   4
ATOM      4  C   UNL     1     -97.802 146.239 239.386  1.00  0.00     0.000 C 
BRANCH   4   5
ATOM      5  C   UNL     1     -98.640 147.498 239.691  1.00  0.00     0.000 C 
BRANCH   5   6
ATOM      6  C   UNL     1     -97.856 148.823 239.684  1.00  0.00     0.000 C 
BRANCH   6   7
ATOM      7  C   UNL     1     -98.279 149.778 240.816  1.00  0.00     0.000 C 
BRANCH   7   8
ATOM      8  C   UNL     1     -97.344 149.689 242.041  1.00  0.00     0.000 C 
BRANCH   8   9
ATOM      9  C   UNL     1     -97.645 148.500 242.970  1.00  0.00     0.000 C 
BRANCH   9  10
ATOM     10  C   UNL     1     -98.601 148.861 244.115  1.00  0.00     0.000 C 
BRANCH  10  11
ATOM     11  C   UNL     1     -98.381 150.301 244.592  1.00  0.00     0.000 C 
BRANCH  11  12
ATOM     12  C   UNL     1     -98.761 150.449 246.073  1.00  0.00     0.006 C 
BRANCH  12  13
ATOM     13  C   UNL     1     -98.023 151.611 246.751  1.00  0.00     0.053 C 
BRANCH  13  14
ATOM     14  C   UNL     1     -98.958 152.711 247.150  1.00  0.00     0.041 C 
ATOM     15  O   UNL     1     -99.885 153.067 246.375  1.00  0.00    -0.550 OA
ATOM     16  O   UNL     1     -98.815 153.334 248.384  1.00  0.00    -0.550 OA
ENDBRANCH  13  14
ENDBRANCH  12  13
ENDBRANCH  11  12
ENDBRANCH  10  11
ENDBRANCH   9  10
ENDBRANCH   8   9
ENDBRANCH   7   8
ENDBRANCH   6   7
ENDBRANCH   5   6
ENDBRANCH   4   5
ENDBRANCH   3   4
ENDBRANCH   2   3
ENDBRANCH   1   2
BRANCH   1  17
ATOM     17  C   UNL     1     -94.658 147.005 241.340  1.00  0.00     0.000 C 
BRANCH  17  18
ATOM     18  C   UNL     1     -94.287 148.318 240.637  1.00  0.00     0.000 C 
BRANCH  18  19
ATOM     19  C   UNL     1     -93.710 148.101 239.226  1.00  0.00     0.000 C 
BRANCH  19  20
ATOM     20  C   UNL     1     -94.575 148.656 238.077  1.00  0.00     0.000 C 
BRANCH  20  21
ATOM     21  C   UNL     1     -95.295 147.592 237.227  1.00  0.00     0.000 C 
BRANCH  21  22
ATOM     22  C   UNL     1     -94.427 146.383 236.824  1.00  0.00    -0.000 C 
BRANCH  22  23
ATOM     23  C   UNL     1     -93.469 146.631 235.645  1.00  0.00    -0.000 C 
BRANCH  23  24
ATOM     24  C   UNL     1     -94.212 146.918 234.328  1.00  0.00    -0.000 C 
BRANCH  24  25
ATOM     25  C   UNL     1     -93.903 148.316 233.764  1.00  0.00    -0.000 C 
BRANCH  25  26
ATOM     26  C   UNL     1     -95.153 149.210 233.677  1.00  0.00    -0.000 C 
BRANCH  26  27
ATOM     27  C   UNL     1     -95.197 150.283 234.781  1.00  0.00    -0.000 C 
BRANCH  27  28
ATOM     28  C   UNL     1     -95.579 151.701 234.304  1.00  0.00    -0.000 C 
BRANCH  28  29
ATOM     29  C   UNL     1     -96.931 152.221 234.825  1.00  0.00    -0.003 C 
ATOM     30  C   UNL     1     -96.822 153.581 235.514  1.00  0.00     0.004 C 
ENDBRANCH  28  29
ENDBRANCH  27  28
ENDBRANCH  26  27
ENDBRANCH  25  26
ENDBRANCH  24  25
ENDBRANCH  23  24
ENDBRANCH  22  23
ENDBRANCH  21  22
ENDBRANCH  20  21
ENDBRANCH  19  20
ENDBRANCH  18  19
ENDBRANCH  17  18
ENDBRANCH   1  17
TORSDOF 26
ENDMDL
MODEL 2
REMARK VINA RESULT:    -3.917      3.715      5.923
REMARK INTER + INTRA:         -13.810
REMARK INTER:                  -8.696
REMARK INTRA:                  -5.114
REMARK UNBOUND:                -3.939
REMARK SMILES CCCCCCCCCCCCCCCCCCCCCCCCCCCC(=O)[O-]
REMARK SMILES IDX 15 1 16 2 17 3 18 4 19 5 20 6 21 7 22 8 23 9 24 10 25 11
REMARK SMILES IDX 26 12 27 13 28 14 29 15 30 16 14 17 13 18 12 19 11 20 10 21
REMARK SMILES IDX 9 22 8 23 7 24 6 25 5 26 4 27 3 28 2 29 1 30
REMARK H PARENT
REMARK Flexibility Score: inf
ROOT
ATOM      1  C   UNL     1     -93.152 146.801 239.196  1.00  0.00     0.000 C 
ENDROOT
BRANCH   1   2
ATOM      2  C   UNL     1     -93.865 146.111 240.367  1.00  0.00     0.000 C 
BRANCH   2   3
ATOM      3  C   UNL     1     -94.625 147.100 241.269  1.00  0.00     0.000 C 
BRANCH   3   4
ATOM      4  C   UNL     1     -94.659 148.554 240.759  1.00  0.00     0.000 C 
BRANCH   4   5
ATOM      5  C   UNL     1     -95.927 149.352 241.127  1.00  0.00     0.000 C 
BRANCH   5   6
ATOM      6  C   UNL     1     -97.003 148.556 241.888  1.00  0.00     0.000 C 
BRANCH   6   7
ATOM      7  C   UNL     1     -98.424 149.108 241.672  1.00  0.00     0.000 C 
BRANCH   7   8
ATOM      8  C   UNL     1     -98.434 150.383 240.802  1.00  0.00     0.000 C 
BRANCH   8   9
ATOM      9  C   UNL     1     -99.537 150.398 239.730  1.00  0.00     0.000 C 
BRANCH   9  10
ATOM     10  C   UNL     1     -99.204 151.311 238.541  1.00  0.00     0.000 C 
BRANCH  10  11
ATOM     11  C   UNL     1     -99.568 150.644 237.209  1.00  0.00     0.000 C 
BRANCH  11  12
ATOM     12  C   UNL     1     -98.805 151.297 236.047  1.00  0.00     0.006 C 
BRANCH  12  13
ATOM     13  C   UNL     1     -99.556 152.498 235.457  1.00  0.00     0.053 C 
BRANCH  13  14
ATOM     14  C   UNL     1     -98.760 153.763 235.564  1.00  0.00     0.041 C 
ATOM     15  O   UNL     1     -97.644 153.859 234.988  1.00  0.00    -0.550 OA
ATOM     16  O   UNL     1     -99.256 154.840 236.289  1.00  0.00    -0.550 OA
ENDBRANCH  13  14
ENDBRANCH  12  13
ENDBRANCH  11  12
ENDBRANCH  10  11
ENDBRANCH   9  10
ENDBRANCH   8   9
ENDBRANCH   7   8
ENDBRANCH   6   7
ENDBRANCH   5   6
ENDBRANCH   4   5
ENDBRANCH   3   4
ENDBRANCH   2   3
ENDBRANCH   1   2
BRANCH   1  17
ATOM     17  C   UNL     1     -91.913 146.006 238.763  1.00  0.00     0.000 C 
BRANCH  17  18
ATOM     18  C   UNL     1     -91.975 145.665 237.267  1.00  0.00     0.000 C 
BRANCH  18  19
ATOM     19  C   UNL     1     -93.181 146.304 236.556  1.00  0.00     0.000 C 
BRANCH  19  20
ATOM     20  C   UNL     1     -93.740 145.494 235.369  1.00  0.00     0.000 C 
BRANCH  20  21
ATOM     21  C   UNL     1     -95.275 145.506 235.234  1.00  0.00     0.000 C 
BRANCH  21  22
ATOM     22  C   UNL     1     -95.834 146.533 234.229  1.00  0.00    -0.000 C 
BRANCH  22  23
ATOM     23  C   UNL     1     -94.773 147.296 233.418  1.00  0.00    -0.000 C 
BRANCH  23  24
ATOM     24  C   UNL     1     -94.454 148.680 234.012  1.00  0.00    -0.000 C 
BRANCH  24  25
ATOM     25  C   UNL     1     -95.679 149.346 234.660  1.00  0.00    -0.000 C 
BRANCH  25  26
ATOM     26  C   UNL     1     -95.350 150.006 236.011  1.00  0.00    -0.000 C 
BRANCH  26  27
ATOM     27  C   UNL     1     -95.452 149.028 237.196  1.00  0.00    -0.000 C 
BRANCH  27  28
ATOM     28  C   UNL     1     -96.818 148.324 237.352  1.00  0.00    -0.000 C 
BRANCH  28  29
ATOM     29  C   UNL     1     -96.792 147.030 238.186  1.00  0.00    -0.003 C 
ATOM     30  C   UNL     1     -98.129 146.730 238.862  1.00  0.00     0.004 C 
ENDBRANCH  28  29
ENDBRANCH  27  28
ENDBRANCH  26  27
ENDBRANCH  25  26
ENDBRANCH  24  25
ENDBRANCH  23  24
ENDBRANCH  22  23
ENDBRANCH  21  22
ENDBRANCH  20  21
ENDBRANCH  19  20
ENDBRANCH  18  19
ENDBRANCH  17  18
ENDBRANCH   1  17
TORSDOF 26
ENDMDL
MODEL 3
REMARK VINA RESULT:    -3.896      2.801      4.802
REMARK INTER + INTRA:         -13.757
REMARK INTER:                  -8.439
REMARK INTRA:                  -5.318
REMARK UNBOUND:                -3.939
REMARK SMILES CCCCCCCCCCCCCCCCCCCCCCCCCCCC(=O)[O-]
REMARK SMILES IDX 15 1 16 2 17 3 18 4 19 5 20 6 21 7 22 8 23 9 24 10 25 11
REMARK SMILES IDX 26 12 27 13 28 14 29 15 30 16 14 17 13 18 12 19 11 20 10 21
REMARK SMILES IDX 9 22 8 23 7 24 6 25 5 26 4 27 3 28 2 29 1 30
REMARK H PARENT
REMARK Flexibility Score: inf
ROOT
ATOM      1  C   UNL     1     -95.905 147.702 237.277  1.00  0.00     0.000 C 
ENDROOT
BRANCH   1   2
ATOM      2  C   UNL     1     -95.020 148.827 237.831  1.00  0.00     0.000 C 
BRANCH   2   3
ATOM      3  C   UNL     1     -93.859 148.302 238.695  1.00  0.00     0.000 C 
BRANCH   3   4
ATOM      4  C   UNL     1     -93.400 146.867 238.369  1.00  0.00     0.000 C 
BRANCH   4   5
ATOM      5  C   UNL     1     -92.958 146.024 239.583  1.00  0.00     0.000 C 
BRANCH   5   6
ATOM      6  C   UNL     1     -94.052 145.772 240.636  1.00  0.00     0.000 C 
BRANCH   6   7
ATOM      7  C   UNL     1     -95.359 145.230 240.028  1.00  0.00     0.000 C 
BRANCH   7   8
ATOM      8  C   UNL     1     -96.599 146.015 240.503  1.00  0.00     0.000 C 
BRANCH   8   9
ATOM      9  C   UNL     1     -96.659 146.227 242.025  1.00  0.00     0.000 C 
BRANCH   9  10
ATOM     10  C   UNL     1     -96.876 147.695 242.419  1.00  0.00     0.000 C 
BRANCH  10  11
ATOM     11  C   UNL     1     -96.372 148.644 241.326  1.00  0.00     0.000 C 
BRANCH  11  12
ATOM     12  C   UNL     1     -97.166 149.959 241.337  1.00  0.00     0.006 C 
BRANCH  12  13
ATOM     13  C   UNL     1     -98.480 149.854 240.551  1.00  0.00     0.053 C 
BRANCH  13  14
ATOM     14  C   UNL     1     -99.671 150.155 241.409  1.00  0.00     0.041 C 
ATOM     15  O   UNL     1     -99.656 149.871 242.635  1.00  0.00    -0.550 OA
ATOM     16  O   UNL     1    -100.793 150.761 240.856  1.00  0.00    -0.550 OA
ENDBRANCH  13  14
ENDBRANCH  12  13
ENDBRANCH  11  12
ENDBRANCH  10  11
ENDBRANCH   9  10
ENDBRANCH   8   9
ENDBRANCH   7   8
ENDBRANCH   6   7
ENDBRANCH   5   6
ENDBRANCH   4   5
ENDBRANCH   3   4
ENDBRANCH   2   3
ENDBRANCH   1   2
BRANCH   1  17
ATOM     17  C   UNL     1     -97.385 147.971 237.576  1.00  0.00     0.000 C 
BRANCH  17  18
ATOM     18  C   UNL     1     -97.830 149.315 236.983  1.00  0.00     0.000 C 
BRANCH  18  19
ATOM     19  C   UNL     1     -99.076 149.193 236.088  1.00  0.00     0.000 C 
BRANCH  19  20
ATOM     20  C   UNL     1     -98.817 149.394 234.581  1.00  0.00     0.000 C 
BRANCH  20  21
ATOM     21  C   UNL     1     -98.057 148.246 233.890  1.00  0.00     0.000 C 
BRANCH  21  22
ATOM     22  C   UNL     1     -96.562 148.519 233.626  1.00  0.00    -0.000 C 
BRANCH  22  23
ATOM     23  C   UNL     1     -96.188 150.003 233.466  1.00  0.00    -0.000 C 
BRANCH  23  24
ATOM     24  C   UNL     1     -95.170 150.474 234.520  1.00  0.00    -0.000 C 
BRANCH  24  25
ATOM     25  C   UNL     1     -95.630 151.735 235.270  1.00  0.00    -0.000 C 
BRANCH  25  26
ATOM     26  C   UNL     1     -96.873 152.383 234.635  1.00  0.00    -0.000 C 
BRANCH  26  27
ATOM     27  C   UNL     1     -97.125 153.816 235.139  1.00  0.00    -0.000 C 
BRANCH  27  28
ATOM     28  C   UNL     1     -98.293 153.967 236.137  1.00  0.00    -0.000 C 
BRANCH  28  29
ATOM     29  C   UNL     1     -99.122 152.690 236.366  1.00  0.00    -0.003 C 
ATOM     30  C   UNL     1     -99.583 152.530 237.813  1.00  0.00     0.004 C 
ENDBRANCH  28  29
ENDBRANCH  27  28
ENDBRANCH  26  27
ENDBRANCH  25  26
ENDBRANCH  24  25
ENDBRANCH  23  24
ENDBRANCH  22  23
ENDBRANCH  21  22
ENDBRANCH  20  21
ENDBRANCH  19  20
ENDBRANCH  18  19
ENDBRANCH  17  18
ENDBRANCH   1  17
TORSDOF 26
ENDMDL
MODEL 4
REMARK VINA RESULT:    -3.895      3.815      7.501
REMARK INTER + INTRA:         -13.755
REMARK INTER:                  -8.639
REMARK INTRA:                  -5.115
REMARK UNBOUND:                -3.939
REMARK SMILES CCCCCCCCCCCCCCCCCCCCCCCCCCCC(=O)[O-]
REMARK SMILES IDX 15 1 16 2 17 3 18 4 19 5 20 6 21 7 22 8 23 9 24 10 25 11
REMARK SMILES IDX 26 12 27 13 28 14 29 15 30 16 14 17 13 18 12 19 11 20 10 21
REMARK SMILES IDX 9 22 8 23 7 24 6 25 5 26 4 27 3 28 2 29 1 30
REMARK H PARENT
REMARK Flexibility Score: inf
ROOT
ATOM      1  C   UNL     1     -97.625 149.101 237.847  1.00  0.00     0.000 C 
ENDROOT
BRANCH   1   2
ATOM      2  C   UNL     1     -97.708 147.607 238.191  1.00  0.00     0.000 C 
BRANCH   2   3
ATOM      3  C   UNL     1     -97.686 146.705 236.944  1.00  0.00     0.000 C 
BRANCH   3   4
ATOM      4  C   UNL     1     -97.738 147.454 235.597  1.00  0.00     0.000 C 
BRANCH   4   5
ATOM      5  C   UNL     1     -96.557 147.177 234.643  1.00  0.00     0.000 C 
BRANCH   5   6
ATOM      6  C   UNL     1     -96.464 148.118 233.428  1.00  0.00     0.000 C 
BRANCH   6   7
ATOM      7  C   UNL     1     -95.142 148.907 233.378  1.00  0.00     0.000 C 
BRANCH   7   8
ATOM      8  C   UNL     1     -94.746 149.478 234.756  1.00  0.00     0.000 C 
BRANCH   8   9
ATOM      9  C   UNL     1     -95.458 150.793 235.115  1.00  0.00     0.000 C 
BRANCH   9  10
ATOM     10  C   UNL     1     -95.816 151.637 233.884  1.00  0.00     0.000 C 
BRANCH  10  11
ATOM     11  C   UNL     1     -97.328 151.871 233.791  1.00  0.00     0.000 C 
BRANCH  11  12
ATOM     12  C   UNL     1     -98.029 151.432 235.085  1.00  0.00     0.006 C 
BRANCH  12  13
ATOM     13  C   UNL     1     -98.857 152.562 235.712  1.00  0.00     0.053 C 
BRANCH  13  14
ATOM     14  C   UNL     1     -98.233 153.905 235.485  1.00  0.00     0.041 C 
ATOM     15  O   UNL     1     -98.815 154.760 234.767  1.00  0.00    -0.550 OA
ATOM     16  O   UNL     1     -97.015 154.217 236.078  1.00  0.00    -0.550 OA
ENDBRANCH  13  14
ENDBRANCH  12  13
ENDBRANCH  11  12
ENDBRANCH  10  11
ENDBRANCH   9  10
ENDBRANCH   8   9
ENDBRANCH   7   8
ENDBRANCH   6   7
ENDBRANCH   5   6
ENDBRANCH   4   5
ENDBRANCH   3   4
ENDBRANCH   2   3
ENDBRANCH   1   2
BRANCH   1  17
ATOM     17  C   UNL     1     -98.652 149.907 238.653  1.00  0.00     0.000 C 
BRANCH  17  18
ATOM     18  C   UNL     1     -98.811 149.334 240.069  1.00  0.00     0.000 C 
BRANCH  18  19
ATOM     19  C   UNL     1     -98.124 150.196 241.144  1.00  0.00     0.000 C 
BRANCH  19  20
ATOM     20  C   UNL     1     -96.706 149.736 241.537  1.00  0.00     0.000 C 
BRANCH  20  21
ATOM     21  C   UNL     1     -96.566 148.231 241.835  1.00  0.00     0.000 C 
BRANCH  21  22
ATOM     22  C   UNL     1     -95.376 147.537 241.142  1.00  0.00    -0.000 C 
BRANCH  22  23
ATOM     23  C   UNL     1     -94.485 148.461 240.294  1.00  0.00    -0.000 C 
BRANCH  23  24
ATOM     24  C   UNL     1     -93.562 147.682 239.339  1.00  0.00    -0.000 C 
BRANCH  24  25
ATOM     25  C   UNL     1     -94.069 147.686 237.887  1.00  0.00    -0.000 C 
BRANCH  25  26
ATOM     26  C   UNL     1     -93.999 146.296 237.230  1.00  0.00    -0.000 C 
BRANCH  26  27
ATOM     27  C   UNL     1     -92.778 146.133 236.306  1.00  0.00    -0.000 C 
BRANCH  27  28
ATOM     28  C   UNL     1     -93.099 146.077 234.797  1.00  0.00    -0.000 C 
BRANCH  28  29
ATOM     29  C   UNL     1     -91.879 146.213 233.866  1.00  0.00    -0.003 C 
ATOM     30  C   UNL     1     -91.606 147.657 233.449  1.00  0.00     0.004 C 
ENDBRANCH  28  29
ENDBRANCH  27  28
ENDBRANCH  26  27
ENDBRANCH  25  26
ENDBRANCH  24  25
ENDBRANCH  23  24
ENDBRANCH  22  23
ENDBRANCH  21  22
ENDBRANCH  20  21
ENDBRANCH  19  20
ENDBRANCH  18  19
ENDBRANCH  17  18
ENDBRANCH   1  17
TORSDOF 26
ENDMDL
MODEL 5
REMARK VINA RESULT:    -3.890      3.789      8.007
REMARK INTER + INTRA:         -13.742
REMARK INTER:                  -9.722
REMARK INTRA:                  -4.020
REMARK UNBOUND:                -3.939
REMARK SMILES CCCCCCCCCCCCCCCCCCCCCCCCCCCC(=O)[O-]
REMARK SMILES IDX 15 1 16 2 17 3 18 4 19 5 20 6 21 7 22 8 23 9 24 10 25 11
REMARK SMILES IDX 26 12 27 13 28 14 29 15 30 16 14 17 13 18 12 19 11 20 10 21
REMARK SMILES IDX 9 22 8 23 7 24 6 25 5 26 4 27 3 28 2 29 1 30
REMARK H PARENT
REMARK Flexibility Score: inf
ROOT
ATOM      1  C   UNL     1     -91.713 145.827 237.361  1.00  0.00     0.000 C 
ENDROOT
BRANCH   1   2
ATOM      2  C   UNL     1     -92.990 145.625 236.532  1.00  0.00     0.000 C 
BRANCH   2   3
ATOM      3  C   UNL     1     -93.187 146.717 235.466  1.00  0.00     0.000 C 
BRANCH   3   4
ATOM      4  C   UNL     1     -92.215 146.645 234.271  1.00  0.00     0.000 C 
BRANCH   4   5
ATOM      5  C   UNL     1     -92.611 147.497 233.047  1.00  0.00     0.000 C 
BRANCH   5   6
ATOM      6  C   UNL     1     -94.058 147.307 232.558  1.00  0.00     0.000 C 
BRANCH   6   7
ATOM      7  C   UNL     1     -94.827 148.635 232.426  1.00  0.00     0.000 C 
BRANCH   7   8
ATOM      8  C   UNL     1     -95.678 148.949 233.675  1.00  0.00     0.000 C 
BRANCH   8   9
ATOM      9  C   UNL     1     -94.972 149.851 234.701  1.00  0.00     0.000 C 
BRANCH   9  10
ATOM     10  C   UNL     1     -95.935 150.797 235.431  1.00  0.00     0.000 C 
BRANCH  10  11
ATOM     11  C   UNL     1     -95.935 152.191 234.795  1.00  0.00     0.000 C 
BRANCH  11  12
ATOM     12  C   UNL     1     -97.253 152.924 235.085  1.00  0.00     0.006 C 
BRANCH  12  13
ATOM     13  C   UNL     1     -97.047 154.174 235.951  1.00  0.00     0.053 C 
BRANCH  13  14
ATOM     14  C   UNL     1     -97.778 155.361 235.402  1.00  0.00     0.041 C 
ATOM     15  O   UNL     1     -99.014 155.292 235.170  1.00  0.00    -0.550 OA
ATOM     16  O   UNL     1     -97.097 156.548 235.157  1.00  0.00    -0.550 OA
ENDBRANCH  13  14
ENDBRANCH  12  13
ENDBRANCH  11  12
ENDBRANCH  10  11
ENDBRANCH   9  10
ENDBRANCH   8   9
ENDBRANCH   7   8
ENDBRANCH   6   7
ENDBRANCH   5   6
ENDBRANCH   4   5
ENDBRANCH   3   4
ENDBRANCH   2   3
ENDBRANCH   1   2
BRANCH   1  17
ATOM     17  C   UNL     1     -92.045 145.974 238.852  1.00  0.00     0.000 C 
BRANCH  17  18
ATOM     18  C   UNL     1     -93.486 146.464 239.049  1.00  0.00     0.000 C 
BRANCH  18  19
ATOM     19  C   UNL     1     -93.570 147.968 239.368  1.00  0.00     0.000 C 
BRANCH  19  20
ATOM     20  C   UNL     1     -94.532 148.771 238.469  1.00  0.00     0.000 C 
BRANCH  20  21
ATOM     21  C   UNL     1     -95.650 147.943 237.805  1.00  0.00     0.000 C 
BRANCH  21  22
ATOM     22  C   UNL     1     -97.084 148.416 238.115  1.00  0.00    -0.000 C 
BRANCH  22  23
ATOM     23  C   UNL     1     -98.041 147.317 238.611  1.00  0.00    -0.000 C 
BRANCH  23  24
ATOM     24  C   UNL     1     -97.312 146.005 238.952  1.00  0.00    -0.000 C 
BRANCH  24  25
ATOM     25  C   UNL     1     -97.431 145.628 240.438  1.00  0.00    -0.000 C 
BRANCH  25  26
ATOM     26  C   UNL     1     -96.345 146.287 241.306  1.00  0.00    -0.000 C 
BRANCH  26  27
ATOM     27  C   UNL     1     -96.924 147.030 242.525  1.00  0.00    -0.000 C 
BRANCH  27  28
ATOM     28  C   UNL     1     -98.029 148.059 242.204  1.00  0.00    -0.000 C 
BRANCH  28  29
ATOM     29  C   UNL     1     -97.586 149.533 242.271  1.00  0.00    -0.003 C 
ATOM     30  C   UNL     1     -96.369 149.830 241.396  1.00  0.00     0.004 C 
ENDBRANCH  28  29
ENDBRANCH  27  28
ENDBRANCH  26  27
ENDBRANCH  25  26
ENDBRANCH  24  25
ENDBRANCH  23  24
ENDBRANCH  22  23
ENDBRANCH  21  22
ENDBRANCH  20  21
ENDBRANCH  19  20
ENDBRANCH  18  19
ENDBRANCH  17  18
ENDBRANCH   1  17
TORSDOF 26
ENDMDL
MODEL 6
REMARK VINA RESULT:    -3.890      3.330      7.630
REMARK INTER + INTRA:         -13.742
REMARK INTER:                  -9.182
REMARK INTRA:                  -4.560
REMARK UNBOUND:                -3.939
REMARK SMILES CCCCCCCCCCCCCCCCCCCCCCCCCCCC(=O)[O-]
REMARK SMILES IDX 15 1 16 2 17 3 18 4 19 5 20 6 21 7 22 8 23 9 24 10 25 11
REMARK SMILES IDX 26 12 27 13 28 14 29 15 30 16 14 17 13 18 12 19 11 20 10 21
REMARK SMILES IDX 9 22 8 23 7 24 6 25 5 26 4 27 3 28 2 29 1 30
REMARK H PARENT
REMARK Flexibility Score: inf
ROOT
ATOM      1  C   UNL     1     -92.316 145.799 236.654  1.00  0.00     0.000 C 
ENDROOT
BRANCH   1   2
ATOM      2  C   UNL     1     -93.046 145.919 235.308  1.00  0.00     0.000 C 
BRANCH   2   3
ATOM      3  C   UNL     1     -92.184 146.583 234.220  1.00  0.00     0.000 C 
BRANCH   3   4
ATOM      4  C   UNL     1     -92.760 147.890 233.639  1.00  0.00     0.000 C 
BRANCH   4   5
ATOM      5  C   UNL     1     -94.154 147.766 232.991  1.00  0.00     0.000 C 
BRANCH   5   6
ATOM      6  C   UNL     1     -95.294 148.465 233.753  1.00  0.00     0.000 C 
BRANCH   6   7
ATOM      7  C   UNL     1     -94.838 149.749 234.471  1.00  0.00     0.000 C 
BRANCH   7   8
ATOM      8  C   UNL     1     -95.936 150.334 235.385  1.00  0.00     0.000 C 
BRANCH   8   9
ATOM      9  C   UNL     1     -97.070 149.347 235.708  1.00  0.00     0.000 C 
BRANCH   9  10
ATOM     10  C   UNL     1     -98.467 149.959 235.530  1.00  0.00     0.000 C 
BRANCH  10  11
ATOM     11  C   UNL     1     -98.651 151.193 236.421  1.00  0.00     0.000 C 
BRANCH  11  12
ATOM     12  C   UNL     1     -99.456 152.278 235.690  1.00  0.00     0.006 C 
BRANCH  12  13
ATOM     13  C   UNL     1     -98.581 153.120 234.752  1.00  0.00     0.053 C 
BRANCH  13  14
ATOM     14  C   UNL     1     -97.715 154.082 235.508  1.00  0.00     0.041 C 
ATOM     15  O   UNL     1     -96.500 153.818 235.707  1.00  0.00    -0.550 OA
ATOM     16  O   UNL     1     -98.247 155.275 235.982  1.00  0.00    -0.550 OA
ENDBRANCH  13  14
ENDBRANCH  12  13
ENDBRANCH  11  12
ENDBRANCH  10  11
ENDBRANCH   9  10
ENDBRANCH   8   9
ENDBRANCH   7   8
ENDBRANCH   6   7
ENDBRANCH   5   6
ENDBRANCH   4   5
ENDBRANCH   3   4
ENDBRANCH   2   3
ENDBRANCH   1   2
BRANCH   1  17
ATOM     17  C   UNL     1     -93.203 146.290 237.805  1.00  0.00     0.000 C 
BRANCH  17  18
ATOM     18  C   UNL     1     -94.225 147.324 237.308  1.00  0.00     0.000 C 
BRANCH  18  19
ATOM     19  C   UNL     1     -94.353 148.538 238.245  1.00  0.00     0.000 C 
BRANCH  19  20
ATOM     20  C   UNL     1     -93.709 148.357 239.635  1.00  0.00     0.000 C 
BRANCH  20  21
ATOM     21  C   UNL     1     -94.704 148.263 240.809  1.00  0.00     0.000 C 
BRANCH  21  22
ATOM     22  C   UNL     1     -95.112 146.829 241.204  1.00  0.00    -0.000 C 
BRANCH  22  23
ATOM     23  C   UNL     1     -96.088 146.138 240.238  1.00  0.00    -0.000 C 
BRANCH  23  24
ATOM     24  C   UNL     1     -97.508 146.729 240.305  1.00  0.00    -0.000 C 
BRANCH  24  25
ATOM     25  C   UNL     1     -97.892 147.500 239.031  1.00  0.00    -0.000 C 
BRANCH  25  26
ATOM     26  C   UNL     1     -97.853 149.026 239.228  1.00  0.00    -0.000 C 
BRANCH  26  27
ATOM     27  C   UNL     1     -98.647 149.490 240.464  1.00  0.00    -0.000 C 
BRANCH  27  28
ATOM     28  C   UNL     1     -97.804 150.142 241.581  1.00  0.00    -0.000 C 
BRANCH  28  29
ATOM     29  C   UNL     1     -97.693 149.318 242.877  1.00  0.00    -0.003 C 
ATOM     30  C   UNL     1     -98.481 149.925 244.037  1.00  0.00     0.004 C 
ENDBRANCH  28  29
ENDBRANCH  27  28
ENDBRANCH  26  27
ENDBRANCH  25  26
ENDBRANCH  24  25
ENDBRANCH  23  24
ENDBRANCH  22  23
ENDBRANCH  21  22
ENDBRANCH  20  21
ENDBRANCH  19  20
ENDBRANCH  18  19
ENDBRANCH  17  18
ENDBRANCH   1  17
TORSDOF 26
ENDMDL
MODEL 7
REMARK VINA RESULT:    -3.875      4.007      7.435
REMARK INTER + INTRA:         -13.704
REMARK INTER:                  -8.541
REMARK INTRA:                  -5.163
REMARK UNBOUND:                -3.939
REMARK SMILES CCCCCCCCCCCCCCCCCCCCCCCCCCCC(=O)[O-]
REMARK SMILES IDX 15 1 16 2 17 3 18 4 19 5 20 6 21 7 22 8 23 9 24 10 25 11
REMARK SMILES IDX 26 12 27 13 28 14 29 15 30 16 14 17 13 18 12 19 11 20 10 21
REMARK SMILES IDX 9 22 8 23 7 24 6 25 5 26 4 27 3 28 2 29 1 30
REMARK H PARENT
REMARK Flexibility Score: inf
ROOT
ATOM      1  C   UNL     1     -95.926 148.778 239.303  1.00  0.00     0.000 C 
ENDROOT
BRANCH   1   2
ATOM      2  C   UNL     1     -94.623 148.631 238.505  1.00  0.00     0.000 C 
BRANCH   2   3
ATOM      3  C   UNL     1     -93.492 147.985 239.324  1.00  0.00     0.000 C 
BRANCH   3   4
ATOM      4  C   UNL     1     -93.000 146.622 238.797  1.00  0.00     0.000 C 
BRANCH   4   5
ATOM      5  C   UNL     1     -93.478 146.254 237.377  1.00  0.00     0.000 C 
BRANCH   5   6
ATOM      6  C   UNL     1     -92.371 145.781 236.417  1.00  0.00     0.000 C 
BRANCH   6   7
ATOM      7  C   UNL     1     -92.813 145.784 234.942  1.00  0.00     0.000 C 
BRANCH   7   8
ATOM      8  C   UNL     1     -93.012 147.211 234.389  1.00  0.00     0.000 C 
BRANCH   8   9
ATOM      9  C   UNL     1     -94.481 147.574 234.111  1.00  0.00     0.000 C 
BRANCH   9  10
ATOM     10  C   UNL     1     -94.906 148.897 234.765  1.00  0.00     0.000 C 
BRANCH  10  11
ATOM     11  C   UNL     1     -96.106 149.515 234.039  1.00  0.00     0.000 C 
BRANCH  11  12
ATOM     12  C   UNL     1     -95.839 150.989 233.701  1.00  0.00     0.006 C 
BRANCH  12  13
ATOM     13  C   UNL     1     -95.799 151.876 234.953  1.00  0.00     0.053 C 
BRANCH  13  14
ATOM     14  C   UNL     1     -96.751 153.029 234.852  1.00  0.00     0.041 C 
ATOM     15  O   UNL     1     -97.413 153.213 233.797  1.00  0.00    -0.550 OA
ATOM     16  O   UNL     1     -96.917 153.893 235.928  1.00  0.00    -0.550 OA
ENDBRANCH  13  14
ENDBRANCH  12  13
ENDBRANCH  11  12
ENDBRANCH  10  11
ENDBRANCH   9  10
ENDBRANCH   8   9
ENDBRANCH   7   8
ENDBRANCH   6   7
ENDBRANCH   5   6
ENDBRANCH   4   5
ENDBRANCH   3   4
ENDBRANCH   2   3
ENDBRANCH   1   2
BRANCH   1  17
ATOM     17  C   UNL     1     -95.636 148.979 240.796  1.00  0.00     0.000 C 
BRANCH  17  18
ATOM     18  C   UNL     1     -96.471 148.017 241.653  1.00  0.00     0.000 C 
BRANCH  18  19
ATOM     19  C   UNL     1     -95.847 146.614 241.759  1.00  0.00     0.000 C 
BRANCH  19  20
ATOM     20  C   UNL     1     -96.684 145.481 241.130  1.00  0.00     0.000 C 
BRANCH  20  21
ATOM     21  C   UNL     1     -96.314 145.124 239.677  1.00  0.00     0.000 C 
BRANCH  21  22
ATOM     22  C   UNL     1     -97.392 145.463 238.628  1.00  0.00    -0.000 C 
BRANCH  22  23
ATOM     23  C   UNL     1     -96.893 145.512 237.173  1.00  0.00    -0.000 C 
BRANCH  23  24
ATOM     24  C   UNL     1     -97.334 146.791 236.438  1.00  0.00    -0.000 C 
BRANCH  24  25
ATOM     25  C   UNL     1     -98.523 147.489 237.119  1.00  0.00    -0.000 C 
BRANCH  25  26
ATOM     26  C   UNL     1     -98.959 148.769 236.385  1.00  0.00    -0.000 C 
BRANCH  26  27
ATOM     27  C   UNL     1     -98.300 150.039 236.956  1.00  0.00    -0.000 C 
BRANCH  27  28
ATOM     28  C   UNL     1     -99.235 151.261 237.091  1.00  0.00    -0.000 C 
BRANCH  28  29
ATOM     29  C   UNL     1     -99.609 151.638 238.536  1.00  0.00    -0.003 C 
ATOM     30  C   UNL     1     -99.179 150.586 239.557  1.00  0.00     0.004 C 
ENDBRANCH  28  29
ENDBRANCH  27  28
ENDBRANCH  26  27
ENDBRANCH  25  26
ENDBRANCH  24  25
ENDBRANCH  23  24
ENDBRANCH  22  23
ENDBRANCH  21  22
ENDBRANCH  20  21
ENDBRANCH  19  20
ENDBRANCH  18  19
ENDBRANCH  17  18
ENDBRANCH   1  17
TORSDOF 26
ENDMDL
MODEL 8
REMARK VINA RESULT:    -3.868      3.009      4.671
REMARK INTER + INTRA:         -13.687
REMARK INTER:                  -8.442
REMARK INTRA:                  -5.245
REMARK UNBOUND:                -3.939
REMARK SMILES CCCCCCCCCCCCCCCCCCCCCCCCCCCC(=O)[O-]
REMARK SMILES IDX 15 1 16 2 17 3 18 4 19 5 20 6 21 7 22 8 23 9 24 10 25 11
REMARK SMILES IDX 26 12 27 13 28 14 29 15 30 16 14 17 13 18 12 19 11 20 10 21
REMARK SMILES IDX 9 22 8 23 7 24 6 25 5 26 4 27 3 28 2 29 1 30
REMARK H PARENT
REMARK Flexibility Score: inf
ROOT
ATOM      1  C   UNL     1     -93.740 148.270 239.049  1.00  0.00     0.000 C 
ENDROOT
BRANCH   1   2
ATOM      2  C   UNL     1     -94.627 148.264 240.303  1.00  0.00     0.000 C 
BRANCH   2   3
ATOM      3  C   UNL     1     -94.456 146.990 241.149  1.00  0.00     0.000 C 
BRANCH   3   4
ATOM      4  C   UNL     1     -95.770 146.351 241.640  1.00  0.00     0.000 C 
BRANCH   4   5
ATOM      5  C   UNL     1     -96.921 146.338 240.612  1.00  0.00     0.000 C 
BRANCH   5   6
ATOM      6  C   UNL     1     -98.328 146.151 241.209  1.00  0.00     0.000 C 
BRANCH   6   7
ATOM      7  C   UNL     1     -98.310 145.932 242.733  1.00  0.00     0.000 C 
BRANCH   7   8
ATOM      8  C   UNL     1     -99.033 147.061 243.498  1.00  0.00     0.000 C 
BRANCH   8   9
ATOM      9  C   UNL     1     -98.089 148.135 244.064  1.00  0.00     0.000 C 
BRANCH   9  10
ATOM     10  C   UNL     1     -98.237 149.493 243.363  1.00  0.00     0.000 C 
BRANCH  10  11
ATOM     11  C   UNL     1     -97.218 149.648 242.229  1.00  0.00     0.000 C 
BRANCH  11  12
ATOM     12  C   UNL     1     -97.859 150.320 241.007  1.00  0.00     0.006 C 
BRANCH  12  13
ATOM     13  C   UNL     1     -99.293 149.832 240.759  1.00  0.00     0.053 C 
BRANCH  13  14
ATOM     14  C   UNL     1     -99.812 150.277 239.425  1.00  0.00     0.041 C 
ATOM     15  O   UNL     1    -100.665 149.581 238.814  1.00  0.00    -0.550 OA
ATOM     16  O   UNL     1     -99.363 151.466 238.863  1.00  0.00    -0.550 OA
ENDBRANCH  13  14
ENDBRANCH  12  13
ENDBRANCH  11  12
ENDBRANCH  10  11
ENDBRANCH   9  10
ENDBRANCH   8   9
ENDBRANCH   7   8
ENDBRANCH   6   7
ENDBRANCH   5   6
ENDBRANCH   4   5
ENDBRANCH   3   4
ENDBRANCH   2   3
ENDBRANCH   1   2
BRANCH   1  17
ATOM     17  C   UNL     1     -93.178 146.871 238.769  1.00  0.00     0.000 C 
BRANCH  17  18
ATOM     18  C   UNL     1     -93.594 146.381 237.374  1.00  0.00     0.000 C 
BRANCH  18  19
ATOM     19  C   UNL     1     -92.418 145.802 236.567  1.00  0.00     0.000 C 
BRANCH  19  20
ATOM     20  C   UNL     1     -92.664 145.690 235.049  1.00  0.00     0.000 C 
BRANCH  20  21
ATOM     21  C   UNL     1     -92.013 146.798 234.198  1.00  0.00     0.000 C 
BRANCH  21  22
ATOM     22  C   UNL     1     -93.000 147.799 233.564  1.00  0.00    -0.000 C 
BRANCH  22  23
ATOM     23  C   UNL     1     -94.470 147.619 233.981  1.00  0.00    -0.000 C 
BRANCH  23  24
ATOM     24  C   UNL     1     -95.173 148.957 234.272  1.00  0.00    -0.000 C 
BRANCH  24  25
ATOM     25  C   UNL     1     -95.233 149.282 235.774  1.00  0.00    -0.000 C 
BRANCH  25  26
ATOM     26  C   UNL     1     -96.662 149.590 236.257  1.00  0.00    -0.000 C 
BRANCH  26  27
ATOM     27  C   UNL     1     -97.031 148.838 237.550  1.00  0.00    -0.000 C 
BRANCH  27  28
ATOM     28  C   UNL     1     -97.922 147.592 237.355  1.00  0.00    -0.000 C 
BRANCH  28  29
ATOM     29  C   UNL     1     -97.165 146.299 237.000  1.00  0.00    -0.003 C 
ATOM     30  C   UNL     1     -97.347 145.882 235.541  1.00  0.00     0.004 C 
ENDBRANCH  28  29
ENDBRANCH  27  28
ENDBRANCH  26  27
ENDBRANCH  25  26
ENDBRANCH  24  25
ENDBRANCH  23  24
ENDBRANCH  22  23
ENDBRANCH  21  22
ENDBRANCH  20  21
ENDBRANCH  19  20
ENDBRANCH  18  19
ENDBRANCH  17  18
ENDBRANCH   1  17
TORSDOF 26
ENDMDL
MODEL 9
REMARK VINA RESULT:    -3.830      1.836      3.365
REMARK INTER + INTRA:         -13.590
REMARK INTER:                  -7.978
REMARK INTRA:                  -5.612
REMARK UNBOUND:                -3.939
REMARK SMILES CCCCCCCCCCCCCCCCCCCCCCCCCCCC(=O)[O-]
REMARK SMILES IDX 15 1 16 2 17 3 18 4 19 5 20 6 21 7 22 8 23 9 24 10 25 11
REMARK SMILES IDX 26 12 27 13 28 14 29 15 30 16 14 17 13 18 12 19 11 20 10 21
REMARK SMILES IDX 9 22 8 23 7 24 6 25 5 26 4 27 3 28 2 29 1 30
REMARK H PARENT
REMARK Flexibility Score: inf
ROOT
ATOM      1  C   UNL     1     -98.526 150.147 240.920  1.00  0.00     0.000 C 
ENDROOT
BRANCH   1   2
ATOM      2  C   UNL     1     -98.555 149.224 239.694  1.00  0.00     0.000 C 
BRANCH   2   3
ATOM      3  C   UNL     1     -99.757 148.262 239.700  1.00  0.00     0.000 C 
BRANCH   3   4
ATOM      4  C   UNL     1     -99.451 146.833 239.206  1.00  0.00     0.000 C 
BRANCH   4   5
ATOM      5  C   UNL     1     -97.953 146.486 239.081  1.00  0.00     0.000 C 
BRANCH   5   6
ATOM      6  C   UNL     1     -97.459 145.373 240.023  1.00  0.00     0.000 C 
BRANCH   6   7
ATOM      7  C   UNL     1     -98.252 145.306 241.342  1.00  0.00     0.000 C 
BRANCH   7   8
ATOM      8  C   UNL     1     -97.357 145.523 242.580  1.00  0.00     0.000 C 
BRANCH   8   9
ATOM      9  C   UNL     1     -97.859 146.625 243.528  1.00  0.00     0.000 C 
BRANCH   9  10
ATOM     10  C   UNL     1     -99.275 147.111 243.186  1.00  0.00     0.000 C 
BRANCH  10  11
ATOM     11  C   UNL     1     -99.736 148.206 244.154  1.00  0.00     0.000 C 
BRANCH  11  12
ATOM     12  C   UNL     1     -98.542 149.031 244.654  1.00  0.00     0.006 C 
BRANCH  12  13
ATOM     13  C   UNL     1     -98.861 150.530 244.737  1.00  0.00     0.053 C 
BRANCH  13  14
ATOM     14  C   UNL     1     -98.780 151.042 246.143  1.00  0.00     0.041 C 
ATOM     15  O   UNL     1     -99.818 151.116 246.851  1.00  0.00    -0.550 OA
ATOM     16  O   UNL     1     -97.555 151.427 246.675  1.00  0.00    -0.550 OA
ENDBRANCH  13  14
ENDBRANCH  12  13
ENDBRANCH  11  12
ENDBRANCH  10  11
ENDBRANCH   9  10
ENDBRANCH   8   9
ENDBRANCH   7   8
ENDBRANCH   6   7
ENDBRANCH   5   6
ENDBRANCH   4   5
ENDBRANCH   3   4
ENDBRANCH   2   3
ENDBRANCH   1   2
BRANCH   1  17
ATOM     17  C   UNL     1     -97.151 150.114 241.599  1.00  0.00     0.000 C 
BRANCH  17  18
ATOM     18  C   UNL     1     -96.353 148.877 241.163  1.00  0.00     0.000 C 
BRANCH  18  19
ATOM     19  C   UNL     1     -95.025 149.235 240.472  1.00  0.00     0.000 C 
BRANCH  19  20
ATOM     20  C   UNL     1     -93.872 148.243 240.726  1.00  0.00     0.000 C 
BRANCH  20  21
ATOM     21  C   UNL     1     -94.308 146.796 241.025  1.00  0.00     0.000 C 
BRANCH  21  22
ATOM     22  C   UNL     1     -93.693 145.725 240.102  1.00  0.00    -0.000 C 
BRANCH  22  23
ATOM     23  C   UNL     1     -92.561 146.224 239.187  1.00  0.00    -0.000 C 
BRANCH  23  24
ATOM     24  C   UNL     1     -92.986 146.308 237.710  1.00  0.00    -0.000 C 
BRANCH  24  25
ATOM     25  C   UNL     1     -94.465 145.943 237.495  1.00  0.00    -0.000 C 
BRANCH  25  26
ATOM     26  C   UNL     1     -95.219 146.990 236.656  1.00  0.00    -0.000 C 
BRANCH  26  27
ATOM     27  C   UNL     1     -94.952 148.434 237.122  1.00  0.00    -0.000 C 
BRANCH  27  28
ATOM     28  C   UNL     1     -95.841 149.511 236.465  1.00  0.00    -0.000 C 
BRANCH  28  29
ATOM     29  C   UNL     1     -97.279 149.063 236.147  1.00  0.00    -0.003 C 
ATOM     30  C   UNL     1     -98.294 150.202 236.242  1.00  0.00     0.004 C 
ENDBRANCH  28  29
ENDBRANCH  27  28
ENDBRANCH  26  27
ENDBRANCH  25  26
ENDBRANCH  24  25
ENDBRANCH  23  24
ENDBRANCH  22  23
ENDBRANCH  21  22
ENDBRANCH  20  21
ENDBRANCH  19  20
ENDBRANCH  18  19
ENDBRANCH  17  18
ENDBRANCH   1  17
TORSDOF 26
ENDMDL
