MODEL 1
REMARK VINA RESULT:    -6.566      0.000      0.000
REMARK INTER + INTRA:          -8.804
REMARK INTER:                  -8.294
REMARK INTRA:                  -0.511
REMARK UNBOUND:                -0.511
REMARK SMILES Oc1ccc(CCc2cc(O)cc(O)c2)cc1
REMARK SMILES IDX 6 1 5 2 4 3 3 4 2 5 16 6 17 7 1 8 7 10 8 11 15 12 9 13 13 14
REMARK SMILES IDX 10 15 12 16 14 17 11 19
REMARK H PARENT 1 9 14 18 11 20
REMARK Flexibility Score: inf
ROOT
ATOM      1  C   UNL     1      -9.226  -7.624  -4.892  1.00  0.00     0.040 C 
ENDROOT
BRANCH   1   2
ATOM      2  C   UNL     1      -8.741  -8.995  -5.280  1.00  0.00    -0.047 A 
ATOM      3  C   UNL     1      -7.404  -9.191  -5.663  1.00  0.00     0.007 A 
ATOM      4  C   UNL     1      -6.962 -10.458  -6.054  1.00  0.00     0.046 A 
ATOM      5  C   UNL     1      -7.854 -11.539  -6.078  1.00  0.00     0.115 A 
ATOM      6  C   UNL     1      -9.634 -10.078  -5.318  1.00  0.00     0.007 A 
ATOM      7  C   UNL     1      -9.189 -11.345  -5.710  1.00  0.00     0.046 A 
BRANCH   5   8
ATOM      8  O   UNL     1      -7.425 -12.806  -6.466  1.00  0.00    -0.508 OA
ATOM      9  H   UNL     1      -7.462 -13.595  -5.830  1.00  0.00     0.293 HD
ENDBRANCH   5   8
ENDBRANCH   1   2
BRANCH   1  10
ATOM     10  C   UNL     1     -10.656  -7.397  -5.394  1.00  0.00     0.040 C 
BRANCH  10  11
ATOM     11  C   UNL     1     -10.728  -6.155  -6.242  1.00  0.00    -0.040 A 
ATOM     12  C   UNL     1     -11.278  -4.974  -5.721  1.00  0.00     0.050 A 
ATOM     13  C   UNL     1     -10.299  -6.186  -7.579  1.00  0.00     0.050 A 
ATOM     14  C   UNL     1     -11.375  -3.826  -6.520  1.00  0.00     0.119 A 
ATOM     15  C   UNL     1     -10.395  -5.039  -8.379  1.00  0.00     0.119 A 
ATOM     16  C   UNL     1     -10.930  -3.862  -7.846  1.00  0.00     0.092 A 
BRANCH  14  17
ATOM     17  O   UNL     1     -11.913  -2.647  -6.008  1.00  0.00    -0.508 OA
ATOM     18  H   UNL     1     -11.343  -1.982  -5.500  1.00  0.00     0.293 HD
ENDBRANCH  14  17
BRANCH  15  19
ATOM     19  O   UNL     1      -9.966  -5.060  -9.704  1.00  0.00    -0.508 OA
ATOM     20  H   UNL     1     -10.490  -4.599 -10.438  1.00  0.00     0.293 HD
ENDBRANCH  15  19
ENDBRANCH  10  11
ENDBRANCH   1  10
TORSDOF 6
ENDMDL
MODEL 2
REMARK VINA RESULT:    -6.532      0.065      2.031
REMARK INTER + INTRA:          -8.761
REMARK INTER:                  -8.247
REMARK INTRA:                  -0.514
REMARK UNBOUND:                -0.511
REMARK SMILES Oc1ccc(CCc2cc(O)cc(O)c2)cc1
REMARK SMILES IDX 6 1 5 2 4 3 3 4 2 5 16 6 17 7 1 8 7 10 8 11 15 12 9 13 13 14
REMARK SMILES IDX 10 15 12 16 14 17 11 19
REMARK H PARENT 1 9 14 18 11 20
REMARK Flexibility Score: inf
ROOT
ATOM      1  C   UNL     1      -9.246  -7.596  -4.920  1.00  0.00     0.040 C 
ENDROOT
BRANCH   1   2
ATOM      2  C   UNL     1      -8.736  -8.966  -5.278  1.00  0.00    -0.047 A 
ATOM      3  C   UNL     1      -7.391  -9.150  -5.638  1.00  0.00     0.007 A 
ATOM      4  C   UNL     1      -6.926 -10.417  -6.002  1.00  0.00     0.046 A 
ATOM      5  C   UNL     1      -7.803 -11.511  -6.022  1.00  0.00     0.115 A 
ATOM      6  C   UNL     1      -9.614 -10.062  -5.313  1.00  0.00     0.007 A 
ATOM      7  C   UNL     1      -9.146 -11.328  -5.678  1.00  0.00     0.046 A 
BRANCH   5   8
ATOM      8  O   UNL     1      -7.351 -12.777  -6.383  1.00  0.00    -0.508 OA
ATOM      9  H   UNL     1      -6.382 -13.048  -6.263  1.00  0.00     0.293 HD
ENDBRANCH   5   8
ENDBRANCH   1   2
BRANCH   1  10
ATOM     10  C   UNL     1     -10.692  -7.418  -5.394  1.00  0.00     0.040 C 
BRANCH  10  11
ATOM     11  C   UNL     1     -10.819  -6.192  -6.257  1.00  0.00    -0.040 A 
ATOM     12  C   UNL     1     -10.350  -6.206  -7.580  1.00  0.00     0.050 A 
ATOM     13  C   UNL     1     -11.353  -5.006  -5.728  1.00  0.00     0.050 A 
ATOM     14  C   UNL     1     -10.436  -5.054  -8.374  1.00  0.00     0.119 A 
ATOM     15  C   UNL     1     -11.441  -3.853  -6.521  1.00  0.00     0.119 A 
ATOM     16  C   UNL     1     -10.986  -3.882  -7.842  1.00  0.00     0.092 A 
BRANCH  14  17
ATOM     17  O   UNL     1      -9.980  -5.063  -9.691  1.00  0.00    -0.508 OA
ATOM     18  H   UNL     1      -9.905  -5.924 -10.219  1.00  0.00     0.293 HD
ENDBRANCH  14  17
BRANCH  15  19
ATOM     19  O   UNL     1     -11.977  -2.676  -6.005  1.00  0.00    -0.508 OA
ATOM     20  H   UNL     1     -12.501  -2.032  -6.586  1.00  0.00     0.293 HD
ENDBRANCH  15  19
ENDBRANCH  10  11
ENDBRANCH   1  10
TORSDOF 6
ENDMDL
MODEL 3
REMARK VINA RESULT:    -6.238      5.518     10.351
REMARK INTER + INTRA:          -8.390
REMARK INTER:                  -7.873
REMARK INTRA:                  -0.518
REMARK UNBOUND:                -0.511
REMARK SMILES Oc1ccc(CCc2cc(O)cc(O)c2)cc1
REMARK SMILES IDX 6 1 5 2 4 3 3 4 2 5 16 6 17 7 1 8 7 10 8 11 15 12 9 13 13 14
REMARK SMILES IDX 10 15 12 16 14 17 11 19
REMARK H PARENT 1 9 14 18 11 20
REMARK Flexibility Score: inf
ROOT
ATOM      1  C   UNL     1      -3.166 -11.132  -5.722  1.00  0.00     0.040 C 
ENDROOT
BRANCH   1   2
ATOM      2  C   UNL     1      -4.629 -11.242  -6.055  1.00  0.00    -0.047 A 
ATOM      3  C   UNL     1      -5.584 -10.556  -5.287  1.00  0.00     0.007 A 
ATOM      4  C   UNL     1      -6.945 -10.684  -5.578  1.00  0.00     0.046 A 
ATOM      5  C   UNL     1      -7.367 -11.508  -6.631  1.00  0.00     0.115 A 
ATOM      6  C   UNL     1      -5.056 -12.077  -7.101  1.00  0.00     0.007 A 
ATOM      7  C   UNL     1      -6.419 -12.204  -7.390  1.00  0.00     0.046 A 
BRANCH   5   8
ATOM      8  O   UNL     1      -8.720 -11.644  -6.930  1.00  0.00    -0.508 OA
ATOM      9  H   UNL     1      -9.035 -12.189  -7.725  1.00  0.00     0.293 HD
ENDBRANCH   5   8
ENDBRANCH   1   2
BRANCH   1  10
ATOM     10  C   UNL     1      -2.472 -12.489  -5.888  1.00  0.00     0.040 C 
BRANCH  10  11
ATOM     11  C   UNL     1      -1.794 -12.896  -4.607  1.00  0.00    -0.040 A 
ATOM     12  C   UNL     1      -0.393 -12.922  -4.526  1.00  0.00     0.050 A 
ATOM     13  C   UNL     1      -2.557 -13.309  -3.503  1.00  0.00     0.050 A 
ATOM     14  C   UNL     1       0.239 -13.333  -3.344  1.00  0.00     0.119 A 
ATOM     15  C   UNL     1      -1.926 -13.720  -2.321  1.00  0.00     0.119 A 
ATOM     16  C   UNL     1      -0.530 -13.728  -2.244  1.00  0.00     0.092 A 
BRANCH  14  17
ATOM     17  O   UNL     1       1.630 -13.354  -3.253  1.00  0.00    -0.508 OA
ATOM     18  H   UNL     1       2.102 -13.359  -2.357  1.00  0.00     0.293 HD
ENDBRANCH  14  17
BRANCH  15  19
ATOM     19  O   UNL     1      -2.676 -14.125  -1.219  1.00  0.00    -0.508 OA
ATOM     20  H   UNL     1      -3.631 -14.450  -1.319  1.00  0.00     0.293 HD
ENDBRANCH  15  19
ENDBRANCH  10  11
ENDBRANCH   1  10
TORSDOF 6
ENDMDL
MODEL 4
REMARK VINA RESULT:    -6.205      1.395      6.877
REMARK INTER + INTRA:          -8.348
REMARK INTER:                  -7.844
REMARK INTRA:                  -0.504
REMARK UNBOUND:                -0.511
REMARK SMILES Oc1ccc(CCc2cc(O)cc(O)c2)cc1
REMARK SMILES IDX 6 1 5 2 4 3 3 4 2 5 16 6 17 7 1 8 7 10 8 11 15 12 9 13 13 14
REMARK SMILES IDX 10 15 12 16 14 17 11 19
REMARK H PARENT 1 9 14 18 11 20
REMARK Flexibility Score: inf
ROOT
ATOM      1  C   UNL     1     -10.873  -6.984  -5.501  1.00  0.00     0.040 C 
ENDROOT
BRANCH   1   2
ATOM      2  C   UNL     1     -10.971  -5.909  -6.550  1.00  0.00    -0.047 A 
ATOM      3  C   UNL     1     -11.811  -4.801  -6.353  1.00  0.00     0.007 A 
ATOM      4  C   UNL     1     -11.925  -3.819  -7.341  1.00  0.00     0.046 A 
ATOM      5  C   UNL     1     -11.211  -3.940  -8.541  1.00  0.00     0.115 A 
ATOM      6  C   UNL     1     -10.268  -6.033  -7.759  1.00  0.00     0.007 A 
ATOM      7  C   UNL     1     -10.384  -5.050  -8.747  1.00  0.00     0.046 A 
BRANCH   5   8
ATOM      8  O   UNL     1     -11.318  -2.968  -9.533  1.00  0.00    -0.508 OA
ATOM      9  H   UNL     1     -12.034  -3.018 -10.248  1.00  0.00     0.293 HD
ENDBRANCH   5   8
ENDBRANCH   1   2
BRANCH   1  10
ATOM     10  C   UNL     1      -9.407  -7.266  -5.154  1.00  0.00     0.040 C 
BRANCH  10  11
ATOM     11  C   UNL     1      -9.129  -8.744  -5.194  1.00  0.00    -0.040 A 
ATOM     12  C   UNL     1      -7.810  -9.218  -5.112  1.00  0.00     0.050 A 
ATOM     13  C   UNL     1     -10.181  -9.657  -5.374  1.00  0.00     0.050 A 
ATOM     14  C   UNL     1      -7.548 -10.594  -5.183  1.00  0.00     0.119 A 
ATOM     15  C   UNL     1      -9.919 -11.033  -5.445  1.00  0.00     0.119 A 
ATOM     16  C   UNL     1      -8.604 -11.497  -5.346  1.00  0.00     0.092 A 
BRANCH  14  17
ATOM     17  O   UNL     1      -6.242 -11.072  -5.094  1.00  0.00    -0.508 OA
ATOM     18  H   UNL     1      -6.036 -12.063  -5.145  1.00  0.00     0.293 HD
ENDBRANCH  14  17
BRANCH  15  19
ATOM     19  O   UNL     1     -10.957 -11.945  -5.615  1.00  0.00    -0.508 OA
ATOM     20  H   UNL     1     -11.490 -12.296  -4.828  1.00  0.00     0.293 HD
ENDBRANCH  15  19
ENDBRANCH  10  11
ENDBRANCH   1  10
TORSDOF 6
ENDMDL
MODEL 5
REMARK VINA RESULT:    -6.193      5.550     10.227
REMARK INTER + INTRA:          -8.333
REMARK INTER:                  -7.804
REMARK INTRA:                  -0.529
REMARK UNBOUND:                -0.511
REMARK SMILES Oc1ccc(CCc2cc(O)cc(O)c2)cc1
REMARK SMILES IDX 6 1 5 2 4 3 3 4 2 5 16 6 17 7 1 8 7 10 8 11 15 12 9 13 13 14
REMARK SMILES IDX 10 15 12 16 14 17 11 19
REMARK H PARENT 1 9 14 18 11 20
REMARK Flexibility Score: inf
ROOT
ATOM      1  C   UNL     1      -3.166 -11.106  -5.668  1.00  0.00     0.040 C 
ENDROOT
BRANCH   1   2
ATOM      2  C   UNL     1      -4.615 -11.248  -6.050  1.00  0.00    -0.047 A 
ATOM      3  C   UNL     1      -5.610 -10.577  -5.320  1.00  0.00     0.007 A 
ATOM      4  C   UNL     1      -6.957 -10.736  -5.655  1.00  0.00     0.046 A 
ATOM      5  C   UNL     1      -7.326 -11.575  -6.716  1.00  0.00     0.115 A 
ATOM      6  C   UNL     1      -4.990 -12.098  -7.103  1.00  0.00     0.007 A 
ATOM      7  C   UNL     1      -6.339 -12.255  -7.437  1.00  0.00     0.046 A 
BRANCH   5   8
ATOM      8  O   UNL     1      -8.665 -11.740  -7.059  1.00  0.00    -0.508 OA
ATOM      9  H   UNL     1      -8.961 -11.789  -8.027  1.00  0.00     0.293 HD
ENDBRANCH   5   8
ENDBRANCH   1   2
BRANCH   1  10
ATOM     10  C   UNL     1      -2.413 -12.417  -5.915  1.00  0.00     0.040 C 
BRANCH  10  11
ATOM     11  C   UNL     1      -1.768 -12.904  -4.646  1.00  0.00    -0.040 A 
ATOM     12  C   UNL     1      -2.560 -13.301  -3.557  1.00  0.00     0.050 A 
ATOM     13  C   UNL     1      -0.369 -12.909  -4.520  1.00  0.00     0.050 A 
ATOM     14  C   UNL     1      -1.959 -13.722  -2.362  1.00  0.00     0.119 A 
ATOM     15  C   UNL     1       0.233 -13.330  -3.326  1.00  0.00     0.119 A 
ATOM     16  C   UNL     1      -0.564 -13.739  -2.252  1.00  0.00     0.092 A 
BRANCH  14  17
ATOM     17  O   UNL     1      -2.738 -14.125  -1.279  1.00  0.00    -0.508 OA
ATOM     18  H   UNL     1      -2.615 -13.721  -0.359  1.00  0.00     0.293 HD
ENDBRANCH  14  17
BRANCH  15  19
ATOM     19  O   UNL     1       1.619 -13.344  -3.196  1.00  0.00    -0.508 OA
ATOM     20  H   UNL     1       2.223 -13.568  -3.979  1.00  0.00     0.293 HD
ENDBRANCH  15  19
ENDBRANCH  10  11
ENDBRANCH   1  10
TORSDOF 6
ENDMDL
MODEL 6
REMARK VINA RESULT:    -6.191      1.352      2.742
REMARK INTER + INTRA:          -8.330
REMARK INTER:                  -7.885
REMARK INTRA:                  -0.445
REMARK UNBOUND:                -0.511
REMARK SMILES Oc1ccc(CCc2cc(O)cc(O)c2)cc1
REMARK SMILES IDX 6 1 5 2 4 3 3 4 2 5 16 6 17 7 1 8 7 10 8 11 15 12 9 13 13 14
REMARK SMILES IDX 10 15 12 16 14 17 11 19
REMARK H PARENT 1 9 14 18 11 20
REMARK Flexibility Score: inf
ROOT
ATOM      1  C   UNL     1     -11.711  -8.484  -5.890  1.00  0.00     0.040 C 
ENDROOT
BRANCH   1   2
ATOM      2  C   UNL     1     -11.180  -9.887  -6.008  1.00  0.00    -0.047 A 
ATOM      3  C   UNL     1     -10.002 -10.258  -5.337  1.00  0.00     0.007 A 
ATOM      4  C   UNL     1      -9.492 -11.552  -5.473  1.00  0.00     0.046 A 
ATOM      5  C   UNL     1     -10.146 -12.486  -6.289  1.00  0.00     0.115 A 
ATOM      6  C   UNL     1     -11.824 -10.822  -6.834  1.00  0.00     0.007 A 
ATOM      7  C   UNL     1     -11.312 -12.116  -6.968  1.00  0.00     0.046 A 
BRANCH   5   8
ATOM      8  O   UNL     1      -9.647 -13.778  -6.431  1.00  0.00    -0.508 OA
ATOM      9  H   UNL     1     -10.100 -14.571  -5.993  1.00  0.00     0.293 HD
ENDBRANCH   5   8
ENDBRANCH   1   2
BRANCH   1  10
ATOM     10  C   UNL     1     -10.570  -7.497  -5.622  1.00  0.00     0.040 C 
BRANCH  10  11
ATOM     11  C   UNL     1     -10.749  -6.247  -6.440  1.00  0.00    -0.040 A 
ATOM     12  C   UNL     1     -10.314  -6.206  -7.775  1.00  0.00     0.050 A 
ATOM     13  C   UNL     1     -11.299  -5.093  -5.859  1.00  0.00     0.050 A 
ATOM     14  C   UNL     1     -10.450  -5.032  -8.527  1.00  0.00     0.119 A 
ATOM     15  C   UNL     1     -11.436  -3.918  -6.611  1.00  0.00     0.119 A 
ATOM     16  C   UNL     1     -11.014  -3.892  -7.944  1.00  0.00     0.092 A 
BRANCH  14  17
ATOM     17  O   UNL     1     -10.027  -4.986  -9.855  1.00  0.00    -0.508 OA
ATOM     18  H   UNL     1     -10.455  -4.360 -10.526  1.00  0.00     0.293 HD
ENDBRANCH  14  17
BRANCH  15  19
ATOM     19  O   UNL     1     -11.987  -2.772  -6.044  1.00  0.00    -0.508 OA
ATOM     20  H   UNL     1     -11.649  -2.401  -5.163  1.00  0.00     0.293 HD
ENDBRANCH  15  19
ENDBRANCH  10  11
ENDBRANCH   1  10
TORSDOF 6
ENDMDL
MODEL 7
REMARK VINA RESULT:    -6.181      1.263      1.744
REMARK INTER + INTRA:          -8.318
REMARK INTER:                  -7.864
REMARK INTRA:                  -0.454
REMARK UNBOUND:                -0.511
REMARK SMILES Oc1ccc(CCc2cc(O)cc(O)c2)cc1
REMARK SMILES IDX 6 1 5 2 4 3 3 4 2 5 16 6 17 7 1 8 7 10 8 11 15 12 9 13 13 14
REMARK SMILES IDX 10 15 12 16 14 17 11 19
REMARK H PARENT 1 9 14 18 11 20
REMARK Flexibility Score: inf
ROOT
ATOM      1  C   UNL     1     -11.543  -8.387  -5.783  1.00  0.00     0.040 C 
ENDROOT
BRANCH   1   2
ATOM      2  C   UNL     1     -11.038  -9.795  -5.946  1.00  0.00    -0.047 A 
ATOM      3  C   UNL     1      -9.836 -10.192  -5.336  1.00  0.00     0.007 A 
ATOM      4  C   UNL     1      -9.352 -11.491  -5.514  1.00  0.00     0.046 A 
ATOM      5  C   UNL     1     -10.057 -12.403  -6.312  1.00  0.00     0.115 A 
ATOM      6  C   UNL     1     -11.734 -10.708  -6.755  1.00  0.00     0.007 A 
ATOM      7  C   UNL     1     -11.247 -12.007  -6.931  1.00  0.00     0.046 A 
BRANCH   5   8
ATOM      8  O   UNL     1      -9.584 -13.700  -6.497  1.00  0.00    -0.508 OA
ATOM      9  H   UNL     1      -8.835 -13.902  -7.149  1.00  0.00     0.293 HD
ENDBRANCH   5   8
ENDBRANCH   1   2
BRANCH   1  10
ATOM     10  C   UNL     1     -10.374  -7.416  -5.584  1.00  0.00     0.040 C 
BRANCH  10  11
ATOM     11  C   UNL     1     -10.579  -6.167  -6.398  1.00  0.00    -0.040 A 
ATOM     12  C   UNL     1     -11.202  -5.045  -5.828  1.00  0.00     0.050 A 
ATOM     13  C   UNL     1     -10.203  -6.135  -7.751  1.00  0.00     0.050 A 
ATOM     14  C   UNL     1     -11.424  -3.893  -6.596  1.00  0.00     0.119 A 
ATOM     15  C   UNL     1     -10.424  -4.983  -8.519  1.00  0.00     0.119 A 
ATOM     16  C   UNL     1     -11.031  -3.865  -7.939  1.00  0.00     0.092 A 
BRANCH  14  17
ATOM     17  O   UNL     1     -12.034  -2.773  -6.036  1.00  0.00    -0.508 OA
ATOM     18  H   UNL     1     -11.818  -2.468  -5.094  1.00  0.00     0.293 HD
ENDBRANCH  14  17
BRANCH  15  19
ATOM     19  O   UNL     1     -10.047  -4.941  -9.859  1.00  0.00    -0.508 OA
ATOM     20  H   UNL     1     -10.650  -5.299 -10.591  1.00  0.00     0.293 HD
ENDBRANCH  15  19
ENDBRANCH  10  11
ENDBRANCH   1  10
TORSDOF 6
ENDMDL
MODEL 8
REMARK VINA RESULT:    -6.171      1.371      6.817
REMARK INTER + INTRA:          -8.305
REMARK INTER:                  -7.806
REMARK INTRA:                  -0.500
REMARK UNBOUND:                -0.511
REMARK SMILES Oc1ccc(CCc2cc(O)cc(O)c2)cc1
REMARK SMILES IDX 6 1 5 2 4 3 3 4 2 5 16 6 17 7 1 8 7 10 8 11 15 12 9 13 13 14
REMARK SMILES IDX 10 15 12 16 14 17 11 19
REMARK H PARENT 1 9 14 18 11 20
REMARK Flexibility Score: inf
ROOT
ATOM      1  C   UNL     1     -10.905  -7.071  -5.554  1.00  0.00     0.040 C 
ENDROOT
BRANCH   1   2
ATOM      2  C   UNL     1     -10.982  -5.972  -6.579  1.00  0.00    -0.047 A 
ATOM      3  C   UNL     1     -11.791  -4.846  -6.351  1.00  0.00     0.007 A 
ATOM      4  C   UNL     1     -11.888  -3.841  -7.317  1.00  0.00     0.046 A 
ATOM      5  C   UNL     1     -11.187  -3.955  -8.525  1.00  0.00     0.115 A 
ATOM      6  C   UNL     1     -10.293  -6.089  -7.797  1.00  0.00     0.007 A 
ATOM      7  C   UNL     1     -10.391  -5.081  -8.762  1.00  0.00     0.046 A 
BRANCH   5   8
ATOM      8  O   UNL     1     -11.276  -2.960  -9.495  1.00  0.00    -0.508 OA
ATOM      9  H   UNL     1     -11.212  -1.978  -9.253  1.00  0.00     0.293 HD
ENDBRANCH   5   8
ENDBRANCH   1   2
BRANCH   1  10
ATOM     10  C   UNL     1      -9.451  -7.311  -5.130  1.00  0.00     0.040 C 
BRANCH  10  11
ATOM     11  C   UNL     1      -9.101  -8.770  -5.243  1.00  0.00    -0.040 A 
ATOM     12  C   UNL     1     -10.114  -9.730  -5.399  1.00  0.00     0.050 A 
ATOM     13  C   UNL     1      -7.765  -9.188  -5.134  1.00  0.00     0.050 A 
ATOM     14  C   UNL     1      -9.791 -11.093  -5.471  1.00  0.00     0.119 A 
ATOM     15  C   UNL     1      -7.441 -10.550  -5.205  1.00  0.00     0.119 A 
ATOM     16  C   UNL     1      -8.455 -11.498  -5.377  1.00  0.00     0.092 A 
BRANCH  14  17
ATOM     17  O   UNL     1     -10.790 -12.051  -5.634  1.00  0.00    -0.508 OA
ATOM     18  H   UNL     1     -10.660 -13.008  -5.329  1.00  0.00     0.293 HD
ENDBRANCH  14  17
BRANCH  15  19
ATOM     19  O   UNL     1      -6.118 -10.971  -5.105  1.00  0.00    -0.508 OA
ATOM     20  H   UNL     1      -5.778 -11.779  -5.613  1.00  0.00     0.293 HD
ENDBRANCH  15  19
ENDBRANCH  10  11
ENDBRANCH   1  10
TORSDOF 6
ENDMDL
MODEL 9
REMARK VINA RESULT:    -5.909      1.369      6.898
REMARK INTER + INTRA:          -7.974
REMARK INTER:                  -7.462
REMARK INTRA:                  -0.512
REMARK UNBOUND:                -0.511
REMARK SMILES Oc1ccc(CCc2cc(O)cc(O)c2)cc1
REMARK SMILES IDX 6 1 5 2 4 3 3 4 2 5 16 6 17 7 1 8 7 10 8 11 15 12 9 13 13 14
REMARK SMILES IDX 10 15 12 16 14 17 11 19
REMARK H PARENT 1 9 14 18 11 20
REMARK Flexibility Score: inf
ROOT
ATOM      1  C   UNL     1     -10.229  -8.720  -5.433  1.00  0.00     0.040 C 
ENDROOT
BRANCH   1   2
ATOM      2  C   UNL     1     -10.478  -7.277  -5.782  1.00  0.00    -0.047 A 
ATOM      3  C   UNL     1     -11.613  -6.614  -5.288  1.00  0.00     0.007 A 
ATOM      4  C   UNL     1     -11.860  -5.284  -5.638  1.00  0.00     0.046 A 
ATOM      5  C   UNL     1     -10.982  -4.606  -6.496  1.00  0.00     0.115 A 
ATOM      6  C   UNL     1      -9.608  -6.599  -6.652  1.00  0.00     0.007 A 
ATOM      7  C   UNL     1      -9.858  -5.268  -7.001  1.00  0.00     0.046 A 
BRANCH   5   8
ATOM      8  O   UNL     1     -11.218  -3.281  -6.852  1.00  0.00    -0.508 OA
ATOM      9  H   UNL     1     -11.848  -3.040  -7.609  1.00  0.00     0.293 HD
ENDBRANCH   5   8
ENDBRANCH   1   2
BRANCH   1  10
ATOM     10  C   UNL     1      -8.864  -8.882  -4.756  1.00  0.00     0.040 C 
BRANCH  10  11
ATOM     11  C   UNL     1      -8.033  -9.907  -5.480  1.00  0.00    -0.040 A 
ATOM     12  C   UNL     1      -6.704  -9.621  -5.831  1.00  0.00     0.050 A 
ATOM     13  C   UNL     1      -8.598 -11.135  -5.862  1.00  0.00     0.050 A 
ATOM     14  C   UNL     1      -5.940 -10.562  -6.535  1.00  0.00     0.119 A 
ATOM     15  C   UNL     1      -7.835 -12.077  -6.566  1.00  0.00     0.119 A 
ATOM     16  C   UNL     1      -6.507 -11.789  -6.897  1.00  0.00     0.092 A 
BRANCH  14  17
ATOM     17  O   UNL     1      -4.618 -10.289  -6.880  1.00  0.00    -0.508 OA
ATOM     18  H   UNL     1      -3.953 -11.031  -7.059  1.00  0.00     0.293 HD
ENDBRANCH  14  17
BRANCH  15  19
ATOM     19  O   UNL     1      -8.387 -13.299  -6.942  1.00  0.00    -0.508 OA
ATOM     20  H   UNL     1      -8.981 -13.828  -6.314  1.00  0.00     0.293 HD
ENDBRANCH  15  19
ENDBRANCH  10  11
ENDBRANCH   1  10
TORSDOF 6
ENDMDL
