MODEL 1
REMARK VINA RESULT:    -4.100      0.000      0.000
REMARK INTER + INTRA:          -5.151
REMARK INTER:                  -5.059
REMARK INTRA:                  -0.092
REMARK UNBOUND:                -0.092
REMARK SMILES CCCCCC(C)=O
REMARK SMILES IDX 4 1 3 2 2 3 1 4 5 5 6 6 8 7 7 8
REMARK H PARENT
REMARK Flexibility Score: inf
ROOT
ATOM      1  C   UNL     1      25.749  56.783  -9.103  1.00  0.00     0.008 C 
ENDROOT
BRANCH   1   2
ATOM      2  C   UNL     1      25.034  56.002  -7.990  1.00  0.00     0.000 C 
BRANCH   2   3
ATOM      3  C   UNL     1      23.902  55.114  -8.526  1.00  0.00    -0.003 C 
ATOM      4  C   UNL     1      22.870  54.761  -7.456  1.00  0.00     0.004 C 
ENDBRANCH   2   3
ENDBRANCH   1   2
BRANCH   1   5
ATOM      5  C   UNL     1      25.423  58.278  -9.022  1.00  0.00     0.075 C 
BRANCH   5   6
ATOM      6  C   UNL     1      26.544  59.102  -9.597  1.00  0.00     0.129 C 
ATOM      7  O   UNL     1      26.801  60.192  -9.109  1.00  0.00    -0.300 OA
ATOM      8  C   UNL     1      27.363  58.610 -10.754  1.00  0.00     0.087 C 
ENDBRANCH   5   6
ENDBRANCH   1   5
TORSDOF 4
ENDMDL
MODEL 2
REMARK VINA RESULT:    -3.957      2.183      5.000
REMARK INTER + INTRA:          -4.975
REMARK INTER:                  -4.916
REMARK INTRA:                  -0.059
REMARK UNBOUND:                -0.092
REMARK SMILES CCCCCC(C)=O
REMARK SMILES IDX 4 1 3 2 2 3 1 4 5 5 6 6 8 7 7 8
REMARK H PARENT
REMARK Flexibility Score: inf
ROOT
ATOM      1  C   UNL     1      25.874  56.999  -9.411  1.00  0.00     0.008 C 
ENDROOT
BRANCH   1   2
ATOM      2  C   UNL     1      26.251  58.487  -9.476  1.00  0.00     0.000 C 
BRANCH   2   3
ATOM      3  C   UNL     1      27.365  58.769 -10.495  1.00  0.00    -0.003 C 
ATOM      4  C   UNL     1      27.879  60.207 -10.426  1.00  0.00     0.004 C 
ENDBRANCH   2   3
ENDBRANCH   1   2
BRANCH   1   5
ATOM      5  C   UNL     1      24.510  56.807  -8.740  1.00  0.00     0.075 C 
BRANCH   5   6
ATOM      6  C   UNL     1      24.419  55.451  -8.092  1.00  0.00     0.129 C 
ATOM      7  O   UNL     1      25.439  54.807  -7.901  1.00  0.00    -0.300 OA
ATOM      8  C   UNL     1      23.101  54.874  -7.665  1.00  0.00     0.087 C 
ENDBRANCH   5   6
ENDBRANCH   1   5
TORSDOF 4
ENDMDL
MODEL 3
REMARK VINA RESULT:    -3.706      1.159      1.704
REMARK INTER + INTRA:          -4.665
REMARK INTER:                  -4.587
REMARK INTRA:                  -0.078
REMARK UNBOUND:                -0.092
REMARK SMILES CCCCCC(C)=O
REMARK SMILES IDX 4 1 3 2 2 3 1 4 5 5 6 6 8 7 7 8
REMARK H PARENT
REMARK Flexibility Score: inf
ROOT
ATOM      1  C   UNL     1      26.336  58.093  -9.655  1.00  0.00     0.008 C 
ENDROOT
BRANCH   1   2
ATOM      2  C   UNL     1      25.173  57.586  -8.789  1.00  0.00     0.000 C 
BRANCH   2   3
ATOM      3  C   UNL     1      25.362  56.129  -8.343  1.00  0.00    -0.003 C 
ATOM      4  C   UNL     1      24.098  55.288  -8.518  1.00  0.00     0.004 C 
ENDBRANCH   2   3
ENDBRANCH   1   2
BRANCH   1   5
ATOM      5  C   UNL     1      26.523  59.606  -9.492  1.00  0.00     0.075 C 
BRANCH   5   6
ATOM      6  C   UNL     1      27.920  60.016  -9.876  1.00  0.00     0.129 C 
ATOM      7  O   UNL     1      28.435  60.980  -9.329  1.00  0.00    -0.300 OA
ATOM      8  C   UNL     1      28.702  59.260 -10.910  1.00  0.00     0.087 C 
ENDBRANCH   5   6
ENDBRANCH   1   5
TORSDOF 4
ENDMDL
MODEL 4
REMARK VINA RESULT:    -3.543     17.010     18.120
REMARK INTER + INTRA:          -4.464
REMARK INTER:                  -4.211
REMARK INTRA:                  -0.253
REMARK UNBOUND:                -0.092
REMARK SMILES CCCCCC(C)=O
REMARK SMILES IDX 4 1 3 2 2 3 1 4 5 5 6 6 8 7 7 8
REMARK H PARENT
REMARK Flexibility Score: inf
ROOT
ATOM      1  C   UNL     1      19.255  44.828  -0.164  1.00  0.00     0.008 C 
ENDROOT
BRANCH   1   2
ATOM      2  C   UNL     1      19.488  44.408   1.295  1.00  0.00     0.000 C 
BRANCH   2   3
ATOM      3  C   UNL     1      19.895  42.933   1.427  1.00  0.00    -0.003 C 
ATOM      4  C   UNL     1      20.823  42.473   0.303  1.00  0.00     0.004 C 
ENDBRANCH   2   3
ENDBRANCH   1   2
BRANCH   1   5
ATOM      5  C   UNL     1      17.843  45.391  -0.356  1.00  0.00     0.075 C 
BRANCH   5   6
ATOM      6  C   UNL     1      16.804  44.365   0.009  1.00  0.00     0.129 C 
ATOM      7  O   UNL     1      16.764  43.306  -0.599  1.00  0.00    -0.300 OA
ATOM      8  C   UNL     1      15.818  44.608   1.114  1.00  0.00     0.087 C 
ENDBRANCH   5   6
ENDBRANCH   1   5
TORSDOF 4
ENDMDL
MODEL 5
REMARK VINA RESULT:    -3.530     16.559     18.467
REMARK INTER + INTRA:          -4.448
REMARK INTER:                  -4.068
REMARK INTRA:                  -0.380
REMARK UNBOUND:                -0.092
REMARK SMILES CCCCCC(C)=O
REMARK SMILES IDX 4 1 3 2 2 3 1 4 5 5 6 6 8 7 7 8
REMARK H PARENT
REMARK Flexibility Score: inf
ROOT
ATOM      1  C   UNL     1      18.061  42.308  -0.056  1.00  0.00     0.008 C 
ENDROOT
BRANCH   1   2
ATOM      2  C   UNL     1      17.063  42.302   1.112  1.00  0.00     0.000 C 
BRANCH   2   3
ATOM      3  C   UNL     1      15.781  43.086   0.797  1.00  0.00    -0.003 C 
ATOM      4  C   UNL     1      15.839  44.534   1.282  1.00  0.00     0.004 C 
ENDBRANCH   2   3
ENDBRANCH   1   2
BRANCH   1   5
ATOM      5  C   UNL     1      19.461  42.712   0.418  1.00  0.00     0.075 C 
BRANCH   5   6
ATOM      6  C   UNL     1      19.511  44.181   0.745  1.00  0.00     0.129 C 
ATOM      7  O   UNL     1      19.800  44.535   1.878  1.00  0.00    -0.300 OA
ATOM      8  C   UNL     1      19.222  45.225  -0.293  1.00  0.00     0.087 C 
ENDBRANCH   5   6
ENDBRANCH   1   5
TORSDOF 4
ENDMDL
MODEL 6
REMARK VINA RESULT:    -3.434     16.488     18.061
REMARK INTER + INTRA:          -4.330
REMARK INTER:                  -4.064
REMARK INTRA:                  -0.265
REMARK UNBOUND:                -0.092
REMARK SMILES CCCCCC(C)=O
REMARK SMILES IDX 4 1 3 2 2 3 1 4 5 5 6 6 8 7 7 8
REMARK H PARENT
REMARK Flexibility Score: inf
ROOT
ATOM      1  C   UNL     1      16.781  43.728   0.773  1.00  0.00     0.008 C 
ENDROOT
BRANCH   1   2
ATOM      2  C   UNL     1      15.698  44.617   1.403  1.00  0.00     0.000 C 
BRANCH   2   3
ATOM      3  C   UNL     1      14.938  45.449   0.359  1.00  0.00    -0.003 C 
ATOM      4  C   UNL     1      15.699  45.582  -0.959  1.00  0.00     0.004 C 
ENDBRANCH   2   3
ENDBRANCH   1   2
BRANCH   1   5
ATOM      5  C   UNL     1      18.111  43.869   1.521  1.00  0.00     0.075 C 
BRANCH   5   6
ATOM      6  C   UNL     1      19.242  44.113   0.558  1.00  0.00     0.129 C 
ATOM      7  O   UNL     1      20.144  43.293   0.470  1.00  0.00    -0.300 OA
ATOM      8  C   UNL     1      19.285  45.339  -0.306  1.00  0.00     0.087 C 
ENDBRANCH   5   6
ENDBRANCH   1   5
TORSDOF 4
ENDMDL
MODEL 7
REMARK VINA RESULT:    -3.422     17.145     17.955
REMARK INTER + INTRA:          -4.315
REMARK INTER:                  -4.176
REMARK INTRA:                  -0.139
REMARK UNBOUND:                -0.092
REMARK SMILES CCCCCC(C)=O
REMARK SMILES IDX 4 1 3 2 2 3 1 4 5 5 6 6 8 7 7 8
REMARK H PARENT
REMARK Flexibility Score: inf
ROOT
ATOM      1  C   UNL     1      17.525  44.272  -0.225  1.00  0.00     0.008 C 
ENDROOT
BRANCH   1   2
ATOM      2  C   UNL     1      16.610  45.422  -0.674  1.00  0.00     0.000 C 
BRANCH   2   3
ATOM      3  C   UNL     1      15.318  45.505   0.151  1.00  0.00    -0.003 C 
ATOM      4  C   UNL     1      15.407  44.733   1.467  1.00  0.00     0.004 C 
ENDBRANCH   2   3
ENDBRANCH   1   2
BRANCH   1   5
ATOM      5  C   UNL     1      18.958  44.767   0.003  1.00  0.00     0.075 C 
BRANCH   5   6
ATOM      6  C   UNL     1      19.618  44.000   1.117  1.00  0.00     0.129 C 
ATOM      7  O   UNL     1      19.382  44.303   2.277  1.00  0.00    -0.300 OA
ATOM      8  C   UNL     1      20.555  42.862   0.837  1.00  0.00     0.087 C 
ENDBRANCH   5   6
ENDBRANCH   1   5
TORSDOF 4
ENDMDL
MODEL 8
REMARK VINA RESULT:    -3.386     16.780     18.305
REMARK INTER + INTRA:          -4.270
REMARK INTER:                  -4.011
REMARK INTRA:                  -0.259
REMARK UNBOUND:                -0.092
REMARK SMILES CCCCCC(C)=O
REMARK SMILES IDX 4 1 3 2 2 3 1 4 5 5 6 6 8 7 7 8
REMARK H PARENT
REMARK Flexibility Score: inf
ROOT
ATOM      1  C   UNL     1      16.944  43.805   0.751  1.00  0.00     0.008 C 
ENDROOT
BRANCH   1   2
ATOM      2  C   UNL     1      18.191  43.817   1.648  1.00  0.00     0.000 C 
BRANCH   2   3
ATOM      3  C   UNL     1      19.472  44.158   0.873  1.00  0.00    -0.003 C 
ATOM      4  C   UNL     1      19.230  45.156  -0.259  1.00  0.00     0.004 C 
ENDBRANCH   2   3
ENDBRANCH   1   2
BRANCH   1   5
ATOM      5  C   UNL     1      15.803  44.608   1.386  1.00  0.00     0.075 C 
BRANCH   5   6
ATOM      6  C   UNL     1      15.096  45.442   0.351  1.00  0.00     0.129 C 
ATOM      7  O   UNL     1      14.050  46.002   0.642  1.00  0.00    -0.300 OA
ATOM      8  C   UNL     1      15.652  45.609  -1.033  1.00  0.00     0.087 C 
ENDBRANCH   5   6
ENDBRANCH   1   5
TORSDOF 4
ENDMDL
MODEL 9
REMARK VINA RESULT:    -3.373     17.677     18.631
REMARK INTER + INTRA:          -4.254
REMARK INTER:                  -3.878
REMARK INTRA:                  -0.377
REMARK UNBOUND:                -0.092
REMARK SMILES CCCCCC(C)=O
REMARK SMILES IDX 4 1 3 2 2 3 1 4 5 5 6 6 8 7 7 8
REMARK H PARENT
REMARK Flexibility Score: inf
ROOT
ATOM      1  C   UNL     1      17.204  43.853   1.332  1.00  0.00     0.008 C 
ENDROOT
BRANCH   1   2
ATOM      2  C   UNL     1      16.771  42.419   0.992  1.00  0.00     0.000 C 
BRANCH   2   3
ATOM      3  C   UNL     1      16.546  42.212  -0.513  1.00  0.00    -0.003 C 
ATOM      4  C   UNL     1      17.636  41.360  -1.162  1.00  0.00     0.004 C 
ENDBRANCH   2   3
ENDBRANCH   1   2
BRANCH   1   5
ATOM      5  C   UNL     1      18.640  43.882   1.866  1.00  0.00     0.075 C 
BRANCH   5   6
ATOM      6  C   UNL     1      19.632  43.798   0.737  1.00  0.00     0.129 C 
ATOM      7  O   UNL     1      19.594  44.628  -0.159  1.00  0.00    -0.300 OA
ATOM      8  C   UNL     1      20.677  42.721   0.691  1.00  0.00     0.087 C 
ENDBRANCH   5   6
ENDBRANCH   1   5
TORSDOF 4
ENDMDL
