MODEL 1
REMARK VINA RESULT:    -5.947      0.000      0.000
REMARK INTER + INTRA:          -6.217
REMARK INTER:                  -6.468
REMARK INTRA:                   0.251
REMARK UNBOUND:                 0.251
REMARK SMILES C[C@H]1[C@H](C)CC[C@@]2(C(=O)[O-])CC[C@]3(C)C(=CC[C@@H]4[C@@]5(C)CC[C@H](O)C(C)(C)[C@H]5CC[C@]43C)[C@H]12
REMARK SMILES IDX 7 1 6 2 11 3 33 4 5 5 12 6 15 7 2 8 3 9 13 10 16 11 1 12
REMARK SMILES IDX 4 13 14 14 31 15 17 16 18 17 30 18 32 19 19 20 29 21 28 22
REMARK SMILES IDX 21 23 20 24 25 25 22 26 23 27 26 28 27 29 8 30 9 31 10 32
REMARK SMILES IDX 24 33
REMARK H PARENT 24 34
REMARK Flexibility Score: inf
ROOT
ATOM      1  C   UNL     1     205.186 206.455 169.198  1.00  0.00     0.017 C 
ATOM      2  C   UNL     1     203.967 206.236 170.123  1.00  0.00     0.014 C 
ATOM      3  C   UNL     1     206.031 207.664 169.761  1.00  0.00     0.014 C 
ATOM      4  C   UNL     1     206.048 205.150 169.193  1.00  0.00     0.030 C 
ATOM      5  C   UNL     1     203.109 205.066 169.652  1.00  0.00     0.004 C 
ATOM      6  C   UNL     1     207.548 207.381 169.924  1.00  0.00     0.013 C 
ATOM      7  C   UNL     1     207.332 205.402 168.370  1.00  0.00    -0.063 C 
ATOM      8  C   UNL     1     205.254 203.819 168.909  1.00  0.00    -0.003 C 
ATOM      9  C   UNL     1     203.900 203.751 169.689  1.00  0.00    -0.011 C 
ATOM     10  C   UNL     1     208.182 206.627 168.698  1.00  0.00    -0.006 C 
ATOM     11  C   UNL     1     207.751 204.588 167.379  1.00  0.00    -0.027 C 
ATOM     12  C   UNL     1     206.119 202.593 169.333  1.00  0.00     0.008 C 
ATOM     13  C   UNL     1     202.991 202.621 169.165  1.00  0.00     0.008 C 
ATOM     14  C   UNL     1     208.081 207.617 167.483  1.00  0.00     0.017 C 
ATOM     15  C   UNL     1     209.690 206.130 168.950  1.00  0.00    -0.020 C 
ATOM     16  C   UNL     1     209.217 204.321 167.125  1.00  0.00     0.032 C 
ATOM     17  C   UNL     1     210.219 205.421 167.632  1.00  0.00     0.006 C 
ATOM     18  C   UNL     1     210.616 207.331 169.341  1.00  0.00     0.008 C 
ATOM     19  C   UNL     1     209.735 205.107 170.125  1.00  0.00     0.012 C 
ATOM     20  C   UNL     1     211.779 205.037 167.581  1.00  0.00    -0.025 C 
ATOM     21  C   UNL     1     211.874 207.483 168.489  1.00  0.00     0.005 C 
ATOM     22  C   UNL     1     212.658 206.148 168.324  1.00  0.00     0.003 C 
ATOM     23  C   UNL     1     212.207 204.922 166.067  1.00  0.00     0.010 C 
ATOM     24  C   UNL     1     212.071 203.639 168.237  1.00  0.00     0.012 C 
ATOM     25  C   UNL     1     214.090 206.389 167.673  1.00  0.00    -0.006 C 
ATOM     26  C   UNL     1     212.700 206.233 165.457  1.00  0.00     0.033 C 
ATOM     27  C   UNL     1     213.946 206.810 166.166  1.00  0.00     0.120 C 
ATOM     28  C   UNL     1     214.863 207.506 168.426  1.00  0.00     0.014 C 
ATOM     29  C   UNL     1     214.976 205.115 167.820  1.00  0.00     0.014 C 
ENDROOT
BRANCH   1  30
ATOM     30  C   UNL     1     204.670 206.805 167.804  1.00  0.00     0.048 C 
ATOM     31  O   UNL     1     204.616 205.942 166.886  1.00  0.00    -0.550 OA
ATOM     32  O   UNL     1     204.255 208.110 167.527  1.00  0.00    -0.550 OA
ENDBRANCH   1  30
BRANCH  27  33
ATOM     33  O   UNL     1     215.095 206.460 165.430  1.00  0.00    -0.393 OA
ATOM     34  H   UNL     1     214.995 205.507 165.172  1.00  0.00     0.210 HD
ENDBRANCH  27  33
TORSDOF 2
ENDMDL
MODEL 2
REMARK VINA RESULT:    -4.759      4.956      9.319
REMARK INTER + INTRA:          -4.925
REMARK INTER:                  -5.233
REMARK INTRA:                   0.308
REMARK UNBOUND:                 0.251
REMARK SMILES C[C@H]1[C@H](C)CC[C@@]2(C(=O)[O-])CC[C@]3(C)C(=CC[C@@H]4[C@@]5(C)CC[C@H](O)C(C)(C)[C@H]5CC[C@]43C)[C@H]12
REMARK SMILES IDX 7 1 6 2 11 3 33 4 5 5 12 6 15 7 2 8 3 9 13 10 16 11 1 12
REMARK SMILES IDX 4 13 14 14 31 15 17 16 18 17 30 18 32 19 19 20 29 21 28 22
REMARK SMILES IDX 21 23 20 24 25 25 22 26 23 27 26 28 27 29 8 30 9 31 10 32
REMARK SMILES IDX 24 33
REMARK H PARENT 24 34
REMARK Flexibility Score: inf
ROOT
ATOM      1  C   UNL     1     213.800 200.216 162.070  1.00  0.00     0.017 C 
ATOM      2  C   UNL     1     214.740 199.394 161.158  1.00  0.00     0.014 C 
ATOM      3  C   UNL     1     213.968 199.705 163.554  1.00  0.00     0.014 C 
ATOM      4  C   UNL     1     214.202 201.724 161.968  1.00  0.00     0.030 C 
ATOM      5  C   UNL     1     214.647 199.845 159.704  1.00  0.00     0.004 C 
ATOM      6  C   UNL     1     214.219 200.820 164.604  1.00  0.00     0.013 C 
ATOM      7  C   UNL     1     213.350 202.537 162.969  1.00  0.00    -0.063 C 
ATOM      8  C   UNL     1     214.338 202.289 160.504  1.00  0.00    -0.003 C 
ATOM      9  C   UNL     1     215.093 201.306 159.549  1.00  0.00    -0.011 C 
ATOM     10  C   UNL     1     213.289 202.076 164.423  1.00  0.00    -0.006 C 
ATOM     11  C   UNL     1     212.660 203.646 162.628  1.00  0.00    -0.027 C 
ATOM     12  C   UNL     1     215.124 203.635 160.533  1.00  0.00     0.008 C 
ATOM     13  C   UNL     1     214.937 201.709 158.070  1.00  0.00     0.008 C 
ATOM     14  C   UNL     1     211.828 201.574 164.704  1.00  0.00     0.017 C 
ATOM     15  C   UNL     1     213.692 203.322 165.356  1.00  0.00    -0.020 C 
ATOM     16  C   UNL     1     212.510 204.819 163.569  1.00  0.00     0.032 C 
ATOM     17  C   UNL     1     212.660 204.500 165.102  1.00  0.00     0.006 C 
ATOM     18  C   UNL     1     213.700 202.909 166.867  1.00  0.00     0.008 C 
ATOM     19  C   UNL     1     215.125 203.823 165.004  1.00  0.00     0.012 C 
ATOM     20  C   UNL     1     212.739 205.770 166.086  1.00  0.00    -0.025 C 
ATOM     21  C   UNL     1     212.850 203.788 167.782  1.00  0.00     0.005 C 
ATOM     22  C   UNL     1     213.109 205.309 167.571  1.00  0.00     0.003 C 
ATOM     23  C   UNL     1     211.337 206.492 166.069  1.00  0.00     0.010 C 
ATOM     24  C   UNL     1     213.795 206.830 165.607  1.00  0.00     0.012 C 
ATOM     25  C   UNL     1     212.424 206.181 168.714  1.00  0.00    -0.006 C 
ATOM     26  C   UNL     1     210.356 205.974 167.118  1.00  0.00     0.033 C 
ATOM     27  C   UNL     1     210.860 206.147 168.569  1.00  0.00     0.120 C 
ATOM     28  C   UNL     1     212.802 205.647 170.123  1.00  0.00     0.014 C 
ATOM     29  C   UNL     1     212.962 207.643 168.678  1.00  0.00     0.014 C 
ENDROOT
BRANCH   1  30
ATOM     30  C   UNL     1     212.363 199.976 161.612  1.00  0.00     0.048 C 
ATOM     31  O   UNL     1     211.665 200.903 161.118  1.00  0.00    -0.550 OA
ATOM     32  O   UNL     1     211.795 198.707 161.750  1.00  0.00    -0.550 OA
ENDBRANCH   1  30
BRANCH  27  33
ATOM     33  O   UNL     1     210.275 207.302 169.123  1.00  0.00    -0.393 OA
ATOM     34  H   UNL     1     210.195 207.147 170.100  1.00  0.00     0.210 HD
ENDBRANCH  27  33
TORSDOF 2
ENDMDL
MODEL 3
REMARK VINA RESULT:    -4.578      5.560      9.512
REMARK INTER + INTRA:          -4.728
REMARK INTER:                  -4.994
REMARK INTRA:                   0.266
REMARK UNBOUND:                 0.251
REMARK SMILES C[C@H]1[C@H](C)CC[C@@]2(C(=O)[O-])CC[C@]3(C)C(=CC[C@@H]4[C@@]5(C)CC[C@H](O)C(C)(C)[C@H]5CC[C@]43C)[C@H]12
REMARK SMILES IDX 7 1 6 2 11 3 33 4 5 5 12 6 15 7 2 8 3 9 13 10 16 11 1 12
REMARK SMILES IDX 4 13 14 14 31 15 17 16 18 17 30 18 32 19 19 20 29 21 28 22
REMARK SMILES IDX 21 23 20 24 25 25 22 26 23 27 26 28 27 29 8 30 9 31 10 32
REMARK SMILES IDX 24 33
REMARK H PARENT 24 34
REMARK Flexibility Score: inf
ROOT
ATOM      1  C   UNL     1     212.746 204.783 166.710  1.00  0.00     0.017 C 
ATOM      2  C   UNL     1     212.270 206.222 167.018  1.00  0.00     0.014 C 
ATOM      3  C   UNL     1     211.510 203.809 166.840  1.00  0.00     0.014 C 
ATOM      4  C   UNL     1     213.310 204.748 165.252  1.00  0.00     0.030 C 
ATOM      5  C   UNL     1     213.410 207.228 166.892  1.00  0.00     0.004 C 
ATOM      6  C   UNL     1     211.297 202.859 165.632  1.00  0.00     0.013 C 
ATOM      7  C   UNL     1     213.673 203.289 164.892  1.00  0.00    -0.063 C 
ATOM      8  C   UNL     1     214.369 205.863 164.911  1.00  0.00    -0.003 C 
ATOM      9  C   UNL     1     213.955 207.269 165.458  1.00  0.00    -0.011 C 
ATOM     10  C   UNL     1     212.626 202.199 165.108  1.00  0.00    -0.006 C 
ATOM     11  C   UNL     1     214.870 202.924 164.384  1.00  0.00    -0.027 C 
ATOM     12  C   UNL     1     214.533 205.975 163.364  1.00  0.00     0.008 C 
ATOM     13  C   UNL     1     215.125 208.271 165.411  1.00  0.00     0.008 C 
ATOM     14  C   UNL     1     213.134 201.272 166.270  1.00  0.00     0.017 C 
ATOM     15  C   UNL     1     212.452 201.398 163.725  1.00  0.00    -0.020 C 
ATOM     16  C   UNL     1     215.003 201.824 163.357  1.00  0.00     0.032 C 
ATOM     17  C   UNL     1     213.849 200.757 163.331  1.00  0.00     0.006 C 
ATOM     18  C   UNL     1     211.352 200.290 163.856  1.00  0.00     0.008 C 
ATOM     19  C   UNL     1     212.003 202.366 162.589  1.00  0.00     0.012 C 
ATOM     20  C   UNL     1     213.861 199.729 162.094  1.00  0.00    -0.025 C 
ATOM     21  C   UNL     1     211.797 198.886 163.452  1.00  0.00     0.005 C 
ATOM     22  C   UNL     1     212.523 198.854 162.075  1.00  0.00     0.003 C 
ATOM     23  C   UNL     1     215.124 198.795 162.246  1.00  0.00     0.010 C 
ATOM     24  C   UNL     1     214.008 200.460 160.712  1.00  0.00     0.012 C 
ATOM     25  C   UNL     1     212.726 197.363 161.557  1.00  0.00    -0.006 C 
ATOM     26  C   UNL     1     214.868 197.527 163.058  1.00  0.00     0.033 C 
ATOM     27  C   UNL     1     213.784 196.612 162.443  1.00  0.00     0.120 C 
ATOM     28  C   UNL     1     211.391 196.570 161.605  1.00  0.00     0.014 C 
ATOM     29  C   UNL     1     213.143 197.360 160.055  1.00  0.00     0.014 C 
ENDROOT
BRANCH   1  30
ATOM     30  C   UNL     1     213.803 204.400 167.742  1.00  0.00     0.048 C 
ATOM     31  O   UNL     1     215.023 204.664 167.564  1.00  0.00    -0.550 OA
ATOM     32  O   UNL     1     213.422 203.732 168.909  1.00  0.00    -0.550 OA
ENDBRANCH   1  30
BRANCH  27  33
ATOM     33  O   UNL     1     214.413 195.582 161.717  1.00  0.00    -0.393 OA
ATOM     34  H   UNL     1     213.874 194.760 161.853  1.00  0.00     0.210 HD
ENDBRANCH  27  33
TORSDOF 2
ENDMDL
MODEL 4
REMARK VINA RESULT:    -3.539      4.666      8.404
REMARK INTER + INTRA:          -3.598
REMARK INTER:                  -3.946
REMARK INTRA:                   0.348
REMARK UNBOUND:                 0.251
REMARK SMILES C[C@H]1[C@H](C)CC[C@@]2(C(=O)[O-])CC[C@]3(C)C(=CC[C@@H]4[C@@]5(C)CC[C@H](O)C(C)(C)[C@H]5CC[C@]43C)[C@H]12
REMARK SMILES IDX 7 1 6 2 11 3 33 4 5 5 12 6 15 7 2 8 3 9 13 10 16 11 1 12
REMARK SMILES IDX 4 13 14 14 31 15 17 16 18 17 30 18 32 19 19 20 29 21 28 22
REMARK SMILES IDX 21 23 20 24 25 25 22 26 23 27 26 28 27 29 8 30 9 31 10 32
REMARK SMILES IDX 24 33
REMARK H PARENT 24 34
REMARK Flexibility Score: inf
ROOT
ATOM      1  C   UNL     1     211.974 205.342 168.151  1.00  0.00     0.017 C 
ATOM      2  C   UNL     1     211.555 206.778 168.544  1.00  0.00     0.014 C 
ATOM      3  C   UNL     1     210.680 204.544 167.724  1.00  0.00     0.014 C 
ATOM      4  C   UNL     1     212.976 205.426 166.954  1.00  0.00     0.030 C 
ATOM      5  C   UNL     1     212.760 207.621 168.952  1.00  0.00     0.004 C 
ATOM      6  C   UNL     1     210.787 203.807 166.362  1.00  0.00     0.013 C 
ATOM      7  C   UNL     1     213.303 203.993 166.475  1.00  0.00    -0.063 C 
ATOM      8  C   UNL     1     214.184 206.417 167.155  1.00  0.00    -0.003 C 
ATOM      9  C   UNL     1     213.744 207.780 167.784  1.00  0.00    -0.011 C 
ATOM     10  C   UNL     1     212.149 203.044 166.165  1.00  0.00    -0.006 C 
ATOM     11  C   UNL     1     214.562 203.536 166.303  1.00  0.00    -0.027 C 
ATOM     12  C   UNL     1     214.852 206.714 165.777  1.00  0.00     0.008 C 
ATOM     13  C   UNL     1     214.951 208.603 168.274  1.00  0.00     0.008 C 
ATOM     14  C   UNL     1     212.165 201.905 167.247  1.00  0.00     0.017 C 
ATOM     15  C   UNL     1     212.364 202.471 164.679  1.00  0.00    -0.020 C 
ATOM     16  C   UNL     1     214.923 202.578 165.192  1.00  0.00     0.032 C 
ATOM     17  C   UNL     1     213.748 201.699 164.627  1.00  0.00     0.006 C 
ATOM     18  C   UNL     1     211.185 201.522 164.270  1.00  0.00     0.008 C 
ATOM     19  C   UNL     1     212.398 203.638 163.647  1.00  0.00     0.012 C 
ATOM     20  C   UNL     1     214.070 200.857 163.295  1.00  0.00    -0.025 C 
ATOM     21  C   UNL     1     211.609 200.138 163.784  1.00  0.00     0.005 C 
ATOM     22  C   UNL     1     212.738 200.191 162.713  1.00  0.00     0.003 C 
ATOM     23  C   UNL     1     215.125 199.743 163.662  1.00  0.00     0.010 C 
ATOM     24  C   UNL     1     214.724 201.742 162.174  1.00  0.00     0.012 C 
ATOM     25  C   UNL     1     212.963 198.771 162.031  1.00  0.00    -0.006 C 
ATOM     26  C   UNL     1     214.505 198.425 164.122  1.00  0.00     0.033 C 
ATOM     27  C   UNL     1     213.603 197.764 163.054  1.00  0.00     0.120 C 
ATOM     28  C   UNL     1     211.619 198.176 161.528  1.00  0.00     0.014 C 
ATOM     29  C   UNL     1     213.844 198.914 160.754  1.00  0.00     0.014 C 
ENDROOT
BRANCH   1  30
ATOM     30  C   UNL     1     212.598 204.676 169.375  1.00  0.00     0.048 C 
ATOM     31  O   UNL     1     213.783 204.926 169.727  1.00  0.00    -0.550 OA
ATOM     32  O   UNL     1     211.851 203.761 170.121  1.00  0.00    -0.550 OA
ENDBRANCH   1  30
BRANCH  27  33
ATOM     33  O   UNL     1     214.338 196.764 162.388  1.00  0.00    -0.393 OA
ATOM     34  H   UNL     1     213.692 196.243 161.845  1.00  0.00     0.210 HD
ENDBRANCH  27  33
TORSDOF 2
ENDMDL
MODEL 5
REMARK VINA RESULT:    -3.525      4.092      7.558
REMARK INTER + INTRA:          -3.583
REMARK INTER:                  -4.020
REMARK INTRA:                   0.438
REMARK UNBOUND:                 0.251
REMARK SMILES C[C@H]1[C@H](C)CC[C@@]2(C(=O)[O-])CC[C@]3(C)C(=CC[C@@H]4[C@@]5(C)CC[C@H](O)C(C)(C)[C@H]5CC[C@]43C)[C@H]12
REMARK SMILES IDX 7 1 6 2 11 3 33 4 5 5 12 6 15 7 2 8 3 9 13 10 16 11 1 12
REMARK SMILES IDX 4 13 14 14 31 15 17 16 18 17 30 18 32 19 19 20 29 21 28 22
REMARK SMILES IDX 21 23 20 24 25 25 22 26 23 27 26 28 27 29 8 30 9 31 10 32
REMARK SMILES IDX 24 33
REMARK H PARENT 24 34
REMARK Flexibility Score: inf
ROOT
ATOM      1  C   UNL     1     213.306 205.889 168.799  1.00  0.00     0.017 C 
ATOM      2  C   UNL     1     212.726 206.433 170.125  1.00  0.00     0.014 C 
ATOM      3  C   UNL     1     214.299 204.708 169.134  1.00  0.00     0.014 C 
ATOM      4  C   UNL     1     212.125 205.367 167.917  1.00  0.00     0.030 C 
ATOM      5  C   UNL     1     211.738 207.569 169.880  1.00  0.00     0.004 C 
ATOM      6  C   UNL     1     214.058 203.403 168.330  1.00  0.00     0.013 C 
ATOM      7  C   UNL     1     212.705 204.709 166.644  1.00  0.00    -0.063 C 
ATOM      8  C   UNL     1     210.926 206.372 167.731  1.00  0.00    -0.003 C 
ATOM      9  C   UNL     1     210.529 207.084 169.067  1.00  0.00    -0.011 C 
ATOM     10  C   UNL     1     213.792 203.648 166.799  1.00  0.00    -0.006 C 
ATOM     11  C   UNL     1     212.292 205.014 165.395  1.00  0.00    -0.027 C 
ATOM     12  C   UNL     1     209.676 205.604 167.203  1.00  0.00     0.008 C 
ATOM     13  C   UNL     1     209.594 208.285 168.821  1.00  0.00     0.008 C 
ATOM     14  C   UNL     1     215.125 204.243 166.219  1.00  0.00     0.017 C 
ATOM     15  C   UNL     1     213.319 202.334 166.003  1.00  0.00    -0.020 C 
ATOM     16  C   UNL     1     212.203 203.974 164.303  1.00  0.00     0.032 C 
ATOM     17  C   UNL     1     213.121 202.709 164.474  1.00  0.00     0.006 C 
ATOM     18  C   UNL     1     214.367 201.180 166.158  1.00  0.00     0.008 C 
ATOM     19  C   UNL     1     211.966 201.812 166.573  1.00  0.00     0.012 C 
ATOM     20  C   UNL     1     212.858 201.498 163.449  1.00  0.00    -0.025 C 
ATOM     21  C   UNL     1     214.861 200.574 164.846  1.00  0.00     0.005 C 
ATOM     22  C   UNL     1     213.701 200.208 163.874  1.00  0.00     0.003 C 
ATOM     23  C   UNL     1     213.280 201.977 162.006  1.00  0.00     0.010 C 
ATOM     24  C   UNL     1     211.339 201.106 163.366  1.00  0.00     0.012 C 
ATOM     25  C   UNL     1     214.221 199.335 162.648  1.00  0.00    -0.006 C 
ATOM     26  C   UNL     1     214.743 201.706 161.662  1.00  0.00     0.033 C 
ATOM     27  C   UNL     1     215.114 200.206 161.693  1.00  0.00     0.120 C 
ATOM     28  C   UNL     1     215.060 198.125 163.143  1.00  0.00     0.014 C 
ATOM     29  C   UNL     1     213.019 198.707 161.880  1.00  0.00     0.014 C 
ENDROOT
BRANCH   1  30
ATOM     30  C   UNL     1     214.074 207.017 168.116  1.00  0.00     0.048 C 
ATOM     31  O   UNL     1     215.055 207.578 168.676  1.00  0.00    -0.550 OA
ATOM     32  O   UNL     1     213.683 207.454 166.847  1.00  0.00    -0.550 OA
ENDBRANCH   1  30
BRANCH  27  33
ATOM     33  O   UNL     1     215.091 199.701 160.379  1.00  0.00    -0.393 OA
ATOM     34  H   UNL     1     215.934 199.193 160.248  1.00  0.00     0.210 HD
ENDBRANCH  27  33
TORSDOF 2
ENDMDL
MODEL 6
REMARK VINA RESULT:    -3.426      4.742      8.294
REMARK INTER + INTRA:          -3.475
REMARK INTER:                  -4.166
REMARK INTRA:                   0.690
REMARK UNBOUND:                 0.251
REMARK SMILES C[C@H]1[C@H](C)CC[C@@]2(C(=O)[O-])CC[C@]3(C)C(=CC[C@@H]4[C@@]5(C)CC[C@H](O)C(C)(C)[C@H]5CC[C@]43C)[C@H]12
REMARK SMILES IDX 7 1 6 2 11 3 33 4 5 5 12 6 15 7 2 8 3 9 13 10 16 11 1 12
REMARK SMILES IDX 4 13 14 14 31 15 17 16 18 17 30 18 32 19 19 20 29 21 28 22
REMARK SMILES IDX 21 23 20 24 25 25 22 26 23 27 26 28 27 29 8 30 9 31 10 32
REMARK SMILES IDX 24 33
REMARK H PARENT 24 34
REMARK Flexibility Score: inf
ROOT
ATOM      1  C   UNL     1     213.272 203.410 168.477  1.00  0.00     0.017 C 
ATOM      2  C   UNL     1     212.620 203.432 169.879  1.00  0.00     0.014 C 
ATOM      3  C   UNL     1     214.017 202.030 168.293  1.00  0.00     0.014 C 
ATOM      4  C   UNL     1     212.146 203.564 167.403  1.00  0.00     0.030 C 
ATOM      5  C   UNL     1     211.861 204.732 170.125  1.00  0.00     0.004 C 
ATOM      6  C   UNL     1     213.679 201.276 166.980  1.00  0.00     0.013 C 
ATOM      7  C   UNL     1     212.773 203.419 165.998  1.00  0.00    -0.063 C 
ATOM      8  C   UNL     1     211.153 204.765 167.634  1.00  0.00    -0.003 C 
ATOM      9  C   UNL     1     210.706 204.895 169.128  1.00  0.00    -0.011 C 
ATOM     10  C   UNL     1     213.652 202.205 165.710  1.00  0.00    -0.006 C 
ATOM     11  C   UNL     1     212.576 204.308 165.001  1.00  0.00    -0.027 C 
ATOM     12  C   UNL     1     209.876 204.564 166.762  1.00  0.00     0.008 C 
ATOM     13  C   UNL     1     210.010 206.242 169.404  1.00  0.00     0.008 C 
ATOM     14  C   UNL     1     215.125 202.716 165.519  1.00  0.00     0.017 C 
ATOM     15  C   UNL     1     213.084 201.484 164.390  1.00  0.00    -0.020 C 
ATOM     16  C   UNL     1     212.466 203.881 163.556  1.00  0.00     0.032 C 
ATOM     17  C   UNL     1     213.144 202.513 163.184  1.00  0.00     0.006 C 
ATOM     18  C   UNL     1     213.910 200.194 164.059  1.00  0.00     0.008 C 
ATOM     19  C   UNL     1     211.604 201.045 164.605  1.00  0.00     0.012 C 
ATOM     20  C   UNL     1     212.828 201.940 161.714  1.00  0.00    -0.025 C 
ATOM     21  C   UNL     1     214.466 200.129 162.638  1.00  0.00     0.005 C 
ATOM     22  C   UNL     1     213.397 200.455 161.554  1.00  0.00     0.003 C 
ATOM     23  C   UNL     1     213.500 202.901 160.659  1.00  0.00     0.010 C 
ATOM     24  C   UNL     1     211.290 201.931 161.397  1.00  0.00     0.012 C 
ATOM     25  C   UNL     1     213.925 200.113 160.092  1.00  0.00    -0.006 C 
ATOM     26  C   UNL     1     214.934 202.523 160.295  1.00  0.00     0.033 C 
ATOM     27  C   UNL     1     215.059 201.115 159.668  1.00  0.00     0.120 C 
ATOM     28  C   UNL     1     214.495 198.669 160.029  1.00  0.00     0.014 C 
ATOM     29  C   UNL     1     212.748 200.128 159.071  1.00  0.00     0.014 C 
ENDROOT
BRANCH   1  30
ATOM     30  C   UNL     1     214.288 204.547 168.407  1.00  0.00     0.048 C 
ATOM     31  O   UNL     1     215.111 204.753 169.341  1.00  0.00    -0.550 OA
ATOM     32  O   UNL     1     214.309 205.390 167.293  1.00  0.00    -0.550 OA
ENDBRANCH   1  30
BRANCH  27  33
ATOM     33  O   UNL     1     215.125 201.242 158.267  1.00  0.00    -0.393 OA
ATOM     34  H   UNL     1     215.969 201.721 158.059  1.00  0.00     0.210 HD
ENDBRANCH  27  33
TORSDOF 2
ENDMDL
MODEL 7
REMARK VINA RESULT:    -3.425      5.060      9.009
REMARK INTER + INTRA:          -3.474
REMARK INTER:                  -3.746
REMARK INTRA:                   0.272
REMARK UNBOUND:                 0.251
REMARK SMILES C[C@H]1[C@H](C)CC[C@@]2(C(=O)[O-])CC[C@]3(C)C(=CC[C@@H]4[C@@]5(C)CC[C@H](O)C(C)(C)[C@H]5CC[C@]43C)[C@H]12
REMARK SMILES IDX 7 1 6 2 11 3 33 4 5 5 12 6 15 7 2 8 3 9 13 10 16 11 1 12
REMARK SMILES IDX 4 13 14 14 31 15 17 16 18 17 30 18 32 19 19 20 29 21 28 22
REMARK SMILES IDX 21 23 20 24 25 25 22 26 23 27 26 28 27 29 8 30 9 31 10 32
REMARK SMILES IDX 24 33
REMARK H PARENT 24 34
REMARK Flexibility Score: inf
ROOT
ATOM      1  C   UNL     1     212.551 200.593 161.259  1.00  0.00     0.017 C 
ATOM      2  C   UNL     1     212.091 199.339 160.479  1.00  0.00     0.014 C 
ATOM      3  C   UNL     1     211.283 201.478 161.576  1.00  0.00     0.014 C 
ATOM      4  C   UNL     1     213.233 200.130 162.588  1.00  0.00     0.030 C 
ATOM      5  C   UNL     1     213.265 198.420 160.152  1.00  0.00     0.004 C 
ATOM      6  C   UNL     1     211.144 201.913 163.059  1.00  0.00     0.013 C 
ATOM      7  C   UNL     1     213.584 201.377 163.430  1.00  0.00    -0.063 C 
ATOM      8  C   UNL     1     214.346 199.027 162.427  1.00  0.00    -0.003 C 
ATOM      9  C   UNL     1     213.927 197.893 161.433  1.00  0.00    -0.011 C 
ATOM     10  C   UNL     1     212.493 202.411 163.697  1.00  0.00    -0.006 C 
ATOM     11  C   UNL     1     214.808 201.599 163.955  1.00  0.00    -0.027 C 
ATOM     12  C   UNL     1     214.640 198.372 163.811  1.00  0.00     0.008 C 
ATOM     13  C   UNL     1     215.124 197.009 161.033  1.00  0.00     0.008 C 
ATOM     14  C   UNL     1     212.878 203.722 162.923  1.00  0.00     0.017 C 
ATOM     15  C   UNL     1     212.412 202.647 165.286  1.00  0.00    -0.020 C 
ATOM     16  C   UNL     1     214.995 202.259 165.301  1.00  0.00     0.032 C 
ATOM     17  C   UNL     1     213.818 203.178 165.792  1.00  0.00     0.006 C 
ATOM     18  C   UNL     1     211.274 203.664 165.642  1.00  0.00     0.008 C 
ATOM     19  C   UNL     1     212.085 201.310 166.017  1.00  0.00     0.012 C 
ATOM     20  C   UNL     1     213.904 203.688 167.315  1.00  0.00    -0.025 C 
ATOM     21  C   UNL     1     211.712 204.849 166.500  1.00  0.00     0.005 C 
ATOM     22  C   UNL     1     212.548 204.421 167.741  1.00  0.00     0.003 C 
ATOM     23  C   UNL     1     215.124 204.682 167.431  1.00  0.00     0.010 C 
ATOM     24  C   UNL     1     214.184 202.515 168.322  1.00  0.00     0.012 C 
ATOM     25  C   UNL     1     212.752 205.633 168.753  1.00  0.00    -0.006 C 
ATOM     26  C   UNL     1     214.768 206.142 167.157  1.00  0.00     0.033 C 
ATOM     27  C   UNL     1     213.713 206.711 168.134  1.00  0.00     0.120 C 
ATOM     28  C   UNL     1     211.396 206.313 169.087  1.00  0.00     0.014 C 
ATOM     29  C   UNL     1     213.291 205.115 170.121  1.00  0.00     0.014 C 
ENDROOT
BRANCH   1  30
ATOM     30  C   UNL     1     213.509 201.381 160.369  1.00  0.00     0.048 C 
ATOM     31  O   UNL     1     214.748 201.146 160.365  1.00  0.00    -0.550 OA
ATOM     32  O   UNL     1     213.013 202.396 159.546  1.00  0.00    -0.550 OA
ENDBRANCH   1  30
BRANCH  27  33
ATOM     33  O   UNL     1     214.371 207.442 169.143  1.00  0.00    -0.393 OA
ATOM     34  H   UNL     1     214.397 206.864 169.949  1.00  0.00     0.210 HD
ENDBRANCH  27  33
TORSDOF 2
ENDMDL
