MODEL 1
REMARK VINA RESULT:    -4.572      0.000      0.000
REMARK INTER + INTRA:          -6.502
REMARK INTER:                  -6.175
REMARK INTRA:                  -0.326
REMARK UNBOUND:                -0.326
REMARK SMILES O=C[C@@H](O)[C@@H](O)[C@H](O)CO
REMARK SMILES IDX 7 1 9 2 10 3 5 5 3 6 2 7 1 8 4 9 6 11 8 13
REMARK H PARENT 10 4 4 10 6 12 8 14
REMARK Flexibility Score: inf
ROOT
ATOM      1  C   UNL     1      16.017   7.081  38.153  1.00  0.00     0.171 C 
ENDROOT
BRANCH   1   2
ATOM      2  C   UNL     1      15.503   6.584  36.788  1.00  0.00     0.190 C 
BRANCH   2   3
ATOM      3  O   UNL     1      14.155   6.927  36.622  1.00  0.00    -0.394 OA
ATOM      4  H   UNL     1      13.970   6.861  35.649  1.00  0.00     0.210 HD
ENDBRANCH   2   3
ENDBRANCH   1   2
BRANCH   1   5
ATOM      5  C   UNL     1      17.102   8.186  38.042  1.00  0.00     0.181 C 
BRANCH   5   6
ATOM      6  C   UNL     1      16.962   9.053  36.766  1.00  0.00     0.209 C 
BRANCH   6   7
ATOM      7  C   UNL     1      15.861  10.071  36.916  1.00  0.00     0.258 C 
ATOM      8  O   UNL     1      14.804   9.936  36.319  1.00  0.00    -0.300 OA
ENDBRANCH   6   7
BRANCH   6   9
ATOM      9  O   UNL     1      18.165   9.729  36.508  1.00  0.00    -0.383 OA
ATOM     10  H   UNL     1      18.687   9.160  35.884  1.00  0.00     0.211 HD
ENDBRANCH   6   9
ENDBRANCH   5   6
BRANCH   5  11
ATOM     11  O   UNL     1      17.001   9.019  39.173  1.00  0.00    -0.387 OA
ATOM     12  H   UNL     1      17.824   8.884  39.712  1.00  0.00     0.211 HD
ENDBRANCH   5  11
ENDBRANCH   1   5
BRANCH   1  13
ATOM     13  O   UNL     1      16.564   5.991  38.853  1.00  0.00    -0.388 OA
ATOM     14  H   UNL     1      17.089   6.363  39.608  1.00  0.00     0.211 HD
ENDBRANCH   1  13
TORSDOF 8
ENDMDL
MODEL 2
REMARK VINA RESULT:    -4.423      1.014      2.729
REMARK INTER + INTRA:          -6.300
REMARK INTER:                  -5.825
REMARK INTRA:                  -0.475
REMARK UNBOUND:                -0.326
REMARK SMILES O=C[C@@H](O)[C@@H](O)[C@H](O)CO
REMARK SMILES IDX 7 1 9 2 10 3 5 5 3 6 2 7 1 8 4 9 6 11 8 13
REMARK H PARENT 10 4 4 10 6 12 8 14
REMARK Flexibility Score: inf
ROOT
ATOM      1  C   UNL     1      14.928   7.838  37.145  1.00  0.00     0.171 C 
ENDROOT
BRANCH   1   2
ATOM      2  C   UNL     1      15.010   8.801  35.944  1.00  0.00     0.190 C 
BRANCH   2   3
ATOM      3  O   UNL     1      15.035  10.129  36.387  1.00  0.00    -0.394 OA
ATOM      4  H   UNL     1      15.088  10.089  37.378  1.00  0.00     0.210 HD
ENDBRANCH   2   3
ENDBRANCH   1   2
BRANCH   1   5
ATOM      5  C   UNL     1      16.313   7.313  37.613  1.00  0.00     0.181 C 
BRANCH   5   6
ATOM      6  C   UNL     1      17.046   8.290  38.566  1.00  0.00     0.209 C 
BRANCH   6   7
ATOM      7  C   UNL     1      18.174   8.997  37.860  1.00  0.00     0.258 C 
ATOM      8  O   UNL     1      17.945   9.769  36.941  1.00  0.00    -0.300 OA
ENDBRANCH   6   7
BRANCH   6   9
ATOM      9  O   UNL     1      16.148   9.255  39.052  1.00  0.00    -0.383 OA
ATOM     10  H   UNL     1      15.233   8.909  38.879  1.00  0.00     0.211 HD
ENDBRANCH   6   9
ENDBRANCH   5   6
BRANCH   5  11
ATOM     11  O   UNL     1      16.119   6.087  38.278  1.00  0.00    -0.387 OA
ATOM     12  H   UNL     1      16.770   6.053  39.027  1.00  0.00     0.211 HD
ENDBRANCH   5  11
ENDBRANCH   1   5
BRANCH   1  13
ATOM     13  O   UNL     1      14.134   6.735  36.786  1.00  0.00    -0.388 OA
ATOM     14  H   UNL     1      14.699   6.137  36.230  1.00  0.00     0.211 HD
ENDBRANCH   1  13
TORSDOF 8
ENDMDL
MODEL 3
REMARK VINA RESULT:    -4.378      1.371      2.220
REMARK INTER + INTRA:          -6.240
REMARK INTER:                  -5.943
REMARK INTRA:                  -0.297
REMARK UNBOUND:                -0.326
REMARK SMILES O=C[C@@H](O)[C@@H](O)[C@H](O)CO
REMARK SMILES IDX 7 1 9 2 10 3 5 5 3 6 2 7 1 8 4 9 6 11 8 13
REMARK H PARENT 10 4 4 10 6 12 8 14
REMARK Flexibility Score: inf
ROOT
ATOM      1  C   UNL     1      16.313   7.220  36.911  1.00  0.00     0.171 C 
ENDROOT
BRANCH   1   2
ATOM      2  C   UNL     1      16.535   6.899  38.403  1.00  0.00     0.190 C 
BRANCH   2   3
ATOM      3  O   UNL     1      16.185   5.570  38.671  1.00  0.00    -0.394 OA
ATOM      4  H   UNL     1      15.194   5.529  38.614  1.00  0.00     0.210 HD
ENDBRANCH   2   3
ENDBRANCH   1   2
BRANCH   1   5
ATOM      5  C   UNL     1      15.676   8.615  36.666  1.00  0.00     0.181 C 
BRANCH   5   6
ATOM      6  C   UNL     1      16.630   9.605  35.952  1.00  0.00     0.209 C 
BRANCH   6   7
ATOM      7  C   UNL     1      16.093  11.011  36.002  1.00  0.00     0.258 C 
ATOM      8  O   UNL     1      15.021  11.249  36.537  1.00  0.00    -0.300 OA
ENDBRANCH   6   7
BRANCH   6   9
ATOM      9  O   UNL     1      17.893   9.585  36.566  1.00  0.00    -0.383 OA
ATOM     10  H   UNL     1      18.548   9.895  35.888  1.00  0.00     0.211 HD
ENDBRANCH   6   9
ENDBRANCH   5   6
BRANCH   5  11
ATOM     11  O   UNL     1      14.524   8.441  35.875  1.00  0.00    -0.387 OA
ATOM     12  H   UNL     1      14.157   7.542  36.082  1.00  0.00     0.211 HD
ENDBRANCH   5  11
ENDBRANCH   1   5
BRANCH   1  13
ATOM     13  O   UNL     1      15.465   6.242  36.362  1.00  0.00    -0.388 OA
ATOM     14  H   UNL     1      14.986   6.665  35.602  1.00  0.00     0.211 HD
ENDBRANCH   1  13
TORSDOF 8
ENDMDL
MODEL 4
REMARK VINA RESULT:    -4.229      1.408      3.162
REMARK INTER + INTRA:          -6.038
REMARK INTER:                  -5.210
REMARK INTRA:                  -0.828
REMARK UNBOUND:                -0.326
REMARK SMILES O=C[C@@H](O)[C@@H](O)[C@H](O)CO
REMARK SMILES IDX 7 1 9 2 10 3 5 5 3 6 2 7 1 8 4 9 6 11 8 13
REMARK H PARENT 10 4 4 10 6 12 8 14
REMARK Flexibility Score: inf
ROOT
ATOM      1  C   UNL     1      17.101   8.311  38.459  1.00  0.00     0.171 C 
ENDROOT
BRANCH   1   2
ATOM      2  C   UNL     1      18.369   8.981  37.893  1.00  0.00     0.190 C 
BRANCH   2   3
ATOM      3  O   UNL     1      18.037   9.826  36.827  1.00  0.00    -0.394 OA
ATOM      4  H   UNL     1      17.061   9.996  36.903  1.00  0.00     0.210 HD
ENDBRANCH   2   3
ENDBRANCH   1   2
BRANCH   1   5
ATOM      5  C   UNL     1      16.375   7.395  37.437  1.00  0.00     0.181 C 
BRANCH   5   6
ATOM      6  C   UNL     1      14.951   7.888  37.078  1.00  0.00     0.209 C 
BRANCH   6   7
ATOM      7  C   UNL     1      14.975   8.795  35.875  1.00  0.00     0.258 C 
ATOM      8  O   UNL     1      15.360   9.950  35.975  1.00  0.00    -0.300 OA
ENDBRANCH   6   7
BRANCH   6   9
ATOM      9  O   UNL     1      14.118   6.793  36.796  1.00  0.00    -0.383 OA
ATOM     10  H   UNL     1      14.507   6.330  36.009  1.00  0.00     0.211 HD
ENDBRANCH   6   9
ENDBRANCH   5   6
BRANCH   5  11
ATOM     11  O   UNL     1      17.149   7.343  36.262  1.00  0.00    -0.387 OA
ATOM     12  H   UNL     1      18.101   7.283  36.539  1.00  0.00     0.211 HD
ENDBRANCH   5  11
ENDBRANCH   1   5
BRANCH   1  13
ATOM     13  O   UNL     1      16.205   9.314  38.869  1.00  0.00    -0.388 OA
ATOM     14  H   UNL     1      15.295   8.918  38.853  1.00  0.00     0.211 HD
ENDBRANCH   1  13
TORSDOF 8
ENDMDL
MODEL 5
REMARK VINA RESULT:    -4.031      6.579      7.348
REMARK INTER + INTRA:          -5.771
REMARK INTER:                  -5.656
REMARK INTRA:                  -0.114
REMARK UNBOUND:                -0.326
REMARK SMILES O=C[C@@H](O)[C@@H](O)[C@H](O)CO
REMARK SMILES IDX 7 1 9 2 10 3 5 5 3 6 2 7 1 8 4 9 6 11 8 13
REMARK H PARENT 10 4 4 10 6 12 8 14
REMARK Flexibility Score: inf
ROOT
ATOM      1  C   UNL     1      19.523  10.677  42.296  1.00  0.00     0.171 C 
ENDROOT
BRANCH   1   2
ATOM      2  C   UNL     1      19.470  10.000  43.680  1.00  0.00     0.190 C 
BRANCH   2   3
ATOM      3  O   UNL     1      18.534  10.643  44.500  1.00  0.00    -0.394 OA
ATOM      4  H   UNL     1      18.030   9.923  44.961  1.00  0.00     0.210 HD
ENDBRANCH   2   3
ENDBRANCH   1   2
BRANCH   1   5
ATOM      5  C   UNL     1      20.939  11.183  41.908  1.00  0.00     0.181 C 
BRANCH   5   6
ATOM      6  C   UNL     1      21.049  11.608  40.422  1.00  0.00     0.209 C 
BRANCH   6   7
ATOM      7  C   UNL     1      21.933  12.818  40.265  1.00  0.00     0.258 C 
ATOM      8  O   UNL     1      22.872  12.804  39.484  1.00  0.00    -0.300 OA
ENDBRANCH   6   7
BRANCH   6   9
ATOM      9  O   UNL     1      21.588  10.558  39.660  1.00  0.00    -0.383 OA
ATOM     10  H   UNL     1      21.846   9.842  40.297  1.00  0.00     0.211 HD
ENDBRANCH   6   9
ENDBRANCH   5   6
BRANCH   5  11
ATOM     11  O   UNL     1      21.252  12.288  42.722  1.00  0.00    -0.387 OA
ATOM     12  H   UNL     1      21.136  13.104  42.169  1.00  0.00     0.211 HD
ENDBRANCH   5  11
ENDBRANCH   1   5
BRANCH   1  13
ATOM     13  O   UNL     1      18.645  11.774  42.297  1.00  0.00    -0.388 OA
ATOM     14  H   UNL     1      17.723  11.410  42.244  1.00  0.00     0.211 HD
ENDBRANCH   1  13
TORSDOF 8
ENDMDL
MODEL 6
REMARK VINA RESULT:    -4.003      1.450      2.652
REMARK INTER + INTRA:          -5.733
REMARK INTER:                  -5.130
REMARK INTRA:                  -0.604
REMARK UNBOUND:                -0.326
REMARK SMILES O=C[C@@H](O)[C@@H](O)[C@H](O)CO
REMARK SMILES IDX 7 1 9 2 10 3 5 5 3 6 2 7 1 8 4 9 6 11 8 13
REMARK H PARENT 10 4 4 10 6 12 8 14
REMARK Flexibility Score: inf
ROOT
ATOM      1  C   UNL     1      15.065   8.970  36.714  1.00  0.00     0.171 C 
ENDROOT
BRANCH   1   2
ATOM      2  C   UNL     1      14.660   7.714  37.511  1.00  0.00     0.190 C 
BRANCH   2   3
ATOM      3  O   UNL     1      14.310   6.677  36.636  1.00  0.00    -0.394 OA
ATOM      4  H   UNL     1      13.543   7.013  36.103  1.00  0.00     0.210 HD
ENDBRANCH   2   3
ENDBRANCH   1   2
BRANCH   1   5
ATOM      5  C   UNL     1      16.503   8.900  36.135  1.00  0.00     0.181 C 
BRANCH   5   6
ATOM      6  C   UNL     1      17.509   9.812  36.881  1.00  0.00     0.209 C 
BRANCH   6   7
ATOM      7  C   UNL     1      18.151   9.086  38.034  1.00  0.00     0.258 C 
ATOM      8  O   UNL     1      17.500   8.796  39.026  1.00  0.00    -0.300 OA
ENDBRANCH   6   7
BRANCH   6   9
ATOM      9  O   UNL     1      18.518  10.238  36.002  1.00  0.00    -0.383 OA
ATOM     10  H   UNL     1      19.219   9.535  36.007  1.00  0.00     0.211 HD
ENDBRANCH   6   9
ENDBRANCH   5   6
BRANCH   5  11
ATOM     11  O   UNL     1      16.949   7.567  36.218  1.00  0.00    -0.387 OA
ATOM     12  H   UNL     1      17.941   7.585  36.182  1.00  0.00     0.211 HD
ENDBRANCH   5  11
ENDBRANCH   1   5
BRANCH   1  13
ATOM     13  O   UNL     1      14.984  10.088  37.563  1.00  0.00    -0.388 OA
ATOM     14  H   UNL     1      14.305   9.879  38.257  1.00  0.00     0.211 HD
ENDBRANCH   1  13
TORSDOF 8
ENDMDL
MODEL 7
REMARK VINA RESULT:    -3.981      1.280      3.792
REMARK INTER + INTRA:          -5.703
REMARK INTER:                  -5.040
REMARK INTRA:                  -0.663
REMARK UNBOUND:                -0.326
REMARK SMILES O=C[C@@H](O)[C@@H](O)[C@H](O)CO
REMARK SMILES IDX 7 1 9 2 10 3 5 5 3 6 2 7 1 8 4 9 6 11 8 13
REMARK H PARENT 10 4 4 10 6 12 8 14
REMARK Flexibility Score: inf
ROOT
ATOM      1  C   UNL     1      16.412   9.894  35.955  1.00  0.00     0.171 C 
ENDROOT
BRANCH   1   2
ATOM      2  C   UNL     1      16.194  11.418  35.875  1.00  0.00     0.190 C 
BRANCH   2   3
ATOM      3  O   UNL     1      14.877  11.740  36.227  1.00  0.00    -0.394 OA
ATOM      4  H   UNL     1      14.293  11.222  35.613  1.00  0.00     0.210 HD
ENDBRANCH   2   3
ENDBRANCH   1   2
BRANCH   1   5
ATOM      5  C   UNL     1      15.350   9.161  36.820  1.00  0.00     0.181 C 
BRANCH   5   6
ATOM      6  C   UNL     1      15.509   7.620  36.805  1.00  0.00     0.209 C 
BRANCH   6   7
ATOM      7  C   UNL     1      16.131   7.124  38.084  1.00  0.00     0.258 C 
ATOM      8  O   UNL     1      17.202   7.570  38.468  1.00  0.00    -0.300 OA
ENDBRANCH   6   7
BRANCH   6   9
ATOM      9  O   UNL     1      14.254   7.008  36.651  1.00  0.00    -0.383 OA
ATOM     10  H   UNL     1      13.909   7.280  35.760  1.00  0.00     0.211 HD
ENDBRANCH   6   9
ENDBRANCH   5   6
BRANCH   5  11
ATOM     11  O   UNL     1      15.467   9.619  38.146  1.00  0.00    -0.387 OA
ATOM     12  H   UNL     1      14.549   9.675  38.520  1.00  0.00     0.211 HD
ENDBRANCH   5  11
ENDBRANCH   1   5
BRANCH   1  13
ATOM     13  O   UNL     1      17.680   9.648  36.509  1.00  0.00    -0.388 OA
ATOM     14  H   UNL     1      18.301  10.323  36.129  1.00  0.00     0.211 HD
ENDBRANCH   1  13
TORSDOF 8
ENDMDL
MODEL 8
REMARK VINA RESULT:    -3.559      1.137      3.054
REMARK INTER + INTRA:          -5.134
REMARK INTER:                  -4.760
REMARK INTRA:                  -0.374
REMARK UNBOUND:                -0.326
REMARK SMILES O=C[C@@H](O)[C@@H](O)[C@H](O)CO
REMARK SMILES IDX 7 1 9 2 10 3 5 5 3 6 2 7 1 8 4 9 6 11 8 13
REMARK H PARENT 10 4 4 10 6 12 8 14
REMARK Flexibility Score: inf
ROOT
ATOM      1  C   UNL     1      17.521   9.026  37.085  1.00  0.00     0.171 C 
ENDROOT
BRANCH   1   2
ATOM      2  C   UNL     1      17.388  10.272  36.186  1.00  0.00     0.190 C 
BRANCH   2   3
ATOM      3  O   UNL     1      16.069  10.743  36.202  1.00  0.00    -0.394 OA
ATOM      4  H   UNL     1      16.118  11.693  36.485  1.00  0.00     0.210 HD
ENDBRANCH   2   3
ENDBRANCH   1   2
BRANCH   1   5
ATOM      5  C   UNL     1      16.417   8.926  38.173  1.00  0.00     0.181 C 
BRANCH   5   6
ATOM      6  C   UNL     1      15.614   7.602  38.107  1.00  0.00     0.209 C 
BRANCH   6   7
ATOM      7  C   UNL     1      15.037   7.382  36.733  1.00  0.00     0.258 C 
ATOM      8  O   UNL     1      14.463   8.287  36.147  1.00  0.00    -0.300 OA
ENDBRANCH   6   7
BRANCH   6   9
ATOM      9  O   UNL     1      16.447   6.517  38.423  1.00  0.00    -0.383 OA
ATOM     10  H   UNL     1      16.754   6.130  37.562  1.00  0.00     0.211 HD
ENDBRANCH   6   9
ENDBRANCH   5   6
BRANCH   5  11
ATOM     11  O   UNL     1      17.030   9.025  39.436  1.00  0.00    -0.387 OA
ATOM     12  H   UNL     1      16.679   8.282  39.993  1.00  0.00     0.211 HD
ENDBRANCH   5  11
ENDBRANCH   1   5
BRANCH   1  13
ATOM     13  O   UNL     1      18.772   9.064  37.726  1.00  0.00    -0.388 OA
ATOM     14  H   UNL     1      18.608   9.319  38.671  1.00  0.00     0.211 HD
ENDBRANCH   1  13
TORSDOF 8
ENDMDL
MODEL 9
REMARK VINA RESULT:    -3.558      1.180      4.002
REMARK INTER + INTRA:          -5.133
REMARK INTER:                  -4.946
REMARK INTRA:                  -0.187
REMARK UNBOUND:                -0.326
REMARK SMILES O=C[C@@H](O)[C@@H](O)[C@H](O)CO
REMARK SMILES IDX 7 1 9 2 10 3 5 5 3 6 2 7 1 8 4 9 6 11 8 13
REMARK H PARENT 10 4 4 10 6 12 8 14
REMARK Flexibility Score: inf
ROOT
ATOM      1  C   UNL     1      15.936  10.117  36.581  1.00  0.00     0.171 C 
ENDROOT
BRANCH   1   2
ATOM      2  C   UNL     1      17.150  10.755  35.875  1.00  0.00     0.190 C 
BRANCH   2   3
ATOM      3  O   UNL     1      18.324  10.074  36.217  1.00  0.00    -0.394 OA
ATOM      4  H   UNL     1      18.203   9.140  35.905  1.00  0.00     0.210 HD
ENDBRANCH   2   3
ENDBRANCH   1   2
BRANCH   1   5
ATOM      5  C   UNL     1      15.796   8.594  36.314  1.00  0.00     0.181 C 
BRANCH   5   6
ATOM      6  C   UNL     1      16.174   7.722  37.538  1.00  0.00     0.209 C 
BRANCH   6   7
ATOM      7  C   UNL     1      16.573   8.575  38.713  1.00  0.00     0.258 C 
ATOM      8  O   UNL     1      17.742   8.887  38.886  1.00  0.00    -0.300 OA
ENDBRANCH   6   7
BRANCH   6   9
ATOM      9  O   UNL     1      15.083   6.922  37.915  1.00  0.00    -0.383 OA
ATOM     10  H   UNL     1      15.136   6.809  38.900  1.00  0.00     0.211 HD
ENDBRANCH   6   9
ENDBRANCH   5   6
BRANCH   5  11
ATOM     11  O   UNL     1      14.459   8.328  35.961  1.00  0.00    -0.387 OA
ATOM     12  H   UNL     1      14.447   8.121  34.990  1.00  0.00     0.211 HD
ENDBRANCH   5  11
ENDBRANCH   1   5
BRANCH   1  13
ATOM     13  O   UNL     1      14.767  10.755  36.133  1.00  0.00    -0.388 OA
ATOM     14  H   UNL     1      14.495  10.309  35.289  1.00  0.00     0.211 HD
ENDBRANCH   1  13
TORSDOF 8
ENDMDL
