MODEL 1
REMARK VINA RESULT:    -3.226      0.000      0.000
REMARK INTER + INTRA:          -5.282
REMARK INTER:                  -4.547
REMARK INTRA:                  -0.735
REMARK UNBOUND:                -0.735
REMARK SMILES C=CCCCCCCC(=O)[O-]
REMARK SMILES IDX 6 1 7 2 8 3 9 4 10 5 11 6 5 7 4 8 3 9 2 10 1 11
REMARK H PARENT
REMARK Flexibility Score: inf
ROOT
ATOM      1  C   UNL     1       3.269   5.206 -12.702  1.00  0.00     0.000 C 
ENDROOT
BRANCH   1   2
ATOM      2  C   UNL     1       3.781   5.525 -11.287  1.00  0.00     0.006 C 
BRANCH   2   3
ATOM      3  C   UNL     1       4.540   6.855 -11.213  1.00  0.00     0.053 C 
BRANCH   3   4
ATOM      4  C   UNL     1       3.723   7.884 -10.498  1.00  0.00     0.041 C 
ATOM      5  O   UNL     1       2.540   7.627 -10.154  1.00  0.00    -0.550 OA
ATOM      6  O   UNL     1       4.252   9.145 -10.254  1.00  0.00    -0.550 OA
ENDBRANCH   3   4
ENDBRANCH   2   3
ENDBRANCH   1   2
BRANCH   1   7
ATOM      7  C   UNL     1       4.396   5.021 -13.740  1.00  0.00     0.000 C 
BRANCH   7   8
ATOM      8  C   UNL     1       4.130   5.812 -15.032  1.00  0.00     0.004 C 
BRANCH   8   9
ATOM      9  C   UNL     1       2.930   6.762 -14.895  1.00  0.00     0.027 C 
BRANCH   9  10
ATOM     10  C   UNL     1       3.335   8.211 -14.936  1.00  0.00    -0.035 C 
ATOM     11  C   UNL     1       3.101   9.036 -13.911  1.00  0.00     0.004 C 
ENDBRANCH   9  10
ENDBRANCH   8   9
ENDBRANCH   7   8
ENDBRANCH   1   7
TORSDOF 7
ENDMDL
MODEL 2
REMARK VINA RESULT:    -3.166     10.056     12.082
REMARK INTER + INTRA:          -5.197
REMARK INTER:                  -4.912
REMARK INTRA:                  -0.285
REMARK UNBOUND:                -0.735
REMARK SMILES C=CCCCCCCC(=O)[O-]
REMARK SMILES IDX 6 1 7 2 8 3 9 4 10 5 11 6 5 7 4 8 3 9 2 10 1 11
REMARK H PARENT
REMARK Flexibility Score: inf
ROOT
ATOM      1  C   UNL     1       6.784  -2.756  -8.044  1.00  0.00     0.000 C 
ENDROOT
BRANCH   1   2
ATOM      2  C   UNL     1       6.475  -1.420  -8.740  1.00  0.00     0.006 C 
BRANCH   2   3
ATOM      3  C   UNL     1       6.099  -0.307  -7.754  1.00  0.00     0.053 C 
BRANCH   3   4
ATOM      4  C   UNL     1       5.092   0.615  -8.367  1.00  0.00     0.041 C 
ATOM      5  O   UNL     1       4.735   1.658  -7.760  1.00  0.00    -0.550 OA
ATOM      6  O   UNL     1       4.512   0.297  -9.589  1.00  0.00    -0.550 OA
ENDBRANCH   3   4
ENDBRANCH   2   3
ENDBRANCH   1   2
BRANCH   1   7
ATOM      7  C   UNL     1       6.644  -2.701  -6.508  1.00  0.00     0.000 C 
BRANCH   7   8
ATOM      8  C   UNL     1       7.412  -3.839  -5.814  1.00  0.00     0.004 C 
BRANCH   8   9
ATOM      9  C   UNL     1       7.652  -5.033  -6.750  1.00  0.00     0.027 C 
BRANCH   9  10
ATOM     10  C   UNL     1       8.017  -6.286  -6.001  1.00  0.00    -0.035 C 
ATOM     11  C   UNL     1       9.114  -6.989  -6.298  1.00  0.00     0.004 C 
ENDBRANCH   9  10
ENDBRANCH   8   9
ENDBRANCH   7   8
ENDBRANCH   1   7
TORSDOF 7
ENDMDL
MODEL 3
REMARK VINA RESULT:    -3.153      2.356      4.010
REMARK INTER + INTRA:          -5.179
REMARK INTER:                  -4.546
REMARK INTRA:                  -0.633
REMARK UNBOUND:                -0.735
REMARK SMILES C=CCCCCCCC(=O)[O-]
REMARK SMILES IDX 6 1 7 2 8 3 9 4 10 5 11 6 5 7 4 8 3 9 2 10 1 11
REMARK H PARENT
REMARK Flexibility Score: inf
ROOT
ATOM      1  C   UNL     1       2.943   6.794 -14.742  1.00  0.00     0.000 C 
ENDROOT
BRANCH   1   2
ATOM      2  C   UNL     1       3.408   8.231 -15.031  1.00  0.00     0.006 C 
BRANCH   2   3
ATOM      3  C   UNL     1       3.056   9.211 -13.906  1.00  0.00     0.053 C 
BRANCH   3   4
ATOM      4  C   UNL     1       2.703  10.550 -14.471  1.00  0.00     0.041 C 
ATOM      5  O   UNL     1       3.091  11.602 -13.899  1.00  0.00    -0.550 OA
ATOM      6  O   UNL     1       1.905  10.638 -15.604  1.00  0.00    -0.550 OA
ENDBRANCH   3   4
ENDBRANCH   2   3
ENDBRANCH   1   2
BRANCH   1   7
ATOM      7  C   UNL     1       4.064   5.742 -14.877  1.00  0.00     0.000 C 
BRANCH   7   8
ATOM      8  C   UNL     1       4.385   5.061 -13.536  1.00  0.00     0.004 C 
BRANCH   8   9
ATOM      9  C   UNL     1       3.600   5.678 -12.368  1.00  0.00     0.027 C 
BRANCH   9  10
ATOM     10  C   UNL     1       4.495   6.375 -11.379  1.00  0.00    -0.035 C 
ATOM     11  C   UNL     1       4.146   7.532 -10.807  1.00  0.00     0.004 C 
ENDBRANCH   9  10
ENDBRANCH   8   9
ENDBRANCH   7   8
ENDBRANCH   1   7
TORSDOF 7
ENDMDL
MODEL 4
REMARK VINA RESULT:    -3.141      3.051      5.025
REMARK INTER + INTRA:          -5.162
REMARK INTER:                  -4.665
REMARK INTRA:                  -0.497
REMARK UNBOUND:                -0.735
REMARK SMILES C=CCCCCCCC(=O)[O-]
REMARK SMILES IDX 6 1 7 2 8 3 9 4 10 5 11 6 5 7 4 8 3 9 2 10 1 11
REMARK H PARENT
REMARK Flexibility Score: inf
ROOT
ATOM      1  C   UNL     1       3.474   8.167 -15.133  1.00  0.00     0.000 C 
ENDROOT
BRANCH   1   2
ATOM      2  C   UNL     1       3.802   6.765 -14.592  1.00  0.00     0.006 C 
BRANCH   2   3
ATOM      3  C   UNL     1       4.067   5.743 -15.703  1.00  0.00     0.053 C 
BRANCH   3   4
ATOM      4  C   UNL     1       2.870   4.868 -15.905  1.00  0.00     0.041 C 
ATOM      5  O   UNL     1       2.076   4.650 -14.954  1.00  0.00    -0.550 OA
ATOM      6  O   UNL     1       2.658   4.254 -17.134  1.00  0.00    -0.550 OA
ENDBRANCH   3   4
ENDBRANCH   2   3
ENDBRANCH   1   2
BRANCH   1   7
ATOM      7  C   UNL     1       3.082   9.177 -14.035  1.00  0.00     0.000 C 
BRANCH   7   8
ATOM      8  C   UNL     1       2.742   8.484 -12.704  1.00  0.00     0.004 C 
BRANCH   8   9
ATOM      9  C   UNL     1       3.408   9.176 -11.504  1.00  0.00     0.027 C 
BRANCH   9  10
ATOM     10  C   UNL     1       4.404   8.287 -10.808  1.00  0.00    -0.035 C 
ATOM     11  C   UNL     1       4.385   6.959 -10.956  1.00  0.00     0.004 C 
ENDBRANCH   9  10
ENDBRANCH   8   9
ENDBRANCH   7   8
ENDBRANCH   1   7
TORSDOF 7
ENDMDL
MODEL 5
REMARK VINA RESULT:    -3.126      1.949      3.013
REMARK INTER + INTRA:          -5.141
REMARK INTER:                  -4.539
REMARK INTRA:                  -0.601
REMARK UNBOUND:                -0.735
REMARK SMILES C=CCCCCCCC(=O)[O-]
REMARK SMILES IDX 6 1 7 2 8 3 9 4 10 5 11 6 5 7 4 8 3 9 2 10 1 11
REMARK H PARENT
REMARK Flexibility Score: inf
ROOT
ATOM      1  C   UNL     1       3.439   7.531 -10.851  1.00  0.00     0.000 C 
ENDROOT
BRANCH   1   2
ATOM      2  C   UNL     1       4.041   8.895 -10.472  1.00  0.00     0.006 C 
BRANCH   2   3
ATOM      3  C   UNL     1       3.487  10.047 -11.318  1.00  0.00     0.053 C 
BRANCH   3   4
ATOM      4  C   UNL     1       3.882  11.365 -10.729  1.00  0.00     0.041 C 
ATOM      5  O   UNL     1       5.065  11.779 -10.838  1.00  0.00    -0.550 OA
ATOM      6  O   UNL     1       2.953  12.114 -10.017  1.00  0.00    -0.550 OA
ENDBRANCH   3   4
ENDBRANCH   2   3
ENDBRANCH   1   2
BRANCH   1   7
ATOM      7  C   UNL     1       4.499   6.446 -11.139  1.00  0.00     0.000 C 
BRANCH   7   8
ATOM      8  C   UNL     1       4.239   5.720 -12.469  1.00  0.00     0.004 C 
BRANCH   8   9
ATOM      9  C   UNL     1       3.145   6.406 -13.302  1.00  0.00     0.027 C 
BRANCH   9  10
ATOM     10  C   UNL     1       3.703   7.148 -14.486  1.00  0.00    -0.035 C 
ATOM     11  C   UNL     1       3.337   8.402 -14.768  1.00  0.00     0.004 C 
ENDBRANCH   9  10
ENDBRANCH   8   9
ENDBRANCH   7   8
ENDBRANCH   1   7
TORSDOF 7
ENDMDL
MODEL 6
REMARK VINA RESULT:    -3.124      2.446      3.477
REMARK INTER + INTRA:          -5.138
REMARK INTER:                  -4.364
REMARK INTRA:                  -0.774
REMARK UNBOUND:                -0.735
REMARK SMILES C=CCCCCCCC(=O)[O-]
REMARK SMILES IDX 6 1 7 2 8 3 9 4 10 5 11 6 5 7 4 8 3 9 2 10 1 11
REMARK H PARENT
REMARK Flexibility Score: inf
ROOT
ATOM      1  C   UNL     1       3.551   7.518 -11.384  1.00  0.00     0.000 C 
ENDROOT
BRANCH   1   2
ATOM      2  C   UNL     1       4.495   6.308 -11.487  1.00  0.00     0.006 C 
BRANCH   2   3
ATOM      3  C   UNL     1       3.831   4.995 -11.058  1.00  0.00     0.053 C 
BRANCH   3   4
ATOM      4  C   UNL     1       3.710   4.065 -12.224  1.00  0.00     0.041 C 
ATOM      5  O   UNL     1       2.588   3.861 -12.757  1.00  0.00    -0.550 OA
ATOM      6  O   UNL     1       4.828   3.386 -12.691  1.00  0.00    -0.550 OA
ENDBRANCH   3   4
ENDBRANCH   2   3
ENDBRANCH   1   2
BRANCH   1   7
ATOM      7  C   UNL     1       2.524   7.601 -12.533  1.00  0.00     0.000 C 
BRANCH   7   8
ATOM      8  C   UNL     1       2.907   8.665 -13.577  1.00  0.00     0.004 C 
BRANCH   8   9
ATOM      9  C   UNL     1       3.601   8.052 -14.803  1.00  0.00     0.027 C 
BRANCH   9  10
ATOM     10  C   UNL     1       3.294   6.587 -14.965  1.00  0.00    -0.035 C 
ATOM     11  C   UNL     1       4.160   5.745 -15.537  1.00  0.00     0.004 C 
ENDBRANCH   9  10
ENDBRANCH   8   9
ENDBRANCH   7   8
ENDBRANCH   1   7
TORSDOF 7
ENDMDL
MODEL 7
REMARK VINA RESULT:    -3.099      2.365      3.838
REMARK INTER + INTRA:          -5.103
REMARK INTER:                  -4.508
REMARK INTRA:                  -0.595
REMARK UNBOUND:                -0.735
REMARK SMILES C=CCCCCCCC(=O)[O-]
REMARK SMILES IDX 6 1 7 2 8 3 9 4 10 5 11 6 5 7 4 8 3 9 2 10 1 11
REMARK H PARENT
REMARK Flexibility Score: inf
ROOT
ATOM      1  C   UNL     1       2.827   7.244 -14.427  1.00  0.00     0.000 C 
ENDROOT
BRANCH   1   2
ATOM      2  C   UNL     1       3.941   6.220 -14.151  1.00  0.00     0.006 C 
BRANCH   2   3
ATOM      3  C   UNL     1       4.159   5.964 -12.655  1.00  0.00     0.053 C 
BRANCH   3   4
ATOM      4  C   UNL     1       4.337   4.502 -12.395  1.00  0.00     0.041 C 
ATOM      5  O   UNL     1       3.762   3.957 -11.417  1.00  0.00    -0.550 OA
ATOM      6  O   UNL     1       5.177   3.749 -13.206  1.00  0.00    -0.550 OA
ENDBRANCH   3   4
ENDBRANCH   2   3
ENDBRANCH   1   2
BRANCH   1   7
ATOM      7  C   UNL     1       3.354   8.634 -14.841  1.00  0.00     0.000 C 
BRANCH   7   8
ATOM      8  C   UNL     1       2.805   9.754 -13.942  1.00  0.00     0.004 C 
BRANCH   8   9
ATOM      9  C   UNL     1       2.485   9.256 -12.524  1.00  0.00     0.027 C 
BRANCH   9  10
ATOM     10  C   UNL     1       3.451   9.784 -11.498  1.00  0.00    -0.035 C 
ATOM     11  C   UNL     1       3.959   9.000 -10.541  1.00  0.00     0.004 C 
ENDBRANCH   9  10
ENDBRANCH   8   9
ENDBRANCH   7   8
ENDBRANCH   1   7
TORSDOF 7
ENDMDL
MODEL 8
REMARK VINA RESULT:    -3.082      9.295     11.128
REMARK INTER + INTRA:          -5.079
REMARK INTER:                  -4.520
REMARK INTRA:                  -0.558
REMARK UNBOUND:                -0.735
REMARK SMILES C=CCCCCCCC(=O)[O-]
REMARK SMILES IDX 6 1 7 2 8 3 9 4 10 5 11 6 5 7 4 8 3 9 2 10 1 11
REMARK H PARENT
REMARK Flexibility Score: inf
ROOT
ATOM      1  C   UNL     1       7.196  -2.101  -9.630  1.00  0.00     0.000 C 
ENDROOT
BRANCH   1   2
ATOM      2  C   UNL     1       6.023  -1.725  -8.708  1.00  0.00     0.006 C 
BRANCH   2   3
ATOM      3  C   UNL     1       6.112  -0.287  -8.184  1.00  0.00     0.053 C 
BRANCH   3   4
ATOM      4  C   UNL     1       4.938   0.513  -8.652  1.00  0.00     0.041 C 
ATOM      5  O   UNL     1       4.607   0.504  -9.866  1.00  0.00    -0.550 OA
ATOM      6  O   UNL     1       4.236   1.308  -7.754  1.00  0.00    -0.550 OA
ENDBRANCH   3   4
ENDBRANCH   2   3
ENDBRANCH   1   2
BRANCH   1   7
ATOM      7  C   UNL     1       7.520  -3.609  -9.634  1.00  0.00     0.000 C 
BRANCH   7   8
ATOM      8  C   UNL     1       6.774  -4.366  -8.522  1.00  0.00     0.004 C 
BRANCH   8   9
ATOM      9  C   UNL     1       7.727  -5.184  -7.636  1.00  0.00     0.027 C 
BRANCH   9  10
ATOM     10  C   UNL     1       7.762  -4.686  -6.216  1.00  0.00    -0.035 C 
ATOM     11  C   UNL     1       7.103  -3.586  -5.840  1.00  0.00     0.004 C 
ENDBRANCH   9  10
ENDBRANCH   8   9
ENDBRANCH   7   8
ENDBRANCH   1   7
TORSDOF 7
ENDMDL
MODEL 9
REMARK VINA RESULT:    -3.082      3.195      3.921
REMARK INTER + INTRA:          -5.079
REMARK INTER:                  -4.738
REMARK INTRA:                  -0.341
REMARK UNBOUND:                -0.735
REMARK SMILES C=CCCCCCCC(=O)[O-]
REMARK SMILES IDX 6 1 7 2 8 3 9 4 10 5 11 6 5 7 4 8 3 9 2 10 1 11
REMARK H PARENT
REMARK Flexibility Score: inf
ROOT
ATOM      1  C   UNL     1       4.144   5.648 -14.709  1.00  0.00     0.000 C 
ENDROOT
BRANCH   1   2
ATOM      2  C   UNL     1       4.193   5.210 -13.236  1.00  0.00     0.006 C 
BRANCH   2   3
ATOM      3  C   UNL     1       4.955   3.896 -13.028  1.00  0.00     0.053 C 
BRANCH   3   4
ATOM      4  C   UNL     1       4.010   2.798 -12.653  1.00  0.00     0.041 C 
ATOM      5  O   UNL     1       2.944   2.630 -13.301  1.00  0.00    -0.550 OA
ATOM      6  O   UNL     1       4.285   1.989 -11.558  1.00  0.00    -0.550 OA
ENDBRANCH   3   4
ENDBRANCH   2   3
ENDBRANCH   1   2
BRANCH   1   7
ATOM      7  C   UNL     1       3.767   7.133 -14.901  1.00  0.00     0.000 C 
BRANCH   7   8
ATOM      8  C   UNL     1       3.481   7.836 -13.562  1.00  0.00     0.004 C 
BRANCH   8   9
ATOM      9  C   UNL     1       2.849   9.222 -13.758  1.00  0.00     0.027 C 
BRANCH   9  10
ATOM     10  C   UNL     1       2.718   9.594 -15.211  1.00  0.00    -0.035 C 
ATOM     11  C   UNL     1       1.607  10.157 -15.696  1.00  0.00     0.004 C 
ENDBRANCH   9  10
ENDBRANCH   8   9
ENDBRANCH   7   8
ENDBRANCH   1   7
TORSDOF 7
ENDMDL
