MODEL 1
REMARK VINA RESULT:    -4.780      0.000      0.000
REMARK INTER + INTRA:          -5.525
REMARK INTER:                  -5.479
REMARK INTRA:                  -0.046
REMARK UNBOUND:                -0.046
REMARK SMILES O=C([O-])c1cc(O)c(O)c(O)c1
REMARK SMILES IDX 4 1 5 2 12 3 6 4 10 5 8 6 2 7 1 8 3 9 7 10 11 12 9 14
REMARK H PARENT 7 11 11 13 9 15
REMARK Flexibility Score: inf
ROOT
ATOM      1  C   UNL     1       8.003  -8.075  -6.972  1.00  0.00     0.005 A 
ATOM      2  C   UNL     1       7.991  -8.090  -5.570  1.00  0.00     0.060 A 
ATOM      3  C   UNL     1       8.007  -6.839  -7.640  1.00  0.00     0.060 A 
ATOM      4  C   UNL     1       7.982  -6.891  -4.844  1.00  0.00     0.162 A 
ATOM      5  C   UNL     1       7.998  -5.635  -6.927  1.00  0.00     0.162 A 
ATOM      6  C   UNL     1       7.986  -5.660  -5.512  1.00  0.00     0.200 A 
ENDROOT
BRANCH   1   7
ATOM      7  C   UNL     1       8.013  -9.344  -7.733  1.00  0.00     0.072 C 
ATOM      8  O   UNL     1       7.025 -10.125  -7.692  1.00  0.00    -0.545 OA
ATOM      9  O   UNL     1       9.116  -9.693  -8.506  1.00  0.00    -0.545 OA
ENDBRANCH   1   7
BRANCH   4  10
ATOM     10  O   UNL     1       7.969  -6.918  -3.450  1.00  0.00    -0.504 OA
ATOM     11  H   UNL     1       7.123  -7.113  -2.930  1.00  0.00     0.293 HD
ENDBRANCH   4  10
BRANCH   5  12
ATOM     12  O   UNL     1       8.003  -4.445  -7.660  1.00  0.00    -0.504 OA
ATOM     13  H   UNL     1       8.401  -3.578  -7.330  1.00  0.00     0.293 HD
ENDBRANCH   5  12
BRANCH   6  14
ATOM     14  O   UNL     1       7.977  -4.495  -4.741  1.00  0.00    -0.502 OA
ATOM     15  H   UNL     1       7.304  -3.749  -4.848  1.00  0.00     0.293 HD
ENDBRANCH   6  14
TORSDOF 4
ENDMDL
MODEL 2
REMARK VINA RESULT:    -4.762      1.320      1.988
REMARK INTER + INTRA:          -5.504
REMARK INTER:                  -5.452
REMARK INTRA:                  -0.052
REMARK UNBOUND:                -0.046
REMARK SMILES O=C([O-])c1cc(O)c(O)c(O)c1
REMARK SMILES IDX 4 1 5 2 12 3 6 4 10 5 8 6 2 7 1 8 3 9 7 10 11 12 9 14
REMARK H PARENT 7 11 11 13 9 15
REMARK Flexibility Score: inf
ROOT
ATOM      1  C   UNL     1       7.989  -7.268  -7.236  1.00  0.00     0.005 A 
ATOM      2  C   UNL     1       7.593  -8.199  -6.264  1.00  0.00     0.060 A 
ATOM      3  C   UNL     1       8.405  -5.990  -6.825  1.00  0.00     0.060 A 
ATOM      4  C   UNL     1       7.609  -7.861  -4.904  1.00  0.00     0.162 A 
ATOM      5  C   UNL     1       8.425  -5.640  -5.470  1.00  0.00     0.162 A 
ATOM      6  C   UNL     1       8.023  -6.586  -4.497  1.00  0.00     0.200 A 
ENDROOT
BRANCH   1   7
ATOM      7  C   UNL     1       7.971  -7.631  -8.670  1.00  0.00     0.072 C 
ATOM      8  O   UNL     1       7.989  -6.737  -9.558  1.00  0.00    -0.545 OA
ATOM      9  O   UNL     1       7.931  -8.966  -9.059  1.00  0.00    -0.545 OA
ENDBRANCH   1   7
BRANCH   4  10
ATOM     10  O   UNL     1       7.212  -8.794  -3.947  1.00  0.00    -0.504 OA
ATOM     11  H   UNL     1       6.854  -8.509  -3.044  1.00  0.00     0.293 HD
ENDBRANCH   4  10
BRANCH   5  12
ATOM     12  O   UNL     1       8.850  -4.351  -5.139  1.00  0.00    -0.504 OA
ATOM     13  H   UNL     1       9.759  -4.136  -4.754  1.00  0.00     0.293 HD
ENDBRANCH   5  12
BRANCH   6  14
ATOM     14  O   UNL     1       8.021  -6.301  -3.130  1.00  0.00    -0.502 OA
ATOM     15  H   UNL     1       8.575  -6.795  -2.446  1.00  0.00     0.293 HD
ENDBRANCH   6  14
TORSDOF 4
ENDMDL
MODEL 3
REMARK VINA RESULT:    -4.724      2.592      3.057
REMARK INTER + INTRA:          -5.461
REMARK INTER:                  -5.414
REMARK INTRA:                  -0.047
REMARK UNBOUND:                -0.046
REMARK SMILES O=C([O-])c1cc(O)c(O)c(O)c1
REMARK SMILES IDX 4 1 5 2 12 3 6 4 10 5 8 6 2 7 1 8 3 9 7 10 11 12 9 14
REMARK H PARENT 7 11 11 13 9 15
REMARK Flexibility Score: inf
ROOT
ATOM      1  C   UNL     1       8.476  -7.439  -9.267  1.00  0.00     0.005 A 
ATOM      2  C   UNL     1       7.826  -7.016  -8.098  1.00  0.00     0.060 A 
ATOM      3  C   UNL     1       9.830  -7.110  -9.450  1.00  0.00     0.060 A 
ATOM      4  C   UNL     1       8.515  -6.276  -7.127  1.00  0.00     0.162 A 
ATOM      5  C   UNL     1      10.529  -6.371  -8.489  1.00  0.00     0.162 A 
ATOM      6  C   UNL     1       9.865  -5.949  -7.312  1.00  0.00     0.200 A 
ENDROOT
BRANCH   1   7
ATOM      7  C   UNL     1       7.745  -8.220 -10.288  1.00  0.00     0.072 C 
ATOM      8  O   UNL     1       7.698  -7.827 -11.485  1.00  0.00    -0.545 OA
ATOM      9  O   UNL     1       7.097  -9.401  -9.941  1.00  0.00    -0.545 OA
ENDBRANCH   1   7
BRANCH   4  10
ATOM     10  O   UNL     1       7.859  -5.860  -5.970  1.00  0.00    -0.504 OA
ATOM     11  H   UNL     1       7.310  -6.502  -5.410  1.00  0.00     0.293 HD
ENDBRANCH   4  10
BRANCH   5  12
ATOM     12  O   UNL     1      11.872  -6.083  -8.741  1.00  0.00    -0.504 OA
ATOM     13  H   UNL     1      12.366  -5.295  -8.346  1.00  0.00     0.293 HD
ENDBRANCH   5  12
BRANCH   6  14
ATOM     14  O   UNL     1      10.504  -5.210  -6.314  1.00  0.00    -0.502 OA
ATOM     15  H   UNL     1      10.081  -4.965  -5.430  1.00  0.00     0.293 HD
ENDBRANCH   6  14
TORSDOF 4
ENDMDL
MODEL 4
REMARK VINA RESULT:    -4.723      2.590      3.390
REMARK INTER + INTRA:          -5.459
REMARK INTER:                  -5.412
REMARK INTRA:                  -0.046
REMARK UNBOUND:                -0.046
REMARK SMILES O=C([O-])c1cc(O)c(O)c(O)c1
REMARK SMILES IDX 4 1 5 2 12 3 6 4 10 5 8 6 2 7 1 8 3 9 7 10 11 12 9 14
REMARK H PARENT 7 11 11 13 9 15
REMARK Flexibility Score: inf
ROOT
ATOM      1  C   UNL     1       8.419  -7.454  -9.249  1.00  0.00     0.005 A 
ATOM      2  C   UNL     1       9.777  -7.149  -9.425  1.00  0.00     0.060 A 
ATOM      3  C   UNL     1       7.764  -7.003  -8.091  1.00  0.00     0.060 A 
ATOM      4  C   UNL     1      10.471  -6.405  -8.461  1.00  0.00     0.162 A 
ATOM      5  C   UNL     1       8.445  -6.260  -7.120  1.00  0.00     0.162 A 
ATOM      6  C   UNL     1       9.815  -5.955  -7.307  1.00  0.00     0.200 A 
ENDROOT
BRANCH   1   7
ATOM      7  C   UNL     1       7.691  -8.240 -10.270  1.00  0.00     0.072 C 
ATOM      8  O   UNL     1       7.155  -9.340  -9.971  1.00  0.00    -0.545 OA
ATOM      9  O   UNL     1       7.589  -7.774 -11.577  1.00  0.00    -0.545 OA
ENDBRANCH   1   7
BRANCH   4  10
ATOM     10  O   UNL     1      11.820  -6.107  -8.646  1.00  0.00    -0.504 OA
ATOM     11  H   UNL     1      12.118  -5.311  -9.196  1.00  0.00     0.293 HD
ENDBRANCH   4  10
BRANCH   5  12
ATOM     12  O   UNL     1       7.727  -5.845  -5.996  1.00  0.00    -0.504 OA
ATOM     13  H   UNL     1       8.121  -5.304  -5.240  1.00  0.00     0.293 HD
ENDBRANCH   5  12
BRANCH   6  14
ATOM     14  O   UNL     1      10.553  -5.218  -6.378  1.00  0.00    -0.502 OA
ATOM     15  H   UNL     1      11.279  -4.561  -6.623  1.00  0.00     0.293 HD
ENDBRANCH   6  14
TORSDOF 4
ENDMDL
MODEL 5
REMARK VINA RESULT:    -4.719      1.344      2.757
REMARK INTER + INTRA:          -5.454
REMARK INTER:                  -5.404
REMARK INTRA:                  -0.050
REMARK UNBOUND:                -0.046
REMARK SMILES O=C([O-])c1cc(O)c(O)c(O)c1
REMARK SMILES IDX 4 1 5 2 12 3 6 4 10 5 8 6 2 7 1 8 3 9 7 10 11 12 9 14
REMARK H PARENT 7 11 11 13 9 15
REMARK Flexibility Score: inf
ROOT
ATOM      1  C   UNL     1       8.054  -7.446  -7.198  1.00  0.00     0.005 A 
ATOM      2  C   UNL     1       8.462  -6.154  -6.837  1.00  0.00     0.060 A 
ATOM      3  C   UNL     1       7.632  -8.333  -6.192  1.00  0.00     0.060 A 
ATOM      4  C   UNL     1       8.451  -5.751  -5.495  1.00  0.00     0.162 A 
ATOM      5  C   UNL     1       7.617  -7.943  -4.848  1.00  0.00     0.162 A 
ATOM      6  C   UNL     1       8.030  -6.636  -4.494  1.00  0.00     0.200 A 
ENDROOT
BRANCH   1   7
ATOM      7  C   UNL     1       8.067  -7.866  -8.616  1.00  0.00     0.072 C 
ATOM      8  O   UNL     1       7.819  -7.039  -9.533  1.00  0.00    -0.545 OA
ATOM      9  O   UNL     1       8.353  -9.184  -8.958  1.00  0.00    -0.545 OA
ENDBRANCH   1   7
BRANCH   4  10
ATOM     10  O   UNL     1       8.859  -4.464  -5.148  1.00  0.00    -0.504 OA
ATOM     11  H   UNL     1       8.334  -3.899  -4.492  1.00  0.00     0.293 HD
ENDBRANCH   4  10
BRANCH   5  12
ATOM     12  O   UNL     1       7.185  -8.879  -3.905  1.00  0.00    -0.504 OA
ATOM     13  H   UNL     1       7.318  -9.876  -3.994  1.00  0.00     0.293 HD
ENDBRANCH   5  12
BRANCH   6  14
ATOM     14  O   UNL     1       8.038  -6.184  -3.172  1.00  0.00    -0.502 OA
ATOM     15  H   UNL     1       8.217  -6.774  -2.372  1.00  0.00     0.293 HD
ENDBRANCH   6  14
TORSDOF 4
ENDMDL
MODEL 6
REMARK VINA RESULT:    -4.671     19.100     20.467
REMARK INTER + INTRA:          -5.400
REMARK INTER:                  -5.347
REMARK INTRA:                  -0.053
REMARK UNBOUND:                -0.046
REMARK SMILES O=C([O-])c1cc(O)c(O)c(O)c1
REMARK SMILES IDX 4 1 5 2 12 3 6 4 10 5 8 6 2 7 1 8 3 9 7 10 11 12 9 14
REMARK H PARENT 7 11 11 13 9 15
REMARK Flexibility Score: inf
ROOT
ATOM      1  C   UNL     1      20.249  -0.543 -19.603  1.00  0.00     0.005 A 
ATOM      2  C   UNL     1      20.451  -1.117 -20.866  1.00  0.00     0.060 A 
ATOM      3  C   UNL     1      20.732   0.754 -19.358  1.00  0.00     0.060 A 
ATOM      4  C   UNL     1      21.124  -0.409 -21.871  1.00  0.00     0.162 A 
ATOM      5  C   UNL     1      21.406   1.471 -20.353  1.00  0.00     0.162 A 
ATOM      6  C   UNL     1      21.605   0.884 -21.625  1.00  0.00     0.200 A 
ENDROOT
BRANCH   1   7
ATOM      7  C   UNL     1      19.537  -1.294 -18.545  1.00  0.00     0.072 C 
ATOM      8  O   UNL     1      19.397  -0.804 -17.393  1.00  0.00    -0.545 OA
ATOM      9  O   UNL     1      19.012  -2.556 -18.809  1.00  0.00    -0.545 OA
ENDBRANCH   1   7
BRANCH   4  10
ATOM     10  O   UNL     1      21.320  -0.989 -23.124  1.00  0.00    -0.504 OA
ATOM     11  H   UNL     1      21.658  -0.450 -23.912  1.00  0.00     0.293 HD
ENDBRANCH   4  10
BRANCH   5  12
ATOM     12  O   UNL     1      21.857   2.755 -20.036  1.00  0.00    -0.504 OA
ATOM     13  H   UNL     1      21.801   3.163 -19.113  1.00  0.00     0.293 HD
ENDBRANCH   5  12
BRANCH   6  14
ATOM     14  O   UNL     1      22.269   1.546 -22.661  1.00  0.00    -0.502 OA
ATOM     15  H   UNL     1      22.235   2.544 -22.810  1.00  0.00     0.293 HD
ENDBRANCH   6  14
TORSDOF 4
ENDMDL
MODEL 7
REMARK VINA RESULT:    -4.608     18.739     20.118
REMARK INTER + INTRA:          -5.327
REMARK INTER:                  -5.281
REMARK INTRA:                  -0.046
REMARK UNBOUND:                -0.046
REMARK SMILES O=C([O-])c1cc(O)c(O)c(O)c1
REMARK SMILES IDX 4 1 5 2 12 3 6 4 10 5 8 6 2 7 1 8 3 9 7 10 11 12 9 14
REMARK H PARENT 7 11 11 13 9 15
REMARK Flexibility Score: inf
ROOT
ATOM      1  C   UNL     1      21.117   0.918 -20.463  1.00  0.00     0.005 A 
ATOM      2  C   UNL     1      19.967   0.123 -20.573  1.00  0.00     0.060 A 
ATOM      3  C   UNL     1      21.650   1.173 -19.188  1.00  0.00     0.060 A 
ATOM      4  C   UNL     1      19.356  -0.409 -19.429  1.00  0.00     0.162 A 
ATOM      5  C   UNL     1      21.049   0.649 -18.038  1.00  0.00     0.162 A 
ATOM      6  C   UNL     1      19.889  -0.153 -18.158  1.00  0.00     0.200 A 
ENDROOT
BRANCH   1   7
ATOM      7  C   UNL     1      21.758   1.477 -21.674  1.00  0.00     0.072 C 
ATOM      8  O   UNL     1      21.861   2.723 -21.829  1.00  0.00    -0.545 OA
ATOM      9  O   UNL     1      22.255   0.632 -22.661  1.00  0.00    -0.545 OA
ENDBRANCH   1   7
BRANCH   4  10
ATOM     10  O   UNL     1      18.213  -1.197 -19.549  1.00  0.00    -0.504 OA
ATOM     11  H   UNL     1      17.337  -0.934 -19.113  1.00  0.00     0.293 HD
ENDBRANCH   4  10
BRANCH   5  12
ATOM     12  O   UNL     1      21.636   0.946 -16.805  1.00  0.00    -0.504 OA
ATOM     13  H   UNL     1      22.022   1.848 -16.564  1.00  0.00     0.293 HD
ENDBRANCH   5  12
BRANCH   6  14
ATOM     14  O   UNL     1      19.242  -0.707 -17.051  1.00  0.00    -0.502 OA
ATOM     15  H   UNL     1      18.247  -0.876 -17.002  1.00  0.00     0.293 HD
ENDBRANCH   6  14
TORSDOF 4
ENDMDL
MODEL 8
REMARK VINA RESULT:    -4.570     18.727     20.058
REMARK INTER + INTRA:          -5.283
REMARK INTER:                  -5.237
REMARK INTRA:                  -0.046
REMARK UNBOUND:                -0.046
REMARK SMILES O=C([O-])c1cc(O)c(O)c(O)c1
REMARK SMILES IDX 4 1 5 2 12 3 6 4 10 5 8 6 2 7 1 8 3 9 7 10 11 12 9 14
REMARK H PARENT 7 11 11 13 9 15
REMARK Flexibility Score: inf
ROOT
ATOM      1  C   UNL     1      21.076   0.786 -20.551  1.00  0.00     0.005 A 
ATOM      2  C   UNL     1      21.612   1.111 -19.297  1.00  0.00     0.060 A 
ATOM      3  C   UNL     1      19.918  -0.009 -20.612  1.00  0.00     0.060 A 
ATOM      4  C   UNL     1      21.005   0.651 -18.121  1.00  0.00     0.162 A 
ATOM      5  C   UNL     1      19.302  -0.475 -19.445  1.00  0.00     0.162 A 
ATOM      6  C   UNL     1      19.851  -0.141 -18.183  1.00  0.00     0.200 A 
ENDROOT
BRANCH   1   7
ATOM      7  C   UNL     1      21.721   1.274 -21.790  1.00  0.00     0.072 C 
ATOM      8  O   UNL     1      21.846   2.510 -22.004  1.00  0.00    -0.545 OA
ATOM      9  O   UNL     1      22.197   0.375 -22.739  1.00  0.00    -0.545 OA
ENDBRANCH   1   7
BRANCH   4  10
ATOM     10  O   UNL     1      21.546   0.980 -16.879  1.00  0.00    -0.504 OA
ATOM     11  H   UNL     1      22.477   0.684 -16.610  1.00  0.00     0.293 HD
ENDBRANCH   4  10
BRANCH   5  12
ATOM     12  O   UNL     1      18.155  -1.259 -19.585  1.00  0.00    -0.504 OA
ATOM     13  H   UNL     1      18.162  -2.268 -19.646  1.00  0.00     0.293 HD
ENDBRANCH   5  12
BRANCH   6  14
ATOM     14  O   UNL     1      19.285  -0.573 -16.982  1.00  0.00    -0.502 OA
ATOM     15  H   UNL     1      19.754  -0.536 -16.088  1.00  0.00     0.293 HD
ENDBRANCH   6  14
TORSDOF 4
ENDMDL
MODEL 9
REMARK VINA RESULT:    -4.528      2.246      2.797
REMARK INTER + INTRA:          -5.236
REMARK INTER:                  -5.191
REMARK INTRA:                  -0.045
REMARK UNBOUND:                -0.046
REMARK SMILES O=C([O-])c1cc(O)c(O)c(O)c1
REMARK SMILES IDX 4 1 5 2 12 3 6 4 10 5 8 6 2 7 1 8 3 9 7 10 11 12 9 14
REMARK H PARENT 7 11 11 13 9 15
REMARK Flexibility Score: inf
ROOT
ATOM      1  C   UNL     1       9.695  -7.419  -8.490  1.00  0.00     0.005 A 
ATOM      2  C   UNL     1       8.513  -7.992  -7.998  1.00  0.00     0.060 A 
ATOM      3  C   UNL     1      10.289  -6.364  -7.776  1.00  0.00     0.060 A 
ATOM      4  C   UNL     1       7.931  -7.520  -6.814  1.00  0.00     0.162 A 
ATOM      5  C   UNL     1       9.718  -5.884  -6.592  1.00  0.00     0.162 A 
ATOM      6  C   UNL     1       8.525  -6.468  -6.104  1.00  0.00     0.200 A 
ENDROOT
BRANCH   1   7
ATOM      7  C   UNL     1      10.305  -7.921  -9.741  1.00  0.00     0.072 C 
ATOM      8  O   UNL     1      11.010  -8.965  -9.736  1.00  0.00    -0.545 OA
ATOM      9  O   UNL     1      10.110  -7.245 -10.941  1.00  0.00    -0.545 OA
ENDBRANCH   1   7
BRANCH   4  10
ATOM     10  O   UNL     1       6.756  -8.096  -6.335  1.00  0.00    -0.504 OA
ATOM     11  H   UNL     1       6.025  -8.412  -6.961  1.00  0.00     0.293 HD
ENDBRANCH   4  10
BRANCH   5  12
ATOM     12  O   UNL     1      10.366  -4.833  -5.938  1.00  0.00    -0.504 OA
ATOM     13  H   UNL     1      11.255  -4.449  -6.225  1.00  0.00     0.293 HD
ENDBRANCH   5  12
BRANCH   6  14
ATOM     14  O   UNL     1       7.904  -6.036  -4.929  1.00  0.00    -0.502 OA
ATOM     15  H   UNL     1       7.605  -6.651  -4.186  1.00  0.00     0.293 HD
ENDBRANCH   6  14
TORSDOF 4
ENDMDL
