MODEL 1
REMARK VINA RESULT:    -3.292      0.000      0.000
REMARK INTER + INTRA:          -5.415
REMARK INTER:                  -4.832
REMARK INTRA:                  -0.583
REMARK UNBOUND:                -0.583
REMARK SMILES O=C([O-])CCCCCCCC(=O)[O-]
REMARK SMILES IDX 7 1 6 2 5 3 4 4 2 5 1 6 3 7 8 8 9 9 10 10 11 11 12 12 13 13
REMARK H PARENT
REMARK Flexibility Score: inf
ROOT
ATOM      1  C   UNL     1       0.522  -1.830  -3.798  1.00  0.00     0.000 C 
ENDROOT
BRANCH   1   2
ATOM      2  C   UNL     1       0.064  -3.126  -3.107  1.00  0.00     0.000 C 
BRANCH   2   3
ATOM      3  C   UNL     1       0.877  -3.438  -1.840  1.00  0.00     0.006 C 
BRANCH   3   4
ATOM      4  C   UNL     1       0.896  -4.935  -1.502  1.00  0.00     0.053 C 
BRANCH   4   5
ATOM      5  C   UNL     1      -0.296  -5.297  -0.674  1.00  0.00     0.041 C 
ATOM      6  O   UNL     1      -1.276  -5.887  -1.200  1.00  0.00    -0.550 OA
ATOM      7  O   UNL     1      -0.346  -4.941   0.667  1.00  0.00    -0.550 OA
ENDBRANCH   4   5
ENDBRANCH   3   4
ENDBRANCH   2   3
ENDBRANCH   1   2
BRANCH   1   8
ATOM      8  C   UNL     1       1.614  -1.084  -3.011  1.00  0.00     0.000 C 
BRANCH   8   9
ATOM      9  C   UNL     1       2.940  -0.879  -3.766  1.00  0.00     0.006 C 
BRANCH   9  10
ATOM     10  C   UNL     1       4.171  -1.223  -2.918  1.00  0.00     0.053 C 
BRANCH  10  11
ATOM     11  C   UNL     1       4.475  -2.685  -3.009  1.00  0.00     0.041 C 
ATOM     12  O   UNL     1       5.220  -3.232  -2.152  1.00  0.00    -0.550 OA
ATOM     13  O   UNL     1       3.898  -3.455  -4.010  1.00  0.00    -0.550 OA
ENDBRANCH  10  11
ENDBRANCH   9  10
ENDBRANCH   8   9
ENDBRANCH   1   8
TORSDOF 8
ENDMDL
MODEL 2
REMARK VINA RESULT:    -3.282     11.235     12.822
REMARK INTER + INTRA:          -5.400
REMARK INTER:                  -4.709
REMARK INTRA:                  -0.691
REMARK UNBOUND:                -0.583
REMARK SMILES O=C([O-])CCCCCCCC(=O)[O-]
REMARK SMILES IDX 7 1 6 2 5 3 4 4 2 5 1 6 3 7 8 8 9 9 10 10 11 11 12 12 13 13
REMARK H PARENT
REMARK Flexibility Score: inf
ROOT
ATOM      1  C   UNL     1       1.895  -0.192   9.787  1.00  0.00     0.000 C 
ENDROOT
BRANCH   1   2
ATOM      2  C   UNL     1       3.329   0.335   9.609  1.00  0.00     0.000 C 
BRANCH   2   3
ATOM      3  C   UNL     1       3.397   1.559   8.681  1.00  0.00     0.006 C 
BRANCH   3   4
ATOM      4  C   UNL     1       2.212   2.514   8.873  1.00  0.00     0.053 C 
BRANCH   4   5
ATOM      5  C   UNL     1       2.002   3.338   7.642  1.00  0.00     0.041 C 
ATOM      6  O   UNL     1       2.985   3.680   6.934  1.00  0.00    -0.550 OA
ATOM      7  O   UNL     1       0.727   3.770   7.303  1.00  0.00    -0.550 OA
ENDBRANCH   4   5
ENDBRANCH   3   4
ENDBRANCH   2   3
ENDBRANCH   1   2
BRANCH   1   8
ATOM      8  C   UNL     1       1.545  -1.323   8.802  1.00  0.00     0.000 C 
BRANCH   8   9
ATOM      9  C   UNL     1       0.120  -1.268   8.223  1.00  0.00     0.006 C 
BRANCH   9  10
ATOM     10  C   UNL     1      -0.254   0.119   7.684  1.00  0.00     0.053 C 
BRANCH  10  11
ATOM     11  C   UNL     1      -1.448   0.657   8.409  1.00  0.00     0.041 C 
ATOM     12  O   UNL     1      -2.464  -0.068   8.583  1.00  0.00    -0.550 OA
ATOM     13  O   UNL     1      -1.421   1.941   8.936  1.00  0.00    -0.550 OA
ENDBRANCH  10  11
ENDBRANCH   9  10
ENDBRANCH   8   9
ENDBRANCH   1   8
TORSDOF 8
ENDMDL
MODEL 3
REMARK VINA RESULT:    -3.277      1.932      6.326
REMARK INTER + INTRA:          -5.393
REMARK INTER:                  -5.039
REMARK INTRA:                  -0.354
REMARK UNBOUND:                -0.583
REMARK SMILES O=C([O-])CCCCCCCC(=O)[O-]
REMARK SMILES IDX 7 1 6 2 5 3 4 4 2 5 1 6 3 7 8 8 9 9 10 10 11 11 12 12 13 13
REMARK H PARENT
REMARK Flexibility Score: inf
ROOT
ATOM      1  C   UNL     1       2.349  -1.831  -3.083  1.00  0.00     0.000 C 
ENDROOT
BRANCH   1   2
ATOM      2  C   UNL     1       3.451  -2.894  -2.929  1.00  0.00     0.000 C 
BRANCH   2   3
ATOM      3  C   UNL     1       4.862  -2.283  -2.903  1.00  0.00     0.006 C 
BRANCH   3   4
ATOM      4  C   UNL     1       4.848  -0.756  -3.054  1.00  0.00     0.053 C 
BRANCH   4   5
ATOM      5  C   UNL     1       5.755  -0.334  -4.167  1.00  0.00     0.041 C 
ATOM      6  O   UNL     1       5.806   0.873  -4.521  1.00  0.00    -0.550 OA
ATOM      7  O   UNL     1       6.508  -1.282  -4.847  1.00  0.00    -0.550 OA
ENDBRANCH   4   5
ENDBRANCH   3   4
ENDBRANCH   2   3
ENDBRANCH   1   2
BRANCH   1   8
ATOM      8  C   UNL     1       1.042  -2.214  -2.366  1.00  0.00     0.000 C 
BRANCH   8   9
ATOM      9  C   UNL     1       0.942  -3.688  -1.932  1.00  0.00     0.006 C 
BRANCH   9  10
ATOM     10  C   UNL     1      -0.391  -4.338  -2.324  1.00  0.00     0.053 C 
BRANCH  10  11
ATOM     11  C   UNL     1      -0.848  -5.279  -1.255  1.00  0.00     0.041 C 
ATOM     12  O   UNL     1      -1.474  -6.329  -1.558  1.00  0.00    -0.550 OA
ATOM     13  O   UNL     1      -0.539  -5.023   0.075  1.00  0.00    -0.550 OA
ENDBRANCH  10  11
ENDBRANCH   9  10
ENDBRANCH   8   9
ENDBRANCH   1   8
TORSDOF 8
ENDMDL
MODEL 4
REMARK VINA RESULT:    -3.268      1.808      2.227
REMARK INTER + INTRA:          -5.379
REMARK INTER:                  -4.997
REMARK INTRA:                  -0.383
REMARK UNBOUND:                -0.583
REMARK SMILES O=C([O-])CCCCCCCC(=O)[O-]
REMARK SMILES IDX 7 1 6 2 5 3 4 4 2 5 1 6 3 7 8 8 9 9 10 10 11 11 12 12 13 13
REMARK H PARENT
REMARK Flexibility Score: inf
ROOT
ATOM      1  C   UNL     1       1.198  -1.150  -3.289  1.00  0.00     0.000 C 
ENDROOT
BRANCH   1   2
ATOM      2  C   UNL     1       1.238  -2.177  -2.144  1.00  0.00     0.000 C 
BRANCH   2   3
ATOM      3  C   UNL     1       0.471  -3.467  -2.482  1.00  0.00     0.006 C 
BRANCH   3   4
ATOM      4  C   UNL     1       0.827  -4.630  -1.546  1.00  0.00     0.053 C 
BRANCH   4   5
ATOM      5  C   UNL     1      -0.360  -5.015  -0.720  1.00  0.00     0.041 C 
ATOM      6  O   UNL     1      -0.328  -4.890   0.532  1.00  0.00    -0.550 OA
ATOM      7  O   UNL     1      -1.483  -5.559  -1.329  1.00  0.00    -0.550 OA
ENDBRANCH   4   5
ENDBRANCH   3   4
ENDBRANCH   2   3
ENDBRANCH   1   2
BRANCH   1   8
ATOM      8  C   UNL     1       2.582  -0.890  -3.910  1.00  0.00     0.000 C 
BRANCH   8   9
ATOM      9  C   UNL     1       3.731  -1.731  -3.322  1.00  0.00     0.006 C 
BRANCH   9  10
ATOM     10  C   UNL     1       4.991  -0.904  -3.034  1.00  0.00     0.053 C 
BRANCH  10  11
ATOM     11  C   UNL     1       5.618  -0.446  -4.313  1.00  0.00     0.041 C 
ATOM     12  O   UNL     1       5.925  -1.281  -5.204  1.00  0.00    -0.550 OA
ATOM     13  O   UNL     1       5.819   0.909  -4.542  1.00  0.00    -0.550 OA
ENDBRANCH  10  11
ENDBRANCH   9  10
ENDBRANCH   8   9
ENDBRANCH   1   8
TORSDOF 8
ENDMDL
MODEL 5
REMARK VINA RESULT:    -3.260     11.144     11.880
REMARK INTER + INTRA:          -5.368
REMARK INTER:                  -4.949
REMARK INTRA:                  -0.419
REMARK UNBOUND:                -0.583
REMARK SMILES O=C([O-])CCCCCCCC(=O)[O-]
REMARK SMILES IDX 7 1 6 2 5 3 4 4 2 5 1 6 3 7 8 8 9 9 10 10 11 11 12 12 13 13
REMARK H PARENT
REMARK Flexibility Score: inf
ROOT
ATOM      1  C   UNL     1       1.950   0.228   9.209  1.00  0.00     0.000 C 
ENDROOT
BRANCH   1   2
ATOM      2  C   UNL     1       1.327  -1.153   8.939  1.00  0.00     0.000 C 
BRANCH   2   3
ATOM      3  C   UNL     1       0.088  -1.074   8.032  1.00  0.00     0.006 C 
BRANCH   3   4
ATOM      4  C   UNL     1      -0.290   0.368   7.669  1.00  0.00     0.053 C 
BRANCH   4   5
ATOM      5  C   UNL     1      -1.511   0.792   8.423  1.00  0.00     0.041 C 
ATOM      6  O   UNL     1      -2.635   0.306   8.132  1.00  0.00    -0.550 OA
ATOM      7  O   UNL     1      -1.415   1.760   9.414  1.00  0.00    -0.550 OA
ENDBRANCH   4   5
ENDBRANCH   3   4
ENDBRANCH   2   3
ENDBRANCH   1   2
BRANCH   1   8
ATOM      8  C   UNL     1       3.476   0.170   9.400  1.00  0.00     0.000 C 
BRANCH   8   9
ATOM      9  C   UNL     1       4.236   1.440   8.975  1.00  0.00     0.006 C 
BRANCH   9  10
ATOM     10  C   UNL     1       3.325   2.499   8.341  1.00  0.00     0.053 C 
BRANCH  10  11
ATOM     11  C   UNL     1       4.112   3.386   7.428  1.00  0.00     0.041 C 
ATOM     12  O   UNL     1       5.362   3.476   7.553  1.00  0.00    -0.550 OA
ATOM     13  O   UNL     1       3.472   4.074   6.406  1.00  0.00    -0.550 OA
ENDBRANCH  10  11
ENDBRANCH   9  10
ENDBRANCH   8   9
ENDBRANCH   1   8
TORSDOF 8
ENDMDL
MODEL 6
REMARK VINA RESULT:    -3.221      0.366      5.213
REMARK INTER + INTRA:          -5.311
REMARK INTER:                  -4.730
REMARK INTRA:                  -0.581
REMARK UNBOUND:                -0.583
REMARK SMILES O=C([O-])CCCCCCCC(=O)[O-]
REMARK SMILES IDX 7 1 6 2 5 3 4 4 2 5 1 6 3 7 8 8 9 9 10 10 11 11 12 12 13 13
REMARK H PARENT
REMARK Flexibility Score: inf
ROOT
ATOM      1  C   UNL     1       0.550  -1.837  -3.460  1.00  0.00     0.000 C 
ENDROOT
BRANCH   1   2
ATOM      2  C   UNL     1       1.726  -1.168  -2.728  1.00  0.00     0.000 C 
BRANCH   2   3
ATOM      3  C   UNL     1       2.934  -0.928  -3.648  1.00  0.00     0.006 C 
BRANCH   3   4
ATOM      4  C   UNL     1       4.270  -1.263  -2.971  1.00  0.00     0.053 C 
BRANCH   4   5
ATOM      5  C   UNL     1       4.509  -2.740  -2.992  1.00  0.00     0.041 C 
ATOM      6  O   UNL     1       5.228  -3.278  -2.110  1.00  0.00    -0.550 OA
ATOM      7  O   UNL     1       3.977  -3.515  -4.014  1.00  0.00    -0.550 OA
ENDBRANCH   4   5
ENDBRANCH   3   4
ENDBRANCH   2   3
ENDBRANCH   1   2
BRANCH   1   8
ATOM      8  C   UNL     1       0.381  -3.322  -3.092  1.00  0.00     0.000 C 
BRANCH   8   9
ATOM      9  C   UNL     1       1.000  -3.736  -1.744  1.00  0.00     0.006 C 
BRANCH   9  10
ATOM     10  C   UNL     1       0.965  -5.251  -1.510  1.00  0.00     0.053 C 
BRANCH  10  11
ATOM     11  C   UNL     1      -0.134  -5.608  -0.560  1.00  0.00     0.041 C 
ATOM     12  O   UNL     1      -0.831  -6.639  -0.754  1.00  0.00    -0.550 OA
ATOM     13  O   UNL     1      -0.358  -4.830   0.568  1.00  0.00    -0.550 OA
ENDBRANCH  10  11
ENDBRANCH   9  10
ENDBRANCH   8   9
ENDBRANCH   1   8
TORSDOF 8
ENDMDL
MODEL 7
REMARK VINA RESULT:    -3.197     11.623     13.170
REMARK INTER + INTRA:          -5.276
REMARK INTER:                  -4.429
REMARK INTRA:                  -0.847
REMARK UNBOUND:                -0.583
REMARK SMILES O=C([O-])CCCCCCCC(=O)[O-]
REMARK SMILES IDX 7 1 6 2 5 3 4 4 2 5 1 6 3 7 8 8 9 9 10 10 11 11 12 12 13 13
REMARK H PARENT
REMARK Flexibility Score: inf
ROOT
ATOM      1  C   UNL     1     -10.386  -7.040   5.908  1.00  0.00     0.000 C 
ENDROOT
BRANCH   1   2
ATOM      2  C   UNL     1     -10.715  -6.501   4.505  1.00  0.00     0.000 C 
BRANCH   2   3
ATOM      3  C   UNL     1     -10.296  -7.470   3.387  1.00  0.00     0.006 C 
BRANCH   3   4
ATOM      4  C   UNL     1      -9.056  -8.297   3.754  1.00  0.00     0.053 C 
BRANCH   4   5
ATOM      5  C   UNL     1      -7.962  -8.064   2.761  1.00  0.00     0.041 C 
ATOM      6  O   UNL     1      -6.922  -8.773   2.786  1.00  0.00    -0.550 OA
ATOM      7  O   UNL     1      -8.069  -7.031   1.839  1.00  0.00    -0.550 OA
ENDBRANCH   4   5
ENDBRANCH   3   4
ENDBRANCH   2   3
ENDBRANCH   1   2
BRANCH   1   8
ATOM      8  C   UNL     1      -9.528  -6.068   6.737  1.00  0.00     0.000 C 
BRANCH   8   9
ATOM      9  C   UNL     1      -8.055  -6.481   6.912  1.00  0.00     0.006 C 
BRANCH   9  10
ATOM     10  C   UNL     1      -7.072  -5.364   6.540  1.00  0.00     0.053 C 
BRANCH  10  11
ATOM     11  C   UNL     1      -6.830  -5.350   5.064  1.00  0.00     0.041 C 
ATOM     12  O   UNL     1      -5.873  -6.003   4.571  1.00  0.00    -0.550 OA
ATOM     13  O   UNL     1      -7.693  -4.656   4.225  1.00  0.00    -0.550 OA
ENDBRANCH  10  11
ENDBRANCH   9  10
ENDBRANCH   8   9
ENDBRANCH   1   8
TORSDOF 8
ENDMDL
MODEL 8
REMARK VINA RESULT:    -3.183     11.241     13.081
REMARK INTER + INTRA:          -5.255
REMARK INTER:                  -4.760
REMARK INTRA:                  -0.495
REMARK UNBOUND:                -0.583
REMARK SMILES O=C([O-])CCCCCCCC(=O)[O-]
REMARK SMILES IDX 7 1 6 2 5 3 4 4 2 5 1 6 3 7 8 8 9 9 10 10 11 11 12 12 13 13
REMARK H PARENT
REMARK Flexibility Score: inf
ROOT
ATOM      1  C   UNL     1       0.270  -1.313   8.239  1.00  0.00     0.000 C 
ENDROOT
BRANCH   1   2
ATOM      2  C   UNL     1       1.646  -1.338   8.926  1.00  0.00     0.000 C 
BRANCH   2   3
ATOM      3  C   UNL     1       2.013   0.013   9.563  1.00  0.00     0.006 C 
BRANCH   3   4
ATOM      4  C   UNL     1       3.492   0.375   9.373  1.00  0.00     0.053 C 
BRANCH   4   5
ATOM      5  C   UNL     1       3.620   1.728   8.747  1.00  0.00     0.041 C 
ATOM      6  O   UNL     1       4.757   2.239   8.571  1.00  0.00    -0.550 OA
ATOM      7  O   UNL     1       2.483   2.446   8.403  1.00  0.00    -0.550 OA
ENDBRANCH   4   5
ENDBRANCH   3   4
ENDBRANCH   2   3
ENDBRANCH   1   2
BRANCH   1   8
ATOM      8  C   UNL     1      -0.059   0.051   7.605  1.00  0.00     0.000 C 
BRANCH   8   9
ATOM      9  C   UNL     1      -1.401   0.667   8.041  1.00  0.00     0.006 C 
BRANCH   9  10
ATOM     10  C   UNL     1      -2.161  -0.205   9.048  1.00  0.00     0.053 C 
BRANCH  10  11
ATOM     11  C   UNL     1      -3.633   0.048   8.953  1.00  0.00     0.041 C 
ATOM     12  O   UNL     1      -4.331  -0.579   8.113  1.00  0.00    -0.550 OA
ATOM     13  O   UNL     1      -4.242   0.940   9.826  1.00  0.00    -0.550 OA
ENDBRANCH  10  11
ENDBRANCH   9  10
ENDBRANCH   8   9
ENDBRANCH   1   8
TORSDOF 8
ENDMDL
MODEL 9
REMARK VINA RESULT:    -3.157     11.352     11.869
REMARK INTER + INTRA:          -5.217
REMARK INTER:                  -4.718
REMARK INTRA:                  -0.499
REMARK UNBOUND:                -0.583
REMARK SMILES O=C([O-])CCCCCCCC(=O)[O-]
REMARK SMILES IDX 7 1 6 2 5 3 4 4 2 5 1 6 3 7 8 8 9 9 10 10 11 11 12 12 13 13
REMARK H PARENT
REMARK Flexibility Score: inf
ROOT
ATOM      1  C   UNL     1       0.321  -0.868   8.211  1.00  0.00     0.000 C 
ENDROOT
BRANCH   1   2
ATOM      2  C   UNL     1      -0.348   0.413   7.681  1.00  0.00     0.000 C 
BRANCH   2   3
ATOM      3  C   UNL     1      -1.807   0.551   8.144  1.00  0.00     0.006 C 
BRANCH   3   4
ATOM      4  C   UNL     1      -2.110  -0.272   9.404  1.00  0.00     0.053 C 
BRANCH   4   5
ATOM      5  C   UNL     1      -3.225  -1.234   9.142  1.00  0.00     0.041 C 
ATOM      6  O   UNL     1      -3.097  -2.449   9.445  1.00  0.00    -0.550 OA
ATOM      7  O   UNL     1      -4.386  -0.799   8.518  1.00  0.00    -0.550 OA
ENDBRANCH   4   5
ENDBRANCH   3   4
ENDBRANCH   2   3
ENDBRANCH   1   2
BRANCH   1   8
ATOM      8  C   UNL     1       1.674  -0.598   8.894  1.00  0.00     0.000 C 
BRANCH   8   9
ATOM      9  C   UNL     1       1.946   0.875   9.247  1.00  0.00     0.006 C 
BRANCH   9  10
ATOM     10  C   UNL     1       3.334   1.351   8.799  1.00  0.00     0.053 C 
BRANCH  10  11
ATOM     11  C   UNL     1       3.231   2.660   8.082  1.00  0.00     0.041 C 
ATOM     12  O   UNL     1       4.271   3.315   7.806  1.00  0.00    -0.550 OA
ATOM     13  O   UNL     1       1.991   3.134   7.674  1.00  0.00    -0.550 OA
ENDBRANCH  10  11
ENDBRANCH   9  10
ENDBRANCH   8   9
ENDBRANCH   1   8
TORSDOF 8
ENDMDL
