MODEL 1
REMARK VINA RESULT:    -3.779      0.000      0.000
REMARK INTER + INTRA:          -4.220
REMARK INTER:                  -4.111
REMARK INTRA:                  -0.109
REMARK UNBOUND:                -0.109
REMARK SMILES Cc1ccc(C(C)C)cc1O
REMARK SMILES IDX 1 1 2 2 10 3 9 4 5 5 4 6 3 7 11 8 6 10 7 11 8 12
REMARK H PARENT 11 9
REMARK Flexibility Score: inf
ROOT
ATOM      1  C   UNL     1     148.091 147.779 139.525  1.00  0.00     0.048 C 
ATOM      2  C   UNL     1     148.035 146.292 139.317  1.00  0.00    -0.009 A 
ATOM      3  C   UNL     1     148.168 145.751 138.027  1.00  0.00     0.118 A 
ATOM      4  C   UNL     1     148.114 144.363 137.840  1.00  0.00     0.050 A 
ATOM      5  C   UNL     1     147.928 143.498 138.936  1.00  0.00    -0.042 A 
ATOM      6  C   UNL     1     147.798 144.049 140.220  1.00  0.00     0.004 A 
ATOM      7  C   UNL     1     147.850 145.431 140.410  1.00  0.00     0.007 A 
ENDROOT
BRANCH   3   8
ATOM      8  O   UNL     1     148.352 146.596 136.931  1.00  0.00    -0.508 OA
ATOM      9  H   UNL     1     147.852 147.473 136.847  1.00  0.00     0.293 HD
ENDBRANCH   3   8
BRANCH   5  10
ATOM     10  C   UNL     1     147.869 141.994 138.745  1.00  0.00     0.013 C 
ATOM     11  C   UNL     1     146.428 141.479 138.853  1.00  0.00     0.012 C 
ATOM     12  C   UNL     1     148.503 141.580 137.412  1.00  0.00     0.012 C 
ENDBRANCH   5  10
TORSDOF 2
ENDMDL
MODEL 2
REMARK VINA RESULT:    -3.771     11.375     11.858
REMARK INTER + INTRA:          -4.211
REMARK INTER:                  -4.101
REMARK INTRA:                  -0.109
REMARK UNBOUND:                -0.109
REMARK SMILES Cc1ccc(C(C)C)cc1O
REMARK SMILES IDX 1 1 2 2 10 3 9 4 5 5 4 6 3 7 11 8 6 10 7 11 8 12
REMARK H PARENT 11 9
REMARK Flexibility Score: inf
ROOT
ATOM      1  C   UNL     1     133.620 148.092 139.551  1.00  0.00     0.048 C 
ATOM      2  C   UNL     1     135.110 148.021 139.373  1.00  0.00    -0.009 A 
ATOM      3  C   UNL     1     135.679 148.185 138.098  1.00  0.00     0.118 A 
ATOM      4  C   UNL     1     137.070 148.117 137.938  1.00  0.00     0.050 A 
ATOM      5  C   UNL     1     137.910 147.887 139.044  1.00  0.00    -0.042 A 
ATOM      6  C   UNL     1     137.331 147.726 140.313  1.00  0.00     0.004 A 
ATOM      7  C   UNL     1     135.945 147.792 140.477  1.00  0.00     0.007 A 
ENDROOT
BRANCH   3   8
ATOM      8  O   UNL     1     134.860 148.413 136.991  1.00  0.00    -0.508 OA
ATOM      9  H   UNL     1     135.044 147.979 136.095  1.00  0.00     0.293 HD
ENDBRANCH   3   8
BRANCH   5  10
ATOM     10  C   UNL     1     139.417 147.813 138.882  1.00  0.00     0.013 C 
ATOM     11  C   UNL     1     139.910 146.363 138.960  1.00  0.00     0.012 C 
ATOM     12  C   UNL     1     139.866 148.479 137.577  1.00  0.00     0.012 C 
ENDBRANCH   5  10
TORSDOF 2
ENDMDL
MODEL 3
REMARK VINA RESULT:    -3.770     14.232     16.654
REMARK INTER + INTRA:          -4.209
REMARK INTER:                  -4.104
REMARK INTRA:                  -0.105
REMARK UNBOUND:                -0.109
REMARK SMILES Cc1ccc(C(C)C)cc1O
REMARK SMILES IDX 1 1 2 2 10 3 9 4 5 5 4 6 3 7 11 8 6 10 7 11 8 12
REMARK H PARENT 11 9
REMARK Flexibility Score: inf
ROOT
ATOM      1  C   UNL     1     133.507 133.650 139.516  1.00  0.00     0.048 C 
ATOM      2  C   UNL     1     133.553 135.141 139.331  1.00  0.00    -0.009 A 
ATOM      3  C   UNL     1     133.395 135.701 138.052  1.00  0.00     0.118 A 
ATOM      4  C   UNL     1     133.439 137.092 137.885  1.00  0.00     0.050 A 
ATOM      5  C   UNL     1     133.641 137.941 138.990  1.00  0.00    -0.042 A 
ATOM      6  C   UNL     1     133.797 137.372 140.263  1.00  0.00     0.004 A 
ATOM      7  C   UNL     1     133.755 135.986 140.433  1.00  0.00     0.007 A 
ENDROOT
BRANCH   3   8
ATOM      8  O   UNL     1     133.194 134.872 136.947  1.00  0.00    -0.508 OA
ATOM      9  H   UNL     1     132.398 134.249 136.887  1.00  0.00     0.293 HD
ENDBRANCH   3   8
BRANCH   5  10
ATOM     10  C   UNL     1     133.690 139.448 138.821  1.00  0.00     0.013 C 
ATOM     11  C   UNL     1     135.134 139.940 138.664  1.00  0.00     0.012 C 
ATOM     12  C   UNL     1     132.822 139.900 137.641  1.00  0.00     0.012 C 
ENDBRANCH   5  10
TORSDOF 2
ENDMDL
MODEL 4
REMARK VINA RESULT:    -3.765     11.203     11.690
REMARK INTER + INTRA:          -4.205
REMARK INTER:                  -4.095
REMARK INTRA:                  -0.110
REMARK UNBOUND:                -0.109
REMARK SMILES Cc1ccc(C(C)C)cc1O
REMARK SMILES IDX 1 1 2 2 10 3 9 4 5 5 4 6 3 7 11 8 6 10 7 11 8 12
REMARK H PARENT 11 9
REMARK Flexibility Score: inf
ROOT
ATOM      1  C   UNL     1     147.900 133.484 139.572  1.00  0.00     0.048 C 
ATOM      2  C   UNL     1     146.412 133.547 139.370  1.00  0.00    -0.009 A 
ATOM      3  C   UNL     1     145.861 133.340 138.094  1.00  0.00     0.118 A 
ATOM      4  C   UNL     1     144.473 133.400 137.912  1.00  0.00     0.050 A 
ATOM      5  C   UNL     1     143.618 133.667 138.999  1.00  0.00    -0.042 A 
ATOM      6  C   UNL     1     144.178 133.873 140.269  1.00  0.00     0.004 A 
ATOM      7  C   UNL     1     145.562 133.814 140.454  1.00  0.00     0.007 A 
ENDROOT
BRANCH   3   8
ATOM      8  O   UNL     1     146.696 133.074 137.008  1.00  0.00    -0.508 OA
ATOM      9  H   UNL     1     146.444 133.345 136.065  1.00  0.00     0.293 HD
ENDBRANCH   3   8
BRANCH   5  10
ATOM     10  C   UNL     1     142.113 133.735 138.813  1.00  0.00     0.013 C 
ATOM     11  C   UNL     1     141.612 135.182 138.879  1.00  0.00     0.012 C 
ATOM     12  C   UNL     1     141.687 133.062 137.503  1.00  0.00     0.012 C 
ENDBRANCH   5  10
TORSDOF 2
ENDMDL
MODEL 5
REMARK VINA RESULT:    -3.608      1.475      1.741
REMARK INTER + INTRA:          -4.033
REMARK INTER:                  -3.907
REMARK INTRA:                  -0.126
REMARK UNBOUND:                -0.109
REMARK SMILES Cc1ccc(C(C)C)cc1O
REMARK SMILES IDX 1 1 2 2 10 3 9 4 5 5 4 6 3 7 11 8 6 10 7 11 8 12
REMARK H PARENT 11 9
REMARK Flexibility Score: inf
ROOT
ATOM      1  C   UNL     1     149.054 147.461 139.269  1.00  0.00     0.048 C 
ATOM      2  C   UNL     1     148.641 146.062 138.907  1.00  0.00    -0.009 A 
ATOM      3  C   UNL     1     147.290 145.682 138.980  1.00  0.00     0.118 A 
ATOM      4  C   UNL     1     146.911 144.375 138.642  1.00  0.00     0.050 A 
ATOM      5  C   UNL     1     147.872 143.434 138.228  1.00  0.00    -0.042 A 
ATOM      6  C   UNL     1     149.219 143.824 138.158  1.00  0.00     0.004 A 
ATOM      7  C   UNL     1     149.600 145.125 138.495  1.00  0.00     0.007 A 
ENDROOT
BRANCH   3   8
ATOM      8  O   UNL     1     146.326 146.604 139.389  1.00  0.00    -0.508 OA
ATOM      9  H   UNL     1     146.419 147.122 140.255  1.00  0.00     0.293 HD
ENDBRANCH   3   8
BRANCH   5  10
ATOM     10  C   UNL     1     147.473 142.017 137.859  1.00  0.00     0.013 C 
ATOM     11  C   UNL     1     146.047 141.972 137.296  1.00  0.00     0.012 C 
ATOM     12  C   UNL     1     148.474 141.398 136.877  1.00  0.00     0.012 C 
ENDBRANCH   5  10
TORSDOF 2
ENDMDL
MODEL 6
REMARK VINA RESULT:    -3.575      9.866     10.448
REMARK INTER + INTRA:          -3.997
REMARK INTER:                  -3.870
REMARK INTRA:                  -0.127
REMARK UNBOUND:                -0.109
REMARK SMILES Cc1ccc(C(C)C)cc1O
REMARK SMILES IDX 1 1 2 2 10 3 9 4 5 5 4 6 3 7 11 8 6 10 7 11 8 12
REMARK H PARENT 11 9
REMARK Flexibility Score: inf
ROOT
ATOM      1  C   UNL     1     139.939 148.522 136.892  1.00  0.00     0.048 C 
ATOM      2  C   UNL     1     139.075 147.528 137.615  1.00  0.00    -0.009 A 
ATOM      3  C   UNL     1     137.771 147.876 138.008  1.00  0.00     0.118 A 
ATOM      4  C   UNL     1     136.970 146.944 138.682  1.00  0.00     0.050 A 
ATOM      5  C   UNL     1     137.457 145.655 138.971  1.00  0.00    -0.042 A 
ATOM      6  C   UNL     1     138.760 145.317 138.574  1.00  0.00     0.004 A 
ATOM      7  C   UNL     1     139.562 146.244 137.903  1.00  0.00     0.007 A 
ENDROOT
BRANCH   3   8
ATOM      8  O   UNL     1     137.274 149.150 137.728  1.00  0.00    -0.508 OA
ATOM      9  H   UNL     1     136.488 149.288 137.105  1.00  0.00     0.293 HD
ENDBRANCH   3   8
BRANCH   5  10
ATOM     10  C   UNL     1     136.598 144.639 139.701  1.00  0.00     0.013 C 
ATOM     11  C   UNL     1     136.979 143.207 139.305  1.00  0.00     0.012 C 
ATOM     12  C   UNL     1     136.682 144.832 141.219  1.00  0.00     0.012 C 
ENDBRANCH   5  10
TORSDOF 2
ENDMDL
MODEL 7
REMARK VINA RESULT:    -3.563     11.412     11.990
REMARK INTER + INTRA:          -3.985
REMARK INTER:                  -3.860
REMARK INTRA:                  -0.125
REMARK UNBOUND:                -0.109
REMARK SMILES Cc1ccc(C(C)C)cc1O
REMARK SMILES IDX 1 1 2 2 10 3 9 4 5 5 4 6 3 7 11 8 6 10 7 11 8 12
REMARK H PARENT 11 9
REMARK Flexibility Score: inf
ROOT
ATOM      1  C   UNL     1     133.913 149.375 139.402  1.00  0.00     0.048 C 
ATOM      2  C   UNL     1     135.298 148.924 139.031  1.00  0.00    -0.009 A 
ATOM      3  C   UNL     1     135.629 147.558 139.059  1.00  0.00     0.118 A 
ATOM      4  C   UNL     1     136.922 147.144 138.713  1.00  0.00     0.050 A 
ATOM      5  C   UNL     1     137.900 148.083 138.334  1.00  0.00    -0.042 A 
ATOM      6  C   UNL     1     137.559 149.445 138.308  1.00  0.00     0.004 A 
ATOM      7  C   UNL     1     136.271 149.862 138.654  1.00  0.00     0.007 A 
ENDROOT
BRANCH   3   8
ATOM      8  O   UNL     1     134.671 146.615 139.433  1.00  0.00    -0.508 OA
ATOM      9  H   UNL     1     133.772 146.559 138.970  1.00  0.00     0.293 HD
ENDBRANCH   3   8
BRANCH   5  10
ATOM     10  C   UNL     1     139.303 147.646 137.956  1.00  0.00     0.013 C 
ATOM     11  C   UNL     1     139.324 146.178 137.511  1.00  0.00     0.012 C 
ATOM     12  C   UNL     1     139.894 148.558 136.875  1.00  0.00     0.012 C 
ENDBRANCH   5  10
TORSDOF 2
ENDMDL
MODEL 8
REMARK VINA RESULT:    -3.548     10.722     12.127
REMARK INTER + INTRA:          -3.968
REMARK INTER:                  -3.840
REMARK INTRA:                  -0.128
REMARK UNBOUND:                -0.109
REMARK SMILES Cc1ccc(C(C)C)cc1O
REMARK SMILES IDX 1 1 2 2 10 3 9 4 5 5 4 6 3 7 11 8 6 10 7 11 8 12
REMARK H PARENT 11 9
REMARK Flexibility Score: inf
ROOT
ATOM      1  C   UNL     1     147.704 131.846 139.553  1.00  0.00     0.048 C 
ATOM      2  C   UNL     1     146.392 132.419 139.095  1.00  0.00    -0.009 A 
ATOM      3  C   UNL     1     146.195 133.810 139.074  1.00  0.00     0.118 A 
ATOM      4  C   UNL     1     144.970 134.338 138.646  1.00  0.00     0.050 A 
ATOM      5  C   UNL     1     143.927 133.487 138.233  1.00  0.00    -0.042 A 
ATOM      6  C   UNL     1     144.134 132.099 138.257  1.00  0.00     0.004 A 
ATOM      7  C   UNL     1     145.354 131.569 138.683  1.00  0.00     0.007 A 
ENDROOT
BRANCH   3   8
ATOM      8  O   UNL     1     147.220 134.666 139.481  1.00  0.00    -0.508 OA
ATOM      9  H   UNL     1     147.775 134.476 140.306  1.00  0.00     0.293 HD
ENDBRANCH   3   8
BRANCH   5  10
ATOM     10  C   UNL     1     142.596 134.048 137.767  1.00  0.00     0.013 C 
ATOM     11  C   UNL     1     141.691 132.940 137.216  1.00  0.00     0.012 C 
ATOM     12  C   UNL     1     141.898 134.821 138.893  1.00  0.00     0.012 C 
ENDBRANCH   5  10
TORSDOF 2
ENDMDL
MODEL 9
REMARK VINA RESULT:    -3.546      8.330     11.183
REMARK INTER + INTRA:          -3.966
REMARK INTER:                  -3.839
REMARK INTRA:                  -0.127
REMARK UNBOUND:                -0.109
REMARK SMILES Cc1ccc(C(C)C)cc1O
REMARK SMILES IDX 1 1 2 2 10 3 9 4 5 5 4 6 3 7 11 8 6 10 7 11 8 12
REMARK H PARENT 11 9
REMARK Flexibility Score: inf
ROOT
ATOM      1  C   UNL     1     141.475 133.123 136.875  1.00  0.00     0.048 C 
ATOM      2  C   UNL     1     142.409 134.004 137.657  1.00  0.00    -0.009 A 
ATOM      3  C   UNL     1     143.689 133.543 138.008  1.00  0.00     0.118 A 
ATOM      4  C   UNL     1     144.555 134.369 138.737  1.00  0.00     0.050 A 
ATOM      5  C   UNL     1     144.156 135.663 139.125  1.00  0.00    -0.042 A 
ATOM      6  C   UNL     1     142.875 136.113 138.769  1.00  0.00     0.004 A 
ATOM      7  C   UNL     1     142.009 135.293 138.043  1.00  0.00     0.007 A 
ENDROOT
BRANCH   3   8
ATOM      8  O   UNL     1     144.099 132.263 137.631  1.00  0.00    -0.508 OA
ATOM      9  H   UNL     1     144.952 132.111 137.107  1.00  0.00     0.293 HD
ENDBRANCH   3   8
BRANCH   5  10
ATOM     10  C   UNL     1     145.086 136.565 139.915  1.00  0.00     0.013 C 
ATOM     11  C   UNL     1     144.729 138.042 139.710  1.00  0.00     0.012 C 
ATOM     12  C   UNL     1     145.080 136.198 141.404  1.00  0.00     0.012 C 
ENDBRANCH   5  10
TORSDOF 2
ENDMDL
