MODEL 1
REMARK VINA RESULT:    -4.842      0.000      0.000
REMARK INTER + INTRA:         -17.390
REMARK INTER:                 -12.203
REMARK INTRA:                  -5.187
REMARK UNBOUND:                -5.187
REMARK SMILES CCCCCCCCCCCCCCCCCCCCCCCCCCCC(=O)[O-]
REMARK SMILES IDX 15 1 16 2 17 3 18 4 19 5 20 6 21 7 22 8 23 9 24 10 25 11
REMARK SMILES IDX 26 12 27 13 28 14 29 15 30 16 14 17 13 18 12 19 11 20 10 21
REMARK SMILES IDX 9 22 8 23 7 24 6 25 5 26 4 27 3 28 2 29 1 30
REMARK H PARENT
REMARK Flexibility Score: inf
ROOT
ATOM      1  C   UNL     1      14.773  12.816   5.051  1.00  0.00     0.000 C 
ENDROOT
BRANCH   1   2
ATOM      2  C   UNL     1      15.324  13.781   3.991  1.00  0.00     0.000 C 
BRANCH   2   3
ATOM      3  C   UNL     1      15.373  13.118   2.603  1.00  0.00     0.000 C 
BRANCH   3   4
ATOM      4  C   UNL     1      14.587  13.901   1.538  1.00  0.00     0.000 C 
BRANCH   4   5
ATOM      5  C   UNL     1      13.078  13.575   1.482  1.00  0.00     0.000 C 
BRANCH   5   6
ATOM      6  C   UNL     1      12.143  14.785   1.270  1.00  0.00     0.000 C 
BRANCH   6   7
ATOM      7  C   UNL     1      11.148  15.010   2.423  1.00  0.00     0.000 C 
BRANCH   7   8
ATOM      8  C   UNL     1      11.784  15.697   3.649  1.00  0.00     0.000 C 
BRANCH   8   9
ATOM      9  C   UNL     1      12.519  17.011   3.319  1.00  0.00     0.000 C 
BRANCH   9  10
ATOM     10  C   UNL     1      13.876  17.127   4.030  1.00  0.00     0.000 C 
BRANCH  10  11
ATOM     11  C   UNL     1      15.027  17.173   3.017  1.00  0.00     0.000 C 
BRANCH  11  12
ATOM     12  C   UNL     1      14.540  17.665   1.648  1.00  0.00     0.006 C 
BRANCH  12  13
ATOM     13  C   UNL     1      15.592  17.405   0.565  1.00  0.00     0.053 C 
BRANCH  13  14
ATOM     14  C   UNL     1      14.948  17.262  -0.781  1.00  0.00     0.041 C 
ATOM     15  O   UNL     1      14.442  16.163  -1.128  1.00  0.00    -0.550 OA
ATOM     16  O   UNL     1      14.849  18.360  -1.624  1.00  0.00    -0.550 OA
ENDBRANCH  13  14
ENDBRANCH  12  13
ENDBRANCH  11  12
ENDBRANCH  10  11
ENDBRANCH   9  10
ENDBRANCH   8   9
ENDBRANCH   7   8
ENDBRANCH   6   7
ENDBRANCH   5   6
ENDBRANCH   4   5
ENDBRANCH   3   4
ENDBRANCH   2   3
ENDBRANCH   1   2
BRANCH   1  17
ATOM     17  C   UNL     1      13.618  13.433   5.866  1.00  0.00     0.000 C 
BRANCH  17  18
ATOM     18  C   UNL     1      12.274  12.736   5.605  1.00  0.00     0.000 C 
BRANCH  18  19
ATOM     19  C   UNL     1      12.348  11.668   4.497  1.00  0.00     0.000 C 
BRANCH  19  20
ATOM     20  C   UNL     1      11.002  11.286   3.861  1.00  0.00     0.000 C 
BRANCH  20  21
ATOM     21  C   UNL     1      10.048  10.585   4.839  1.00  0.00     0.000 C 
BRANCH  21  22
ATOM     22  C   UNL     1       8.688  11.298   4.875  1.00  0.00    -0.000 C 
BRANCH  22  23
ATOM     23  C   UNL     1       8.572  12.337   3.749  1.00  0.00    -0.000 C 
BRANCH  23  24
ATOM     24  C   UNL     1       8.122  13.714   4.272  1.00  0.00    -0.000 C 
BRANCH  24  25
ATOM     25  C   UNL     1       8.704  14.044   5.657  1.00  0.00    -0.000 C 
BRANCH  25  26
ATOM     26  C   UNL     1       7.920  15.147   6.390  1.00  0.00    -0.000 C 
BRANCH  26  27
ATOM     27  C   UNL     1       7.091  14.663   7.602  1.00  0.00    -0.000 C 
BRANCH  27  28
ATOM     28  C   UNL     1       7.898  13.947   8.705  1.00  0.00    -0.000 C 
BRANCH  28  29
ATOM     29  C   UNL     1       7.149  12.756   9.316  1.00  0.00    -0.003 C 
ATOM     30  C   UNL     1       7.329  11.497   8.471  1.00  0.00     0.004 C 
ENDBRANCH  28  29
ENDBRANCH  27  28
ENDBRANCH  26  27
ENDBRANCH  25  26
ENDBRANCH  24  25
ENDBRANCH  23  24
ENDBRANCH  22  23
ENDBRANCH  21  22
ENDBRANCH  20  21
ENDBRANCH  19  20
ENDBRANCH  18  19
ENDBRANCH  17  18
ENDBRANCH   1  17
TORSDOF 26
ENDMDL
MODEL 2
REMARK VINA RESULT:    -4.799      3.508      8.511
REMARK INTER + INTRA:         -17.281
REMARK INTER:                 -12.261
REMARK INTRA:                  -5.020
REMARK UNBOUND:                -5.187
REMARK SMILES CCCCCCCCCCCCCCCCCCCCCCCCCCCC(=O)[O-]
REMARK SMILES IDX 15 1 16 2 17 3 18 4 19 5 20 6 21 7 22 8 23 9 24 10 25 11
REMARK SMILES IDX 26 12 27 13 28 14 29 15 30 16 14 17 13 18 12 19 11 20 10 21
REMARK SMILES IDX 9 22 8 23 7 24 6 25 5 26 4 27 3 28 2 29 1 30
REMARK H PARENT
REMARK Flexibility Score: inf
ROOT
ATOM      1  C   UNL     1      10.783  16.267   4.450  1.00  0.00     0.000 C 
ENDROOT
BRANCH   1   2
ATOM      2  C   UNL     1      10.582  15.075   5.397  1.00  0.00     0.000 C 
BRANCH   2   3
ATOM      3  C   UNL     1      11.727  14.976   6.422  1.00  0.00     0.000 C 
BRANCH   3   4
ATOM      4  C   UNL     1      12.265  13.544   6.582  1.00  0.00     0.000 C 
BRANCH   4   5
ATOM      5  C   UNL     1      13.355  13.148   5.560  1.00  0.00     0.000 C 
BRANCH   5   6
ATOM      6  C   UNL     1      13.001  11.966   4.634  1.00  0.00     0.000 C 
BRANCH   6   7
ATOM      7  C   UNL     1      11.887  12.283   3.619  1.00  0.00     0.000 C 
BRANCH   7   8
ATOM      8  C   UNL     1      10.580  11.512   3.890  1.00  0.00     0.000 C 
BRANCH   8   9
ATOM      9  C   UNL     1      10.796  10.057   4.353  1.00  0.00     0.000 C 
BRANCH   9  10
ATOM     10  C   UNL     1      10.152   9.766   5.717  1.00  0.00     0.000 C 
BRANCH  10  11
ATOM     11  C   UNL     1       9.076  10.807   6.052  1.00  0.00     0.000 C 
BRANCH  11  12
ATOM     12  C   UNL     1       9.287  11.390   7.455  1.00  0.00     0.006 C 
BRANCH  12  13
ATOM     13  C   UNL     1       8.650  12.778   7.575  1.00  0.00     0.053 C 
BRANCH  13  14
ATOM     14  C   UNL     1       7.158  12.674   7.673  1.00  0.00     0.041 C 
ATOM     15  O   UNL     1       6.630  11.789   8.397  1.00  0.00    -0.550 OA
ATOM     16  O   UNL     1       6.352  13.594   7.016  1.00  0.00    -0.550 OA
ENDBRANCH  13  14
ENDBRANCH  12  13
ENDBRANCH  11  12
ENDBRANCH  10  11
ENDBRANCH   9  10
ENDBRANCH   8   9
ENDBRANCH   7   8
ENDBRANCH   6   7
ENDBRANCH   5   6
ENDBRANCH   4   5
ENDBRANCH   3   4
ENDBRANCH   2   3
ENDBRANCH   1   2
BRANCH   1  17
ATOM     17  C   UNL     1      12.230  16.366   3.927  1.00  0.00     0.000 C 
BRANCH  17  18
ATOM     18  C   UNL     1      12.294  16.647   2.417  1.00  0.00     0.000 C 
BRANCH  18  19
ATOM     19  C   UNL     1      11.615  15.555   1.568  1.00  0.00     0.000 C 
BRANCH  19  20
ATOM     20  C   UNL     1      12.505  14.911   0.493  1.00  0.00     0.000 C 
BRANCH  20  21
ATOM     21  C   UNL     1      13.167  13.606   0.959  1.00  0.00     0.000 C 
BRANCH  21  22
ATOM     22  C   UNL     1      14.696  13.755   0.988  1.00  0.00    -0.000 C 
BRANCH  22  23
ATOM     23  C   UNL     1      15.301  13.070   2.223  1.00  0.00    -0.000 C 
BRANCH  23  24
ATOM     24  C   UNL     1      16.274  13.992   2.983  1.00  0.00    -0.000 C 
BRANCH  24  25
ATOM     25  C   UNL     1      15.727  15.420   3.156  1.00  0.00    -0.000 C 
BRANCH  25  26
ATOM     26  C   UNL     1      16.665  16.496   2.580  1.00  0.00    -0.000 C 
BRANCH  26  27
ATOM     27  C   UNL     1      16.006  17.465   1.572  1.00  0.00    -0.000 C 
BRANCH  27  28
ATOM     28  C   UNL     1      15.714  16.864   0.181  1.00  0.00    -0.000 C 
BRANCH  28  29
ATOM     29  C   UNL     1      14.895  17.802  -0.714  1.00  0.00    -0.003 C 
ATOM     30  C   UNL     1      14.105  18.811   0.116  1.00  0.00     0.004 C 
ENDBRANCH  28  29
ENDBRANCH  27  28
ENDBRANCH  26  27
ENDBRANCH  25  26
ENDBRANCH  24  25
ENDBRANCH  23  24
ENDBRANCH  22  23
ENDBRANCH  21  22
ENDBRANCH  20  21
ENDBRANCH  19  20
ENDBRANCH  18  19
ENDBRANCH  17  18
ENDBRANCH   1  17
TORSDOF 26
ENDMDL
MODEL 3
REMARK VINA RESULT:    -4.741      2.637      4.219
REMARK INTER + INTRA:         -17.134
REMARK INTER:                 -12.341
REMARK INTRA:                  -4.794
REMARK UNBOUND:                -5.187
REMARK SMILES CCCCCCCCCCCCCCCCCCCCCCCCCCCC(=O)[O-]
REMARK SMILES IDX 15 1 16 2 17 3 18 4 19 5 20 6 21 7 22 8 23 9 24 10 25 11
REMARK SMILES IDX 26 12 27 13 28 14 29 15 30 16 14 17 13 18 12 19 11 20 10 21
REMARK SMILES IDX 9 22 8 23 7 24 6 25 5 26 4 27 3 28 2 29 1 30
REMARK H PARENT
REMARK Flexibility Score: inf
ROOT
ATOM      1  C   UNL     1      16.427  13.971   3.552  1.00  0.00     0.000 C 
ENDROOT
BRANCH   1   2
ATOM      2  C   UNL     1      16.671  15.407   3.068  1.00  0.00     0.000 C 
BRANCH   2   3
ATOM      3  C   UNL     1      15.441  16.298   3.318  1.00  0.00     0.000 C 
BRANCH   3   4
ATOM      4  C   UNL     1      15.075  17.169   2.105  1.00  0.00     0.000 C 
BRANCH   4   5
ATOM      5  C   UNL     1      15.368  16.519   0.734  1.00  0.00     0.000 C 
BRANCH   5   6
ATOM      6  C   UNL     1      14.230  15.653   0.152  1.00  0.00     0.000 C 
BRANCH   6   7
ATOM      7  C   UNL     1      12.822  16.104   0.584  1.00  0.00     0.000 C 
BRANCH   7   8
ATOM      8  C   UNL     1      12.005  14.982   1.256  1.00  0.00     0.000 C 
BRANCH   8   9
ATOM      9  C   UNL     1      11.502  15.335   2.670  1.00  0.00     0.000 C 
BRANCH   9  10
ATOM     10  C   UNL     1      10.037  14.927   2.898  1.00  0.00     0.000 C 
BRANCH  10  11
ATOM     11  C   UNL     1       9.691  14.931   4.392  1.00  0.00     0.000 C 
BRANCH  11  12
ATOM     12  C   UNL     1      10.848  15.493   5.227  1.00  0.00     0.006 C 
BRANCH  12  13
ATOM     13  C   UNL     1      10.328  16.393   6.353  1.00  0.00     0.053 C 
BRANCH  13  14
ATOM     14  C   UNL     1      10.671  17.828   6.091  1.00  0.00     0.041 C 
ATOM     15  O   UNL     1      10.669  18.276   4.915  1.00  0.00    -0.550 OA
ATOM     16  O   UNL     1      10.930  18.685   7.152  1.00  0.00    -0.550 OA
ENDBRANCH  13  14
ENDBRANCH  12  13
ENDBRANCH  11  12
ENDBRANCH  10  11
ENDBRANCH   9  10
ENDBRANCH   8   9
ENDBRANCH   7   8
ENDBRANCH   6   7
ENDBRANCH   5   6
ENDBRANCH   4   5
ENDBRANCH   3   4
ENDBRANCH   2   3
ENDBRANCH   1   2
BRANCH   1  17
ATOM     17  C   UNL     1      15.679  13.116   2.508  1.00  0.00     0.000 C 
BRANCH  17  18
ATOM     18  C   UNL     1      14.227  12.823   2.916  1.00  0.00     0.000 C 
BRANCH  18  19
ATOM     19  C   UNL     1      13.992  12.915   4.436  1.00  0.00     0.000 C 
BRANCH  19  20
ATOM     20  C   UNL     1      12.630  12.395   4.923  1.00  0.00     0.000 C 
BRANCH  20  21
ATOM     21  C   UNL     1      11.779  11.786   3.799  1.00  0.00     0.000 C 
BRANCH  21  22
ATOM     22  C   UNL     1      10.791  10.756   4.367  1.00  0.00    -0.000 C 
BRANCH  22  23
ATOM     23  C   UNL     1       9.633  11.442   5.108  1.00  0.00    -0.000 C 
BRANCH  23  24
ATOM     24  C   UNL     1       9.565  11.030   6.591  1.00  0.00    -0.000 C 
BRANCH  24  25
ATOM     25  C   UNL     1       8.234  11.420   7.257  1.00  0.00    -0.000 C 
BRANCH  25  26
ATOM     26  C   UNL     1       7.347  12.299   6.356  1.00  0.00    -0.000 C 
BRANCH  26  27
ATOM     27  C   UNL     1       7.164  13.755   6.842  1.00  0.00    -0.000 C 
BRANCH  27  28
ATOM     28  C   UNL     1       8.040  14.158   8.047  1.00  0.00    -0.000 C 
BRANCH  28  29
ATOM     29  C   UNL     1       7.220  14.689   9.230  1.00  0.00    -0.003 C 
ATOM     30  C   UNL     1       7.512  13.900  10.504  1.00  0.00     0.004 C 
ENDBRANCH  28  29
ENDBRANCH  27  28
ENDBRANCH  26  27
ENDBRANCH  25  26
ENDBRANCH  24  25
ENDBRANCH  23  24
ENDBRANCH  22  23
ENDBRANCH  21  22
ENDBRANCH  20  21
ENDBRANCH  19  20
ENDBRANCH  18  19
ENDBRANCH  17  18
ENDBRANCH   1  17
TORSDOF 26
ENDMDL
MODEL 4
REMARK VINA RESULT:    -4.716      1.356      2.590
REMARK INTER + INTRA:         -17.070
REMARK INTER:                 -11.322
REMARK INTRA:                  -5.748
REMARK UNBOUND:                -5.187
REMARK SMILES CCCCCCCCCCCCCCCCCCCCCCCCCCCC(=O)[O-]
REMARK SMILES IDX 15 1 16 2 17 3 18 4 19 5 20 6 21 7 22 8 23 9 24 10 25 11
REMARK SMILES IDX 26 12 27 13 28 14 29 15 30 16 14 17 13 18 12 19 11 20 10 21
REMARK SMILES IDX 9 22 8 23 7 24 6 25 5 26 4 27 3 28 2 29 1 30
REMARK H PARENT
REMARK Flexibility Score: inf
ROOT
ATOM      1  C   UNL     1      14.292  12.906   3.462  1.00  0.00     0.000 C 
ENDROOT
BRANCH   1   2
ATOM      2  C   UNL     1      14.875  13.582   2.213  1.00  0.00     0.000 C 
BRANCH   2   3
ATOM      3  C   UNL     1      13.856  13.599   1.059  1.00  0.00     0.000 C 
BRANCH   3   4
ATOM      4  C   UNL     1      13.476  15.022   0.617  1.00  0.00     0.000 C 
BRANCH   4   5
ATOM      5  C   UNL     1      11.966  15.340   0.697  1.00  0.00     0.000 C 
BRANCH   5   6
ATOM      6  C   UNL     1      11.353  15.301   2.113  1.00  0.00     0.000 C 
BRANCH   6   7
ATOM      7  C   UNL     1      11.049  16.693   2.697  1.00  0.00     0.000 C 
BRANCH   7   8
ATOM      8  C   UNL     1      12.278  17.362   3.343  1.00  0.00     0.000 C 
BRANCH   8   9
ATOM      9  C   UNL     1      13.169  16.393   4.146  1.00  0.00     0.000 C 
BRANCH   9  10
ATOM     10  C   UNL     1      14.668  16.693   3.985  1.00  0.00     0.000 C 
BRANCH  10  11
ATOM     11  C   UNL     1      14.919  18.202   3.868  1.00  0.00     0.000 C 
BRANCH  11  12
ATOM     12  C   UNL     1      15.822  18.521   2.669  1.00  0.00     0.006 C 
BRANCH  12  13
ATOM     13  C   UNL     1      15.072  18.324   1.348  1.00  0.00     0.053 C 
BRANCH  13  14
ATOM     14  C   UNL     1      16.024  18.300   0.192  1.00  0.00     0.041 C 
ATOM     15  O   UNL     1      16.830  19.251   0.014  1.00  0.00    -0.550 OA
ATOM     16  O   UNL     1      16.067  17.199  -0.652  1.00  0.00    -0.550 OA
ENDBRANCH  13  14
ENDBRANCH  12  13
ENDBRANCH  11  12
ENDBRANCH  10  11
ENDBRANCH   9  10
ENDBRANCH   8   9
ENDBRANCH   7   8
ENDBRANCH   6   7
ENDBRANCH   5   6
ENDBRANCH   4   5
ENDBRANCH   3   4
ENDBRANCH   2   3
ENDBRANCH   1   2
BRANCH   1  17
ATOM     17  C   UNL     1      12.871  12.355   3.224  1.00  0.00     0.000 C 
BRANCH  17  18
ATOM     18  C   UNL     1      12.024  12.334   4.506  1.00  0.00     0.000 C 
BRANCH  18  19
ATOM     19  C   UNL     1      12.681  13.084   5.681  1.00  0.00     0.000 C 
BRANCH  19  20
ATOM     20  C   UNL     1      11.706  13.787   6.638  1.00  0.00     0.000 C 
BRANCH  20  21
ATOM     21  C   UNL     1      10.784  14.792   5.932  1.00  0.00     0.000 C 
BRANCH  21  22
ATOM     22  C   UNL     1       9.458  14.938   6.693  1.00  0.00    -0.000 C 
BRANCH  22  23
ATOM     23  C   UNL     1       8.267  14.490   5.833  1.00  0.00    -0.000 C 
BRANCH  23  24
ATOM     24  C   UNL     1       8.673  14.219   4.372  1.00  0.00    -0.000 C 
BRANCH  24  25
ATOM     25  C   UNL     1       8.416  12.765   3.942  1.00  0.00    -0.000 C 
BRANCH  25  26
ATOM     26  C   UNL     1       8.014  11.854   5.116  1.00  0.00    -0.000 C 
BRANCH  26  27
ATOM     27  C   UNL     1       9.040  10.752   5.468  1.00  0.00    -0.000 C 
BRANCH  27  28
ATOM     28  C   UNL     1       9.610  10.821   6.900  1.00  0.00    -0.000 C 
BRANCH  28  29
ATOM     29  C   UNL     1       8.580  11.300   7.931  1.00  0.00    -0.003 C 
ATOM     30  C   UNL     1       9.218  12.227   8.962  1.00  0.00     0.004 C 
ENDBRANCH  28  29
ENDBRANCH  27  28
ENDBRANCH  26  27
ENDBRANCH  25  26
ENDBRANCH  24  25
ENDBRANCH  23  24
ENDBRANCH  22  23
ENDBRANCH  21  22
ENDBRANCH  20  21
ENDBRANCH  19  20
ENDBRANCH  18  19
ENDBRANCH  17  18
ENDBRANCH   1  17
TORSDOF 26
ENDMDL
MODEL 5
REMARK VINA RESULT:    -4.710      3.675      7.712
REMARK INTER + INTRA:         -17.056
REMARK INTER:                 -11.958
REMARK INTRA:                  -5.097
REMARK UNBOUND:                -5.187
REMARK SMILES CCCCCCCCCCCCCCCCCCCCCCCCCCCC(=O)[O-]
REMARK SMILES IDX 15 1 16 2 17 3 18 4 19 5 20 6 21 7 22 8 23 9 24 10 25 11
REMARK SMILES IDX 26 12 27 13 28 14 29 15 30 16 14 17 13 18 12 19 11 20 10 21
REMARK SMILES IDX 9 22 8 23 7 24 6 25 5 26 4 27 3 28 2 29 1 30
REMARK H PARENT
REMARK Flexibility Score: inf
ROOT
ATOM      1  C   UNL     1      13.426  13.053   2.785  1.00  0.00     0.000 C 
ENDROOT
BRANCH   1   2
ATOM      2  C   UNL     1      13.520  12.186   4.049  1.00  0.00     0.000 C 
BRANCH   2   3
ATOM      3  C   UNL     1      12.862  12.881   5.253  1.00  0.00     0.000 C 
BRANCH   3   4
ATOM      4  C   UNL     1      12.450  14.333   4.955  1.00  0.00     0.000 C 
BRANCH   4   5
ATOM      5  C   UNL     1      10.924  14.575   4.922  1.00  0.00     0.000 C 
BRANCH   5   6
ATOM      6  C   UNL     1      10.187  14.007   3.691  1.00  0.00     0.000 C 
BRANCH   6   7
ATOM      7  C   UNL     1       8.765  13.502   3.997  1.00  0.00     0.000 C 
BRANCH   7   8
ATOM      8  C   UNL     1       8.583  11.996   3.721  1.00  0.00     0.000 C 
BRANCH   8   9
ATOM      9  C   UNL     1       9.905  11.207   3.656  1.00  0.00     0.000 C 
BRANCH   9  10
ATOM     10  C   UNL     1      10.244  10.505   4.981  1.00  0.00     0.000 C 
BRANCH  10  11
ATOM     11  C   UNL     1       9.119  10.694   6.007  1.00  0.00     0.000 C 
BRANCH  11  12
ATOM     12  C   UNL     1       9.609  11.491   7.224  1.00  0.00     0.006 C 
BRANCH  12  13
ATOM     13  C   UNL     1       8.604  12.582   7.605  1.00  0.00     0.053 C 
BRANCH  13  14
ATOM     14  C   UNL     1       7.205  12.046   7.601  1.00  0.00     0.041 C 
ATOM     15  O   UNL     1       6.440  12.278   6.629  1.00  0.00    -0.550 OA
ATOM     16  O   UNL     1       6.768  11.235   8.639  1.00  0.00    -0.550 OA
ENDBRANCH  13  14
ENDBRANCH  12  13
ENDBRANCH  11  12
ENDBRANCH  10  11
ENDBRANCH   9  10
ENDBRANCH   8   9
ENDBRANCH   7   8
ENDBRANCH   6   7
ENDBRANCH   5   6
ENDBRANCH   4   5
ENDBRANCH   3   4
ENDBRANCH   2   3
ENDBRANCH   1   2
BRANCH   1  17
ATOM     17  C   UNL     1      14.800  13.276   2.120  1.00  0.00     0.000 C 
BRANCH  17  18
ATOM     18  C   UNL     1      15.900  13.616   3.138  1.00  0.00     0.000 C 
BRANCH  18  19
ATOM     19  C   UNL     1      15.901  15.098   3.559  1.00  0.00     0.000 C 
BRANCH  19  20
ATOM     20  C   UNL     1      16.772  16.026   2.697  1.00  0.00     0.000 C 
BRANCH  20  21
ATOM     21  C   UNL     1      15.969  17.132   1.998  1.00  0.00     0.000 C 
BRANCH  21  22
ATOM     22  C   UNL     1      15.768  16.799   0.513  1.00  0.00    -0.000 C 
BRANCH  22  23
ATOM     23  C   UNL     1      14.285  16.872   0.119  1.00  0.00    -0.000 C 
BRANCH  23  24
ATOM     24  C   UNL     1      13.400  17.379   1.274  1.00  0.00    -0.000 C 
BRANCH  24  25
ATOM     25  C   UNL     1      12.442  16.299   1.807  1.00  0.00    -0.000 C 
BRANCH  25  26
ATOM     26  C   UNL     1      11.343  15.920   0.798  1.00  0.00    -0.000 C 
BRANCH  26  27
ATOM     27  C   UNL     1      10.189  16.942   0.675  1.00  0.00    -0.000 C 
BRANCH  27  28
ATOM     28  C   UNL     1       8.980  16.677   1.596  1.00  0.00    -0.000 C 
BRANCH  28  29
ATOM     29  C   UNL     1       8.667  17.857   2.525  1.00  0.00    -0.003 C 
ATOM     30  C   UNL     1       9.595  17.868   3.737  1.00  0.00     0.004 C 
ENDBRANCH  28  29
ENDBRANCH  27  28
ENDBRANCH  26  27
ENDBRANCH  25  26
ENDBRANCH  24  25
ENDBRANCH  23  24
ENDBRANCH  22  23
ENDBRANCH  21  22
ENDBRANCH  20  21
ENDBRANCH  19  20
ENDBRANCH  18  19
ENDBRANCH  17  18
ENDBRANCH   1  17
TORSDOF 26
ENDMDL
MODEL 6
REMARK VINA RESULT:    -4.683      1.415      4.260
REMARK INTER + INTRA:         -16.988
REMARK INTER:                 -11.667
REMARK INTRA:                  -5.321
REMARK UNBOUND:                -5.187
REMARK SMILES CCCCCCCCCCCCCCCCCCCCCCCCCCCC(=O)[O-]
REMARK SMILES IDX 15 1 16 2 17 3 18 4 19 5 20 6 21 7 22 8 23 9 24 10 25 11
REMARK SMILES IDX 26 12 27 13 28 14 29 15 30 16 14 17 13 18 12 19 11 20 10 21
REMARK SMILES IDX 9 22 8 23 7 24 6 25 5 26 4 27 3 28 2 29 1 30
REMARK H PARENT
REMARK Flexibility Score: inf
ROOT
ATOM      1  C   UNL     1       8.244  15.023   4.431  1.00  0.00     0.000 C 
ENDROOT
BRANCH   1   2
ATOM      2  C   UNL     1       9.030  15.985   3.529  1.00  0.00     0.000 C 
BRANCH   2   3
ATOM      3  C   UNL     1       9.763  15.226   2.408  1.00  0.00     0.000 C 
BRANCH   3   4
ATOM      4  C   UNL     1      11.135  15.833   2.073  1.00  0.00     0.000 C 
BRANCH   4   5
ATOM      5  C   UNL     1      11.984  15.000   1.086  1.00  0.00     0.000 C 
BRANCH   5   6
ATOM      6  C   UNL     1      12.710  13.783   1.697  1.00  0.00     0.000 C 
BRANCH   6   7
ATOM      7  C   UNL     1      14.117  13.543   1.117  1.00  0.00     0.000 C 
BRANCH   7   8
ATOM      8  C   UNL     1      15.221  13.515   2.193  1.00  0.00     0.000 C 
BRANCH   8   9
ATOM      9  C   UNL     1      14.847  14.254   3.493  1.00  0.00     0.000 C 
BRANCH   9  10
ATOM     10  C   UNL     1      15.218  15.745   3.457  1.00  0.00     0.000 C 
BRANCH  10  11
ATOM     11  C   UNL     1      16.310  16.015   2.413  1.00  0.00     0.000 C 
BRANCH  11  12
ATOM     12  C   UNL     1      16.033  17.316   1.649  1.00  0.00     0.006 C 
BRANCH  12  13
ATOM     13  C   UNL     1      14.781  17.185   0.776  1.00  0.00     0.053 C 
BRANCH  13  14
ATOM     14  C   UNL     1      15.118  17.371  -0.673  1.00  0.00     0.041 C 
ATOM     15  O   UNL     1      15.473  18.501  -1.101  1.00  0.00    -0.550 OA
ATOM     16  O   UNL     1      15.102  16.284  -1.536  1.00  0.00    -0.550 OA
ENDBRANCH  13  14
ENDBRANCH  12  13
ENDBRANCH  11  12
ENDBRANCH  10  11
ENDBRANCH   9  10
ENDBRANCH   8   9
ENDBRANCH   7   8
ENDBRANCH   6   7
ENDBRANCH   5   6
ENDBRANCH   4   5
ENDBRANCH   3   4
ENDBRANCH   2   3
ENDBRANCH   1   2
BRANCH   1  17
ATOM     17  C   UNL     1       8.110  15.546   5.876  1.00  0.00     0.000 C 
BRANCH  17  18
ATOM     18  C   UNL     1       7.681  14.451   6.864  1.00  0.00     0.000 C 
BRANCH  18  19
ATOM     19  C   UNL     1       7.413  13.093   6.187  1.00  0.00     0.000 C 
BRANCH  19  20
ATOM     20  C   UNL     1       8.076  11.881   6.861  1.00  0.00     0.000 C 
BRANCH  20  21
ATOM     21  C   UNL     1       8.953  11.060   5.904  1.00  0.00     0.000 C 
BRANCH  21  22
ATOM     22  C   UNL     1       8.686  11.463   4.446  1.00  0.00    -0.000 C 
BRANCH  22  23
ATOM     23  C   UNL     1       9.981  11.458   3.619  1.00  0.00    -0.000 C 
BRANCH  23  24
ATOM     24  C   UNL     1      11.134  10.740   4.347  1.00  0.00    -0.000 C 
BRANCH  24  25
ATOM     25  C   UNL     1      12.375  11.633   4.521  1.00  0.00    -0.000 C 
BRANCH  25  26
ATOM     26  C   UNL     1      12.228  12.648   5.668  1.00  0.00    -0.000 C 
BRANCH  26  27
ATOM     27  C   UNL     1      11.673  14.029   5.251  1.00  0.00    -0.000 C 
BRANCH  27  28
ATOM     28  C   UNL     1      11.700  15.107   6.355  1.00  0.00    -0.000 C 
BRANCH  28  29
ATOM     29  C   UNL     1      11.831  16.530   5.797  1.00  0.00    -0.003 C 
ATOM     30  C   UNL     1      11.307  17.564   6.791  1.00  0.00     0.004 C 
ENDBRANCH  28  29
ENDBRANCH  27  28
ENDBRANCH  26  27
ENDBRANCH  25  26
ENDBRANCH  24  25
ENDBRANCH  23  24
ENDBRANCH  22  23
ENDBRANCH  21  22
ENDBRANCH  20  21
ENDBRANCH  19  20
ENDBRANCH  18  19
ENDBRANCH  17  18
ENDBRANCH   1  17
TORSDOF 26
ENDMDL
MODEL 7
REMARK VINA RESULT:    -4.680      2.160      6.976
REMARK INTER + INTRA:         -16.981
REMARK INTER:                 -11.646
REMARK INTRA:                  -5.335
REMARK UNBOUND:                -5.187
REMARK SMILES CCCCCCCCCCCCCCCCCCCCCCCCCCCC(=O)[O-]
REMARK SMILES IDX 15 1 16 2 17 3 18 4 19 5 20 6 21 7 22 8 23 9 24 10 25 11
REMARK SMILES IDX 26 12 27 13 28 14 29 15 30 16 14 17 13 18 12 19 11 20 10 21
REMARK SMILES IDX 9 22 8 23 7 24 6 25 5 26 4 27 3 28 2 29 1 30
REMARK H PARENT
REMARK Flexibility Score: inf
ROOT
ATOM      1  C   UNL     1       9.806  15.408   5.543  1.00  0.00     0.000 C 
ENDROOT
BRANCH   1   2
ATOM      2  C   UNL     1       9.183  14.208   6.271  1.00  0.00     0.000 C 
BRANCH   2   3
ATOM      3  C   UNL     1       8.059  13.570   5.435  1.00  0.00     0.000 C 
BRANCH   3   4
ATOM      4  C   UNL     1       7.926  12.055   5.668  1.00  0.00     0.000 C 
BRANCH   4   5
ATOM      5  C   UNL     1       8.757  11.510   6.851  1.00  0.00     0.000 C 
BRANCH   5   6
ATOM      6  C   UNL     1       9.872  10.511   6.476  1.00  0.00     0.000 C 
BRANCH   6   7
ATOM      7  C   UNL     1      10.048  10.317   4.959  1.00  0.00     0.000 C 
BRANCH   7   8
ATOM      8  C   UNL     1      11.390  10.863   4.429  1.00  0.00     0.000 C 
BRANCH   8   9
ATOM      9  C   UNL     1      11.265  12.197   3.666  1.00  0.00     0.000 C 
BRANCH   9  10
ATOM     10  C   UNL     1      12.384  13.190   4.019  1.00  0.00     0.000 C 
BRANCH  10  11
ATOM     11  C   UNL     1      13.116  12.763   5.298  1.00  0.00     0.000 C 
BRANCH  11  12
ATOM     12  C   UNL     1      14.636  12.765   5.092  1.00  0.00     0.006 C 
BRANCH  12  13
ATOM     13  C   UNL     1      15.065  13.914   4.174  1.00  0.00     0.053 C 
BRANCH  13  14
ATOM     14  C   UNL     1      16.240  13.515   3.333  1.00  0.00     0.041 C 
ATOM     15  O   UNL     1      17.409  13.802   3.701  1.00  0.00    -0.550 OA
ATOM     16  O   UNL     1      16.047  12.772   2.176  1.00  0.00    -0.550 OA
ENDBRANCH  13  14
ENDBRANCH  12  13
ENDBRANCH  11  12
ENDBRANCH  10  11
ENDBRANCH   9  10
ENDBRANCH   8   9
ENDBRANCH   7   8
ENDBRANCH   6   7
ENDBRANCH   5   6
ENDBRANCH   4   5
ENDBRANCH   3   4
ENDBRANCH   2   3
ENDBRANCH   1   2
BRANCH   1  17
ATOM     17  C   UNL     1      10.494  16.392   6.511  1.00  0.00     0.000 C 
BRANCH  17  18
ATOM     18  C   UNL     1      12.026  16.353   6.403  1.00  0.00     0.000 C 
BRANCH  18  19
ATOM     19  C   UNL     1      12.539  16.556   4.964  1.00  0.00     0.000 C 
BRANCH  19  20
ATOM     20  C   UNL     1      13.631  17.625   4.801  1.00  0.00     0.000 C 
BRANCH  20  21
ATOM     21  C   UNL     1      13.341  18.619   3.667  1.00  0.00     0.000 C 
BRANCH  21  22
ATOM     22  C   UNL     1      14.522  18.682   2.687  1.00  0.00    -0.000 C 
BRANCH  22  23
ATOM     23  C   UNL     1      14.238  17.868   1.416  1.00  0.00    -0.000 C 
BRANCH  23  24
ATOM     24  C   UNL     1      14.974  16.514   1.415  1.00  0.00    -0.000 C 
BRANCH  24  25
ATOM     25  C   UNL     1      14.379  15.514   0.409  1.00  0.00    -0.000 C 
BRANCH  25  26
ATOM     26  C   UNL     1      13.163  14.753   0.967  1.00  0.00    -0.000 C 
BRANCH  26  27
ATOM     27  C   UNL     1      11.791  15.385   0.639  1.00  0.00    -0.000 C 
BRANCH  27  28
ATOM     28  C   UNL     1      10.891  15.666   1.861  1.00  0.00    -0.000 C 
BRANCH  28  29
ATOM     29  C   UNL     1      10.197  17.033   1.790  1.00  0.00    -0.003 C 
ATOM     30  C   UNL     1      10.761  17.881   0.653  1.00  0.00     0.004 C 
ENDBRANCH  28  29
ENDBRANCH  27  28
ENDBRANCH  26  27
ENDBRANCH  25  26
ENDBRANCH  24  25
ENDBRANCH  23  24
ENDBRANCH  22  23
ENDBRANCH  21  22
ENDBRANCH  20  21
ENDBRANCH  19  20
ENDBRANCH  18  19
ENDBRANCH  17  18
ENDBRANCH   1  17
TORSDOF 26
ENDMDL
MODEL 8
REMARK VINA RESULT:    -4.677      2.654      3.297
REMARK INTER + INTRA:         -16.974
REMARK INTER:                 -12.098
REMARK INTRA:                  -4.875
REMARK UNBOUND:                -5.187
REMARK SMILES CCCCCCCCCCCCCCCCCCCCCCCCCCCC(=O)[O-]
REMARK SMILES IDX 15 1 16 2 17 3 18 4 19 5 20 6 21 7 22 8 23 9 24 10 25 11
REMARK SMILES IDX 26 12 27 13 28 14 29 15 30 16 14 17 13 18 12 19 11 20 10 21
REMARK SMILES IDX 9 22 8 23 7 24 6 25 5 26 4 27 3 28 2 29 1 30
REMARK H PARENT
REMARK Flexibility Score: inf
ROOT
ATOM      1  C   UNL     1      14.605  12.787   5.094  1.00  0.00     0.000 C 
ENDROOT
BRANCH   1   2
ATOM      2  C   UNL     1      15.157  13.861   4.146  1.00  0.00     0.000 C 
BRANCH   2   3
ATOM      3  C   UNL     1      15.381  13.297   2.731  1.00  0.00     0.000 C 
BRANCH   3   4
ATOM      4  C   UNL     1      14.631  14.089   1.646  1.00  0.00     0.000 C 
BRANCH   4   5
ATOM      5  C   UNL     1      13.192  13.598   1.369  1.00  0.00     0.000 C 
BRANCH   5   6
ATOM      6  C   UNL     1      12.131  14.707   1.207  1.00  0.00     0.000 C 
BRANCH   6   7
ATOM      7  C   UNL     1      11.121  14.775   2.368  1.00  0.00     0.000 C 
BRANCH   7   8
ATOM      8  C   UNL     1      11.628  15.602   3.566  1.00  0.00     0.000 C 
BRANCH   8   9
ATOM      9  C   UNL     1      11.917  17.079   3.230  1.00  0.00     0.000 C 
BRANCH   9  10
ATOM     10  C   UNL     1      13.352  17.499   3.585  1.00  0.00     0.000 C 
BRANCH  10  11
ATOM     11  C   UNL     1      13.355  18.739   4.489  1.00  0.00     0.000 C 
BRANCH  11  12
ATOM     12  C   UNL     1      11.943  19.318   4.639  1.00  0.00     0.006 C 
BRANCH  12  13
ATOM     13  C   UNL     1      11.553  19.438   6.115  1.00  0.00     0.053 C 
BRANCH  13  14
ATOM     14  C   UNL     1      10.999  18.143   6.628  1.00  0.00     0.041 C 
ATOM     15  O   UNL     1       9.830  17.789   6.325  1.00  0.00    -0.550 OA
ATOM     16  O   UNL     1      11.797  17.298   7.388  1.00  0.00    -0.550 OA
ENDBRANCH  13  14
ENDBRANCH  12  13
ENDBRANCH  11  12
ENDBRANCH  10  11
ENDBRANCH   9  10
ENDBRANCH   8   9
ENDBRANCH   7   8
ENDBRANCH   6   7
ENDBRANCH   5   6
ENDBRANCH   4   5
ENDBRANCH   3   4
ENDBRANCH   2   3
ENDBRANCH   1   2
BRANCH   1  17
ATOM     17  C   UNL     1      13.441  13.308   5.961  1.00  0.00     0.000 C 
BRANCH  17  18
ATOM     18  C   UNL     1      12.074  12.789   5.489  1.00  0.00     0.000 C 
BRANCH  18  19
ATOM     19  C   UNL     1      12.179  11.720   4.384  1.00  0.00     0.000 C 
BRANCH  19  20
ATOM     20  C   UNL     1      10.841  11.121   3.921  1.00  0.00     0.000 C 
BRANCH  20  21
ATOM     21  C   UNL     1       9.940  10.683   5.084  1.00  0.00     0.000 C 
BRANCH  21  22
ATOM     22  C   UNL     1       8.609  11.450   5.057  1.00  0.00    -0.000 C 
BRANCH  22  23
ATOM     23  C   UNL     1       8.562  12.448   3.890  1.00  0.00    -0.000 C 
BRANCH  23  24
ATOM     24  C   UNL     1       8.260  13.883   4.363  1.00  0.00    -0.000 C 
BRANCH  24  25
ATOM     25  C   UNL     1       8.622  14.111   5.841  1.00  0.00    -0.000 C 
BRANCH  25  26
ATOM     26  C   UNL     1       7.477  14.749   6.648  1.00  0.00    -0.000 C 
BRANCH  26  27
ATOM     27  C   UNL     1       6.892  13.858   7.768  1.00  0.00    -0.000 C 
BRANCH  27  28
ATOM     28  C   UNL     1       7.846  13.581   8.949  1.00  0.00    -0.000 C 
BRANCH  28  29
ATOM     29  C   UNL     1       7.841  12.111   9.389  1.00  0.00    -0.003 C 
ATOM     30  C   UNL     1       8.926  11.314   8.669  1.00  0.00     0.004 C 
ENDBRANCH  28  29
ENDBRANCH  27  28
ENDBRANCH  26  27
ENDBRANCH  25  26
ENDBRANCH  24  25
ENDBRANCH  23  24
ENDBRANCH  22  23
ENDBRANCH  21  22
ENDBRANCH  20  21
ENDBRANCH  19  20
ENDBRANCH  18  19
ENDBRANCH  17  18
ENDBRANCH   1  17
TORSDOF 26
ENDMDL
MODEL 9
REMARK VINA RESULT:    -4.674      2.173      3.549
REMARK INTER + INTRA:         -16.966
REMARK INTER:                 -10.929
REMARK INTRA:                  -6.037
REMARK UNBOUND:                -5.187
REMARK SMILES CCCCCCCCCCCCCCCCCCCCCCCCCCCC(=O)[O-]
REMARK SMILES IDX 15 1 16 2 17 3 18 4 19 5 20 6 21 7 22 8 23 9 24 10 25 11
REMARK SMILES IDX 26 12 27 13 28 14 29 15 30 16 14 17 13 18 12 19 11 20 10 21
REMARK SMILES IDX 9 22 8 23 7 24 6 25 5 26 4 27 3 28 2 29 1 30
REMARK H PARENT
REMARK Flexibility Score: inf
ROOT
ATOM      1  C   UNL     1      12.921  13.295   2.465  1.00  0.00     0.000 C 
ENDROOT
BRANCH   1   2
ATOM      2  C   UNL     1      13.168  13.617   0.985  1.00  0.00     0.000 C 
BRANCH   2   3
ATOM      3  C   UNL     1      12.505  14.947   0.584  1.00  0.00     0.000 C 
BRANCH   3   4
ATOM      4  C   UNL     1      11.283  15.292   1.452  1.00  0.00     0.000 C 
BRANCH   4   5
ATOM      5  C   UNL     1      11.163  16.785   1.830  1.00  0.00     0.000 C 
BRANCH   5   6
ATOM      6  C   UNL     1      12.498  17.547   1.964  1.00  0.00     0.000 C 
BRANCH   6   7
ATOM      7  C   UNL     1      12.635  18.335   3.280  1.00  0.00     0.000 C 
BRANCH   7   8
ATOM      8  C   UNL     1      13.510  17.619   4.328  1.00  0.00     0.000 C 
BRANCH   8   9
ATOM      9  C   UNL     1      13.999  16.224   3.889  1.00  0.00     0.000 C 
BRANCH   9  10
ATOM     10  C   UNL     1      15.511  16.182   3.619  1.00  0.00     0.000 C 
BRANCH  10  11
ATOM     11  C   UNL     1      15.799  15.974   2.127  1.00  0.00     0.000 C 
BRANCH  11  12
ATOM     12  C   UNL     1      16.542  17.178   1.533  1.00  0.00     0.006 C 
BRANCH  12  13
ATOM     13  C   UNL     1      17.130  18.060   2.639  1.00  0.00     0.053 C 
BRANCH  13  14
ATOM     14  C   UNL     1      18.628  18.001   2.629  1.00  0.00     0.041 C 
ATOM     15  O   UNL     1      19.294  18.896   2.047  1.00  0.00    -0.550 OA
ATOM     16  O   UNL     1      19.289  16.993   3.318  1.00  0.00    -0.550 OA
ENDBRANCH  13  14
ENDBRANCH  12  13
ENDBRANCH  11  12
ENDBRANCH  10  11
ENDBRANCH   9  10
ENDBRANCH   8   9
ENDBRANCH   7   8
ENDBRANCH   6   7
ENDBRANCH   5   6
ENDBRANCH   4   5
ENDBRANCH   3   4
ENDBRANCH   2   3
ENDBRANCH   1   2
BRANCH   1  17
ATOM     17  C   UNL     1      14.170  12.716   3.159  1.00  0.00     0.000 C 
BRANCH  17  18
ATOM     18  C   UNL     1      13.994  12.585   4.680  1.00  0.00     0.000 C 
BRANCH  18  19
ATOM     19  C   UNL     1      12.556  12.877   5.153  1.00  0.00     0.000 C 
BRANCH  19  20
ATOM     20  C   UNL     1      12.444  13.682   6.457  1.00  0.00     0.000 C 
BRANCH  20  21
ATOM     21  C   UNL     1      11.316  14.723   6.430  1.00  0.00     0.000 C 
BRANCH  21  22
ATOM     22  C   UNL     1      10.716  14.835   5.021  1.00  0.00    -0.000 C 
BRANCH  22  23
ATOM     23  C   UNL     1       9.202  15.090   5.076  1.00  0.00    -0.000 C 
BRANCH  23  24
ATOM     24  C   UNL     1       8.395  13.944   4.437  1.00  0.00    -0.000 C 
BRANCH  24  25
ATOM     25  C   UNL     1       9.255  13.038   3.539  1.00  0.00    -0.000 C 
BRANCH  25  26
ATOM     26  C   UNL     1       9.265  11.570   4.000  1.00  0.00    -0.000 C 
BRANCH  26  27
ATOM     27  C   UNL     1       8.646  11.319   5.395  1.00  0.00    -0.000 C 
BRANCH  27  28
ATOM     28  C   UNL     1       9.665  11.122   6.537  1.00  0.00    -0.000 C 
BRANCH  28  29
ATOM     29  C   UNL     1       9.066  11.386   7.924  1.00  0.00    -0.003 C 
ATOM     30  C   UNL     1       8.696  12.857   8.095  1.00  0.00     0.004 C 
ENDBRANCH  28  29
ENDBRANCH  27  28
ENDBRANCH  26  27
ENDBRANCH  25  26
ENDBRANCH  24  25
ENDBRANCH  23  24
ENDBRANCH  22  23
ENDBRANCH  21  22
ENDBRANCH  20  21
ENDBRANCH  19  20
ENDBRANCH  18  19
ENDBRANCH  17  18
ENDBRANCH   1  17
TORSDOF 26
ENDMDL
