MODEL 1
REMARK VINA RESULT:    -3.527      0.000      0.000
REMARK INTER + INTRA:          -5.357
REMARK INTER:                  -5.176
REMARK INTRA:                  -0.180
REMARK UNBOUND:                -0.180
REMARK SMILES C=C1C=C[C@H](C(C)C)CCC(C)=CCC1
REMARK SMILES IDX 3 1 4 2 5 3 9 4 10 5 11 6 12 7 13 8 6 10 7 11 8 12 2 13 1 14
REMARK SMILES IDX 15 15 14 16
REMARK H PARENT
REMARK Flexibility Score: 70.00
ROOT
ATOM      1  C   UNL     1      19.970  65.107  14.135  1.00  0.00    -0.001 C 
ATOM      2  C   UNL     1      19.042  65.673  14.931  1.00  0.00    -0.023 C 
ENDROOT
BRANCH   2   3
ATOM      3  C   UNL     1      18.200  64.945  15.962  1.00  0.00     0.014 C 
BRANCH   3   4
ATOM      4  C   UNL     1      18.781  65.123  17.394  1.00  0.00     0.012 C 
BRANCH   4   5
ATOM      5  C   UNL     1      20.295  65.428  17.457  1.00  0.00     0.031 C 
BRANCH   5   6
ATOM      6  C   UNL     1      21.199  64.255  17.821  1.00  0.00    -0.077 C 
ATOM      7  C   UNL     1      21.025  63.598  19.168  1.00  0.00     0.039 C 
ATOM      8  C   UNL     1      22.160  63.760  17.003  1.00  0.00    -0.028 CG0
ATOM      9  G   UNL     1      22.430  64.208  15.588  1.00  0.00     0.000 G0
ENDBRANCH   5   6
ENDBRANCH   4   5
ENDBRANCH   3   4
BRANCH   3  10
ATOM     10  C   UNL     1      16.680  65.304  15.893  1.00  0.00    -0.010 C 
ATOM     11  C   UNL     1      15.962  64.941  17.205  1.00  0.00     0.008 C 
ATOM     12  C   UNL     1      15.926  64.693  14.695  1.00  0.00     0.008 C 
ENDBRANCH   3  10
ENDBRANCH   2   3
BRANCH   1  13
ATOM     13  C   UNL     1      20.388  63.679  14.131  1.00  0.00    -0.055 C 
ATOM     14  C   UNL     1      19.458  62.751  13.883  1.00  0.00     0.012 C 
BRANCH  13  15
ATOM     15  C   UNL     1      21.772  63.234  14.551  1.00  0.00     0.039 C 
BRANCH  15  16
ATOM     16  C   UNL     1      22.435  64.195  15.571  1.00  0.00     0.032 CG0
ATOM     17  G   UNL     1      22.154  63.778  16.992  1.00  0.00     0.000 G0
ENDBRANCH  15  16
ENDBRANCH  13  15
ENDBRANCH   1  13
TORSDOF 1
ENDMDL
MODEL 2
REMARK VINA RESULT:    -3.431      1.341      3.475
REMARK INTER + INTRA:          -5.217
REMARK INTER:                  -4.752
REMARK INTRA:                  -0.465
REMARK UNBOUND:                -0.180
REMARK SMILES C=C1C=C[C@H](C(C)C)CCC(C)=CCC1
REMARK SMILES IDX 3 1 4 2 5 3 9 4 10 5 11 6 12 7 13 8 6 10 7 11 8 12 2 13 1 14
REMARK SMILES IDX 15 15 14 16
REMARK H PARENT
REMARK Flexibility Score: 70.00
ROOT
ATOM      1  C   UNL     1      21.193  63.387  18.104  1.00  0.00    -0.001 C 
ATOM      2  C   UNL     1      20.019  63.748  17.553  1.00  0.00    -0.023 C 
ENDROOT
BRANCH   2   3
ATOM      3  C   UNL     1      19.824  64.234  16.128  1.00  0.00     0.014 C 
BRANCH   3   4
ATOM      4  C   UNL     1      19.876  63.053  15.116  1.00  0.00     0.012 C 
BRANCH   4   5
ATOM      5  C   UNL     1      21.013  63.129  14.072  1.00  0.00     0.031 C 
BRANCH   5   6
ATOM      6  C   UNL     1      21.569  64.521  13.791  1.00  0.00    -0.077 C 
ATOM      7  C   UNL     1      20.788  65.444  12.888  1.00  0.00     0.039 C 
ATOM      8  C   UNL     1      22.734  64.986  14.304  1.00  0.00    -0.028 CG0
ATOM      9  G   UNL     1      23.611  64.265  15.296  1.00  0.00     0.000 G0
ENDBRANCH   5   6
ENDBRANCH   4   5
ENDBRANCH   3   4
BRANCH   3  10
ATOM     10  C   UNL     1      18.549  65.118  15.939  1.00  0.00    -0.010 C 
ATOM     11  C   UNL     1      17.795  65.300  17.268  1.00  0.00     0.008 C 
ATOM     12  C   UNL     1      17.578  64.624  14.848  1.00  0.00     0.008 C 
ENDBRANCH   3  10
ENDBRANCH   2   3
BRANCH   1  13
ATOM     13  C   UNL     1      22.519  63.347  17.429  1.00  0.00    -0.055 C 
ATOM     14  C   UNL     1      23.252  62.235  17.549  1.00  0.00     0.012 C 
BRANCH  13  15
ATOM     15  C   UNL     1      23.130  64.558  16.761  1.00  0.00     0.039 C 
BRANCH  15  16
ATOM     16  C   UNL     1      23.608  64.276  15.313  1.00  0.00     0.032 CG0
ATOM     17  G   UNL     1      22.746  64.980  14.295  1.00  0.00     0.000 G0
ENDBRANCH  15  16
ENDBRANCH  13  15
ENDBRANCH   1  13
TORSDOF 1
ENDMDL
MODEL 3
REMARK VINA RESULT:    -3.244      2.112      4.318
REMARK INTER + INTRA:          -4.942
REMARK INTER:                  -4.388
REMARK INTRA:                  -0.554
REMARK UNBOUND:                -0.180
REMARK SMILES C=C1C=C[C@H](C(C)C)CCC(C)=CCC1
REMARK SMILES IDX 3 1 4 2 5 3 9 4 10 5 11 6 12 7 13 8 6 10 7 11 8 12 2 13 1 14
REMARK SMILES IDX 15 15 14 16
REMARK H PARENT
REMARK Flexibility Score: 70.00
ROOT
ATOM      1  C   UNL     1      22.888  62.317  17.715  1.00  0.00    -0.001 C 
ATOM      2  C   UNL     1      21.779  62.972  18.108  1.00  0.00    -0.023 C 
ENDROOT
BRANCH   2   3
ATOM      3  C   UNL     1      21.382  64.373  17.679  1.00  0.00     0.014 C 
BRANCH   3   4
ATOM      4  C   UNL     1      20.088  64.354  16.815  1.00  0.00     0.012 C 
BRANCH   4   5
ATOM      5  C   UNL     1      20.298  64.631  15.309  1.00  0.00     0.031 C 
BRANCH   5   6
ATOM      6  C   UNL     1      20.486  63.403  14.424  1.00  0.00    -0.077 C 
ATOM      7  C   UNL     1      19.263  62.712  13.876  1.00  0.00     0.039 C 
ATOM      8  C   UNL     1      21.697  62.888  14.096  1.00  0.00    -0.028 CG0
ATOM      9  G   UNL     1      23.035  63.481  14.458  1.00  0.00     0.000 G0
ENDBRANCH   5   6
ENDBRANCH   4   5
ENDBRANCH   3   4
BRANCH   3  10
ATOM     10  C   UNL     1      21.284  65.386  18.866  1.00  0.00    -0.010 C 
ATOM     11  C   UNL     1      21.621  64.707  20.205  1.00  0.00     0.008 C 
ATOM     12  C   UNL     1      19.935  66.122  18.976  1.00  0.00     0.008 C 
ENDBRANCH   3  10
ENDBRANCH   2   3
BRANCH   1  13
ATOM     13  C   UNL     1      23.918  62.803  16.756  1.00  0.00    -0.055 C 
ATOM     14  C   UNL     1      24.818  63.688  17.196  1.00  0.00     0.012 C 
BRANCH  13  15
ATOM     15  C   UNL     1      23.884  62.463  15.282  1.00  0.00     0.039 C 
BRANCH  15  16
ATOM     16  C   UNL     1      23.048  63.466  14.447  1.00  0.00     0.032 CG0
ATOM     17  G   UNL     1      21.692  62.906  14.099  1.00  0.00     0.000 G0
ENDBRANCH  15  16
ENDBRANCH  13  15
ENDBRANCH   1  13
TORSDOF 1
ENDMDL
MODEL 4
REMARK VINA RESULT:    -3.228      1.881      4.458
REMARK INTER + INTRA:          -4.918
REMARK INTER:                  -4.527
REMARK INTRA:                  -0.391
REMARK UNBOUND:                -0.180
REMARK SMILES C=C1C=C[C@H](C(C)C)CCC(C)=CCC1
REMARK SMILES IDX 3 1 4 2 5 3 9 4 10 5 11 6 12 7 13 8 6 10 7 11 8 12 2 13 1 14
REMARK SMILES IDX 15 15 14 16
REMARK H PARENT
REMARK Flexibility Score: 70.00
ROOT
ATOM      1  C   UNL     1      21.835  63.076  14.434  1.00  0.00    -0.001 C 
ATOM      2  C   UNL     1      22.644  63.232  15.499  1.00  0.00    -0.023 C 
ENDROOT
BRANCH   2   3
ATOM      3  C   UNL     1      22.284  63.959  16.783  1.00  0.00     0.014 C 
BRANCH   3   4
ATOM      4  C   UNL     1      21.335  63.102  17.670  1.00  0.00     0.012 C 
BRANCH   4   5
ATOM      5  C   UNL     1      19.864  63.574  17.707  1.00  0.00     0.031 C 
BRANCH   5   6
ATOM      6  C   UNL     1      19.646  65.084  17.710  1.00  0.00    -0.077 C 
ATOM      7  C   UNL     1      20.027  65.867  18.942  1.00  0.00     0.039 C 
ATOM      8  C   UNL     1      19.125  65.773  16.666  1.00  0.00    -0.028 CG0
ATOM      9  G   UNL     1      18.771  65.198  15.317  1.00  0.00     0.000 G0
ENDBRANCH   5   6
ENDBRANCH   4   5
ENDBRANCH   3   4
BRANCH   3  10
ATOM     10  C   UNL     1      23.527  64.476  17.577  1.00  0.00    -0.010 C 
ATOM     11  C   UNL     1      24.836  63.944  16.969  1.00  0.00     0.008 C 
ATOM     12  C   UNL     1      23.493  64.184  19.090  1.00  0.00     0.008 C 
ENDBRANCH   3  10
ENDBRANCH   2   3
BRANCH   1  13
ATOM     13  C   UNL     1      20.425  63.536  14.310  1.00  0.00    -0.055 C 
ATOM     14  C   UNL     1      19.503  62.645  13.932  1.00  0.00     0.012 C 
BRANCH  13  15
ATOM     15  C   UNL     1      20.029  64.991  14.437  1.00  0.00     0.039 C 
BRANCH  15  16
ATOM     16  C   UNL     1      18.767  65.202  15.311  1.00  0.00     0.032 CG0
ATOM     17  G   UNL     1      19.115  65.779  16.660  1.00  0.00     0.000 G0
ENDBRANCH  15  16
ENDBRANCH  13  15
ENDBRANCH   1  13
TORSDOF 1
ENDMDL
MODEL 5
REMARK VINA RESULT:    -3.221      1.940      4.556
REMARK INTER + INTRA:          -4.908
REMARK INTER:                  -4.338
REMARK INTRA:                  -0.570
REMARK UNBOUND:                -0.180
REMARK SMILES C=C1C=C[C@H](C(C)C)CCC(C)=CCC1
REMARK SMILES IDX 3 1 4 2 5 3 9 4 10 5 11 6 12 7 13 8 6 10 7 11 8 12 2 13 1 14
REMARK SMILES IDX 15 15 14 16
REMARK H PARENT
REMARK Flexibility Score: 70.00
ROOT
ATOM      1  C   UNL     1      20.326  63.815  14.470  1.00  0.00    -0.001 C 
ATOM      2  C   UNL     1      21.209  62.987  15.059  1.00  0.00    -0.023 C 
ENDROOT
BRANCH   2   3
ATOM      3  C   UNL     1      22.450  63.415  15.822  1.00  0.00     0.014 C 
BRANCH   3   4
ATOM      4  C   UNL     1      22.308  63.121  17.343  1.00  0.00     0.012 C 
BRANCH   4   5
ATOM      5  C   UNL     1      20.862  63.153  17.888  1.00  0.00     0.031 C 
BRANCH   5   6
ATOM      6  C   UNL     1      20.434  64.447  18.572  1.00  0.00    -0.077 C 
ATOM      7  C   UNL     1      20.991  64.762  19.939  1.00  0.00     0.039 C 
ATOM      8  C   UNL     1      19.574  65.341  18.025  1.00  0.00    -0.028 CG0
ATOM      9  G   UNL     1      18.984  65.263  16.640  1.00  0.00     0.000 G0
ENDBRANCH   5   6
ENDBRANCH   4   5
ENDBRANCH   3   4
BRANCH   3  10
ATOM     10  C   UNL     1      23.777  62.839  15.230  1.00  0.00    -0.010 C 
ATOM     11  C   UNL     1      23.611  62.472  13.745  1.00  0.00     0.008 C 
ATOM     12  C   UNL     1      24.361  61.641  16.005  1.00  0.00     0.008 C 
ENDBRANCH   3  10
ENDBRANCH   2   3
BRANCH   1  13
ATOM     13  C   UNL     1      20.356  65.303  14.481  1.00  0.00    -0.055 C 
ATOM     14  C   UNL     1      21.036  65.926  13.513  1.00  0.00     0.012 C 
BRANCH  13  15
ATOM     15  C   UNL     1      19.792  66.121  15.621  1.00  0.00     0.039 C 
BRANCH  15  16
ATOM     16  C   UNL     1      18.972  65.275  16.628  1.00  0.00     0.032 CG0
ATOM     17  G   UNL     1      19.560  65.336  18.016  1.00  0.00     0.000 G0
ENDBRANCH  15  16
ENDBRANCH  13  15
ENDBRANCH   1  13
TORSDOF 1
ENDMDL
MODEL 6
REMARK VINA RESULT:    -3.191      2.080      4.399
REMARK INTER + INTRA:          -4.864
REMARK INTER:                  -4.339
REMARK INTRA:                  -0.525
REMARK UNBOUND:                -0.180
REMARK SMILES C=C1C=C[C@H](C(C)C)CCC(C)=CCC1
REMARK SMILES IDX 3 1 4 2 5 3 9 4 10 5 11 6 12 7 13 8 6 10 7 11 8 12 2 13 1 14
REMARK SMILES IDX 15 15 14 16
REMARK H PARENT
REMARK Flexibility Score: 70.00
ROOT
ATOM      1  C   UNL     1      19.751  63.277  15.020  1.00  0.00    -0.001 C 
ATOM      2  C   UNL     1      20.615  63.269  13.986  1.00  0.00    -0.023 C 
ENDROOT
BRANCH   2   3
ATOM      3  C   UNL     1      22.001  63.886  13.988  1.00  0.00     0.014 C 
BRANCH   3   4
ATOM      4  C   UNL     1      23.090  62.828  14.330  1.00  0.00     0.012 C 
BRANCH   4   5
ATOM      5  C   UNL     1      23.963  63.157  15.563  1.00  0.00     0.031 C 
BRANCH   5   6
ATOM      6  C   UNL     1      23.862  62.182  16.732  1.00  0.00    -0.077 C 
ATOM      7  C   UNL     1      24.818  61.015  16.785  1.00  0.00     0.039 C 
ATOM      8  C   UNL     1      22.958  62.298  17.735  1.00  0.00    -0.028 CG0
ATOM      9  G   UNL     1      21.986  63.436  17.919  1.00  0.00     0.000 G0
ENDBRANCH   5   6
ENDBRANCH   4   5
ENDBRANCH   3   4
BRANCH   3  10
ATOM     10  C   UNL     1      22.335  64.675  12.680  1.00  0.00    -0.010 C 
ATOM     11  C   UNL     1      23.517  65.636  12.897  1.00  0.00     0.008 C 
ATOM     12  C   UNL     1      21.145  65.437  12.065  1.00  0.00     0.008 C 
ENDBRANCH   3  10
ENDBRANCH   2   3
BRANCH   1  13
ATOM     13  C   UNL     1      19.990  63.846  16.375  1.00  0.00    -0.055 C 
ATOM     14  C   UNL     1      19.844  65.165  16.538  1.00  0.00     0.012 C 
BRANCH  13  15
ATOM     15  C   UNL     1      20.542  63.024  17.518  1.00  0.00     0.039 C 
BRANCH  15  16
ATOM     16  C   UNL     1      21.980  63.436  17.923  1.00  0.00     0.032 CG0
ATOM     17  G   UNL     1      22.957  62.302  17.740  1.00  0.00     0.000 G0
ENDBRANCH  15  16
ENDBRANCH  13  15
ENDBRANCH   1  13
TORSDOF 1
ENDMDL
MODEL 7
REMARK VINA RESULT:    -3.044      1.956      4.186
REMARK INTER + INTRA:          -4.648
REMARK INTER:                  -4.131
REMARK INTRA:                  -0.517
REMARK UNBOUND:                -0.180
REMARK SMILES C=C1C=C[C@H](C(C)C)CCC(C)=CCC1
REMARK SMILES IDX 3 1 4 2 5 3 9 4 10 5 11 6 12 7 13 8 6 10 7 11 8 12 2 13 1 14
REMARK SMILES IDX 15 15 14 16
REMARK H PARENT
REMARK Flexibility Score: 70.00
ROOT
ATOM      1  C   UNL     1      20.623  63.622  18.688  1.00  0.00    -0.001 C 
ATOM      2  C   UNL     1      20.631  63.027  17.480  1.00  0.00    -0.023 C 
ENDROOT
BRANCH   2   3
ATOM      3  C   UNL     1      20.838  63.730  16.150  1.00  0.00     0.014 C 
BRANCH   3   4
ATOM      4  C   UNL     1      22.047  63.130  15.377  1.00  0.00     0.012 C 
BRANCH   4   5
ATOM      5  C   UNL     1      23.382  63.110  16.154  1.00  0.00     0.031 C 
BRANCH   5   6
ATOM      6  C   UNL     1      24.051  64.464  16.369  1.00  0.00    -0.077 C 
ATOM      7  C   UNL     1      24.727  65.132  15.197  1.00  0.00     0.039 C 
ATOM      8  C   UNL     1      24.077  65.112  17.559  1.00  0.00    -0.028 CG0
ATOM      9  G   UNL     1      23.383  64.667  18.822  1.00  0.00     0.000 G0
ENDBRANCH   5   6
ENDBRANCH   4   5
ENDBRANCH   3   4
BRANCH   3  10
ATOM     10  C   UNL     1      19.547  63.794  15.271  1.00  0.00    -0.010 C 
ATOM     11  C   UNL     1      19.648  62.844  14.065  1.00  0.00     0.008 C 
ATOM     12  C   UNL     1      19.161  65.208  14.795  1.00  0.00     0.008 C 
ENDBRANCH   3  10
ENDBRANCH   2   3
BRANCH   1  13
ATOM     13  C   UNL     1      20.857  65.065  18.972  1.00  0.00    -0.055 C 
ATOM     14  C   UNL     1      19.824  65.905  18.851  1.00  0.00     0.012 C 
BRANCH  13  15
ATOM     15  C   UNL     1      22.236  65.632  19.230  1.00  0.00     0.039 C 
BRANCH  15  16
ATOM     16  C   UNL     1      23.375  64.660  18.832  1.00  0.00     0.032 CG0
ATOM     17  G   UNL     1      24.082  65.113  17.579  1.00  0.00     0.000 G0
ENDBRANCH  15  16
ENDBRANCH  13  15
ENDBRANCH   1  13
TORSDOF 1
ENDMDL
MODEL 8
REMARK VINA RESULT:    -3.026      1.462      3.712
REMARK INTER + INTRA:          -4.621
REMARK INTER:                  -4.284
REMARK INTRA:                  -0.337
REMARK UNBOUND:                -0.180
REMARK SMILES C=C1C=C[C@H](C(C)C)CCC(C)=CCC1
REMARK SMILES IDX 3 1 4 2 5 3 9 4 10 5 11 6 12 7 13 8 6 10 7 11 8 12 2 13 1 14
REMARK SMILES IDX 15 15 14 16
REMARK H PARENT
REMARK Flexibility Score: 70.00
ROOT
ATOM      1  C   UNL     1      21.460  63.125  18.190  1.00  0.00    -0.001 C 
ATOM      2  C   UNL     1      20.294  63.298  17.538  1.00  0.00    -0.023 C 
ENDROOT
BRANCH   2   3
ATOM      3  C   UNL     1      20.003  64.388  16.522  1.00  0.00     0.014 C 
BRANCH   3   4
ATOM      4  C   UNL     1      19.576  63.785  15.153  1.00  0.00     0.012 C 
BRANCH   4   5
ATOM      5  C   UNL     1      20.696  63.058  14.375  1.00  0.00     0.031 C 
BRANCH   5   6
ATOM      6  C   UNL     1      21.952  63.875  14.092  1.00  0.00    -0.077 C 
ATOM      7  C   UNL     1      21.888  64.962  13.048  1.00  0.00     0.039 C 
ATOM      8  C   UNL     1      23.136  63.684  14.725  1.00  0.00    -0.028 CG0
ATOM      9  G   UNL     1      23.384  62.722  15.859  1.00  0.00     0.000 G0
ENDBRANCH   5   6
ENDBRANCH   4   5
ENDBRANCH   3   4
BRANCH   3  10
ATOM     10  C   UNL     1      18.992  65.465  17.035  1.00  0.00    -0.010 C 
ATOM     11  C   UNL     1      19.297  65.868  18.488  1.00  0.00     0.008 C 
ATOM     12  C   UNL     1      17.508  65.072  16.899  1.00  0.00     0.008 C 
ENDBRANCH   3  10
ENDBRANCH   2   3
BRANCH   1  13
ATOM     13  C   UNL     1      22.702  63.927  18.022  1.00  0.00    -0.055 C 
ATOM     14  C   UNL     1      22.738  65.152  18.556  1.00  0.00     0.012 C 
BRANCH  13  15
ATOM     15  C   UNL     1      23.848  63.478  17.142  1.00  0.00     0.039 C 
BRANCH  15  16
ATOM     16  C   UNL     1      23.379  62.736  15.865  1.00  0.00     0.032 CG0
ATOM     17  G   UNL     1      23.143  63.690  14.721  1.00  0.00     0.000 G0
ENDBRANCH  15  16
ENDBRANCH  13  15
ENDBRANCH   1  13
TORSDOF 1
ENDMDL
MODEL 9
REMARK VINA RESULT:    -2.999      1.929      5.072
REMARK INTER + INTRA:          -4.582
REMARK INTER:                  -4.160
REMARK INTRA:                  -0.422
REMARK UNBOUND:                -0.180
REMARK SMILES C=C1C=C[C@H](C(C)C)CCC(C)=CCC1
REMARK SMILES IDX 3 1 4 2 5 3 9 4 10 5 11 6 12 7 13 8 6 10 7 11 8 12 2 13 1 14
REMARK SMILES IDX 15 15 14 16
REMARK H PARENT
REMARK Flexibility Score: 70.00
ROOT
ATOM      1  C   UNL     1      20.201  63.279  17.711  1.00  0.00    -0.001 C 
ATOM      2  C   UNL     1      21.450  62.935  18.079  1.00  0.00    -0.023 C 
ENDROOT
BRANCH   2   3
ATOM      3  C   UNL     1      22.709  63.175  17.266  1.00  0.00     0.014 C 
BRANCH   3   4
ATOM      4  C   UNL     1      23.049  64.691  17.186  1.00  0.00     0.012 C 
BRANCH   4   5
ATOM      5  C   UNL     1      22.968  65.311  15.773  1.00  0.00     0.031 C 
BRANCH   5   6
ATOM      6  C   UNL     1      23.089  64.335  14.607  1.00  0.00    -0.077 C 
ATOM      7  C   UNL     1      24.449  63.778  14.268  1.00  0.00     0.039 C 
ATOM      8  C   UNL     1      22.040  63.934  13.847  1.00  0.00    -0.028 CG0
ATOM      9  G   UNL     1      20.594  64.294  14.078  1.00  0.00     0.000 G0
ENDBRANCH   5   6
ENDBRANCH   4   5
ENDBRANCH   3   4
BRANCH   3  10
ATOM     10  C   UNL     1      23.930  62.320  17.738  1.00  0.00    -0.010 C 
ATOM     11  C   UNL     1      25.125  63.214  18.110  1.00  0.00     0.008 C 
ATOM     12  C   UNL     1      24.378  61.231  16.742  1.00  0.00     0.008 C 
ENDBRANCH   3  10
ENDBRANCH   2   3
BRANCH   1  13
ATOM     13  C   UNL     1      19.805  63.995  16.468  1.00  0.00    -0.055 C 
ATOM     14  C   UNL     1      19.195  65.179  16.591  1.00  0.00     0.012 C 
BRANCH  13  15
ATOM     15  C   UNL     1      19.915  63.369  15.095  1.00  0.00     0.039 C 
BRANCH  15  16
ATOM     16  C   UNL     1      20.590  64.300  14.056  1.00  0.00     0.032 CG0
ATOM     17  G   UNL     1      22.035  63.932  13.834  1.00  0.00     0.000 G0
ENDBRANCH  15  16
ENDBRANCH  13  15
ENDBRANCH   1  13
TORSDOF 1
ENDMDL
