MODEL 1
REMARK VINA RESULT:    -6.702      0.000      0.000
REMARK INTER + INTRA:          -8.169
REMARK INTER:                  -7.877
REMARK INTRA:                  -0.292
REMARK UNBOUND:                -0.292
REMARK SMILES O=c1cc(-c2ccc(O)c(O)c2)oc2cc(O)cc(O)c12
REMARK SMILES IDX 4 1 3 2 2 3 1 4 21 5 19 6 18 7 16 8 15 9 14 10 13 11 5 12
REMARK SMILES IDX 6 13 7 14 8 15 12 16 10 17 9 18 11 20 20 22 17 24
REMARK H PARENT 9 19 11 21 20 23 17 25
REMARK Flexibility Score: inf
ROOT
ATOM      1  C   UNL     1       4.348 -15.412   8.087  1.00  0.00     0.138 A 
ATOM      2  C   UNL     1       4.285 -14.486   7.035  1.00  0.00     0.100 A 
ATOM      3  C   UNL     1       5.415 -14.259   6.248  1.00  0.00     0.197 A 
ATOM      4  O   UNL     1       5.345 -13.378   5.351  1.00  0.00    -0.289 OA
ATOM      5  C   UNL     1       6.603 -14.986   6.495  1.00  0.00     0.107 A 
ATOM      6  C   UNL     1       7.803 -14.866   5.731  1.00  0.00     0.134 A 
ATOM      7  C   UNL     1       8.953 -15.551   6.143  1.00  0.00     0.093 A 
ATOM      8  C   UNL     1       8.930 -16.398   7.253  1.00  0.00     0.123 A 
ATOM      9  C   UNL     1       7.750 -16.562   7.974  1.00  0.00     0.094 A 
ATOM     10  C   UNL     1       6.594 -15.866   7.610  1.00  0.00     0.146 A 
ATOM     11  O   UNL     1       5.493 -16.040   8.333  1.00  0.00    -0.456 OA
ENDROOT
BRANCH   1  12
ATOM     12  C   UNL     1       3.177 -15.693   8.955  1.00  0.00     0.021 A 
ATOM     13  C   UNL     1       3.134 -16.820   9.797  1.00  0.00     0.016 A 
ATOM     14  C   UNL     1       2.023 -17.054  10.612  1.00  0.00     0.051 A 
ATOM     15  C   UNL     1       0.942 -16.164  10.607  1.00  0.00     0.157 A 
ATOM     16  C   UNL     1       2.093 -14.797   8.966  1.00  0.00     0.062 A 
ATOM     17  C   UNL     1       0.978 -15.029   9.780  1.00  0.00     0.158 A 
BRANCH  15  18
ATOM     18  O   UNL     1      -0.165 -16.402  11.420  1.00  0.00    -0.504 OA
ATOM     19  H   UNL     1      -1.078 -16.605  11.029  1.00  0.00     0.293 HD
ENDBRANCH  15  18
BRANCH  17  20
ATOM     20  O   UNL     1      -0.080 -14.122   9.755  1.00  0.00    -0.504 OA
ATOM     21  H   UNL     1      -0.062 -13.290   9.178  1.00  0.00     0.293 HD
ENDBRANCH  17  20
ENDBRANCH   1  12
BRANCH   6  22
ATOM     22  O   UNL     1       7.909 -14.115   4.557  1.00  0.00    -0.507 OA
ATOM     23  H   UNL     1       7.880 -13.108   4.512  1.00  0.00     0.293 HD
ENDBRANCH   6  22
BRANCH   8  24
ATOM     24  O   UNL     1      10.076 -17.085   7.646  1.00  0.00    -0.508 OA
ATOM     25  H   UNL     1      10.954 -16.605   7.810  1.00  0.00     0.293 HD
ENDBRANCH   8  24
TORSDOF 5
ENDMDL
MODEL 2
REMARK VINA RESULT:    -6.503      2.017      3.538
REMARK INTER + INTRA:          -7.935
REMARK INTER:                  -7.620
REMARK INTRA:                  -0.315
REMARK UNBOUND:                -0.292
REMARK SMILES O=c1cc(-c2ccc(O)c(O)c2)oc2cc(O)cc(O)c12
REMARK SMILES IDX 4 1 3 2 2 3 1 4 21 5 19 6 18 7 16 8 15 9 14 10 13 11 5 12
REMARK SMILES IDX 6 13 7 14 8 15 12 16 10 17 9 18 11 20 20 22 17 24
REMARK H PARENT 9 19 11 21 20 23 17 25
REMARK Flexibility Score: inf
ROOT
ATOM      1  C   UNL     1       7.171 -15.600   7.590  1.00  0.00     0.138 A 
ATOM      2  C   UNL     1       7.684 -15.217   6.343  1.00  0.00     0.100 A 
ATOM      3  C   UNL     1       9.016 -15.496   6.030  1.00  0.00     0.197 A 
ATOM      4  O   UNL     1       9.463 -15.086   4.928  1.00  0.00    -0.289 OA
ATOM      5  C   UNL     1       9.827 -16.188   6.959  1.00  0.00     0.107 A 
ATOM      6  C   UNL     1      11.185 -16.562   6.732  1.00  0.00     0.134 A 
ATOM      7  C   UNL     1      11.924 -17.142   7.771  1.00  0.00     0.093 A 
ATOM      8  C   UNL     1      11.336 -17.417   9.008  1.00  0.00     0.123 A 
ATOM      9  C   UNL     1       9.996 -17.106   9.222  1.00  0.00     0.094 A 
ATOM     10  C   UNL     1       9.241 -16.494   8.217  1.00  0.00     0.146 A 
ATOM     11  O   UNL     1       7.970 -16.199   8.467  1.00  0.00    -0.456 OA
ENDROOT
BRANCH   1  12
ATOM     12  C   UNL     1       5.763 -15.329   7.975  1.00  0.00     0.021 A 
ATOM     13  C   UNL     1       4.960 -14.426   7.253  1.00  0.00     0.016 A 
ATOM     14  C   UNL     1       3.633 -14.199   7.631  1.00  0.00     0.051 A 
ATOM     15  C   UNL     1       3.085 -14.873   8.728  1.00  0.00     0.157 A 
ATOM     16  C   UNL     1       5.200 -16.013   9.068  1.00  0.00     0.062 A 
ATOM     17  C   UNL     1       3.872 -15.787   9.449  1.00  0.00     0.158 A 
BRANCH  15  18
ATOM     18  O   UNL     1       1.762 -14.643   9.103  1.00  0.00    -0.504 OA
ATOM     19  H   UNL     1       1.022 -15.294   8.868  1.00  0.00     0.293 HD
ENDBRANCH  15  18
BRANCH  17  20
ATOM     20  O   UNL     1       3.355 -16.477  10.544  1.00  0.00    -0.504 OA
ATOM     21  H   UNL     1       3.871 -17.214  11.009  1.00  0.00     0.293 HD
ENDBRANCH  17  20
ENDBRANCH   1  12
BRANCH   6  22
ATOM     22  O   UNL     1      11.843 -16.410   5.507  1.00  0.00    -0.507 OA
ATOM     23  H   UNL     1      12.772 -16.032   5.394  1.00  0.00     0.293 HD
ENDBRANCH   6  22
BRANCH   8  24
ATOM     24  O   UNL     1      12.076 -18.008  10.030  1.00  0.00    -0.508 OA
ATOM     25  H   UNL     1      11.660 -18.674  10.670  1.00  0.00     0.293 HD
ENDBRANCH   8  24
TORSDOF 5
ENDMDL
MODEL 3
REMARK VINA RESULT:    -6.406      1.557      2.085
REMARK INTER + INTRA:          -7.822
REMARK INTER:                  -7.558
REMARK INTRA:                  -0.263
REMARK UNBOUND:                -0.292
REMARK SMILES O=c1cc(-c2ccc(O)c(O)c2)oc2cc(O)cc(O)c12
REMARK SMILES IDX 4 1 3 2 2 3 1 4 21 5 19 6 18 7 16 8 15 9 14 10 13 11 5 12
REMARK SMILES IDX 6 13 7 14 8 15 12 16 10 17 9 18 11 20 20 22 17 24
REMARK H PARENT 9 19 11 21 20 23 17 25
REMARK Flexibility Score: inf
ROOT
ATOM      1  C   UNL     1       5.270 -15.367   7.267  1.00  0.00     0.138 A 
ATOM      2  C   UNL     1       5.686 -14.507   6.240  1.00  0.00     0.100 A 
ATOM      3  C   UNL     1       7.030 -14.482   5.865  1.00  0.00     0.197 A 
ATOM      4  O   UNL     1       7.384 -13.657   4.983  1.00  0.00    -0.289 OA
ATOM      5  C   UNL     1       7.954 -15.344   6.500  1.00  0.00     0.107 A 
ATOM      6  C   UNL     1       9.340 -15.433   6.172  1.00  0.00     0.134 A 
ATOM      7  C   UNL     1      10.182 -16.239   6.948  1.00  0.00     0.093 A 
ATOM      8  C   UNL     1       9.678 -17.006   8.002  1.00  0.00     0.123 A 
ATOM      9  C   UNL     1       8.317 -16.967   8.296  1.00  0.00     0.094 A 
ATOM     10  C   UNL     1       7.456 -16.146   7.562  1.00  0.00     0.146 A 
ATOM     11  O   UNL     1       6.168 -16.126   7.885  1.00  0.00    -0.456 OA
ENDROOT
BRANCH   1  12
ATOM     12  C   UNL     1       3.852 -15.434   7.705  1.00  0.00     0.021 A 
ATOM     13  C   UNL     1       3.353 -14.600   8.723  1.00  0.00     0.016 A 
ATOM     14  C   UNL     1       2.011 -14.679   9.108  1.00  0.00     0.051 A 
ATOM     15  C   UNL     1       1.146 -15.582   8.480  1.00  0.00     0.157 A 
ATOM     16  C   UNL     1       2.973 -16.330   7.070  1.00  0.00     0.062 A 
ATOM     17  C   UNL     1       1.630 -16.411   7.454  1.00  0.00     0.158 A 
BRANCH  15  18
ATOM     18  O   UNL     1      -0.191 -15.658   8.868  1.00  0.00    -0.504 OA
ATOM     19  H   UNL     1      -0.631 -16.544   9.086  1.00  0.00     0.293 HD
ENDBRANCH  15  18
BRANCH  17  20
ATOM     20  O   UNL     1       0.793 -17.318   6.806  1.00  0.00    -0.504 OA
ATOM     21  H   UNL     1       0.249 -17.062   5.992  1.00  0.00     0.293 HD
ENDBRANCH  17  20
ENDBRANCH   1  12
BRANCH   6  22
ATOM     22  O   UNL     1       9.930 -14.777   5.087  1.00  0.00    -0.507 OA
ATOM     23  H   UNL     1      10.736 -15.110   4.581  1.00  0.00     0.293 HD
ENDBRANCH   6  22
BRANCH   8  24
ATOM     24  O   UNL     1      10.521 -17.815   8.759  1.00  0.00    -0.508 OA
ATOM     25  H   UNL     1      11.319 -18.283   8.346  1.00  0.00     0.293 HD
ENDBRANCH   8  24
TORSDOF 5
ENDMDL
MODEL 4
REMARK VINA RESULT:    -6.384      3.025      6.979
REMARK INTER + INTRA:          -7.796
REMARK INTER:                  -7.510
REMARK INTRA:                  -0.286
REMARK UNBOUND:                -0.292
REMARK SMILES O=c1cc(-c2ccc(O)c(O)c2)oc2cc(O)cc(O)c12
REMARK SMILES IDX 4 1 3 2 2 3 1 4 21 5 19 6 18 7 16 8 15 9 14 10 13 11 5 12
REMARK SMILES IDX 6 13 7 14 8 15 12 16 10 17 9 18 11 20 20 22 17 24
REMARK H PARENT 9 19 11 21 20 23 17 25
REMARK Flexibility Score: inf
ROOT
ATOM      1  C   UNL     1       9.062 -16.457   8.412  1.00  0.00     0.138 A 
ATOM      2  C   UNL     1       9.586 -16.264   7.126  1.00  0.00     0.100 A 
ATOM      3  C   UNL     1       8.842 -15.564   6.176  1.00  0.00     0.197 A 
ATOM      4  O   UNL     1       9.313 -15.461   5.013  1.00  0.00    -0.289 OA
ATOM      5  C   UNL     1       7.581 -15.027   6.526  1.00  0.00     0.107 A 
ATOM      6  C   UNL     1       6.753 -14.262   5.651  1.00  0.00     0.134 A 
ATOM      7  C   UNL     1       5.472 -13.882   6.071  1.00  0.00     0.093 A 
ATOM      8  C   UNL     1       5.013 -14.187   7.355  1.00  0.00     0.123 A 
ATOM      9  C   UNL     1       5.835 -14.888   8.235  1.00  0.00     0.094 A 
ATOM     10  C   UNL     1       7.105 -15.311   7.834  1.00  0.00     0.146 A 
ATOM     11  O   UNL     1       7.851 -15.991   8.698  1.00  0.00    -0.456 OA
ENDROOT
BRANCH   1  12
ATOM     12  C   UNL     1       9.811 -17.193   9.462  1.00  0.00     0.021 A 
ATOM     13  C   UNL     1       9.150 -17.943  10.454  1.00  0.00     0.016 A 
ATOM     14  C   UNL     1       9.882 -18.635  11.423  1.00  0.00     0.051 A 
ATOM     15  C   UNL     1      11.281 -18.598  11.414  1.00  0.00     0.157 A 
ATOM     16  C   UNL     1      11.218 -17.172   9.452  1.00  0.00     0.062 A 
ATOM     17  C   UNL     1      11.952 -17.864  10.422  1.00  0.00     0.158 A 
BRANCH  15  18
ATOM     18  O   UNL     1      12.007 -19.289  12.384  1.00  0.00    -0.504 OA
ATOM     19  H   UNL     1      13.019 -19.261  12.409  1.00  0.00     0.293 HD
ENDBRANCH  15  18
BRANCH  17  20
ATOM     20  O   UNL     1      13.345 -17.811  10.383  1.00  0.00    -0.504 OA
ATOM     21  H   UNL     1      13.890 -18.419   9.786  1.00  0.00     0.293 HD
ENDBRANCH  17  20
ENDBRANCH   1  12
BRANCH   6  22
ATOM     22  O   UNL     1       7.147 -13.830   4.381  1.00  0.00    -0.507 OA
ATOM     23  H   UNL     1       7.478 -12.901   4.165  1.00  0.00     0.293 HD
ENDBRANCH   6  22
BRANCH   8  24
ATOM     24  O   UNL     1       3.743 -13.793   7.768  1.00  0.00    -0.508 OA
ATOM     25  H   UNL     1       3.469 -12.817   7.786  1.00  0.00     0.293 HD
ENDBRANCH   8  24
TORSDOF 5
ENDMDL
MODEL 5
REMARK VINA RESULT:    -6.288      1.401      3.272
REMARK INTER + INTRA:          -7.683
REMARK INTER:                  -7.391
REMARK INTRA:                  -0.292
REMARK UNBOUND:                -0.292
REMARK SMILES O=c1cc(-c2ccc(O)c(O)c2)oc2cc(O)cc(O)c12
REMARK SMILES IDX 4 1 3 2 2 3 1 4 21 5 19 6 18 7 16 8 15 9 14 10 13 11 5 12
REMARK SMILES IDX 6 13 7 14 8 15 12 16 10 17 9 18 11 20 20 22 17 24
REMARK H PARENT 9 19 11 21 20 23 17 25
REMARK Flexibility Score: inf
ROOT
ATOM      1  C   UNL     1       3.347 -15.636   9.201  1.00  0.00     0.138 A 
ATOM      2  C   UNL     1       4.366 -16.356   9.842  1.00  0.00     0.100 A 
ATOM      3  C   UNL     1       5.664 -16.315   9.332  1.00  0.00     0.197 A 
ATOM      4  O   UNL     1       6.544 -17.019   9.892  1.00  0.00    -0.289 OA
ATOM      5  C   UNL     1       5.948 -15.524   8.194  1.00  0.00     0.107 A 
ATOM      6  C   UNL     1       7.243 -15.375   7.610  1.00  0.00     0.134 A 
ATOM      7  C   UNL     1       7.382 -14.659   6.415  1.00  0.00     0.093 A 
ATOM      8  C   UNL     1       6.284 -14.037   5.814  1.00  0.00     0.123 A 
ATOM      9  C   UNL     1       5.027 -14.132   6.405  1.00  0.00     0.094 A 
ATOM     10  C   UNL     1       4.848 -14.868   7.579  1.00  0.00     0.146 A 
ATOM     11  O   UNL     1       3.629 -14.947   8.101  1.00  0.00    -0.456 OA
ENDROOT
BRANCH   1  12
ATOM     12  C   UNL     1       1.948 -15.644   9.701  1.00  0.00     0.021 A 
ATOM     13  C   UNL     1       0.996 -14.712   9.249  1.00  0.00     0.016 A 
ATOM     14  C   UNL     1      -0.316 -14.750   9.729  1.00  0.00     0.051 A 
ATOM     15  C   UNL     1      -0.701 -15.721  10.660  1.00  0.00     0.157 A 
ATOM     16  C   UNL     1       1.550 -16.626  10.627  1.00  0.00     0.062 A 
ATOM     17  C   UNL     1       0.237 -16.665  11.110  1.00  0.00     0.158 A 
BRANCH  15  18
ATOM     18  O   UNL     1      -2.011 -15.755  11.138  1.00  0.00    -0.504 OA
ATOM     19  H   UNL     1      -2.593 -14.926  11.149  1.00  0.00     0.293 HD
ENDBRANCH  15  18
BRANCH  17  20
ATOM     20  O   UNL     1      -0.116 -17.648  12.034  1.00  0.00    -0.504 OA
ATOM     21  H   UNL     1       0.044 -18.632  11.860  1.00  0.00     0.293 HD
ENDBRANCH  17  20
ENDBRANCH   1  12
BRANCH   6  22
ATOM     22  O   UNL     1       8.417 -15.883   8.174  1.00  0.00    -0.507 OA
ATOM     23  H   UNL     1       9.140 -16.366   7.663  1.00  0.00     0.293 HD
ENDBRANCH   6  22
BRANCH   8  24
ATOM     24  O   UNL     1       6.436 -13.315   4.633  1.00  0.00    -0.508 OA
ATOM     25  H   UNL     1       7.237 -12.715   4.476  1.00  0.00     0.293 HD
ENDBRANCH   8  24
TORSDOF 5
ENDMDL
MODEL 6
REMARK VINA RESULT:    -6.271      2.184      7.463
REMARK INTER + INTRA:          -7.662
REMARK INTER:                  -7.347
REMARK INTRA:                  -0.315
REMARK UNBOUND:                -0.292
REMARK SMILES O=c1cc(-c2ccc(O)c(O)c2)oc2cc(O)cc(O)c12
REMARK SMILES IDX 4 1 3 2 2 3 1 4 21 5 19 6 18 7 16 8 15 9 14 10 13 11 5 12
REMARK SMILES IDX 6 13 7 14 8 15 12 16 10 17 9 18 11 20 20 22 17 24
REMARK H PARENT 9 19 11 21 20 23 17 25
REMARK Flexibility Score: inf
ROOT
ATOM      1  C   UNL     1       8.275 -15.761   7.490  1.00  0.00     0.138 A 
ATOM      2  C   UNL     1       7.620 -14.880   6.617  1.00  0.00     0.100 A 
ATOM      3  C   UNL     1       6.289 -14.537   6.856  1.00  0.00     0.197 A 
ATOM      4  O   UNL     1       5.710 -13.793   6.022  1.00  0.00    -0.289 OA
ATOM      5  C   UNL     1       5.621 -15.053   7.991  1.00  0.00     0.107 A 
ATOM      6  C   UNL     1       4.278 -14.740   8.357  1.00  0.00     0.134 A 
ATOM      7  C   UNL     1       3.684 -15.404   9.438  1.00  0.00     0.093 A 
ATOM      8  C   UNL     1       4.405 -16.324  10.204  1.00  0.00     0.123 A 
ATOM      9  C   UNL     1       5.734 -16.596   9.888  1.00  0.00     0.094 A 
ATOM     10  C   UNL     1       6.344 -15.977   8.794  1.00  0.00     0.146 A 
ATOM     11  O   UNL     1       7.609 -16.276   8.517  1.00  0.00    -0.456 OA
ENDROOT
BRANCH   1  12
ATOM     12  C   UNL     1       9.691 -16.160   7.283  1.00  0.00     0.021 A 
ATOM     13  C   UNL     1      10.360 -15.910   6.071  1.00  0.00     0.016 A 
ATOM     14  C   UNL     1      11.696 -16.287   5.908  1.00  0.00     0.051 A 
ATOM     15  C   UNL     1      12.388 -16.910   6.953  1.00  0.00     0.157 A 
ATOM     16  C   UNL     1      10.397 -16.774   8.334  1.00  0.00     0.062 A 
ATOM     17  C   UNL     1      11.735 -17.153   8.173  1.00  0.00     0.158 A 
BRANCH  15  18
ATOM     18  O   UNL     1      13.721 -17.285   6.787  1.00  0.00    -0.504 OA
ATOM     19  H   UNL     1      14.073 -18.165   7.146  1.00  0.00     0.293 HD
ENDBRANCH  15  18
BRANCH  17  20
ATOM     20  O   UNL     1      12.397 -17.768   9.235  1.00  0.00    -0.504 OA
ATOM     21  H   UNL     1      12.107 -17.639  10.197  1.00  0.00     0.293 HD
ENDBRANCH  17  20
ENDBRANCH   1  12
BRANCH   6  22
ATOM     22  O   UNL     1       3.498 -13.775   7.712  1.00  0.00    -0.507 OA
ATOM     23  H   UNL     1       2.667 -13.970   7.174  1.00  0.00     0.293 HD
ENDBRANCH   6  22
BRANCH   8  24
ATOM     24  O   UNL     1       3.810 -16.968  11.286  1.00  0.00    -0.508 OA
ATOM     25  H   UNL     1       4.142 -16.830  12.234  1.00  0.00     0.293 HD
ENDBRANCH   8  24
TORSDOF 5
ENDMDL
MODEL 7
REMARK VINA RESULT:    -6.244      1.595      7.452
REMARK INTER + INTRA:          -7.631
REMARK INTER:                  -7.336
REMARK INTRA:                  -0.295
REMARK UNBOUND:                -0.292
REMARK SMILES O=c1cc(-c2ccc(O)c(O)c2)oc2cc(O)cc(O)c12
REMARK SMILES IDX 4 1 3 2 2 3 1 4 21 5 19 6 18 7 16 8 15 9 14 10 13 11 5 12
REMARK SMILES IDX 6 13 7 14 8 15 12 16 10 17 9 18 11 20 20 22 17 24
REMARK H PARENT 9 19 11 21 20 23 17 25
REMARK Flexibility Score: inf
ROOT
ATOM      1  C   UNL     1       4.225 -15.765   8.607  1.00  0.00     0.138 A 
ATOM      2  C   UNL     1       4.706 -16.766   9.464  1.00  0.00     0.100 A 
ATOM      3  C   UNL     1       3.868 -17.295  10.446  1.00  0.00     0.197 A 
ATOM      4  O   UNL     1       4.347 -18.147  11.238  1.00  0.00    -0.289 OA
ATOM      5  C   UNL     1       2.532 -16.841  10.549  1.00  0.00     0.107 A 
ATOM      6  C   UNL     1       1.575 -17.337  11.486  1.00  0.00     0.134 A 
ATOM      7  C   UNL     1       0.317 -16.729  11.573  1.00  0.00     0.093 A 
ATOM      8  C   UNL     1      -0.041 -15.684  10.718  1.00  0.00     0.123 A 
ATOM      9  C   UNL     1       0.867 -15.229   9.765  1.00  0.00     0.094 A 
ATOM     10  C   UNL     1       2.143 -15.791   9.675  1.00  0.00     0.146 A 
ATOM     11  O   UNL     1       2.984 -15.317   8.763  1.00  0.00    -0.456 OA
ENDROOT
BRANCH   1  12
ATOM     12  C   UNL     1       5.074 -15.168   7.545  1.00  0.00     0.021 A 
ATOM     13  C   UNL     1       4.589 -14.161   6.690  1.00  0.00     0.016 A 
ATOM     14  C   UNL     1       5.413 -13.609   5.705  1.00  0.00     0.051 A 
ATOM     15  C   UNL     1       6.736 -14.046   5.564  1.00  0.00     0.157 A 
ATOM     16  C   UNL     1       6.408 -15.592   7.405  1.00  0.00     0.062 A 
ATOM     17  C   UNL     1       7.236 -15.042   6.420  1.00  0.00     0.158 A 
BRANCH  15  18
ATOM     18  O   UNL     1       7.555 -13.494   4.580  1.00  0.00    -0.504 OA
ATOM     19  H   UNL     1       8.293 -14.032   4.140  1.00  0.00     0.293 HD
ENDBRANCH  15  18
BRANCH  17  20
ATOM     20  O   UNL     1       8.549 -15.496   6.307  1.00  0.00    -0.504 OA
ATOM     21  H   UNL     1       8.960 -15.737   5.414  1.00  0.00     0.293 HD
ENDBRANCH  17  20
ENDBRANCH   1  12
BRANCH   6  22
ATOM     22  O   UNL     1       1.800 -18.432  12.327  1.00  0.00    -0.507 OA
ATOM     23  H   UNL     1       2.540 -18.491  13.010  1.00  0.00     0.293 HD
ENDBRANCH   6  22
BRANCH   8  24
ATOM     24  O   UNL     1      -1.301 -15.096  10.803  1.00  0.00    -0.508 OA
ATOM     25  H   UNL     1      -1.416 -14.090  10.832  1.00  0.00     0.293 HD
ENDBRANCH   8  24
TORSDOF 5
ENDMDL
MODEL 8
REMARK VINA RESULT:    -6.227      4.598     10.133
REMARK INTER + INTRA:          -7.611
REMARK INTER:                  -7.295
REMARK INTRA:                  -0.316
REMARK UNBOUND:                -0.292
REMARK SMILES O=c1cc(-c2ccc(O)c(O)c2)oc2cc(O)cc(O)c12
REMARK SMILES IDX 4 1 3 2 2 3 1 4 21 5 19 6 18 7 16 8 15 9 14 10 13 11 5 12
REMARK SMILES IDX 6 13 7 14 8 15 12 16 10 17 9 18 11 20 20 22 17 24
REMARK H PARENT 9 19 11 21 20 23 17 25
REMARK Flexibility Score: inf
ROOT
ATOM      1  C   UNL     1      12.404 -16.239   6.950  1.00  0.00     0.138 A 
ATOM      2  C   UNL     1      11.821 -16.928   8.022  1.00  0.00     0.100 A 
ATOM      3  C   UNL     1      10.436 -16.896   8.192  1.00  0.00     0.197 A 
ATOM      4  O   UNL     1       9.949 -17.474   9.198  1.00  0.00    -0.289 OA
ATOM      5  C   UNL     1       9.630 -16.196   7.264  1.00  0.00     0.107 A 
ATOM      6  C   UNL     1       8.205 -16.129   7.314  1.00  0.00     0.134 A 
ATOM      7  C   UNL     1       7.521 -15.308   6.409  1.00  0.00     0.093 A 
ATOM      8  C   UNL     1       8.206 -14.601   5.417  1.00  0.00     0.123 A 
ATOM      9  C   UNL     1       9.592 -14.702   5.327  1.00  0.00     0.094 A 
ATOM     10  C   UNL     1      10.307 -15.485   6.237  1.00  0.00     0.146 A 
ATOM     11  O   UNL     1      11.629 -15.542   6.125  1.00  0.00    -0.456 OA
ENDROOT
BRANCH   1  12
ATOM     12  C   UNL     1      13.872 -16.240   6.722  1.00  0.00     0.021 A 
ATOM     13  C   UNL     1      14.720 -17.158   7.369  1.00  0.00     0.016 A 
ATOM     14  C   UNL     1      16.096 -17.142   7.128  1.00  0.00     0.051 A 
ATOM     15  C   UNL     1      16.648 -16.219   6.232  1.00  0.00     0.157 A 
ATOM     16  C   UNL     1      14.432 -15.323   5.813  1.00  0.00     0.062 A 
ATOM     17  C   UNL     1      15.810 -15.306   5.570  1.00  0.00     0.158 A 
BRANCH  15  18
ATOM     18  O   UNL     1      18.021 -16.206   5.995  1.00  0.00    -0.504 OA
ATOM     19  H   UNL     1      18.399 -16.273   5.057  1.00  0.00     0.293 HD
ENDBRANCH  15  18
BRANCH  17  20
ATOM     20  O   UNL     1      16.327 -14.376   4.669  1.00  0.00    -0.504 OA
ATOM     21  H   UNL     1      16.760 -13.513   4.975  1.00  0.00     0.293 HD
ENDBRANCH  17  20
ENDBRANCH   1  12
BRANCH   6  22
ATOM     22  O   UNL     1       7.419 -16.862   8.209  1.00  0.00    -0.507 OA
ATOM     23  H   UNL     1       6.746 -17.564   7.943  1.00  0.00     0.293 HD
ENDBRANCH   6  22
BRANCH   8  24
ATOM     24  O   UNL     1       7.515 -13.798   4.512  1.00  0.00    -0.508 OA
ATOM     25  H   UNL     1       6.971 -14.197   3.756  1.00  0.00     0.293 HD
ENDBRANCH   8  24
TORSDOF 5
ENDMDL
MODEL 9
REMARK VINA RESULT:    -6.220      1.991      2.511
REMARK INTER + INTRA:          -7.603
REMARK INTER:                  -7.315
REMARK INTRA:                  -0.288
REMARK UNBOUND:                -0.292
REMARK SMILES O=c1cc(-c2ccc(O)c(O)c2)oc2cc(O)cc(O)c12
REMARK SMILES IDX 4 1 3 2 2 3 1 4 21 5 19 6 18 7 16 8 15 9 14 10 13 11 5 12
REMARK SMILES IDX 6 13 7 14 8 15 12 16 10 17 9 18 11 20 20 22 17 24
REMARK H PARENT 9 19 11 21 20 23 17 25
REMARK Flexibility Score: inf
ROOT
ATOM      1  C   UNL     1       5.588 -15.929   8.550  1.00  0.00     0.138 A 
ATOM      2  C   UNL     1       5.061 -14.963   7.680  1.00  0.00     0.100 A 
ATOM      3  C   UNL     1       5.844 -14.477   6.633  1.00  0.00     0.197 A 
ATOM      4  O   UNL     1       5.365 -13.567   5.908  1.00  0.00    -0.289 OA
ATOM      5  C   UNL     1       7.150 -14.984   6.437  1.00  0.00     0.107 A 
ATOM      6  C   UNL     1       8.024 -14.592   5.379  1.00  0.00     0.134 A 
ATOM      7  C   UNL     1       9.338 -15.076   5.355  1.00  0.00     0.093 A 
ATOM      8  C   UNL     1       9.790 -15.985   6.315  1.00  0.00     0.123 A 
ATOM      9  C   UNL     1       8.928 -16.415   7.320  1.00  0.00     0.094 A 
ATOM     10  C   UNL     1       7.622 -15.924   7.393  1.00  0.00     0.146 A 
ATOM     11  O   UNL     1       6.837 -16.348   8.377  1.00  0.00    -0.456 OA
ENDROOT
BRANCH   1  12
ATOM     12  C   UNL     1       4.798 -16.481   9.680  1.00  0.00     0.021 A 
ATOM     13  C   UNL     1       3.505 -17.006   9.492  1.00  0.00     0.016 A 
ATOM     14  C   UNL     1       2.789 -17.528  10.572  1.00  0.00     0.051 A 
ATOM     15  C   UNL     1       3.352 -17.544  11.853  1.00  0.00     0.157 A 
ATOM     16  C   UNL     1       5.362 -16.513  10.968  1.00  0.00     0.062 A 
ATOM     17  C   UNL     1       4.646 -17.035  12.051  1.00  0.00     0.158 A 
BRANCH  15  18
ATOM     18  O   UNL     1       2.634 -18.066  12.929  1.00  0.00    -0.504 OA
ATOM     19  H   UNL     1       3.000 -18.821  13.496  1.00  0.00     0.293 HD
ENDBRANCH  15  18
BRANCH  17  20
ATOM     20  O   UNL     1       5.237 -17.041  13.314  1.00  0.00    -0.504 OA
ATOM     21  H   UNL     1       6.124 -16.586  13.496  1.00  0.00     0.293 HD
ENDBRANCH  17  20
ENDBRANCH   1  12
BRANCH   6  22
ATOM     22  O   UNL     1       7.646 -13.758   4.322  1.00  0.00    -0.507 OA
ATOM     23  H   UNL     1       7.824 -13.945   3.347  1.00  0.00     0.293 HD
ENDBRANCH   6  22
BRANCH   8  24
ATOM     24  O   UNL     1      11.095 -16.472   6.273  1.00  0.00    -0.508 OA
ATOM     25  H   UNL     1      11.294 -17.463   6.342  1.00  0.00     0.293 HD
ENDBRANCH   8  24
TORSDOF 5
ENDMDL
