MODEL 1
REMARK VINA RESULT:    -3.879      0.000      0.000
REMARK INTER + INTRA:          -4.567
REMARK INTER:                  -4.559
REMARK INTRA:                  -0.008
REMARK UNBOUND:                -0.008
REMARK SMILES [NH3+][C@H](CO)C(=O)[O-]
REMARK SMILES IDX 3 1 2 2 1 3 5 7 6 8 7 9 4 10
REMARK H PARENT 1 4 1 5 1 6 4 11
REMARK Flexibility Score: inf
ROOT
ATOM      1  C   UNL     1     161.536 153.105 230.317  1.00  0.00     0.227 C 
ENDROOT
BRANCH   1   2
ATOM      2  C   UNL     1     161.127 151.828 229.561  1.00  0.00     0.253 C 
BRANCH   2   3
ATOM      3  N   UNL     1     162.300 151.097 229.065  1.00  0.00    -0.348 N 
ATOM      4  H   UNL     1     162.846 150.719 229.873  1.00  0.00     0.345 HD
ATOM      5  H   UNL     1     162.921 151.719 228.497  1.00  0.00     0.345 HD
ATOM      6  H   UNL     1     161.991 150.291 228.473  1.00  0.00     0.345 HD
ENDBRANCH   2   3
BRANCH   2   7
ATOM      7  C   UNL     1     160.265 150.945 230.425  1.00  0.00     0.102 C 
ATOM      8  O   UNL     1     159.070 150.705 230.107  1.00  0.00    -0.544 OA
ATOM      9  O   UNL     1     160.802 150.354 231.562  1.00  0.00    -0.544 OA
ENDBRANCH   2   7
ENDBRANCH   1   2
BRANCH   1  10
ATOM     10  O   UNL     1     162.776 153.590 229.870  1.00  0.00    -0.390 OA
ATOM     11  H   UNL     1     163.463 152.932 230.151  1.00  0.00     0.210 HD
ENDBRANCH   1  10
TORSDOF 4
ENDMDL
MODEL 2
REMARK VINA RESULT:    -3.874     14.346     15.277
REMARK INTER + INTRA:          -4.561
REMARK INTER:                  -4.383
REMARK INTRA:                  -0.178
REMARK UNBOUND:                -0.008
REMARK SMILES [NH3+][C@H](CO)C(=O)[O-]
REMARK SMILES IDX 3 1 2 2 1 3 5 7 6 8 7 9 4 10
REMARK H PARENT 1 4 1 5 1 6 4 11
REMARK Flexibility Score: inf
ROOT
ATOM      1  C   UNL     1     157.101 167.349 231.403  1.00  0.00     0.227 C 
ENDROOT
BRANCH   1   2
ATOM      2  C   UNL     1     156.283 166.469 230.441  1.00  0.00     0.253 C 
BRANCH   2   3
ATOM      3  N   UNL     1     155.915 167.202 229.223  1.00  0.00    -0.348 N 
ATOM      4  H   UNL     1     155.112 166.722 228.754  1.00  0.00     0.345 HD
ATOM      5  H   UNL     1     156.718 167.251 228.554  1.00  0.00     0.345 HD
ATOM      6  H   UNL     1     155.617 168.174 229.470  1.00  0.00     0.345 HD
ENDBRANCH   2   3
BRANCH   2   7
ATOM      7  C   UNL     1     157.028 165.204 230.105  1.00  0.00     0.102 C 
ATOM      8  O   UNL     1     158.209 165.251 229.666  1.00  0.00    -0.544 OA
ATOM      9  O   UNL     1     156.427 163.970 230.318  1.00  0.00    -0.544 OA
ENDBRANCH   2   7
ENDBRANCH   1   2
BRANCH   1  10
ATOM     10  O   UNL     1     157.933 168.238 230.703  1.00  0.00    -0.390 OA
ATOM     11  H   UNL     1     158.076 167.851 229.801  1.00  0.00     0.210 HD
ENDBRANCH   1  10
TORSDOF 4
ENDMDL
MODEL 3
REMARK VINA RESULT:    -3.839      2.183      2.504
REMARK INTER + INTRA:          -4.519
REMARK INTER:                  -4.314
REMARK INTRA:                  -0.205
REMARK UNBOUND:                -0.008
REMARK SMILES [NH3+][C@H](CO)C(=O)[O-]
REMARK SMILES IDX 3 1 2 2 1 3 5 7 6 8 7 9 4 10
REMARK H PARENT 1 4 1 5 1 6 4 11
REMARK Flexibility Score: inf
ROOT
ATOM      1  C   UNL     1     162.143 151.485 230.452  1.00  0.00     0.227 C 
ENDROOT
BRANCH   1   2
ATOM      2  C   UNL     1     161.478 152.872 230.524  1.00  0.00     0.253 C 
BRANCH   2   3
ATOM      3  N   UNL     1     162.320 153.905 229.908  1.00  0.00    -0.348 N 
ATOM      4  H   UNL     1     162.819 153.504 229.081  1.00  0.00     0.345 HD
ATOM      5  H   UNL     1     163.028 154.271 230.586  1.00  0.00     0.345 HD
ATOM      6  H   UNL     1     161.723 154.698 229.577  1.00  0.00     0.345 HD
ENDBRANCH   2   3
BRANCH   2   7
ATOM      7  C   UNL     1     160.109 152.845 229.896  1.00  0.00     0.102 C 
ATOM      8  O   UNL     1     159.780 151.913 229.114  1.00  0.00    -0.544 OA
ATOM      9  O   UNL     1     159.184 153.833 230.210  1.00  0.00    -0.544 OA
ENDBRANCH   2   7
ENDBRANCH   1   2
BRANCH   1  10
ATOM     10  O   UNL     1     162.437 151.126 229.127  1.00  0.00    -0.390 OA
ATOM     11  H   UNL     1     162.371 150.138 229.073  1.00  0.00     0.210 HD
ENDBRANCH   1  10
TORSDOF 4
ENDMDL
MODEL 4
REMARK VINA RESULT:    -3.830     14.648     15.800
REMARK INTER + INTRA:          -4.510
REMARK INTER:                  -4.503
REMARK INTRA:                  -0.007
REMARK UNBOUND:                -0.008
REMARK SMILES [NH3+][C@H](CO)C(=O)[O-]
REMARK SMILES IDX 3 1 2 2 1 3 5 7 6 8 7 9 4 10
REMARK H PARENT 1 4 1 5 1 6 4 11
REMARK Flexibility Score: inf
ROOT
ATOM      1  C   UNL     1     156.872 165.037 230.231  1.00  0.00     0.227 C 
ENDROOT
BRANCH   1   2
ATOM      2  C   UNL     1     156.919 166.495 229.738  1.00  0.00     0.253 C 
BRANCH   2   3
ATOM      3  N   UNL     1     155.571 167.059 229.596  1.00  0.00    -0.348 N 
ATOM      4  H   UNL     1     154.879 166.440 230.078  1.00  0.00     0.345 HD
ATOM      5  H   UNL     1     155.303 167.147 228.588  1.00  0.00     0.345 HD
ATOM      6  H   UNL     1     155.533 168.003 230.044  1.00  0.00     0.345 HD
ENDBRANCH   2   3
BRANCH   2   7
ATOM      7  C   UNL     1     157.766 167.343 230.651  1.00  0.00     0.102 C 
ATOM      8  O   UNL     1     158.953 167.632 230.341  1.00  0.00    -0.544 OA
ATOM      9  O   UNL     1     157.224 167.849 231.826  1.00  0.00    -0.544 OA
ENDBRANCH   2   7
ENDBRANCH   1   2
BRANCH   1  10
ATOM     10  O   UNL     1     155.613 164.458 230.001  1.00  0.00    -0.390 OA
ATOM     11  H   UNL     1     155.659 164.006 229.120  1.00  0.00     0.210 HD
ENDBRANCH   1  10
TORSDOF 4
ENDMDL
MODEL 5
REMARK VINA RESULT:    -3.808      1.302      2.849
REMARK INTER + INTRA:          -4.484
REMARK INTER:                  -4.267
REMARK INTRA:                  -0.217
REMARK UNBOUND:                -0.008
REMARK SMILES [NH3+][C@H](CO)C(=O)[O-]
REMARK SMILES IDX 3 1 2 2 1 3 5 7 6 8 7 9 4 10
REMARK H PARENT 1 4 1 5 1 6 4 11
REMARK Flexibility Score: inf
ROOT
ATOM      1  C   UNL     1     160.890 150.848 231.262  1.00  0.00     0.227 C 
ENDROOT
BRANCH   1   2
ATOM      2  C   UNL     1     161.766 151.795 230.422  1.00  0.00     0.253 C 
BRANCH   2   3
ATOM      3  N   UNL     1     162.319 151.115 229.244  1.00  0.00    -0.348 N 
ATOM      4  H   UNL     1     163.074 150.456 229.542  1.00  0.00     0.345 HD
ATOM      5  H   UNL     1     162.718 151.803 228.563  1.00  0.00     0.345 HD
ATOM      6  H   UNL     1     161.569 150.561 228.770  1.00  0.00     0.345 HD
ENDBRANCH   2   3
BRANCH   2   7
ATOM      7  C   UNL     1     160.995 153.026 230.022  1.00  0.00     0.102 C 
ATOM      8  O   UNL     1     159.779 152.946 229.700  1.00  0.00    -0.544 OA
ATOM      9  O   UNL     1     161.615 154.269 230.045  1.00  0.00    -0.544 OA
ENDBRANCH   2   7
ENDBRANCH   1   2
BRANCH   1  10
ATOM     10  O   UNL     1     160.106 150.017 230.446  1.00  0.00    -0.390 OA
ATOM     11  H   UNL     1     159.569 150.611 229.859  1.00  0.00     0.210 HD
ENDBRANCH   1  10
TORSDOF 4
ENDMDL
MODEL 6
REMARK VINA RESULT:    -3.765      1.590      2.758
REMARK INTER + INTRA:          -4.433
REMARK INTER:                  -4.043
REMARK INTRA:                  -0.390
REMARK UNBOUND:                -0.008
REMARK SMILES [NH3+][C@H](CO)C(=O)[O-]
REMARK SMILES IDX 3 1 2 2 1 3 5 7 6 8 7 9 4 10
REMARK H PARENT 1 4 1 5 1 6 4 11
REMARK Flexibility Score: inf
ROOT
ATOM      1  C   UNL     1     159.765 151.855 229.269  1.00  0.00     0.227 C 
ENDROOT
BRANCH   1   2
ATOM      2  C   UNL     1     161.117 151.707 229.990  1.00  0.00     0.253 C 
BRANCH   2   3
ATOM      3  N   UNL     1     162.165 151.231 229.078  1.00  0.00    -0.348 N 
ATOM      4  H   UNL     1     162.984 151.881 229.115  1.00  0.00     0.345 HD
ATOM      5  H   UNL     1     161.815 151.182 228.093  1.00  0.00     0.345 HD
ATOM      6  H   UNL     1     162.487 150.281 229.374  1.00  0.00     0.345 HD
ENDBRANCH   2   3
BRANCH   2   7
ATOM      7  C   UNL     1     161.520 153.002 230.646  1.00  0.00     0.102 C 
ATOM      8  O   UNL     1     162.213 153.850 230.022  1.00  0.00    -0.544 OA
ATOM      9  O   UNL     1     161.092 153.286 231.937  1.00  0.00    -0.544 OA
ENDBRANCH   2   7
ENDBRANCH   1   2
BRANCH   1  10
ATOM     10  O   UNL     1     159.268 153.164 229.376  1.00  0.00    -0.390 OA
ATOM     11  H   UNL     1     159.416 153.603 228.499  1.00  0.00     0.210 HD
ENDBRANCH   1  10
TORSDOF 4
ENDMDL
MODEL 7
REMARK VINA RESULT:    -3.720      2.087      2.351
REMARK INTER + INTRA:          -4.380
REMARK INTER:                  -3.993
REMARK INTRA:                  -0.388
REMARK UNBOUND:                -0.008
REMARK SMILES [NH3+][C@H](CO)C(=O)[O-]
REMARK SMILES IDX 3 1 2 2 1 3 5 7 6 8 7 9 4 10
REMARK H PARENT 1 4 1 5 1 6 4 11
REMARK Flexibility Score: inf
ROOT
ATOM      1  C   UNL     1     161.192 151.513 229.234  1.00  0.00     0.227 C 
ENDROOT
BRANCH   1   2
ATOM      2  C   UNL     1     160.117 151.600 230.333  1.00  0.00     0.253 C 
BRANCH   2   3
ATOM      3  N   UNL     1     159.043 150.624 230.114  1.00  0.00    -0.348 N 
ATOM      4  H   UNL     1     159.218 150.103 229.224  1.00  0.00     0.345 HD
ATOM      5  H   UNL     1     158.111 151.096 230.051  1.00  0.00     0.345 HD
ATOM      6  H   UNL     1     159.024 149.934 230.900  1.00  0.00     0.345 HD
ENDBRANCH   2   3
BRANCH   2   7
ATOM      7  C   UNL     1     160.730 151.429 231.699  1.00  0.00     0.102 C 
ATOM      8  O   UNL     1     160.802 150.290 232.233  1.00  0.00    -0.544 OA
ATOM      9  O   UNL     1     161.259 152.530 232.362  1.00  0.00    -0.544 OA
ENDBRANCH   2   7
ENDBRANCH   1   2
BRANCH   1  10
ATOM     10  O   UNL     1     162.447 151.180 229.771  1.00  0.00    -0.390 OA
ATOM     11  H   UNL     1     162.798 150.420 229.238  1.00  0.00     0.210 HD
ENDBRANCH   1  10
TORSDOF 4
ENDMDL
MODEL 8
REMARK VINA RESULT:    -3.707     15.145     15.602
REMARK INTER + INTRA:          -4.364
REMARK INTER:                  -4.001
REMARK INTRA:                  -0.363
REMARK UNBOUND:                -0.008
REMARK SMILES [NH3+][C@H](CO)C(=O)[O-]
REMARK SMILES IDX 3 1 2 2 1 3 5 7 6 8 7 9 4 10
REMARK H PARENT 1 4 1 5 1 6 4 11
REMARK Flexibility Score: inf
ROOT
ATOM      1  C   UNL     1     155.927 165.801 230.109  1.00  0.00     0.227 C 
ENDROOT
BRANCH   1   2
ATOM      2  C   UNL     1     157.369 165.701 230.640  1.00  0.00     0.253 C 
BRANCH   2   3
ATOM      3  N   UNL     1     158.202 164.850 229.780  1.00  0.00    -0.348 N 
ATOM      4  H   UNL     1     159.119 164.670 230.248  1.00  0.00     0.345 HD
ATOM      5  H   UNL     1     158.377 165.305 228.854  1.00  0.00     0.345 HD
ATOM      6  H   UNL     1     157.727 163.931 229.625  1.00  0.00     0.345 HD
ENDBRANCH   2   3
BRANCH   2   7
ATOM      7  C   UNL     1     157.979 167.069 230.799  1.00  0.00     0.102 C 
ATOM      8  O   UNL     1     158.812 167.502 229.958  1.00  0.00    -0.544 OA
ATOM      9  O   UNL     1     157.592 167.880 231.859  1.00  0.00    -0.544 OA
ENDBRANCH   2   7
ENDBRANCH   1   2
BRANCH   1  10
ATOM     10  O   UNL     1     155.678 167.060 229.539  1.00  0.00    -0.390 OA
ATOM     11  H   UNL     1     155.628 167.711 230.286  1.00  0.00     0.210 HD
ENDBRANCH   1  10
TORSDOF 4
ENDMDL
MODEL 9
REMARK VINA RESULT:    -3.619      2.232      2.893
REMARK INTER + INTRA:          -4.261
REMARK INTER:                  -4.075
REMARK INTRA:                  -0.186
REMARK UNBOUND:                -0.008
REMARK SMILES [NH3+][C@H](CO)C(=O)[O-]
REMARK SMILES IDX 3 1 2 2 1 3 5 7 6 8 7 9 4 10
REMARK H PARENT 1 4 1 5 1 6 4 11
REMARK Flexibility Score: inf
ROOT
ATOM      1  C   UNL     1     161.613 151.199 230.403  1.00  0.00     0.227 C 
ENDROOT
BRANCH   1   2
ATOM      2  C   UNL     1     160.403 151.789 229.656  1.00  0.00     0.253 C 
BRANCH   2   3
ATOM      3  N   UNL     1     159.172 151.047 229.954  1.00  0.00    -0.348 N 
ATOM      4  H   UNL     1     159.345 150.021 229.843  1.00  0.00     0.345 HD
ATOM      5  H   UNL     1     158.395 151.331 229.313  1.00  0.00     0.345 HD
ATOM      6  H   UNL     1     158.881 151.224 230.943  1.00  0.00     0.345 HD
ENDBRANCH   2   3
BRANCH   2   7
ATOM      7  C   UNL     1     160.240 153.254 229.970  1.00  0.00     0.102 C 
ATOM      8  O   UNL     1     161.247 154.005 230.068  1.00  0.00    -0.544 OA
ATOM      9  O   UNL     1     158.968 153.792 230.115  1.00  0.00    -0.544 OA
ENDBRANCH   2   7
ENDBRANCH   1   2
BRANCH   1  10
ATOM     10  O   UNL     1     162.784 151.287 229.632  1.00  0.00    -0.390 OA
ATOM     11  H   UNL     1     163.327 152.025 230.013  1.00  0.00     0.210 HD
ENDBRANCH   1  10
TORSDOF 4
ENDMDL
