MODEL 1
REMARK VINA RESULT:    -7.174      0.000      0.000
REMARK INTER + INTRA:         -12.880
REMARK INTER:                 -10.739
REMARK INTRA:                  -2.142
REMARK UNBOUND:                -2.142
REMARK SMILES O=c1c(O[C@H]2O[C@@H](CO)[C@@H](O)[C@@H](O)[C@@H]2O)c(-c2cc(O)c(O)c(O)c2)oc2cc(O)cc(O)c12
REMARK SMILES IDX 4 1 3 2 16 3 26 4 2 5 27 6 1 7 34 8 28 9 32 10 29 11 31 12
REMARK SMILES IDX 17 13 18 14 19 15 25 16 21 17 23 18 20 19 22 21 24 23 33 25
REMARK SMILES IDX 30 27 5 29 14 30 6 31 12 32 7 33 10 34 15 35 13 37 8 39 9 40
REMARK SMILES IDX 11 42
REMARK H PARENT 20 20 22 22 24 24 33 26 30 28 15 36 13 38 9 41 11 43
REMARK Flexibility Score: inf
ROOT
ATOM      1  O   UNL     1       0.246 -22.914  25.886  1.00  0.00    -0.454 OA
ENDROOT
BRANCH   1   2
ATOM      2  C   UNL     1       0.592 -22.775  27.245  1.00  0.00     0.214 A 
ATOM      3  C   UNL     1      -0.205 -22.073  28.196  1.00  0.00     0.181 A 
ATOM      4  O   UNL     1      -1.027 -22.805  28.943  1.00  0.00    -0.452 OA
ATOM      5  C   UNL     1       1.223 -23.872  27.856  1.00  0.00     0.239 A 
ATOM      6  C   UNL     1      -0.755 -24.068  29.217  1.00  0.00     0.146 A 
ATOM      7  O   UNL     1       2.267 -24.377  27.331  1.00  0.00    -0.285 OA
ATOM      8  C   UNL     1       0.501 -24.598  28.843  1.00  0.00     0.111 A 
ATOM      9  C   UNL     1      -1.675 -24.855  29.939  1.00  0.00     0.094 A 
ATOM     10  C   UNL     1       0.949 -25.762  29.480  1.00  0.00     0.134 A 
ATOM     11  C   UNL     1      -1.269 -26.099  30.407  1.00  0.00     0.123 A 
ATOM     12  C   UNL     1       0.054 -26.537  30.243  1.00  0.00     0.093 A 
BRANCH   3  13
ATOM     13  C   UNL     1      -0.000 -20.633  28.618  1.00  0.00     0.029 A 
ATOM     14  C   UNL     1       0.131 -19.725  27.571  1.00  0.00     0.062 A 
ATOM     15  C   UNL     1      -1.192 -19.320  27.173  1.00  0.00     0.162 A 
ATOM     16  C   UNL     1      -0.825 -20.175  29.719  1.00  0.00     0.062 A 
ATOM     17  C   UNL     1      -1.910 -18.650  28.154  1.00  0.00     0.200 A 
ATOM     18  C   UNL     1      -1.838 -19.222  29.450  1.00  0.00     0.162 A 
BRANCH  15  19
ATOM     19  O   UNL     1      -2.056 -20.199  26.495  1.00  0.00    -0.504 OA
ATOM     20  H   UNL     1      -2.693 -20.838  26.976  1.00  0.00     0.293 HD
ENDBRANCH  15  19
BRANCH  17  21
ATOM     21  O   UNL     1      -2.901 -17.744  27.803  1.00  0.00    -0.502 OA
ATOM     22  H   UNL     1      -2.644 -16.830  27.430  1.00  0.00     0.293 HD
ENDBRANCH  17  21
BRANCH  18  23
ATOM     23  O   UNL     1      -2.907 -19.016  30.344  1.00  0.00    -0.504 OA
ATOM     24  H   UNL     1      -3.155 -19.780  30.996  1.00  0.00     0.293 HD
ENDBRANCH  18  23
ENDBRANCH   3  13
BRANCH  10  25
ATOM     25  O   UNL     1       2.299 -26.113  29.457  1.00  0.00    -0.507 OA
ATOM     26  H   UNL     1       2.712 -26.689  30.164  1.00  0.00     0.293 HD
ENDBRANCH  10  25
BRANCH  11  27
ATOM     27  O   UNL     1      -2.203 -26.977  31.013  1.00  0.00    -0.508 OA
ATOM     28  H   UNL     1      -1.929 -27.524  31.867  1.00  0.00     0.293 HD
ENDBRANCH  11  27
ENDBRANCH   1   2
BRANCH   1  29
ATOM     29  C   UNL     1       0.783 -22.240  24.710  1.00  0.00     0.339 C 
ATOM     30  C   UNL     1       2.326 -22.194  24.590  1.00  0.00     0.214 C 
ATOM     31  O   UNL     1       0.361 -20.877  24.718  1.00  0.00    -0.332 OA
ATOM     32  C   UNL     1       2.720 -21.579  23.182  1.00  0.00     0.180 C 
ATOM     33  C   UNL     1       0.381 -20.353  23.400  1.00  0.00     0.179 C 
ATOM     34  C   UNL     1       1.875 -20.256  22.875  1.00  0.00     0.177 C 
BRANCH  30  35
ATOM     35  O   UNL     1       2.915 -23.478  24.797  1.00  0.00    -0.384 OA
ATOM     36  H   UNL     1       3.194 -23.512  25.762  1.00  0.00     0.211 HD
ENDBRANCH  30  35
BRANCH  32  37
ATOM     37  O   UNL     1       4.123 -21.378  22.975  1.00  0.00    -0.387 OA
ATOM     38  H   UNL     1       4.259 -21.429  21.990  1.00  0.00     0.211 HD
ENDBRANCH  32  37
BRANCH  33  39
ATOM     39  C   UNL     1      -0.555 -19.137  23.394  1.00  0.00     0.191 C 
BRANCH  39  40
ATOM     40  O   UNL     1       0.117 -18.016  23.969  1.00  0.00    -0.394 OA
ATOM     41  H   UNL     1      -0.523 -17.266  24.152  1.00  0.00     0.210 HD
ENDBRANCH  39  40
ENDBRANCH  33  39
BRANCH  34  42
ATOM     42  O   UNL     1       2.595 -19.082  23.228  1.00  0.00    -0.387 OA
ATOM     43  H   UNL     1       2.861 -18.530  22.446  1.00  0.00     0.211 HD
ENDBRANCH  34  42
ENDBRANCH   1  29
TORSDOF 13
ENDMDL
MODEL 2
REMARK VINA RESULT:    -7.171      2.796      6.105
REMARK INTER + INTRA:         -12.876
REMARK INTER:                 -10.800
REMARK INTRA:                  -2.076
REMARK UNBOUND:                -2.142
REMARK SMILES O=c1c(O[C@H]2O[C@@H](CO)[C@@H](O)[C@@H](O)[C@@H]2O)c(-c2cc(O)c(O)c(O)c2)oc2cc(O)cc(O)c12
REMARK SMILES IDX 4 1 3 2 16 3 26 4 2 5 27 6 1 7 34 8 28 9 32 10 29 11 31 12
REMARK SMILES IDX 17 13 18 14 19 15 25 16 21 17 23 18 20 19 22 21 24 23 33 25
REMARK SMILES IDX 30 27 5 29 14 30 6 31 12 32 7 33 10 34 15 35 13 37 8 39 9 40
REMARK SMILES IDX 11 42
REMARK H PARENT 20 20 22 22 24 24 33 26 30 28 15 36 13 38 9 41 11 43
REMARK Flexibility Score: inf
ROOT
ATOM      1  O   UNL     1      -0.918 -17.955  25.921  1.00  0.00    -0.454 OA
ENDROOT
BRANCH   1   2
ATOM      2  C   UNL     1       0.128 -18.767  26.399  1.00  0.00     0.214 A 
ATOM      3  C   UNL     1      -0.075 -19.924  27.205  1.00  0.00     0.181 A 
ATOM      4  O   UNL     1      -0.095 -21.096  26.576  1.00  0.00    -0.452 OA
ATOM      5  C   UNL     1       1.227 -18.959  25.543  1.00  0.00     0.239 A 
ATOM      6  C   UNL     1       0.563 -21.272  25.444  1.00  0.00     0.146 A 
ATOM      7  O   UNL     1       1.830 -17.952  25.050  1.00  0.00    -0.285 OA
ATOM      8  C   UNL     1       1.425 -20.251  24.984  1.00  0.00     0.111 A 
ATOM      9  C   UNL     1       0.463 -22.492  24.746  1.00  0.00     0.094 A 
ATOM     10  C   UNL     1       2.412 -20.585  24.049  1.00  0.00     0.134 A 
ATOM     11  C   UNL     1       1.336 -22.732  23.690  1.00  0.00     0.123 A 
ATOM     12  C   UNL     1       2.354 -21.820  23.374  1.00  0.00     0.093 A 
BRANCH   3  13
ATOM     13  C   UNL     1       0.011 -19.964  28.717  1.00  0.00     0.029 A 
ATOM     14  C   UNL     1      -0.374 -18.791  29.361  1.00  0.00     0.062 A 
ATOM     15  C   UNL     1      -1.802 -18.834  29.535  1.00  0.00     0.162 A 
ATOM     16  C   UNL     1      -0.463 -21.183  29.344  1.00  0.00     0.062 A 
ATOM     17  C   UNL     1      -2.253 -19.864  30.349  1.00  0.00     0.200 A 
ATOM     18  C   UNL     1      -1.654 -21.127  30.109  1.00  0.00     0.162 A 
BRANCH  15  19
ATOM     19  O   UNL     1      -2.680 -18.695  28.445  1.00  0.00    -0.504 OA
ATOM     20  H   UNL     1      -3.402 -19.382  28.218  1.00  0.00     0.293 HD
ENDBRANCH  15  19
BRANCH  17  21
ATOM     21  O   UNL     1      -3.444 -19.735  31.050  1.00  0.00    -0.502 OA
ATOM     22  H   UNL     1      -4.106 -19.002  30.795  1.00  0.00     0.293 HD
ENDBRANCH  17  21
BRANCH  18  23
ATOM     23  O   UNL     1      -2.381 -22.293  30.420  1.00  0.00    -0.504 OA
ATOM     24  H   UNL     1      -2.171 -23.157  29.892  1.00  0.00     0.293 HD
ENDBRANCH  18  23
ENDBRANCH   3  13
BRANCH  10  25
ATOM     25  O   UNL     1       3.517 -19.756  23.851  1.00  0.00    -0.507 OA
ATOM     26  H   UNL     1       3.596 -19.157  23.053  1.00  0.00     0.293 HD
ENDBRANCH  10  25
BRANCH  11  27
ATOM     27  O   UNL     1       1.177 -23.880  22.875  1.00  0.00    -0.508 OA
ATOM     28  H   UNL     1       0.779 -23.785  21.908  1.00  0.00     0.293 HD
ENDBRANCH  11  27
ENDBRANCH   1   2
BRANCH   1  29
ATOM     29  C   UNL     1      -1.132 -16.520  26.069  1.00  0.00     0.339 C 
ATOM     30  C   UNL     1      -0.163 -15.597  25.291  1.00  0.00     0.214 C 
ATOM     31  O   UNL     1      -0.977 -16.164  27.443  1.00  0.00    -0.332 OA
ATOM     32  C   UNL     1      -0.646 -14.093  25.437  1.00  0.00     0.180 C 
ATOM     33  C   UNL     1      -1.680 -14.963  27.717  1.00  0.00     0.179 C 
ATOM     34  C   UNL     1      -0.998 -13.747  26.958  1.00  0.00     0.177 C 
BRANCH  30  35
ATOM     35  O   UNL     1      -0.037 -15.988  23.924  1.00  0.00    -0.384 OA
ATOM     36  H   UNL     1       0.482 -15.260  23.465  1.00  0.00     0.211 HD
ENDBRANCH  30  35
BRANCH  32  37
ATOM     37  O   UNL     1       0.220 -13.114  24.853  1.00  0.00    -0.387 OA
ATOM     38  H   UNL     1      -0.380 -12.465  24.393  1.00  0.00     0.211 HD
ENDBRANCH  32  37
BRANCH  33  39
ATOM     39  C   UNL     1      -1.926 -14.931  29.231  1.00  0.00     0.191 C 
BRANCH  39  40
ATOM     40  O   UNL     1      -3.098 -15.686  29.540  1.00  0.00    -0.394 OA
ATOM     41  H   UNL     1      -2.948 -16.274  30.339  1.00  0.00     0.210 HD
ENDBRANCH  39  40
ENDBRANCH  33  39
BRANCH  34  42
ATOM     42  O   UNL     1       0.093 -13.121  27.619  1.00  0.00    -0.387 OA
ATOM     43  H   UNL     1       0.922 -13.668  27.623  1.00  0.00     0.211 HD
ENDBRANCH  34  42
ENDBRANCH   1  29
TORSDOF 13
ENDMDL
MODEL 3
REMARK VINA RESULT:    -7.126      2.115      3.475
REMARK INTER + INTRA:         -12.809
REMARK INTER:                 -11.454
REMARK INTRA:                  -1.355
REMARK UNBOUND:                -2.142
REMARK SMILES O=c1c(O[C@H]2O[C@@H](CO)[C@@H](O)[C@@H](O)[C@@H]2O)c(-c2cc(O)c(O)c(O)c2)oc2cc(O)cc(O)c12
REMARK SMILES IDX 4 1 3 2 16 3 26 4 2 5 27 6 1 7 34 8 28 9 32 10 29 11 31 12
REMARK SMILES IDX 17 13 18 14 19 15 25 16 21 17 23 18 20 19 22 21 24 23 33 25
REMARK SMILES IDX 30 27 5 29 14 30 6 31 12 32 7 33 10 34 15 35 13 37 8 39 9 40
REMARK SMILES IDX 11 42
REMARK H PARENT 20 20 22 22 24 24 33 26 30 28 15 36 13 38 9 41 11 43
REMARK Flexibility Score: inf
ROOT
ATOM      1  O   UNL     1       1.699 -22.330  28.144  1.00  0.00    -0.454 OA
ENDROOT
BRANCH   1   2
ATOM      2  C   UNL     1       1.231 -23.052  29.259  1.00  0.00     0.214 A 
ATOM      3  C   UNL     1       0.151 -23.980  29.204  1.00  0.00     0.181 A 
ATOM      4  O   UNL     1       0.472 -25.264  29.072  1.00  0.00    -0.452 OA
ATOM      5  C   UNL     1       2.195 -23.483  30.188  1.00  0.00     0.239 A 
ATOM      6  C   UNL     1       1.626 -25.726  29.517  1.00  0.00     0.146 A 
ATOM      7  O   UNL     1       3.009 -22.646  30.693  1.00  0.00    -0.285 OA
ATOM      8  C   UNL     1       2.458 -24.878  30.283  1.00  0.00     0.111 A 
ATOM      9  C   UNL     1       1.988 -27.070  29.295  1.00  0.00     0.094 A 
ATOM     10  C   UNL     1       3.444 -25.462  31.088  1.00  0.00     0.134 A 
ATOM     11  C   UNL     1       3.092 -27.586  29.965  1.00  0.00     0.123 A 
ATOM     12  C   UNL     1       3.787 -26.817  30.910  1.00  0.00     0.093 A 
BRANCH   3  13
ATOM     13  C   UNL     1      -1.289 -23.670  29.559  1.00  0.00     0.029 A 
ATOM     14  C   UNL     1      -1.645 -23.953  30.875  1.00  0.00     0.062 A 
ATOM     15  C   UNL     1      -1.302 -22.808  31.678  1.00  0.00     0.162 A 
ATOM     16  C   UNL     1      -1.811 -22.419  29.044  1.00  0.00     0.062 A 
ATOM     17  C   UNL     1      -1.989 -21.647  31.351  1.00  0.00     0.200 A 
ATOM     18  C   UNL     1      -2.092 -21.378  29.963  1.00  0.00     0.162 A 
BRANCH  15  19
ATOM     19  O   UNL     1       0.038 -22.483  31.958  1.00  0.00    -0.504 OA
ATOM     20  H   UNL     1       0.556 -22.878  32.746  1.00  0.00     0.293 HD
ENDBRANCH  15  19
BRANCH  17  21
ATOM     21  O   UNL     1      -2.205 -20.666  32.309  1.00  0.00    -0.502 OA
ATOM     22  H   UNL     1      -2.154 -19.682  32.047  1.00  0.00     0.293 HD
ENDBRANCH  17  21
BRANCH  18  23
ATOM     23  O   UNL     1      -2.225 -20.042  29.538  1.00  0.00    -0.504 OA
ATOM     24  H   UNL     1      -1.492 -19.364  29.811  1.00  0.00     0.293 HD
ENDBRANCH  18  23
ENDBRANCH   3  13
BRANCH  10  25
ATOM     25  O   UNL     1       4.022 -24.748  32.139  1.00  0.00    -0.507 OA
ATOM     26  H   UNL     1       3.606 -23.916  32.508  1.00  0.00     0.293 HD
ENDBRANCH  10  25
BRANCH  11  27
ATOM     27  O   UNL     1       3.571 -28.884  29.664  1.00  0.00    -0.508 OA
ATOM     28  H   UNL     1       4.273 -29.018  28.893  1.00  0.00     0.293 HD
ENDBRANCH  11  27
ENDBRANCH   1   2
BRANCH   1  29
ATOM     29  C   UNL     1       1.179 -22.270  26.783  1.00  0.00     0.339 C 
ATOM     30  C   UNL     1       2.208 -22.469  25.645  1.00  0.00     0.214 C 
ATOM     31  O   UNL     1       0.605 -20.982  26.558  1.00  0.00    -0.332 OA
ATOM     32  C   UNL     1       1.444 -22.539  24.257  1.00  0.00     0.180 C 
ATOM     33  C   UNL     1      -0.353 -21.052  25.515  1.00  0.00     0.179 C 
ATOM     34  C   UNL     1       0.365 -21.364  24.135  1.00  0.00     0.177 C 
BRANCH  30  35
ATOM     35  O   UNL     1       3.028 -23.618  25.863  1.00  0.00    -0.384 OA
ATOM     36  H   UNL     1       2.408 -24.366  26.117  1.00  0.00     0.211 HD
ENDBRANCH  30  35
BRANCH  32  37
ATOM     37  O   UNL     1       2.284 -22.616  23.100  1.00  0.00    -0.387 OA
ATOM     38  H   UNL     1       2.657 -21.700  22.978  1.00  0.00     0.211 HD
ENDBRANCH  32  37
BRANCH  33  39
ATOM     39  C   UNL     1      -1.278 -19.839  25.684  1.00  0.00     0.191 C 
BRANCH  39  40
ATOM     40  O   UNL     1      -2.441 -20.225  26.418  1.00  0.00    -0.394 OA
ATOM     41  H   UNL     1      -2.191 -20.682  27.275  1.00  0.00     0.210 HD
ENDBRANCH  39  40
ENDBRANCH  33  39
BRANCH  34  42
ATOM     42  O   UNL     1       0.884 -20.248  23.424  1.00  0.00    -0.387 OA
ATOM     43  H   UNL     1       0.313 -19.438  23.484  1.00  0.00     0.211 HD
ENDBRANCH  34  42
ENDBRANCH   1  29
TORSDOF 13
ENDMDL
MODEL 4
REMARK VINA RESULT:    -7.066      2.772      5.889
REMARK INTER + INTRA:         -12.719
REMARK INTER:                 -10.520
REMARK INTRA:                  -2.199
REMARK UNBOUND:                -2.142
REMARK SMILES O=c1c(O[C@H]2O[C@@H](CO)[C@@H](O)[C@@H](O)[C@@H]2O)c(-c2cc(O)c(O)c(O)c2)oc2cc(O)cc(O)c12
REMARK SMILES IDX 4 1 3 2 16 3 26 4 2 5 27 6 1 7 34 8 28 9 32 10 29 11 31 12
REMARK SMILES IDX 17 13 18 14 19 15 25 16 21 17 23 18 20 19 22 21 24 23 33 25
REMARK SMILES IDX 30 27 5 29 14 30 6 31 12 32 7 33 10 34 15 35 13 37 8 39 9 40
REMARK SMILES IDX 11 42
REMARK H PARENT 20 20 22 22 24 24 33 26 30 28 15 36 13 38 9 41 11 43
REMARK Flexibility Score: inf
ROOT
ATOM      1  O   UNL     1       0.084 -17.402  28.398  1.00  0.00    -0.454 OA
ENDROOT
BRANCH   1   2
ATOM      2  C   UNL     1       0.049 -18.748  27.984  1.00  0.00     0.214 A 
ATOM      3  C   UNL     1       1.212 -19.503  27.654  1.00  0.00     0.181 A 
ATOM      4  O   UNL     1       1.714 -20.278  28.612  1.00  0.00    -0.452 OA
ATOM      5  C   UNL     1      -0.912 -19.576  28.590  1.00  0.00     0.239 A 
ATOM      6  C   UNL     1       0.941 -20.767  29.565  1.00  0.00     0.146 A 
ATOM      7  O   UNL     1      -2.137 -19.232  28.590  1.00  0.00    -0.285 OA
ATOM      8  C   UNL     1      -0.458 -20.595  29.473  1.00  0.00     0.111 A 
ATOM      9  C   UNL     1       1.500 -21.517  30.620  1.00  0.00     0.094 A 
ATOM     10  C   UNL     1      -1.285 -21.442  30.222  1.00  0.00     0.134 A 
ATOM     11  C   UNL     1       0.649 -22.207  31.475  1.00  0.00     0.123 A 
ATOM     12  C   UNL     1      -0.736 -22.233  31.250  1.00  0.00     0.093 A 
BRANCH   3  13
ATOM     13  C   UNL     1       1.753 -19.714  26.255  1.00  0.00     0.029 A 
ATOM     14  C   UNL     1       2.392 -20.933  26.048  1.00  0.00     0.062 A 
ATOM     15  C   UNL     1       1.387 -21.903  25.703  1.00  0.00     0.162 A 
ATOM     16  C   UNL     1       0.884 -19.293  25.173  1.00  0.00     0.062 A 
ATOM     17  C   UNL     1       0.709 -21.638  24.521  1.00  0.00     0.200 A 
ATOM     18  C   UNL     1       0.306 -20.290  24.348  1.00  0.00     0.162 A 
BRANCH  15  19
ATOM     19  O   UNL     1       0.470 -22.381  26.657  1.00  0.00    -0.504 OA
ATOM     20  H   UNL     1      -0.369 -22.912  26.410  1.00  0.00     0.293 HD
ENDBRANCH  15  19
BRANCH  17  21
ATOM     21  O   UNL     1       0.155 -22.673  23.782  1.00  0.00    -0.502 OA
ATOM     22  H   UNL     1      -0.655 -23.177  24.143  1.00  0.00     0.293 HD
ENDBRANCH  17  21
BRANCH  18  23
ATOM     23  O   UNL     1      -0.820 -20.015  23.547  1.00  0.00    -0.504 OA
ATOM     24  H   UNL     1      -1.143 -20.744  22.888  1.00  0.00     0.293 HD
ENDBRANCH  18  23
ENDBRANCH   3  13
BRANCH  10  25
ATOM     25  O   UNL     1      -2.632 -21.595  29.895  1.00  0.00    -0.507 OA
ATOM     26  H   UNL     1      -3.340 -20.985  30.255  1.00  0.00     0.293 HD
ENDBRANCH  10  25
BRANCH  11  27
ATOM     27  O   UNL     1       1.160 -22.855  32.627  1.00  0.00    -0.508 OA
ATOM     28  H   UNL     1       1.779 -23.698  32.523  1.00  0.00     0.293 HD
ENDBRANCH  11  27
ENDBRANCH   1   2
BRANCH   1  29
ATOM     29  C   UNL     1      -0.417 -16.205  27.732  1.00  0.00     0.339 C 
ATOM     30  C   UNL     1      -1.945 -16.136  27.499  1.00  0.00     0.214 C 
ATOM     31  O   UNL     1       0.171 -16.112  26.435  1.00  0.00    -0.332 OA
ATOM     32  C   UNL     1      -2.321 -14.707  26.922  1.00  0.00     0.180 C 
ATOM     33  C   UNL     1       0.160 -14.765  25.990  1.00  0.00     0.179 C 
ATOM     34  C   UNL     1      -1.333 -14.288  25.736  1.00  0.00     0.177 C 
BRANCH  30  35
ATOM     35  O   UNL     1      -2.679 -16.445  28.685  1.00  0.00    -0.384 OA
ATOM     36  H   UNL     1      -2.432 -17.385  28.936  1.00  0.00     0.211 HD
ENDBRANCH  30  35
BRANCH  32  37
ATOM     37  O   UNL     1      -3.695 -14.537  26.558  1.00  0.00    -0.387 OA
ATOM     38  H   UNL     1      -3.944 -13.625  26.870  1.00  0.00     0.211 HD
ENDBRANCH  32  37
BRANCH  33  39
ATOM     39  C   UNL     1       1.237 -14.649  24.904  1.00  0.00     0.191 C 
BRANCH  39  40
ATOM     40  O   UNL     1       0.764 -15.249  23.698  1.00  0.00    -0.394 OA
ATOM     41  H   UNL     1       0.563 -14.554  23.003  1.00  0.00     0.210 HD
ENDBRANCH  39  40
ENDBRANCH  33  39
BRANCH  34  42
ATOM     42  O   UNL     1      -1.886 -14.590  24.463  1.00  0.00    -0.387 OA
ATOM     43  H   UNL     1      -2.263 -13.799  23.995  1.00  0.00     0.211 HD
ENDBRANCH  34  42
ENDBRANCH   1  29
TORSDOF 13
ENDMDL
MODEL 5
REMARK VINA RESULT:    -6.892      2.579      6.499
REMARK INTER + INTRA:         -12.459
REMARK INTER:                 -10.279
REMARK INTRA:                  -2.180
REMARK UNBOUND:                -2.142
REMARK SMILES O=c1c(O[C@H]2O[C@@H](CO)[C@@H](O)[C@@H](O)[C@@H]2O)c(-c2cc(O)c(O)c(O)c2)oc2cc(O)cc(O)c12
REMARK SMILES IDX 4 1 3 2 16 3 26 4 2 5 27 6 1 7 34 8 28 9 32 10 29 11 31 12
REMARK SMILES IDX 17 13 18 14 19 15 25 16 21 17 23 18 20 19 22 21 24 23 33 25
REMARK SMILES IDX 30 27 5 29 14 30 6 31 12 32 7 33 10 34 15 35 13 37 8 39 9 40
REMARK SMILES IDX 11 42
REMARK H PARENT 20 20 22 22 24 24 33 26 30 28 15 36 13 38 9 41 11 43
REMARK Flexibility Score: inf
ROOT
ATOM      1  O   UNL     1       2.631 -21.509  27.624  1.00  0.00    -0.454 OA
ENDROOT
BRANCH   1   2
ATOM      2  C   UNL     1       1.358 -20.929  27.783  1.00  0.00     0.214 A 
ATOM      3  C   UNL     1       1.102 -19.798  28.611  1.00  0.00     0.181 A 
ATOM      4  O   UNL     1       1.072 -18.612  28.010  1.00  0.00    -0.452 OA
ATOM      5  C   UNL     1       0.526 -20.899  26.650  1.00  0.00     0.239 A 
ATOM      6  C   UNL     1       0.735 -18.501  26.738  1.00  0.00     0.146 A 
ATOM      7  O   UNL     1       0.289 -21.973  26.008  1.00  0.00    -0.285 OA
ATOM      8  C   UNL     1       0.248 -19.638  26.054  1.00  0.00     0.111 A 
ATOM      9  C   UNL     1       0.790 -17.249  26.093  1.00  0.00     0.094 A 
ATOM     10  C   UNL     1      -0.484 -19.444  24.876  1.00  0.00     0.134 A 
ATOM     11  C   UNL     1       0.218 -17.120  24.833  1.00  0.00     0.123 A 
ATOM     12  C   UNL     1      -0.478 -18.186  24.242  1.00  0.00     0.093 A 
BRANCH   3  13
ATOM     13  C   UNL     1       0.592 -19.853  30.036  1.00  0.00     0.029 A 
ATOM     14  C   UNL     1      -0.163 -18.752  30.434  1.00  0.00     0.062 A 
ATOM     15  C   UNL     1      -1.526 -18.989  30.038  1.00  0.00     0.162 A 
ATOM     16  C   UNL     1       0.072 -21.134  30.472  1.00  0.00     0.062 A 
ATOM     17  C   UNL     1      -2.123 -20.084  30.648  1.00  0.00     0.200 A 
ATOM     18  C   UNL     1      -1.320 -21.251  30.707  1.00  0.00     0.162 A 
BRANCH  15  19
ATOM     19  O   UNL     1      -1.916 -18.950  28.687  1.00  0.00    -0.504 OA
ATOM     20  H   UNL     1      -1.262 -19.090  27.913  1.00  0.00     0.293 HD
ENDBRANCH  15  19
BRANCH  17  21
ATOM     21  O   UNL     1      -3.499 -20.127  30.822  1.00  0.00    -0.502 OA
ATOM     22  H   UNL     1      -4.011 -20.984  30.611  1.00  0.00     0.293 HD
ENDBRANCH  17  21
BRANCH  18  23
ATOM     23  O   UNL     1      -1.952 -22.510  30.752  1.00  0.00    -0.504 OA
ATOM     24  H   UNL     1      -2.483 -22.822  29.920  1.00  0.00     0.293 HD
ENDBRANCH  18  23
ENDBRANCH   3  13
BRANCH  10  25
ATOM     25  O   UNL     1      -1.309 -20.451  24.375  1.00  0.00    -0.507 OA
ATOM     26  H   UNL     1      -1.049 -21.417  24.407  1.00  0.00     0.293 HD
ENDBRANCH  10  25
BRANCH  11  27
ATOM     27  O   UNL     1       0.374 -15.921  24.093  1.00  0.00    -0.508 OA
ATOM     28  H   UNL     1      -0.367 -15.178  24.137  1.00  0.00     0.293 HD
ENDBRANCH  11  27
ENDBRANCH   1   2
BRANCH   1  29
ATOM     29  C   UNL     1       3.141 -22.793  28.091  1.00  0.00     0.339 C 
ATOM     30  C   UNL     1       2.638 -24.047  27.337  1.00  0.00     0.214 C 
ATOM     31  O   UNL     1       2.749 -22.984  29.451  1.00  0.00    -0.332 OA
ATOM     32  C   UNL     1       3.418 -25.322  27.868  1.00  0.00     0.180 C 
ATOM     33  C   UNL     1       3.632 -23.892  30.089  1.00  0.00     0.179 C 
ATOM     34  C   UNL     1       3.465 -25.342  29.467  1.00  0.00     0.177 C 
BRANCH  30  35
ATOM     35  O   UNL     1       2.755 -23.900  25.921  1.00  0.00    -0.384 OA
ATOM     36  H   UNL     1       3.239 -24.715  25.589  1.00  0.00     0.211 HD
ENDBRANCH  30  35
BRANCH  32  37
ATOM     37  O   UNL     1       2.979 -26.575  27.331  1.00  0.00    -0.387 OA
ATOM     38  H   UNL     1       3.798 -27.136  27.255  1.00  0.00     0.211 HD
ENDBRANCH  32  37
BRANCH  33  39
ATOM     39  C   UNL     1       3.506 -23.644  31.598  1.00  0.00     0.191 C 
BRANCH  39  40
ATOM     40  O   UNL     1       3.808 -24.847  32.305  1.00  0.00    -0.394 OA
ATOM     41  H   UNL     1       3.702 -24.721  33.295  1.00  0.00     0.210 HD
ENDBRANCH  39  40
ENDBRANCH  33  39
BRANCH  34  42
ATOM     42  O   UNL     1       2.430 -26.149  30.011  1.00  0.00    -0.387 OA
ATOM     43  H   UNL     1       2.763 -26.943  30.505  1.00  0.00     0.211 HD
ENDBRANCH  34  42
ENDBRANCH   1  29
TORSDOF 13
ENDMDL
MODEL 6
REMARK VINA RESULT:    -6.889      1.980      2.201
REMARK INTER + INTRA:         -12.453
REMARK INTER:                 -10.303
REMARK INTRA:                  -2.151
REMARK UNBOUND:                -2.142
REMARK SMILES O=c1c(O[C@H]2O[C@@H](CO)[C@@H](O)[C@@H](O)[C@@H]2O)c(-c2cc(O)c(O)c(O)c2)oc2cc(O)cc(O)c12
REMARK SMILES IDX 4 1 3 2 16 3 26 4 2 5 27 6 1 7 34 8 28 9 32 10 29 11 31 12
REMARK SMILES IDX 17 13 18 14 19 15 25 16 21 17 23 18 20 19 22 21 24 23 33 25
REMARK SMILES IDX 30 27 5 29 14 30 6 31 12 32 7 33 10 34 15 35 13 37 8 39 9 40
REMARK SMILES IDX 11 42
REMARK H PARENT 20 20 22 22 24 24 33 26 30 28 15 36 13 38 9 41 11 43
REMARK Flexibility Score: inf
ROOT
ATOM      1  O   UNL     1      -0.127 -21.630  26.745  1.00  0.00    -0.454 OA
ENDROOT
BRANCH   1   2
ATOM      2  C   UNL     1       0.333 -21.073  27.954  1.00  0.00     0.214 A 
ATOM      3  C   UNL     1      -0.324 -20.007  28.634  1.00  0.00     0.181 A 
ATOM      4  O   UNL     1      -1.146 -20.346  29.624  1.00  0.00    -0.452 OA
ATOM      5  C   UNL     1       0.913 -21.956  28.882  1.00  0.00     0.239 A 
ATOM      6  C   UNL     1      -0.964 -21.460  30.308  1.00  0.00     0.146 A 
ATOM      7  O   UNL     1       1.865 -22.720  28.522  1.00  0.00    -0.285 OA
ATOM      8  C   UNL     1       0.208 -22.218  30.090  1.00  0.00     0.111 A 
ATOM      9  C   UNL     1      -1.891 -21.848  31.297  1.00  0.00     0.094 A 
ATOM     10  C   UNL     1       0.601 -23.136  31.072  1.00  0.00     0.134 A 
ATOM     11  C   UNL     1      -1.560 -22.893  32.152  1.00  0.00     0.123 A 
ATOM     12  C   UNL     1      -0.296 -23.501  32.095  1.00  0.00     0.093 A 
BRANCH   3  13
ATOM     13  C   UNL     1       0.037 -18.540  28.520  1.00  0.00     0.029 A 
ATOM     14  C   UNL     1       0.193 -18.072  27.218  1.00  0.00     0.062 A 
ATOM     15  C   UNL     1      -1.107 -17.692  26.730  1.00  0.00     0.162 A 
ATOM     16  C   UNL     1      -0.679 -17.643  29.406  1.00  0.00     0.062 A 
ATOM     17  C   UNL     1      -1.704 -16.650  27.427  1.00  0.00     0.200 A 
ATOM     18  C   UNL     1      -1.612 -16.741  28.839  1.00  0.00     0.162 A 
BRANCH  15  19
ATOM     19  O   UNL     1      -2.085 -18.654  26.421  1.00  0.00    -0.504 OA
ATOM     20  H   UNL     1      -2.457 -19.315  27.108  1.00  0.00     0.293 HD
ENDBRANCH  15  19
BRANCH  17  21
ATOM     21  O   UNL     1      -2.625 -15.822  26.800  1.00  0.00    -0.502 OA
ATOM     22  H   UNL     1      -2.960 -14.984  27.276  1.00  0.00     0.293 HD
ENDBRANCH  17  21
BRANCH  18  23
ATOM     23  O   UNL     1      -2.607 -16.125  29.625  1.00  0.00    -0.504 OA
ATOM     24  H   UNL     1      -2.523 -16.182  30.654  1.00  0.00     0.293 HD
ENDBRANCH  18  23
ENDBRANCH   3  13
BRANCH  10  25
ATOM     25  O   UNL     1       1.910 -23.617  31.116  1.00  0.00    -0.507 OA
ATOM     26  H   UNL     1       2.631 -23.252  30.524  1.00  0.00     0.293 HD
ENDBRANCH  10  25
BRANCH  11  27
ATOM     27  O   UNL     1      -2.516 -23.405  33.064  1.00  0.00    -0.508 OA
ATOM     28  H   UNL     1      -3.411 -22.881  33.233  1.00  0.00     0.293 HD
ENDBRANCH  11  27
ENDBRANCH   1   2
BRANCH   1  29
ATOM     29  C   UNL     1       0.391 -21.483  25.390  1.00  0.00     0.339 C 
ATOM     30  C   UNL     1       1.893 -21.798  25.191  1.00  0.00     0.214 C 
ATOM     31  O   UNL     1       0.227 -20.129  24.971  1.00  0.00    -0.332 OA
ATOM     32  C   UNL     1       2.235 -21.748  23.643  1.00  0.00     0.180 C 
ATOM     33  C   UNL     1       0.196 -20.057  23.555  1.00  0.00     0.179 C 
ATOM     34  C   UNL     1       1.617 -20.441  22.959  1.00  0.00     0.177 C 
BRANCH  30  35
ATOM     35  O   UNL     1       2.258 -23.047  25.780  1.00  0.00    -0.384 OA
ATOM     36  H   UNL     1       1.724 -23.130  26.627  1.00  0.00     0.211 HD
ENDBRANCH  30  35
BRANCH  32  37
ATOM     37  O   UNL     1       3.620 -21.917  23.318  1.00  0.00    -0.387 OA
ATOM     38  H   UNL     1       4.077 -21.102  23.660  1.00  0.00     0.211 HD
ENDBRANCH  32  37
BRANCH  33  39
ATOM     39  C   UNL     1      -0.497 -18.737  23.194  1.00  0.00     0.191 C 
BRANCH  39  40
ATOM     40  O   UNL     1       0.376 -17.645  23.483  1.00  0.00    -0.394 OA
ATOM     41  H   UNL     1       0.156 -17.232  24.371  1.00  0.00     0.210 HD
ENDBRANCH  39  40
ENDBRANCH  33  39
BRANCH  34  42
ATOM     42  O   UNL     1       2.572 -19.392  22.875  1.00  0.00    -0.387 OA
ATOM     43  H   UNL     1       2.342 -18.699  22.202  1.00  0.00     0.211 HD
ENDBRANCH  34  42
ENDBRANCH   1  29
TORSDOF 13
ENDMDL
MODEL 7
REMARK VINA RESULT:    -6.863      1.819      2.950
REMARK INTER + INTRA:         -12.415
REMARK INTER:                 -10.440
REMARK INTRA:                  -1.975
REMARK UNBOUND:                -2.142
REMARK SMILES O=c1c(O[C@H]2O[C@@H](CO)[C@@H](O)[C@@H](O)[C@@H]2O)c(-c2cc(O)c(O)c(O)c2)oc2cc(O)cc(O)c12
REMARK SMILES IDX 4 1 3 2 16 3 26 4 2 5 27 6 1 7 34 8 28 9 32 10 29 11 31 12
REMARK SMILES IDX 17 13 18 14 19 15 25 16 21 17 23 18 20 19 22 21 24 23 33 25
REMARK SMILES IDX 30 27 5 29 14 30 6 31 12 32 7 33 10 34 15 35 13 37 8 39 9 40
REMARK SMILES IDX 11 42
REMARK H PARENT 20 20 22 22 24 24 33 26 30 28 15 36 13 38 9 41 11 43
REMARK Flexibility Score: inf
ROOT
ATOM      1  O   UNL     1      -0.425 -22.370  27.012  1.00  0.00    -0.454 OA
ENDROOT
BRANCH   1   2
ATOM      2  C   UNL     1       0.505 -22.565  28.051  1.00  0.00     0.214 A 
ATOM      3  C   UNL     1       0.136 -22.835  29.401  1.00  0.00     0.181 A 
ATOM      4  O   UNL     1       0.128 -24.112  29.774  1.00  0.00    -0.452 OA
ATOM      5  C   UNL     1       1.690 -23.248  27.726  1.00  0.00     0.239 A 
ATOM      6  C   UNL     1       0.912 -24.998  29.187  1.00  0.00     0.146 A 
ATOM      7  O   UNL     1       2.407 -22.847  26.754  1.00  0.00    -0.285 OA
ATOM      8  C   UNL     1       1.882 -24.552  28.262  1.00  0.00     0.111 A 
ATOM      9  C   UNL     1       0.831 -26.361  29.535  1.00  0.00     0.094 A 
ATOM     10  C   UNL     1       2.959 -25.397  27.966  1.00  0.00     0.134 A 
ATOM     11  C   UNL     1       1.814 -27.229  29.074  1.00  0.00     0.123 A 
ATOM     12  C   UNL     1       2.915 -26.753  28.346  1.00  0.00     0.093 A 
BRANCH   3  13
ATOM     13  C   UNL     1       0.028 -21.802  30.504  1.00  0.00     0.029 A 
ATOM     14  C   UNL     1      -0.208 -20.500  30.070  1.00  0.00     0.062 A 
ATOM     15  C   UNL     1      -1.630 -20.342  29.913  1.00  0.00     0.162 A 
ATOM     16  C   UNL     1      -0.734 -22.201  31.670  1.00  0.00     0.062 A 
ATOM     17  C   UNL     1      -2.360 -20.477  31.087  1.00  0.00     0.200 A 
ATOM     18  C   UNL     1      -1.979 -21.568  31.909  1.00  0.00     0.162 A 
BRANCH  15  19
ATOM     19  O   UNL     1      -2.328 -20.972  28.867  1.00  0.00    -0.504 OA
ATOM     20  H   UNL     1      -2.215 -21.962  28.636  1.00  0.00     0.293 HD
ENDBRANCH  15  19
BRANCH  17  21
ATOM     21  O   UNL     1      -3.582 -19.837  31.232  1.00  0.00    -0.502 OA
ATOM     22  H   UNL     1      -4.440 -20.386  31.280  1.00  0.00     0.293 HD
ENDBRANCH  17  21
BRANCH  18  23
ATOM     23  O   UNL     1      -2.940 -22.141  32.765  1.00  0.00    -0.504 OA
ATOM     24  H   UNL     1      -2.610 -22.722  33.555  1.00  0.00     0.293 HD
ENDBRANCH  18  23
ENDBRANCH   3  13
BRANCH  10  25
ATOM     25  O   UNL     1       4.125 -24.892  27.390  1.00  0.00    -0.507 OA
ATOM     26  H   UNL     1       4.267 -23.911  27.249  1.00  0.00     0.293 HD
ENDBRANCH  10  25
BRANCH  11  27
ATOM     27  O   UNL     1       1.694 -28.626  29.283  1.00  0.00    -0.508 OA
ATOM     28  H   UNL     1       1.824 -29.288  28.478  1.00  0.00     0.293 HD
ENDBRANCH  11  27
ENDBRANCH   1   2
BRANCH   1  29
ATOM     29  C   UNL     1      -0.598 -21.236  26.111  1.00  0.00     0.339 C 
ATOM     30  C   UNL     1       0.397 -21.139  24.929  1.00  0.00     0.214 C 
ATOM     31  O   UNL     1      -0.433 -20.025  26.848  1.00  0.00    -0.332 OA
ATOM     32  C   UNL     1      -0.043 -19.953  23.974  1.00  0.00     0.180 C 
ATOM     33  C   UNL     1      -1.102 -18.961  26.191  1.00  0.00     0.179 C 
ATOM     34  C   UNL     1      -0.386 -18.635  24.813  1.00  0.00     0.177 C 
BRANCH  30  35
ATOM     35  O   UNL     1       0.513 -22.378  24.227  1.00  0.00    -0.384 OA
ATOM     36  H   UNL     1       1.490 -22.611  24.219  1.00  0.00     0.211 HD
ENDBRANCH  30  35
BRANCH  32  37
ATOM     37  O   UNL     1       0.851 -19.678  22.889  1.00  0.00    -0.387 OA
ATOM     38  H   UNL     1       0.510 -20.211  22.119  1.00  0.00     0.211 HD
ENDBRANCH  32  37
BRANCH  33  39
ATOM     39  C   UNL     1      -1.347 -17.874  27.246  1.00  0.00     0.191 C 
BRANCH  39  40
ATOM     40  O   UNL     1      -2.708 -17.925  27.676  1.00  0.00    -0.394 OA
ATOM     41  H   UNL     1      -2.773 -17.902  28.677  1.00  0.00     0.210 HD
ENDBRANCH  39  40
ENDBRANCH  33  39
BRANCH  34  42
ATOM     42  O   UNL     1       0.723 -17.748  24.870  1.00  0.00    -0.387 OA
ATOM     43  H   UNL     1       0.618 -17.024  25.542  1.00  0.00     0.211 HD
ENDBRANCH  34  42
ENDBRANCH   1  29
TORSDOF 13
ENDMDL
MODEL 8
REMARK VINA RESULT:    -6.849      2.354      4.265
REMARK INTER + INTRA:         -12.394
REMARK INTER:                 -10.574
REMARK INTRA:                  -1.820
REMARK UNBOUND:                -2.142
REMARK SMILES O=c1c(O[C@H]2O[C@@H](CO)[C@@H](O)[C@@H](O)[C@@H]2O)c(-c2cc(O)c(O)c(O)c2)oc2cc(O)cc(O)c12
REMARK SMILES IDX 4 1 3 2 16 3 26 4 2 5 27 6 1 7 34 8 28 9 32 10 29 11 31 12
REMARK SMILES IDX 17 13 18 14 19 15 25 16 21 17 23 18 20 19 22 21 24 23 33 25
REMARK SMILES IDX 30 27 5 29 14 30 6 31 12 32 7 33 10 34 15 35 13 37 8 39 9 40
REMARK SMILES IDX 11 42
REMARK H PARENT 20 20 22 22 24 24 33 26 30 28 15 36 13 38 9 41 11 43
REMARK Flexibility Score: inf
ROOT
ATOM      1  O   UNL     1       2.067 -21.515  28.396  1.00  0.00    -0.454 OA
ENDROOT
BRANCH   1   2
ATOM      2  C   UNL     1       1.439 -22.352  29.338  1.00  0.00     0.214 A 
ATOM      3  C   UNL     1       0.355 -23.222  29.025  1.00  0.00     0.181 A 
ATOM      4  O   UNL     1       0.661 -24.491  28.769  1.00  0.00    -0.452 OA
ATOM      5  C   UNL     1       2.261 -22.935  30.319  1.00  0.00     0.239 A 
ATOM      6  C   UNL     1       1.735 -25.051  29.294  1.00  0.00     0.146 A 
ATOM      7  O   UNL     1       3.021 -22.201  31.029  1.00  0.00    -0.285 OA
ATOM      8  C   UNL     1       2.477 -24.340  30.265  1.00  0.00     0.111 A 
ATOM      9  C   UNL     1       2.093 -26.370  28.948  1.00  0.00     0.094 A 
ATOM     10  C   UNL     1       3.334 -25.060  31.106  1.00  0.00     0.134 A 
ATOM     11  C   UNL     1       3.085 -27.009  29.681  1.00  0.00     0.123 A 
ATOM     12  C   UNL     1       3.667 -26.394  30.800  1.00  0.00     0.093 A 
BRANCH   3  13
ATOM     13  C   UNL     1      -1.112 -22.902  29.228  1.00  0.00     0.029 A 
ATOM     14  C   UNL     1      -1.903 -23.983  29.610  1.00  0.00     0.062 A 
ATOM     15  C   UNL     1      -1.827 -24.098  31.043  1.00  0.00     0.162 A 
ATOM     16  C   UNL     1      -1.398 -21.665  29.928  1.00  0.00     0.062 A 
ATOM     17  C   UNL     1      -2.334 -23.008  31.737  1.00  0.00     0.200 A 
ATOM     18  C   UNL     1      -1.950 -21.741  31.230  1.00  0.00     0.162 A 
BRANCH  15  19
ATOM     19  O   UNL     1      -0.656 -24.543  31.683  1.00  0.00    -0.504 OA
ATOM     20  H   UNL     1       0.005 -23.911  32.142  1.00  0.00     0.293 HD
ENDBRANCH  15  19
BRANCH  17  21
ATOM     21  O   UNL     1      -2.840 -23.166  33.019  1.00  0.00    -0.502 OA
ATOM     22  H   UNL     1      -2.555 -23.968  33.582  1.00  0.00     0.293 HD
ENDBRANCH  17  21
BRANCH  18  23
ATOM     23  O   UNL     1      -1.899 -20.643  32.113  1.00  0.00    -0.504 OA
ATOM     24  H   UNL     1      -2.643 -19.927  32.049  1.00  0.00     0.293 HD
ENDBRANCH  18  23
ENDBRANCH   3  13
BRANCH  10  25
ATOM     25  O   UNL     1       3.784 -24.508  32.307  1.00  0.00    -0.507 OA
ATOM     26  H   UNL     1       4.607 -24.839  32.769  1.00  0.00     0.293 HD
ENDBRANCH  10  25
BRANCH  11  27
ATOM     27  O   UNL     1       3.571 -28.278  29.277  1.00  0.00    -0.508 OA
ATOM     28  H   UNL     1       4.595 -28.496  29.357  1.00  0.00     0.293 HD
ENDBRANCH  11  27
ENDBRANCH   1   2
BRANCH   1  29
ATOM     29  C   UNL     1       1.501 -20.795  27.260  1.00  0.00     0.339 C 
ATOM     30  C   UNL     1       0.269 -19.906  27.554  1.00  0.00     0.214 C 
ATOM     31  O   UNL     1       1.066 -21.738  26.280  1.00  0.00    -0.332 OA
ATOM     32  C   UNL     1      -0.101 -19.081  26.251  1.00  0.00     0.180 C 
ATOM     33  C   UNL     1       1.027 -21.127  25.001  1.00  0.00     0.179 C 
ATOM     34  C   UNL     1      -0.111 -20.022  24.958  1.00  0.00     0.177 C 
BRANCH  30  35
ATOM     35  O   UNL     1       0.483 -19.057  28.683  1.00  0.00    -0.384 OA
ATOM     36  H   UNL     1       0.616 -19.662  29.474  1.00  0.00     0.211 HD
ENDBRANCH  30  35
BRANCH  32  37
ATOM     37  O   UNL     1      -1.291 -18.290  26.346  1.00  0.00    -0.387 OA
ATOM     38  H   UNL     1      -1.161 -17.706  27.142  1.00  0.00     0.211 HD
ENDBRANCH  32  37
BRANCH  33  39
ATOM     39  C   UNL     1       1.087 -22.261  23.969  1.00  0.00     0.191 C 
BRANCH  39  40
ATOM     40  O   UNL     1      -0.076 -23.079  24.092  1.00  0.00    -0.394 OA
ATOM     41  H   UNL     1      -0.496 -23.248  23.196  1.00  0.00     0.210 HD
ENDBRANCH  39  40
ENDBRANCH  33  39
BRANCH  34  42
ATOM     42  O   UNL     1      -1.422 -20.476  24.652  1.00  0.00    -0.387 OA
ATOM     43  H   UNL     1      -2.066 -20.366  25.400  1.00  0.00     0.211 HD
ENDBRANCH  34  42
ENDBRANCH   1  29
TORSDOF 13
ENDMDL
MODEL 9
REMARK VINA RESULT:    -6.658      2.781      6.859
REMARK INTER + INTRA:         -12.109
REMARK INTER:                  -9.931
REMARK INTRA:                  -2.177
REMARK UNBOUND:                -2.142
REMARK SMILES O=c1c(O[C@H]2O[C@@H](CO)[C@@H](O)[C@@H](O)[C@@H]2O)c(-c2cc(O)c(O)c(O)c2)oc2cc(O)cc(O)c12
REMARK SMILES IDX 4 1 3 2 16 3 26 4 2 5 27 6 1 7 34 8 28 9 32 10 29 11 31 12
REMARK SMILES IDX 17 13 18 14 19 15 25 16 21 17 23 18 20 19 22 21 24 23 33 25
REMARK SMILES IDX 30 27 5 29 14 30 6 31 12 32 7 33 10 34 15 35 13 37 8 39 9 40
REMARK SMILES IDX 11 42
REMARK H PARENT 20 20 22 22 24 24 33 26 30 28 15 36 13 38 9 41 11 43
REMARK Flexibility Score: inf
ROOT
ATOM      1  O   UNL     1       1.155 -19.291  25.593  1.00  0.00    -0.454 OA
ENDROOT
BRANCH   1   2
ATOM      2  C   UNL     1      -0.096 -18.779  25.988  1.00  0.00     0.214 A 
ATOM      3  C   UNL     1      -0.512 -18.669  27.347  1.00  0.00     0.181 A 
ATOM      4  O   UNL     1      -0.347 -17.484  27.929  1.00  0.00    -0.452 OA
ATOM      5  C   UNL     1      -0.614 -17.711  25.234  1.00  0.00     0.239 A 
ATOM      6  C   UNL     1      -0.347 -16.371  27.218  1.00  0.00     0.146 A 
ATOM      7  O   UNL     1      -0.719 -17.819  23.970  1.00  0.00    -0.285 OA
ATOM      8  C   UNL     1      -0.687 -16.429  25.847  1.00  0.00     0.111 A 
ATOM      9  C   UNL     1      -0.087 -15.131  27.836  1.00  0.00     0.094 A 
ATOM     10  C   UNL     1      -1.091 -15.250  25.210  1.00  0.00     0.134 A 
ATOM     11  C   UNL     1      -0.318 -13.963  27.119  1.00  0.00     0.123 A 
ATOM     12  C   UNL     1      -0.879 -14.004  25.834  1.00  0.00     0.093 A 
BRANCH   3  13
ATOM     13  C   UNL     1      -1.367 -19.677  28.086  1.00  0.00     0.029 A 
ATOM     14  C   UNL     1      -0.897 -20.988  28.049  1.00  0.00     0.062 A 
ATOM     15  C   UNL     1       0.049 -21.145  29.122  1.00  0.00     0.162 A 
ATOM     16  C   UNL     1      -1.874 -19.251  29.376  1.00  0.00     0.062 A 
ATOM     17  C   UNL     1      -0.487 -20.982  30.393  1.00  0.00     0.200 A 
ATOM     18  C   UNL     1      -1.361 -19.875  30.539  1.00  0.00     0.162 A 
BRANCH  15  19
ATOM     19  O   UNL     1       1.316 -20.536  29.080  1.00  0.00    -0.504 OA
ATOM     20  H   UNL     1       1.506 -19.676  28.560  1.00  0.00     0.293 HD
ENDBRANCH  15  19
BRANCH  17  21
ATOM     21  O   UNL     1       0.089 -21.616  31.484  1.00  0.00    -0.502 OA
ATOM     22  H   UNL     1       0.332 -22.605  31.427  1.00  0.00     0.293 HD
ENDBRANCH  17  21
BRANCH  18  23
ATOM     23  O   UNL     1      -1.496 -19.281  31.810  1.00  0.00    -0.504 OA
ATOM     24  H   UNL     1      -0.789 -18.585  32.104  1.00  0.00     0.293 HD
ENDBRANCH  18  23
ENDBRANCH   3  13
BRANCH  10  25
ATOM     25  O   UNL     1      -1.798 -15.295  24.008  1.00  0.00    -0.507 OA
ATOM     26  H   UNL     1      -1.337 -15.302  23.120  1.00  0.00     0.293 HD
ENDBRANCH  10  25
BRANCH  11  27
ATOM     27  O   UNL     1       0.063 -12.707  27.651  1.00  0.00    -0.508 OA
ATOM     28  H   UNL     1       0.641 -12.663  28.528  1.00  0.00     0.293 HD
ENDBRANCH  11  27
ENDBRANCH   1   2
BRANCH   1  29
ATOM     29  C   UNL     1       1.508 -20.612  25.086  1.00  0.00     0.339 C 
ATOM     30  C   UNL     1       0.439 -21.325  24.224  1.00  0.00     0.214 C 
ATOM     31  O   UNL     1       1.752 -21.485  26.189  1.00  0.00    -0.332 OA
ATOM     32  C   UNL     1       1.055 -22.660  23.629  1.00  0.00     0.180 C 
ATOM     33  C   UNL     1       2.591 -22.555  25.786  1.00  0.00     0.179 C 
ATOM     34  C   UNL     1       1.825 -23.491  24.758  1.00  0.00     0.177 C 
BRANCH  30  35
ATOM     35  O   UNL     1      -0.077 -20.472  23.201  1.00  0.00    -0.384 OA
ATOM     36  H   UNL     1      -0.925 -20.074  23.563  1.00  0.00     0.211 HD
ENDBRANCH  30  35
BRANCH  32  37
ATOM     37  O   UNL     1       0.141 -23.480  22.892  1.00  0.00    -0.387 OA
ATOM     38  H   UNL     1       0.072 -24.332  23.404  1.00  0.00     0.211 HD
ENDBRANCH  32  37
BRANCH  33  39
ATOM     39  C   UNL     1       3.234 -23.117  27.061  1.00  0.00     0.191 C 
BRANCH  39  40
ATOM     40  O   UNL     1       3.280 -24.542  26.983  1.00  0.00    -0.394 OA
ATOM     41  H   UNL     1       4.017 -24.912  27.555  1.00  0.00     0.210 HD
ENDBRANCH  39  40
ENDBRANCH  33  39
BRANCH  34  42
ATOM     42  O   UNL     1       1.000 -24.504  25.318  1.00  0.00    -0.387 OA
ATOM     43  H   UNL     1       1.400 -25.412  25.272  1.00  0.00     0.211 HD
ENDBRANCH  34  42
ENDBRANCH   1  29
TORSDOF 13
ENDMDL
