MODEL 1
REMARK VINA RESULT:    -3.031      0.000      0.000
REMARK INTER + INTRA:          -4.699
REMARK INTER:                  -4.183
REMARK INTRA:                  -0.516
REMARK UNBOUND:                -0.516
REMARK SMILES CCCCCCCCO
REMARK SMILES IDX 5 1 4 2 3 3 2 4 1 5 6 6 7 7 8 8 9 9
REMARK H PARENT 9 10
REMARK Flexibility Score: inf
ROOT
ATOM      1  C   UNL     1     160.982 163.167 188.921  1.00  0.00     0.000 C 
ENDROOT
BRANCH   1   2
ATOM      2  C   UNL     1     161.004 161.716 188.417  1.00  0.00    -0.000 C 
BRANCH   2   3
ATOM      3  C   UNL     1     162.087 161.477 187.349  1.00  0.00    -0.000 C 
BRANCH   3   4
ATOM      4  C   UNL     1     161.491 161.143 185.972  1.00  0.00    -0.003 C 
ATOM      5  C   UNL     1     159.977 160.934 186.020  1.00  0.00     0.004 C 
ENDBRANCH   3   4
ENDBRANCH   2   3
ENDBRANCH   1   2
BRANCH   1   6
ATOM      6  C   UNL     1     159.876 164.006 188.264  1.00  0.00     0.002 C 
BRANCH   6   7
ATOM      7  C   UNL     1     160.474 165.090 187.358  1.00  0.00     0.028 C 
BRANCH   7   8
ATOM      8  C   UNL     1     160.341 164.730 185.874  1.00  0.00     0.156 C 
BRANCH   8   9
ATOM      9  O   UNL     1     160.242 165.885 185.085  1.00  0.00    -0.396 OA
ATOM     10  H   UNL     1     159.281 165.997 184.864  1.00  0.00     0.210 HD
ENDBRANCH   8   9
ENDBRANCH   7   8
ENDBRANCH   6   7
ENDBRANCH   1   6
TORSDOF 7
ENDMDL
MODEL 2
REMARK VINA RESULT:    -3.004     15.504     16.407
REMARK INTER + INTRA:          -4.661
REMARK INTER:                  -4.123
REMARK INTRA:                  -0.539
REMARK UNBOUND:                -0.516
REMARK SMILES CCCCCCCCO
REMARK SMILES IDX 5 1 4 2 3 3 2 4 1 5 6 6 7 7 8 8 9 9
REMARK H PARENT 9 10
REMARK Flexibility Score: inf
ROOT
ATOM      1  C   UNL     1     175.696 161.560 188.246  1.00  0.00     0.000 C 
ENDROOT
BRANCH   1   2
ATOM      2  C   UNL     1     177.057 161.681 188.950  1.00  0.00    -0.000 C 
BRANCH   2   3
ATOM      3  C   UNL     1     177.150 162.930 189.843  1.00  0.00    -0.000 C 
BRANCH   3   4
ATOM      4  C   UNL     1     176.576 164.184 189.164  1.00  0.00    -0.003 C 
ATOM      5  C   UNL     1     177.611 164.920 188.313  1.00  0.00     0.004 C 
ENDBRANCH   3   4
ENDBRANCH   2   3
ENDBRANCH   1   2
BRANCH   1   6
ATOM      6  C   UNL     1     175.830 161.275 186.743  1.00  0.00     0.002 C 
BRANCH   6   7
ATOM      7  C   UNL     1     175.881 162.580 185.939  1.00  0.00     0.028 C 
BRANCH   7   8
ATOM      8  C   UNL     1     177.045 162.588 184.941  1.00  0.00     0.156 C 
BRANCH   8   9
ATOM      9  O   UNL     1     178.279 162.594 185.610  1.00  0.00    -0.396 OA
ATOM     10  H   UNL     1     178.085 162.395 186.563  1.00  0.00     0.210 HD
ENDBRANCH   8   9
ENDBRANCH   7   8
ENDBRANCH   6   7
ENDBRANCH   1   6
TORSDOF 7
ENDMDL
MODEL 3
REMARK VINA RESULT:    -2.956     15.247     16.259
REMARK INTER + INTRA:          -4.595
REMARK INTER:                  -4.230
REMARK INTRA:                  -0.365
REMARK UNBOUND:                -0.516
REMARK SMILES CCCCCCCCO
REMARK SMILES IDX 5 1 4 2 3 3 2 4 1 5 6 6 7 7 8 8 9 9
REMARK H PARENT 9 10
REMARK Flexibility Score: inf
ROOT
ATOM      1  C   UNL     1     177.473 164.380 189.002  1.00  0.00     0.000 C 
ENDROOT
BRANCH   1   2
ATOM      2  C   UNL     1     176.257 163.793 189.737  1.00  0.00    -0.000 C 
BRANCH   2   3
ATOM      3  C   UNL     1     175.433 162.843 188.850  1.00  0.00    -0.000 C 
BRANCH   3   4
ATOM      4  C   UNL     1     176.169 161.527 188.554  1.00  0.00    -0.003 C 
ATOM      5  C   UNL     1     175.219 160.339 188.406  1.00  0.00     0.004 C 
ENDBRANCH   3   4
ENDBRANCH   2   3
ENDBRANCH   1   2
BRANCH   1   6
ATOM      6  C   UNL     1     177.074 165.323 187.857  1.00  0.00     0.002 C 
BRANCH   6   7
ATOM      7  C   UNL     1     177.867 165.004 186.583  1.00  0.00     0.028 C 
BRANCH   7   8
ATOM      8  C   UNL     1     177.294 163.787 185.846  1.00  0.00     0.156 C 
BRANCH   8   9
ATOM      9  O   UNL     1     178.276 162.801 185.669  1.00  0.00    -0.396 OA
ATOM     10  H   UNL     1     178.500 162.458 186.572  1.00  0.00     0.210 HD
ENDBRANCH   8   9
ENDBRANCH   7   8
ENDBRANCH   6   7
ENDBRANCH   1   6
TORSDOF 7
ENDMDL
MODEL 4
REMARK VINA RESULT:    -2.943     11.126     13.019
REMARK INTER + INTRA:          -4.577
REMARK INTER:                  -4.355
REMARK INTRA:                  -0.222
REMARK UNBOUND:                -0.516
REMARK SMILES CCCCCCCCO
REMARK SMILES IDX 5 1 4 2 3 3 2 4 1 5 6 6 7 7 8 8 9 9
REMARK H PARENT 9 10
REMARK Flexibility Score: inf
ROOT
ATOM      1  C   UNL     1     160.341 176.753 188.764  1.00  0.00     0.000 C 
ENDROOT
BRANCH   1   2
ATOM      2  C   UNL     1     160.159 175.229 188.836  1.00  0.00    -0.000 C 
BRANCH   2   3
ATOM      3  C   UNL     1     161.500 174.475 188.864  1.00  0.00    -0.000 C 
BRANCH   3   4
ATOM      4  C   UNL     1     161.412 173.093 188.197  1.00  0.00    -0.003 C 
ATOM      5  C   UNL     1     162.025 171.985 189.052  1.00  0.00     0.004 C 
ENDBRANCH   3   4
ENDBRANCH   2   3
ENDBRANCH   1   2
BRANCH   1   6
ATOM      6  C   UNL     1     160.987 177.211 187.448  1.00  0.00     0.002 C 
BRANCH   6   7
ATOM      7  C   UNL     1     162.177 178.141 187.716  1.00  0.00     0.028 C 
BRANCH   7   8
ATOM      8  C   UNL     1     163.500 177.521 187.249  1.00  0.00     0.156 C 
BRANCH   8   9
ATOM      9  O   UNL     1     164.286 178.468 186.576  1.00  0.00    -0.396 OA
ATOM     10  H   UNL     1     164.125 178.333 185.606  1.00  0.00     0.210 HD
ENDBRANCH   8   9
ENDBRANCH   7   8
ENDBRANCH   6   7
ENDBRANCH   1   6
TORSDOF 7
ENDMDL
MODEL 5
REMARK VINA RESULT:    -2.925     19.721     20.618
REMARK INTER + INTRA:          -4.552
REMARK INTER:                  -4.203
REMARK INTRA:                  -0.349
REMARK UNBOUND:                -0.516
REMARK SMILES CCCCCCCCO
REMARK SMILES IDX 5 1 4 2 3 3 2 4 1 5 6 6 7 7 8 8 9 9
REMARK H PARENT 9 10
REMARK Flexibility Score: inf
ROOT
ATOM      1  C   UNL     1     178.625 173.275 188.557  1.00  0.00     0.000 C 
ENDROOT
BRANCH   1   2
ATOM      2  C   UNL     1     178.679 174.528 189.444  1.00  0.00    -0.000 C 
BRANCH   2   3
ATOM      3  C   UNL     1     177.295 174.929 189.985  1.00  0.00    -0.000 C 
BRANCH   3   4
ATOM      4  C   UNL     1     176.213 173.887 189.660  1.00  0.00    -0.003 C 
ATOM      5  C   UNL     1     175.601 173.261 190.914  1.00  0.00     0.004 C 
ENDBRANCH   3   4
ENDBRANCH   2   3
ENDBRANCH   1   2
BRANCH   1   6
ATOM      6  C   UNL     1     179.109 173.543 187.124  1.00  0.00     0.002 C 
BRANCH   6   7
ATOM      7  C   UNL     1     177.924 173.647 186.155  1.00  0.00     0.028 C 
BRANCH   7   8
ATOM      8  C   UNL     1     178.190 174.664 185.039  1.00  0.00     0.156 C 
BRANCH   8   9
ATOM      9  O   UNL     1     178.813 175.814 185.546  1.00  0.00    -0.396 OA
ATOM     10  H   UNL     1     179.101 175.596 186.471  1.00  0.00     0.210 HD
ENDBRANCH   8   9
ENDBRANCH   7   8
ENDBRANCH   6   7
ENDBRANCH   1   6
TORSDOF 7
ENDMDL
MODEL 6
REMARK VINA RESULT:    -2.893     15.488     16.946
REMARK INTER + INTRA:          -4.508
REMARK INTER:                  -3.963
REMARK INTRA:                  -0.545
REMARK UNBOUND:                -0.516
REMARK SMILES CCCCCCCCO
REMARK SMILES IDX 5 1 4 2 3 3 2 4 1 5 6 6 7 7 8 8 9 9
REMARK H PARENT 9 10
REMARK Flexibility Score: inf
ROOT
ATOM      1  C   UNL     1     166.546 176.985 188.683  1.00  0.00     0.000 C 
ENDROOT
BRANCH   1   2
ATOM      2  C   UNL     1     167.439 177.818 189.616  1.00  0.00    -0.000 C 
BRANCH   2   3
ATOM      3  C   UNL     1     167.129 179.324 189.539  1.00  0.00    -0.000 C 
BRANCH   3   4
ATOM      4  C   UNL     1     168.250 180.121 188.854  1.00  0.00    -0.003 C 
ATOM      5  C   UNL     1     169.417 179.237 188.412  1.00  0.00     0.004 C 
ENDBRANCH   3   4
ENDBRANCH   2   3
ENDBRANCH   1   2
BRANCH   1   6
ATOM      6  C   UNL     1     165.466 177.827 187.988  1.00  0.00     0.002 C 
BRANCH   6   7
ATOM      7  C   UNL     1     165.527 177.649 186.465  1.00  0.00     0.028 C 
BRANCH   7   8
ATOM      8  C   UNL     1     166.636 178.502 185.837  1.00  0.00     0.156 C 
BRANCH   8   9
ATOM      9  O   UNL     1     166.265 179.855 185.798  1.00  0.00    -0.396 OA
ATOM     10  H   UNL     1     166.711 180.293 186.568  1.00  0.00     0.210 HD
ENDBRANCH   8   9
ENDBRANCH   7   8
ENDBRANCH   6   7
ENDBRANCH   1   6
TORSDOF 7
ENDMDL
MODEL 7
REMARK VINA RESULT:    -2.850     19.692     20.385
REMARK INTER + INTRA:          -4.449
REMARK INTER:                  -4.035
REMARK INTRA:                  -0.413
REMARK UNBOUND:                -0.516
REMARK SMILES CCCCCCCCO
REMARK SMILES IDX 5 1 4 2 3 3 2 4 1 5 6 6 7 7 8 8 9 9
REMARK H PARENT 9 10
REMARK Flexibility Score: inf
ROOT
ATOM      1  C   UNL     1     178.381 174.476 189.551  1.00  0.00     0.000 C 
ENDROOT
BRANCH   1   2
ATOM      2  C   UNL     1     179.054 173.931 188.281  1.00  0.00    -0.000 C 
BRANCH   2   3
ATOM      3  C   UNL     1     179.791 172.603 188.527  1.00  0.00    -0.000 C 
BRANCH   3   4
ATOM      4  C   UNL     1     179.081 171.407 187.876  1.00  0.00    -0.003 C 
ATOM      5  C   UNL     1     177.959 170.841 188.746  1.00  0.00     0.004 C 
ENDBRANCH   3   4
ENDBRANCH   2   3
ENDBRANCH   1   2
BRANCH   1   6
ATOM      6  C   UNL     1     177.033 175.154 189.263  1.00  0.00     0.002 C 
BRANCH   6   7
ATOM      7  C   UNL     1     176.504 174.756 187.879  1.00  0.00     0.028 C 
BRANCH   7   8
ATOM      8  C   UNL     1     176.263 175.981 186.989  1.00  0.00     0.156 C 
BRANCH   8   9
ATOM      9  O   UNL     1     177.289 176.122 186.042  1.00  0.00    -0.396 OA
ATOM     10  H   UNL     1     178.064 176.515 186.521  1.00  0.00     0.210 HD
ENDBRANCH   8   9
ENDBRANCH   7   8
ENDBRANCH   6   7
ENDBRANCH   1   6
TORSDOF 7
ENDMDL
MODEL 8
REMARK VINA RESULT:    -2.848     18.997     19.742
REMARK INTER + INTRA:          -4.446
REMARK INTER:                  -3.963
REMARK INTRA:                  -0.483
REMARK UNBOUND:                -0.516
REMARK SMILES CCCCCCCCO
REMARK SMILES IDX 5 1 4 2 3 3 2 4 1 5 6 6 7 7 8 8 9 9
REMARK H PARENT 9 10
REMARK Flexibility Score: inf
ROOT
ATOM      1  C   UNL     1     177.920 174.403 188.710  1.00  0.00     0.000 C 
ENDROOT
BRANCH   1   2
ATOM      2  C   UNL     1     179.413 174.069 188.849  1.00  0.00    -0.000 C 
BRANCH   2   3
ATOM      3  C   UNL     1     179.738 172.626 188.425  1.00  0.00    -0.000 C 
BRANCH   3   4
ATOM      4  C   UNL     1     178.495 171.861 187.944  1.00  0.00    -0.003 C 
ATOM      5  C   UNL     1     178.139 170.684 188.852  1.00  0.00     0.004 C 
ENDBRANCH   3   4
ENDBRANCH   2   3
ENDBRANCH   1   2
BRANCH   1   6
ATOM      6  C   UNL     1     177.267 174.768 190.051  1.00  0.00     0.002 C 
BRANCH   6   7
ATOM      7  C   UNL     1     176.116 173.808 190.381  1.00  0.00     0.028 C 
BRANCH   7   8
ATOM      8  C   UNL     1     175.344 173.393 189.123  1.00  0.00     0.156 C 
BRANCH   8   9
ATOM      9  O   UNL     1     173.961 173.401 189.359  1.00  0.00    -0.396 OA
ATOM     10  H   UNL     1     173.527 173.117 188.513  1.00  0.00     0.210 HD
ENDBRANCH   8   9
ENDBRANCH   7   8
ENDBRANCH   6   7
ENDBRANCH   1   6
TORSDOF 7
ENDMDL
MODEL 9
REMARK VINA RESULT:    -2.455      3.718      4.937
REMARK INTER + INTRA:          -3.903
REMARK INTER:                  -3.577
REMARK INTRA:                  -0.326
REMARK UNBOUND:                -0.516
REMARK SMILES CCCCCCCCO
REMARK SMILES IDX 5 1 4 2 3 3 2 4 1 5 6 6 7 7 8 8 9 9
REMARK H PARENT 9 10
REMARK Flexibility Score: inf
ROOT
ATOM      1  C   UNL     1     163.300 160.975 188.483  1.00  0.00     0.000 C 
ENDROOT
BRANCH   1   2
ATOM      2  C   UNL     1     164.672 160.303 188.313  1.00  0.00    -0.000 C 
BRANCH   2   3
ATOM      3  C   UNL     1     165.475 160.259 189.625  1.00  0.00    -0.000 C 
BRANCH   3   4
ATOM      4  C   UNL     1     166.743 161.126 189.568  1.00  0.00    -0.003 C 
ATOM      5  C   UNL     1     166.619 162.408 190.391  1.00  0.00     0.004 C 
ENDBRANCH   3   4
ENDBRANCH   2   3
ENDBRANCH   1   2
BRANCH   1   6
ATOM      6  C   UNL     1     163.359 162.498 188.295  1.00  0.00     0.002 C 
BRANCH   6   7
ATOM      7  C   UNL     1     162.062 163.160 188.777  1.00  0.00     0.028 C 
BRANCH   7   8
ATOM      8  C   UNL     1     160.881 162.183 188.752  1.00  0.00     0.156 C 
BRANCH   8   9
ATOM      9  O   UNL     1     159.875 162.590 189.641  1.00  0.00    -0.396 OA
ATOM     10  H   UNL     1     159.031 162.620 189.121  1.00  0.00     0.210 HD
ENDBRANCH   8   9
ENDBRANCH   7   8
ENDBRANCH   6   7
ENDBRANCH   1   6
TORSDOF 7
ENDMDL
