MODEL 1
REMARK VINA RESULT:    -5.287      0.000      0.000
REMARK INTER + INTRA:          -9.458
REMARK INTER:                  -8.069
REMARK INTRA:                  -1.389
REMARK UNBOUND:                -1.389
REMARK SMILES OC[C@@H]1O[C@@H](O[C@@]2(CO)O[C@H](CO)[C@H](O)[C@H]2O)[C@@H](O)[C@@H](O)[C@@H]1O
REMARK SMILES IDX 6 1 5 2 3 3 22 4 4 5 20 6 18 7 2 8 1 9 23 11 21 13 19 15
REMARK SMILES IDX 7 17 16 18 10 19 14 20 11 21 8 22 9 23 17 25 15 27 12 29
REMARK SMILES IDX 13 30
REMARK H PARENT 1 10 23 12 21 14 19 16 9 24 17 26 15 28 13 31
REMARK Flexibility Score: inf
ROOT
ATOM      1  O   UNL     1      -4.906  43.244  29.275  1.00  0.00    -0.313 OA
ENDROOT
BRANCH   1   2
ATOM      2  C   UNL     1      -5.188  44.251  30.249  1.00  0.00     0.285 C 
ATOM      3  C   UNL     1      -4.593  46.562  29.939  1.00  0.00     0.178 C 
ATOM      4  C   UNL     1      -4.253  46.697  31.434  1.00  0.00     0.177 C 
ATOM      5  O   UNL     1      -5.522  45.522  29.696  1.00  0.00    -0.341 OA
ATOM      6  C   UNL     1      -3.496  45.447  31.875  1.00  0.00     0.179 C 
ATOM      7  C   UNL     1      -4.312  44.182  31.553  1.00  0.00     0.202 C 
BRANCH   3   8
ATOM      8  C   UNL     1      -5.181  47.878  29.405  1.00  0.00     0.191 C 
BRANCH   8   9
ATOM      9  O   UNL     1      -5.665  47.708  28.100  1.00  0.00    -0.394 OA
ATOM     10  H   UNL     1      -4.873  47.569  27.518  1.00  0.00     0.210 HD
ENDBRANCH   8   9
ENDBRANCH   3   8
BRANCH   4  11
ATOM     11  O   UNL     1      -5.426  46.832  32.199  1.00  0.00    -0.387 OA
ATOM     12  H   UNL     1      -5.853  47.686  31.933  1.00  0.00     0.211 HD
ENDBRANCH   4  11
BRANCH   6  13
ATOM     13  O   UNL     1      -2.234  45.398  31.260  1.00  0.00    -0.387 OA
ATOM     14  H   UNL     1      -2.242  44.625  30.637  1.00  0.00     0.211 HD
ENDBRANCH   6  13
BRANCH   7  15
ATOM     15  O   UNL     1      -3.469  43.059  31.541  1.00  0.00    -0.385 OA
ATOM     16  H   UNL     1      -3.801  42.456  30.825  1.00  0.00     0.211 HD
ENDBRANCH   7  15
ENDBRANCH   1   2
BRANCH   1  17
ATOM     17  C   UNL     1      -5.835  42.172  29.124  1.00  0.00     0.224 C 
ATOM     18  C   UNL     1      -5.028  40.883  28.849  1.00  0.00     0.208 C 
ATOM     19  O   UNL     1      -6.694  42.384  28.018  1.00  0.00    -0.337 OA
ATOM     20  C   UNL     1      -5.042  40.793  27.354  1.00  0.00     0.180 C 
ATOM     21  C   UNL     1      -6.377  41.448  27.004  1.00  0.00     0.179 C 
BRANCH  17  22
ATOM     22  C   UNL     1      -6.656  41.980  30.426  1.00  0.00     0.225 C 
BRANCH  22  23
ATOM     23  O   UNL     1      -6.003  41.114  31.316  1.00  0.00    -0.391 OA
ATOM     24  H   UNL     1      -6.675  40.443  31.606  1.00  0.00     0.210 HD
ENDBRANCH  22  23
ENDBRANCH  17  22
BRANCH  18  25
ATOM     25  O   UNL     1      -3.708  40.958  29.326  1.00  0.00    -0.385 OA
ATOM     26  H   UNL     1      -3.355  41.839  29.035  1.00  0.00     0.211 HD
ENDBRANCH  18  25
BRANCH  20  27
ATOM     27  O   UNL     1      -4.945  39.459  26.924  1.00  0.00    -0.387 OA
ATOM     28  H   UNL     1      -5.252  39.447  25.981  1.00  0.00     0.211 HD
ENDBRANCH  20  27
BRANCH  21  29
ATOM     29  C   UNL     1      -7.537  40.451  26.855  1.00  0.00     0.191 C 
BRANCH  29  30
ATOM     30  O   UNL     1      -7.525  39.903  25.566  1.00  0.00    -0.394 OA
ATOM     31  H   UNL     1      -7.074  40.570  24.987  1.00  0.00     0.210 HD
ENDBRANCH  29  30
ENDBRANCH  21  29
ENDBRANCH   1  17
TORSDOF 13
ENDMDL
MODEL 2
REMARK VINA RESULT:    -5.223      9.619     11.750
REMARK INTER + INTRA:          -9.361
REMARK INTER:                  -7.992
REMARK INTRA:                  -1.369
REMARK UNBOUND:                -1.389
REMARK SMILES OC[C@@H]1O[C@@H](O[C@@]2(CO)O[C@H](CO)[C@H](O)[C@H]2O)[C@@H](O)[C@@H](O)[C@@H]1O
REMARK SMILES IDX 6 1 5 2 3 3 22 4 4 5 20 6 18 7 2 8 1 9 23 11 21 13 19 15
REMARK SMILES IDX 7 17 16 18 10 19 14 20 11 21 8 22 9 23 17 25 15 27 12 29
REMARK SMILES IDX 13 30
REMARK H PARENT 1 10 23 12 21 14 19 16 9 24 17 26 15 28 13 31
REMARK Flexibility Score: inf
ROOT
ATOM      1  O   UNL     1     -14.404  44.394  34.990  1.00  0.00    -0.313 OA
ENDROOT
BRANCH   1   2
ATOM      2  C   UNL     1     -14.175  44.592  33.593  1.00  0.00     0.285 C 
ATOM      3  C   UNL     1     -15.013  46.505  32.397  1.00  0.00     0.178 C 
ATOM      4  C   UNL     1     -15.289  45.636  31.158  1.00  0.00     0.177 C 
ATOM      5  O   UNL     1     -13.998  45.956  33.217  1.00  0.00    -0.341 OA
ATOM      6  C   UNL     1     -15.895  44.313  31.617  1.00  0.00     0.179 C 
ATOM      7  C   UNL     1     -14.973  43.626  32.643  1.00  0.00     0.202 C 
BRANCH   3   8
ATOM      8  C   UNL     1     -14.587  47.920  31.973  1.00  0.00     0.191 C 
BRANCH   8   9
ATOM      9  O   UNL     1     -15.701  48.768  31.891  1.00  0.00    -0.394 OA
ATOM     10  H   UNL     1     -15.663  49.366  32.682  1.00  0.00     0.210 HD
ENDBRANCH   8   9
ENDBRANCH   3   8
BRANCH   4  11
ATOM     11  O   UNL     1     -14.099  45.389  30.450  1.00  0.00    -0.387 OA
ATOM     12  H   UNL     1     -14.289  44.665  29.800  1.00  0.00     0.211 HD
ENDBRANCH   4  11
BRANCH   6  13
ATOM     13  O   UNL     1     -17.174  44.522  32.157  1.00  0.00    -0.387 OA
ATOM     14  H   UNL     1     -17.675  45.085  31.510  1.00  0.00     0.211 HD
ENDBRANCH   6  13
BRANCH   7  15
ATOM     15  O   UNL     1     -15.700  42.675  33.377  1.00  0.00    -0.385 OA
ATOM     16  H   UNL     1     -16.138  43.161  34.125  1.00  0.00     0.211 HD
ENDBRANCH   7  15
ENDBRANCH   1   2
BRANCH   1  17
ATOM     17  C   UNL     1     -13.390  43.744  35.755  1.00  0.00     0.224 C 
ATOM     18  C   UNL     1     -14.087  42.804  36.763  1.00  0.00     0.208 C 
ATOM     19  O   UNL     1     -12.625  44.678  36.497  1.00  0.00    -0.337 OA
ATOM     20  C   UNL     1     -14.158  43.639  38.005  1.00  0.00     0.180 C 
ATOM     21  C   UNL     1     -12.915  44.518  37.873  1.00  0.00     0.179 C 
BRANCH  17  22
ATOM     22  C   UNL     1     -12.475  42.898  34.831  1.00  0.00     0.225 C 
BRANCH  22  23
ATOM     23  O   UNL     1     -12.956  41.586  34.702  1.00  0.00    -0.391 OA
ATOM     24  H   UNL     1     -13.878  41.584  35.068  1.00  0.00     0.210 HD
ENDBRANCH  22  23
ENDBRANCH  17  22
BRANCH  18  25
ATOM     25  O   UNL     1     -15.376  42.426  36.349  1.00  0.00    -0.385 OA
ATOM     26  H   UNL     1     -15.673  43.114  35.698  1.00  0.00     0.211 HD
ENDBRANCH  18  25
BRANCH  20  27
ATOM     27  O   UNL     1     -14.155  42.837  39.158  1.00  0.00    -0.387 OA
ATOM     28  H   UNL     1     -14.901  43.163  39.725  1.00  0.00     0.211 HD
ENDBRANCH  20  27
BRANCH  21  29
ATOM     29  C   UNL     1     -11.678  43.952  38.589  1.00  0.00     0.191 C 
BRANCH  29  30
ATOM     30  O   UNL     1     -11.719  44.297  39.945  1.00  0.00    -0.394 OA
ATOM     31  H   UNL     1     -12.042  43.492  40.426  1.00  0.00     0.210 HD
ENDBRANCH  29  30
ENDBRANCH  21  29
ENDBRANCH   1  17
TORSDOF 13
ENDMDL
MODEL 3
REMARK VINA RESULT:    -4.943      9.480     12.481
REMARK INTER + INTRA:          -8.932
REMARK INTER:                  -7.668
REMARK INTRA:                  -1.264
REMARK UNBOUND:                -1.389
REMARK SMILES OC[C@@H]1O[C@@H](O[C@@]2(CO)O[C@H](CO)[C@H](O)[C@H]2O)[C@@H](O)[C@@H](O)[C@@H]1O
REMARK SMILES IDX 6 1 5 2 3 3 22 4 4 5 20 6 18 7 2 8 1 9 23 11 21 13 19 15
REMARK SMILES IDX 7 17 16 18 10 19 14 20 11 21 8 22 9 23 17 25 15 27 12 29
REMARK SMILES IDX 13 30
REMARK H PARENT 1 10 23 12 21 14 19 16 9 24 17 26 15 28 13 31
REMARK Flexibility Score: inf
ROOT
ATOM      1  O   UNL     1     -14.790  42.223  34.294  1.00  0.00    -0.313 OA
ENDROOT
BRANCH   1   2
ATOM      2  C   UNL     1     -15.280  40.884  34.202  1.00  0.00     0.285 C 
ATOM      3  C   UNL     1     -14.357  39.264  32.679  1.00  0.00     0.178 C 
ATOM      4  C   UNL     1     -15.756  38.677  32.423  1.00  0.00     0.177 C 
ATOM      5  O   UNL     1     -14.273  39.909  33.937  1.00  0.00    -0.341 OA
ATOM      6  C   UNL     1     -16.749  39.828  32.287  1.00  0.00     0.179 C 
ATOM      7  C   UNL     1     -16.694  40.735  33.530  1.00  0.00     0.202 C 
BRANCH   3   8
ATOM      8  C   UNL     1     -13.294  38.154  32.627  1.00  0.00     0.191 C 
BRANCH   8   9
ATOM      9  O   UNL     1     -13.216  37.488  33.859  1.00  0.00    -0.394 OA
ATOM     10  H   UNL     1     -12.422  36.895  33.812  1.00  0.00     0.210 HD
ENDBRANCH   8   9
ENDBRANCH   3   8
BRANCH   4  11
ATOM     11  O   UNL     1     -16.146  37.841  33.485  1.00  0.00    -0.387 OA
ATOM     12  H   UNL     1     -15.919  38.313  34.328  1.00  0.00     0.211 HD
ENDBRANCH   4  11
BRANCH   6  13
ATOM     13  O   UNL     1     -16.488  40.563  31.119  1.00  0.00    -0.387 OA
ATOM     14  H   UNL     1     -15.602  40.270  30.782  1.00  0.00     0.211 HD
ENDBRANCH   6  13
BRANCH   7  15
ATOM     15  O   UNL     1     -17.250  41.990  33.231  1.00  0.00    -0.385 OA
ATOM     16  H   UNL     1     -17.886  41.852  32.481  1.00  0.00     0.211 HD
ENDBRANCH   7  15
ENDBRANCH   1   2
BRANCH   1  17
ATOM     17  C   UNL     1     -14.343  42.692  35.565  1.00  0.00     0.224 C 
ATOM     18  C   UNL     1     -14.221  44.231  35.486  1.00  0.00     0.208 C 
ATOM     19  O   UNL     1     -13.063  42.177  35.886  1.00  0.00    -0.337 OA
ATOM     20  C   UNL     1     -12.772  44.434  35.165  1.00  0.00     0.180 C 
ATOM     21  C   UNL     1     -12.120  43.231  35.843  1.00  0.00     0.179 C 
BRANCH  17  22
ATOM     22  C   UNL     1     -15.372  42.327  36.668  1.00  0.00     0.225 C 
BRANCH  22  23
ATOM     23  O   UNL     1     -15.874  43.478  37.295  1.00  0.00    -0.391 OA
ATOM     24  H   UNL     1     -15.382  44.250  36.912  1.00  0.00     0.210 HD
ENDBRANCH  22  23
ENDBRANCH  17  22
BRANCH  18  25
ATOM     25  O   UNL     1     -15.032  44.786  34.481  1.00  0.00    -0.385 OA
ATOM     26  H   UNL     1     -15.738  44.116  34.288  1.00  0.00     0.211 HD
ENDBRANCH  18  25
BRANCH  20  27
ATOM     27  O   UNL     1     -12.313  45.669  35.654  1.00  0.00    -0.387 OA
ATOM     28  H   UNL     1     -11.724  46.045  34.950  1.00  0.00     0.211 HD
ENDBRANCH  20  27
BRANCH  21  29
ATOM     29  C   UNL     1     -11.618  43.519  37.267  1.00  0.00     0.191 C 
BRANCH  29  30
ATOM     30  O   UNL     1     -10.258  43.851  37.230  1.00  0.00    -0.394 OA
ATOM     31  H   UNL     1      -9.950  43.859  38.172  1.00  0.00     0.210 HD
ENDBRANCH  29  30
ENDBRANCH  21  29
ENDBRANCH   1  17
TORSDOF 13
ENDMDL
MODEL 4
REMARK VINA RESULT:    -4.856      1.899      3.134
REMARK INTER + INTRA:          -8.800
REMARK INTER:                  -7.519
REMARK INTRA:                  -1.281
REMARK UNBOUND:                -1.389
REMARK SMILES OC[C@@H]1O[C@@H](O[C@@]2(CO)O[C@H](CO)[C@H](O)[C@H]2O)[C@@H](O)[C@@H](O)[C@@H]1O
REMARK SMILES IDX 6 1 5 2 3 3 22 4 4 5 20 6 18 7 2 8 1 9 23 11 21 13 19 15
REMARK SMILES IDX 7 17 16 18 10 19 14 20 11 21 8 22 9 23 17 25 15 27 12 29
REMARK SMILES IDX 13 30
REMARK H PARENT 1 10 23 12 21 14 19 16 9 24 17 26 15 28 13 31
REMARK Flexibility Score: inf
ROOT
ATOM      1  O   UNL     1      -7.202  43.246  29.540  1.00  0.00    -0.313 OA
ENDROOT
BRANCH   1   2
ATOM      2  C   UNL     1      -6.817  44.451  28.874  1.00  0.00     0.285 C 
ATOM      3  C   UNL     1      -5.247  46.013  29.819  1.00  0.00     0.178 C 
ATOM      4  C   UNL     1      -6.049  47.196  29.249  1.00  0.00     0.177 C 
ATOM      5  O   UNL     1      -5.455  44.823  29.079  1.00  0.00    -0.341 OA
ATOM      6  C   UNL     1      -7.536  46.919  29.454  1.00  0.00     0.179 C 
ATOM      7  C   UNL     1      -7.923  45.568  28.823  1.00  0.00     0.202 C 
BRANCH   3   8
ATOM      8  C   UNL     1      -3.744  46.334  29.813  1.00  0.00     0.191 C 
BRANCH   8   9
ATOM      9  O   UNL     1      -3.525  47.666  29.433  1.00  0.00    -0.394 OA
ATOM     10  H   UNL     1      -4.201  47.878  28.737  1.00  0.00     0.210 HD
ENDBRANCH   8   9
ENDBRANCH   3   8
BRANCH   4  11
ATOM     11  O   UNL     1      -5.785  47.360  27.877  1.00  0.00    -0.387 OA
ATOM     12  H   UNL     1      -6.563  47.833  27.483  1.00  0.00     0.211 HD
ENDBRANCH   4  11
BRANCH   6  13
ATOM     13  O   UNL     1      -7.853  46.941  30.821  1.00  0.00    -0.387 OA
ATOM     14  H   UNL     1      -8.601  47.584  30.937  1.00  0.00     0.211 HD
ENDBRANCH   6  13
BRANCH   7  15
ATOM     15  O   UNL     1      -9.132  45.113  29.374  1.00  0.00    -0.385 OA
ATOM     16  H   UNL     1      -8.986  44.169  29.649  1.00  0.00     0.211 HD
ENDBRANCH   7  15
ENDBRANCH   1   2
BRANCH   1  17
ATOM     17  C   UNL     1      -7.379  42.069  28.754  1.00  0.00     0.224 C 
ATOM     18  C   UNL     1      -6.551  40.938  29.404  1.00  0.00     0.208 C 
ATOM     19  O   UNL     1      -6.895  42.251  27.435  1.00  0.00    -0.337 OA
ATOM     20  C   UNL     1      -5.268  40.977  28.631  1.00  0.00     0.180 C 
ATOM     21  C   UNL     1      -5.733  41.462  27.259  1.00  0.00     0.179 C 
BRANCH  17  22
ATOM     22  C   UNL     1      -8.872  41.649  28.736  1.00  0.00     0.225 C 
BRANCH  22  23
ATOM     23  O   UNL     1      -9.153  40.815  27.643  1.00  0.00    -0.391 OA
ATOM     24  H   UNL     1      -8.567  40.020  27.733  1.00  0.00     0.210 HD
ENDBRANCH  22  23
ENDBRANCH  17  22
BRANCH  18  25
ATOM     25  O   UNL     1      -6.310  41.160  30.770  1.00  0.00    -0.385 OA
ATOM     26  H   UNL     1      -5.325  41.231  30.873  1.00  0.00     0.211 HD
ENDBRANCH  18  25
BRANCH  20  27
ATOM     27  O   UNL     1      -4.656  39.713  28.599  1.00  0.00    -0.387 OA
ATOM     28  H   UNL     1      -3.764  39.825  29.019  1.00  0.00     0.211 HD
ENDBRANCH  20  27
BRANCH  21  29
ATOM     29  C   UNL     1      -6.038  40.325  26.270  1.00  0.00     0.191 C 
BRANCH  29  30
ATOM     30  O   UNL     1      -7.250  40.581  25.618  1.00  0.00    -0.394 OA
ATOM     31  H   UNL     1      -7.929  40.696  26.331  1.00  0.00     0.210 HD
ENDBRANCH  29  30
ENDBRANCH  21  29
ENDBRANCH   1  17
TORSDOF 13
ENDMDL
MODEL 5
REMARK VINA RESULT:    -4.748      8.806     11.560
REMARK INTER + INTRA:          -8.635
REMARK INTER:                  -7.047
REMARK INTRA:                  -1.588
REMARK UNBOUND:                -1.389
REMARK SMILES OC[C@@H]1O[C@@H](O[C@@]2(CO)O[C@H](CO)[C@H](O)[C@H]2O)[C@@H](O)[C@@H](O)[C@@H]1O
REMARK SMILES IDX 6 1 5 2 3 3 22 4 4 5 20 6 18 7 2 8 1 9 23 11 21 13 19 15
REMARK SMILES IDX 7 17 16 18 10 19 14 20 11 21 8 22 9 23 17 25 15 27 12 29
REMARK SMILES IDX 13 30
REMARK H PARENT 1 10 23 12 21 14 19 16 9 24 17 26 15 28 13 31
REMARK Flexibility Score: inf
ROOT
ATOM      1  O   UNL     1     -13.141  42.752  34.657  1.00  0.00    -0.313 OA
ENDROOT
BRANCH   1   2
ATOM      2  C   UNL     1     -14.099  42.813  33.598  1.00  0.00     0.285 C 
ATOM      3  C   UNL     1     -15.481  40.940  32.985  1.00  0.00     0.178 C 
ATOM      4  C   UNL     1     -15.374  41.321  31.498  1.00  0.00     0.177 C 
ATOM      5  O   UNL     1     -15.283  42.054  33.836  1.00  0.00    -0.341 OA
ATOM      6  C   UNL     1     -13.933  41.730  31.203  1.00  0.00     0.179 C 
ATOM      7  C   UNL     1     -13.490  42.861  32.149  1.00  0.00     0.202 C 
BRANCH   3   8
ATOM      8  C   UNL     1     -16.862  40.336  33.283  1.00  0.00     0.191 C 
BRANCH   8   9
ATOM      9  O   UNL     1     -17.856  41.323  33.218  1.00  0.00    -0.394 OA
ATOM     10  H   UNL     1     -17.749  41.889  34.027  1.00  0.00     0.210 HD
ENDBRANCH   8   9
ENDBRANCH   3   8
BRANCH   4  11
ATOM     11  O   UNL     1     -16.237  42.390  31.196  1.00  0.00    -0.387 OA
ATOM     12  H   UNL     1     -15.709  43.226  31.276  1.00  0.00     0.211 HD
ENDBRANCH   4  11
BRANCH   6  13
ATOM     13  O   UNL     1     -13.079  40.621  31.314  1.00  0.00    -0.387 OA
ATOM     14  H   UNL     1     -12.305  40.902  31.869  1.00  0.00     0.211 HD
ENDBRANCH   6  13
BRANCH   7  15
ATOM     15  O   UNL     1     -12.088  42.929  32.189  1.00  0.00    -0.385 OA
ATOM     16  H   UNL     1     -11.823  43.727  31.659  1.00  0.00     0.211 HD
ENDBRANCH   7  15
ENDBRANCH   1   2
BRANCH   1  17
ATOM     17  C   UNL     1     -13.065  43.852  35.562  1.00  0.00     0.224 C 
ATOM     18  C   UNL     1     -11.573  44.212  35.744  1.00  0.00     0.208 C 
ATOM     19  O   UNL     1     -13.581  43.510  36.836  1.00  0.00    -0.337 OA
ATOM     20  C   UNL     1     -11.199  43.466  36.988  1.00  0.00     0.180 C 
ATOM     21  C   UNL     1     -12.514  43.455  37.765  1.00  0.00     0.179 C 
BRANCH  17  22
ATOM     22  C   UNL     1     -13.810  45.083  34.982  1.00  0.00     0.225 C 
BRANCH  22  23
ATOM     23  O   UNL     1     -12.917  45.977  34.373  1.00  0.00    -0.391 OA
ATOM     24  H   UNL     1     -13.401  46.391  33.612  1.00  0.00     0.210 HD
ENDBRANCH  22  23
ENDBRANCH  17  22
BRANCH  18  25
ATOM     25  O   UNL     1     -10.780  43.794  34.661  1.00  0.00    -0.385 OA
ATOM     26  H   UNL     1     -10.559  44.611  34.144  1.00  0.00     0.211 HD
ENDBRANCH  18  25
BRANCH  20  27
ATOM     27  O   UNL     1     -10.153  44.110  37.670  1.00  0.00    -0.387 OA
ATOM     28  H   UNL     1      -9.454  44.300  36.992  1.00  0.00     0.211 HD
ENDBRANCH  20  27
BRANCH  21  29
ATOM     29  C   UNL     1     -12.653  44.614  38.765  1.00  0.00     0.191 C 
BRANCH  29  30
ATOM     30  O   UNL     1     -11.811  44.393  39.862  1.00  0.00    -0.394 OA
ATOM     31  H   UNL     1     -11.203  45.175  39.905  1.00  0.00     0.210 HD
ENDBRANCH  29  30
ENDBRANCH  21  29
ENDBRANCH   1  17
TORSDOF 13
ENDMDL
MODEL 6
REMARK VINA RESULT:    -4.728      9.087     10.627
REMARK INTER + INTRA:          -8.605
REMARK INTER:                  -7.368
REMARK INTRA:                  -1.237
REMARK UNBOUND:                -1.389
REMARK SMILES OC[C@@H]1O[C@@H](O[C@@]2(CO)O[C@H](CO)[C@H](O)[C@H]2O)[C@@H](O)[C@@H](O)[C@@H]1O
REMARK SMILES IDX 6 1 5 2 3 3 22 4 4 5 20 6 18 7 2 8 1 9 23 11 21 13 19 15
REMARK SMILES IDX 7 17 16 18 10 19 14 20 11 21 8 22 9 23 17 25 15 27 12 29
REMARK SMILES IDX 13 30
REMARK H PARENT 1 10 23 12 21 14 19 16 9 24 17 26 15 28 13 31
REMARK Flexibility Score: inf
ROOT
ATOM      1  O   UNL     1     -14.374  41.393  35.025  1.00  0.00    -0.313 OA
ENDROOT
BRANCH   1   2
ATOM      2  C   UNL     1     -13.867  42.702  35.297  1.00  0.00     0.285 C 
ATOM      3  C   UNL     1     -11.841  43.078  36.542  1.00  0.00     0.178 C 
ATOM      4  C   UNL     1     -12.457  44.321  37.208  1.00  0.00     0.177 C 
ATOM      5  O   UNL     1     -12.444  42.790  35.293  1.00  0.00    -0.341 OA
ATOM      6  C   UNL     1     -13.902  44.005  37.586  1.00  0.00     0.179 C 
ATOM      7  C   UNL     1     -14.689  43.530  36.351  1.00  0.00     0.202 C 
BRANCH   3   8
ATOM      8  C   UNL     1     -10.334  43.281  36.321  1.00  0.00     0.191 C 
BRANCH   8   9
ATOM      9  O   UNL     1      -9.769  43.987  37.394  1.00  0.00    -0.394 OA
ATOM     10  H   UNL     1      -8.969  43.475  37.682  1.00  0.00     0.210 HD
ENDBRANCH   8   9
ENDBRANCH   3   8
BRANCH   4  11
ATOM     11  O   UNL     1     -12.430  45.420  36.329  1.00  0.00    -0.387 OA
ATOM     12  H   UNL     1     -11.959  45.126  35.507  1.00  0.00     0.211 HD
ENDBRANCH   4  11
BRANCH   6  13
ATOM     13  O   UNL     1     -13.939  43.040  38.605  1.00  0.00    -0.387 OA
ATOM     14  H   UNL     1     -13.008  42.919  38.928  1.00  0.00     0.211 HD
ENDBRANCH   6  13
BRANCH   7  15
ATOM     15  O   UNL     1     -15.841  42.836  36.757  1.00  0.00    -0.385 OA
ATOM     16  H   UNL     1     -15.539  42.088  37.335  1.00  0.00     0.211 HD
ENDBRANCH   7  15
ENDBRANCH   1   2
BRANCH   1  17
ATOM     17  C   UNL     1     -15.093  41.187  33.811  1.00  0.00     0.224 C 
ATOM     18  C   UNL     1     -14.420  40.020  33.054  1.00  0.00     0.208 C 
ATOM     19  O   UNL     1     -15.034  42.329  32.975  1.00  0.00    -0.337 OA
ATOM     20  C   UNL     1     -13.493  40.723  32.111  1.00  0.00     0.180 C 
ATOM     21  C   UNL     1     -14.237  42.031  31.844  1.00  0.00     0.179 C 
BRANCH  17  22
ATOM     22  C   UNL     1     -16.566  40.805  34.112  1.00  0.00     0.225 C 
BRANCH  22  23
ATOM     23  O   UNL     1     -17.459  41.604  33.381  1.00  0.00    -0.391 OA
ATOM     24  H   UNL     1     -18.053  42.045  34.041  1.00  0.00     0.210 HD
ENDBRANCH  22  23
ENDBRANCH  17  22
BRANCH  18  25
ATOM     25  O   UNL     1     -13.700  39.166  33.907  1.00  0.00    -0.385 OA
ATOM     26  H   UNL     1     -13.710  38.270  33.481  1.00  0.00     0.211 HD
ENDBRANCH  18  25
BRANCH  20  27
ATOM     27  O   UNL     1     -13.272  39.960  30.952  1.00  0.00    -0.387 OA
ATOM     28  H   UNL     1     -13.741  39.097  31.094  1.00  0.00     0.211 HD
ENDBRANCH  20  27
BRANCH  21  29
ATOM     29  C   UNL     1     -15.128  41.993  30.592  1.00  0.00     0.191 C 
BRANCH  29  30
ATOM     30  O   UNL     1     -16.364  42.588  30.876  1.00  0.00    -0.394 OA
ATOM     31  H   UNL     1     -16.289  43.533  30.585  1.00  0.00     0.210 HD
ENDBRANCH  29  30
ENDBRANCH  21  29
ENDBRANCH   1  17
TORSDOF 13
ENDMDL
MODEL 7
REMARK VINA RESULT:    -4.721      8.539     10.405
REMARK INTER + INTRA:          -8.594
REMARK INTER:                  -7.276
REMARK INTRA:                  -1.318
REMARK UNBOUND:                -1.389
REMARK SMILES OC[C@@H]1O[C@@H](O[C@@]2(CO)O[C@H](CO)[C@H](O)[C@H]2O)[C@@H](O)[C@@H](O)[C@@H]1O
REMARK SMILES IDX 6 1 5 2 3 3 22 4 4 5 20 6 18 7 2 8 1 9 23 11 21 13 19 15
REMARK SMILES IDX 7 17 16 18 10 19 14 20 11 21 8 22 9 23 17 25 15 27 12 29
REMARK SMILES IDX 13 30
REMARK H PARENT 1 10 23 12 21 14 19 16 9 24 17 26 15 28 13 31
REMARK Flexibility Score: inf
ROOT
ATOM      1  O   UNL     1     -12.044  44.251  34.687  1.00  0.00    -0.313 OA
ENDROOT
BRANCH   1   2
ATOM      2  C   UNL     1     -12.328  45.641  34.514  1.00  0.00     0.285 C 
ATOM      3  C   UNL     1     -13.817  46.462  32.810  1.00  0.00     0.178 C 
ATOM      4  C   UNL     1     -12.921  47.693  32.591  1.00  0.00     0.177 C 
ATOM      5  O   UNL     1     -13.667  45.919  34.109  1.00  0.00    -0.341 OA
ATOM      6  C   UNL     1     -11.463  47.243  32.611  1.00  0.00     0.179 C 
ATOM      7  C   UNL     1     -11.149  46.494  33.919  1.00  0.00     0.202 C 
BRANCH   3   8
ATOM      8  C   UNL     1     -15.294  46.832  32.603  1.00  0.00     0.191 C 
BRANCH   8   9
ATOM      9  O   UNL     1     -15.410  48.136  32.102  1.00  0.00    -0.394 OA
ATOM     10  H   UNL     1     -16.375  48.369  32.134  1.00  0.00     0.210 HD
ENDBRANCH   8   9
ENDBRANCH   3   8
BRANCH   4  11
ATOM     11  O   UNL     1     -13.133  48.648  33.602  1.00  0.00    -0.387 OA
ATOM     12  H   UNL     1     -12.326  49.224  33.636  1.00  0.00     0.211 HD
ENDBRANCH   4  11
BRANCH   6  13
ATOM     13  O   UNL     1     -11.185  46.438  31.494  1.00  0.00    -0.387 OA
ATOM     14  H   UNL     1     -11.534  46.915  30.696  1.00  0.00     0.211 HD
ENDBRANCH   6  13
BRANCH   7  15
ATOM     15  O   UNL     1      -9.989  45.718  33.759  1.00  0.00    -0.385 OA
ATOM     16  H   UNL     1     -10.125  45.161  32.947  1.00  0.00     0.211 HD
ENDBRANCH   7  15
ENDBRANCH   1   2
BRANCH   1  17
ATOM     17  C   UNL     1     -11.865  43.759  36.014  1.00  0.00     0.224 C 
ATOM     18  C   UNL     1     -12.727  42.486  36.167  1.00  0.00     0.208 C 
ATOM     19  O   UNL     1     -12.312  44.697  36.978  1.00  0.00    -0.337 OA
ATOM     20  C   UNL     1     -13.989  43.009  36.782  1.00  0.00     0.180 C 
ATOM     21  C   UNL     1     -13.481  44.196  37.599  1.00  0.00     0.179 C 
BRANCH  17  22
ATOM     22  C   UNL     1     -10.379  43.390  36.259  1.00  0.00     0.225 C 
BRANCH  22  23
ATOM     23  O   UNL     1      -9.907  43.947  37.457  1.00  0.00    -0.391 OA
ATOM     24  H   UNL     1      -8.922  43.820  37.462  1.00  0.00     0.210 HD
ENDBRANCH  22  23
ENDBRANCH  17  22
BRANCH  18  25
ATOM     25  O   UNL     1     -13.000  41.866  34.935  1.00  0.00    -0.385 OA
ATOM     26  H   UNL     1     -13.184  42.597  34.289  1.00  0.00     0.211 HD
ENDBRANCH  18  25
BRANCH  20  27
ATOM     27  O   UNL     1     -14.620  42.024  37.562  1.00  0.00    -0.387 OA
ATOM     28  H   UNL     1     -15.323  42.491  38.084  1.00  0.00     0.211 HD
ENDBRANCH  20  27
BRANCH  21  29
ATOM     29  C   UNL     1     -13.169  43.853  39.064  1.00  0.00     0.191 C 
BRANCH  29  30
ATOM     30  O   UNL     1     -11.956  44.445  39.438  1.00  0.00    -0.394 OA
ATOM     31  H   UNL     1     -11.453  44.599  38.597  1.00  0.00     0.210 HD
ENDBRANCH  29  30
ENDBRANCH  21  29
ENDBRANCH   1  17
TORSDOF 13
ENDMDL
MODEL 8
REMARK VINA RESULT:    -4.678      9.157     10.866
REMARK INTER + INTRA:          -8.528
REMARK INTER:                  -7.064
REMARK INTRA:                  -1.464
REMARK UNBOUND:                -1.389
REMARK SMILES OC[C@@H]1O[C@@H](O[C@@]2(CO)O[C@H](CO)[C@H](O)[C@H]2O)[C@@H](O)[C@@H](O)[C@@H]1O
REMARK SMILES IDX 6 1 5 2 3 3 22 4 4 5 20 6 18 7 2 8 1 9 23 11 21 13 19 15
REMARK SMILES IDX 7 17 16 18 10 19 14 20 11 21 8 22 9 23 17 25 15 27 12 29
REMARK SMILES IDX 13 30
REMARK H PARENT 1 10 23 12 21 14 19 16 9 24 17 26 15 28 13 31
REMARK Flexibility Score: inf
ROOT
ATOM      1  O   UNL     1     -13.679  41.113  34.529  1.00  0.00    -0.313 OA
ENDROOT
BRANCH   1   2
ATOM      2  C   UNL     1     -14.288  42.222  35.194  1.00  0.00     0.285 C 
ATOM      3  C   UNL     1     -13.447  43.118  37.264  1.00  0.00     0.178 C 
ATOM      4  C   UNL     1     -14.880  43.384  37.755  1.00  0.00     0.177 C 
ATOM      5  O   UNL     1     -13.365  43.089  35.851  1.00  0.00    -0.341 OA
ATOM      6  C   UNL     1     -15.752  42.188  37.383  1.00  0.00     0.179 C 
ATOM      7  C   UNL     1     -15.674  41.915  35.870  1.00  0.00     0.202 C 
BRANCH   3   8
ATOM      8  C   UNL     1     -12.492  44.203  37.786  1.00  0.00     0.191 C 
BRANCH   8   9
ATOM      9  O   UNL     1     -13.023  44.819  38.929  1.00  0.00    -0.394 OA
ATOM     10  H   UNL     1     -13.496  45.636  38.618  1.00  0.00     0.210 HD
ENDBRANCH   8   9
ENDBRANCH   3   8
BRANCH   4  11
ATOM     11  O   UNL     1     -15.400  44.549  37.161  1.00  0.00    -0.387 OA
ATOM     12  H   UNL     1     -15.189  45.306  37.766  1.00  0.00     0.211 HD
ENDBRANCH   4  11
BRANCH   6  13
ATOM     13  O   UNL     1     -15.365  41.055  38.117  1.00  0.00    -0.387 OA
ATOM     14  H   UNL     1     -16.173  40.722  38.588  1.00  0.00     0.211 HD
ENDBRANCH   6  13
BRANCH   7  15
ATOM     15  O   UNL     1     -16.093  40.602  35.599  1.00  0.00    -0.385 OA
ATOM     16  H   UNL     1     -16.780  40.661  34.883  1.00  0.00     0.211 HD
ENDBRANCH   7  15
ENDBRANCH   1   2
BRANCH   1  17
ATOM     17  C   UNL     1     -13.842  41.001  33.116  1.00  0.00     0.224 C 
ATOM     18  C   UNL     1     -14.197  39.532  32.796  1.00  0.00     0.208 C 
ATOM     19  O   UNL     1     -12.641  41.310  32.431  1.00  0.00    -0.337 OA
ATOM     20  C   UNL     1     -12.867  38.934  32.453  1.00  0.00     0.180 C 
ATOM     21  C   UNL     1     -12.123  40.126  31.855  1.00  0.00     0.179 C 
BRANCH  17  22
ATOM     22  C   UNL     1     -14.999  41.913  32.631  1.00  0.00     0.225 C 
BRANCH  22  23
ATOM     23  O   UNL     1     -16.206  41.202  32.549  1.00  0.00    -0.391 OA
ATOM     24  H   UNL     1     -16.342  40.981  31.591  1.00  0.00     0.210 HD
ENDBRANCH  22  23
ENDBRANCH  17  22
BRANCH  18  25
ATOM     25  O   UNL     1     -14.771  38.863  33.891  1.00  0.00    -0.385 OA
ATOM     26  H   UNL     1     -15.678  39.246  34.010  1.00  0.00     0.211 HD
ENDBRANCH  18  25
BRANCH  20  27
ATOM     27  O   UNL     1     -13.009  37.859  31.560  1.00  0.00    -0.387 OA
ATOM     28  H   UNL     1     -12.771  37.041  32.069  1.00  0.00     0.211 HD
ENDBRANCH  20  27
BRANCH  21  29
ATOM     29  C   UNL     1     -12.229  40.219  30.325  1.00  0.00     0.191 C 
BRANCH  29  30
ATOM     30  O   UNL     1     -11.397  39.259  29.736  1.00  0.00    -0.394 OA
ATOM     31  H   UNL     1     -10.499  39.675  29.668  1.00  0.00     0.210 HD
ENDBRANCH  29  30
ENDBRANCH  21  29
ENDBRANCH   1  17
TORSDOF 13
ENDMDL
MODEL 9
REMARK VINA RESULT:    -4.654      3.710      6.711
REMARK INTER + INTRA:          -8.491
REMARK INTER:                  -7.235
REMARK INTRA:                  -1.256
REMARK UNBOUND:                -1.389
REMARK SMILES OC[C@@H]1O[C@@H](O[C@@]2(CO)O[C@H](CO)[C@H](O)[C@H]2O)[C@@H](O)[C@@H](O)[C@@H]1O
REMARK SMILES IDX 6 1 5 2 3 3 22 4 4 5 20 6 18 7 2 8 1 9 23 11 21 13 19 15
REMARK SMILES IDX 7 17 16 18 10 19 14 20 11 21 8 22 9 23 17 25 15 27 12 29
REMARK SMILES IDX 13 30
REMARK H PARENT 1 10 23 12 21 14 19 16 9 24 17 26 15 28 13 31
REMARK Flexibility Score: inf
ROOT
ATOM      1  O   UNL     1      -8.427  40.724  29.382  1.00  0.00    -0.313 OA
ENDROOT
BRANCH   1   2
ATOM      2  C   UNL     1      -9.520  41.291  30.107  1.00  0.00     0.285 C 
ATOM      3  C   UNL     1     -10.541  40.190  31.988  1.00  0.00     0.178 C 
ATOM      4  C   UNL     1     -11.928  40.702  31.561  1.00  0.00     0.177 C 
ATOM      5  O   UNL     1      -9.497  41.017  31.507  1.00  0.00    -0.341 OA
ATOM      6  C   UNL     1     -12.051  40.566  30.046  1.00  0.00     0.179 C 
ATOM      7  C   UNL     1     -10.894  41.301  29.344  1.00  0.00     0.202 C 
BRANCH   3   8
ATOM      8  C   UNL     1     -10.445  40.124  33.521  1.00  0.00     0.191 C 
BRANCH   8   9
ATOM      9  O   UNL     1     -11.696  40.371  34.105  1.00  0.00    -0.394 OA
ATOM     10  H   UNL     1     -11.942  41.303  33.869  1.00  0.00     0.210 HD
ENDBRANCH   8   9
ENDBRANCH   3   8
BRANCH   4  11
ATOM     11  O   UNL     1     -12.095  42.049  31.928  1.00  0.00    -0.387 OA
ATOM     12  H   UNL     1     -11.207  42.486  31.853  1.00  0.00     0.211 HD
ENDBRANCH   4  11
BRANCH   6  13
ATOM     13  O   UNL     1     -12.079  39.211  29.678  1.00  0.00    -0.387 OA
ATOM     14  H   UNL     1     -12.615  39.145  28.845  1.00  0.00     0.211 HD
ENDBRANCH   6  13
BRANCH   7  15
ATOM     15  O   UNL     1     -10.751  40.823  28.031  1.00  0.00    -0.385 OA
ATOM     16  H   UNL     1      -9.809  40.991  27.765  1.00  0.00     0.211 HD
ENDBRANCH   7  15
ENDBRANCH   1   2
BRANCH   1  17
ATOM     17  C   UNL     1      -7.457  41.609  28.824  1.00  0.00     0.224 C 
ATOM     18  C   UNL     1      -7.221  41.187  27.356  1.00  0.00     0.208 C 
ATOM     19  O   UNL     1      -6.217  41.511  29.502  1.00  0.00    -0.337 OA
ATOM     20  C   UNL     1      -6.015  40.303  27.452  1.00  0.00     0.180 C 
ATOM     21  C   UNL     1      -5.270  40.904  28.643  1.00  0.00     0.179 C 
BRANCH  17  22
ATOM     22  C   UNL     1      -7.979  43.070  28.847  1.00  0.00     0.225 C 
BRANCH  22  23
ATOM     23  O   UNL     1      -6.935  43.986  28.652  1.00  0.00    -0.391 OA
ATOM     24  H   UNL     1      -6.524  43.768  27.775  1.00  0.00     0.210 HD
ENDBRANCH  22  23
ENDBRANCH  17  22
BRANCH  18  25
ATOM     25  O   UNL     1      -8.308  40.479  26.815  1.00  0.00    -0.385 OA
ATOM     26  H   UNL     1      -9.095  41.081  26.882  1.00  0.00     0.211 HD
ENDBRANCH  18  25
BRANCH  20  27
ATOM     27  O   UNL     1      -5.273  40.325  26.260  1.00  0.00    -0.387 OA
ATOM     28  H   UNL     1      -4.419  40.785  26.472  1.00  0.00     0.211 HD
ENDBRANCH  20  27
BRANCH  21  29
ATOM     29  C   UNL     1      -4.206  41.941  28.249  1.00  0.00     0.191 C 
BRANCH  29  30
ATOM     30  O   UNL     1      -3.051  41.286  27.803  1.00  0.00    -0.394 OA
ATOM     31  H   UNL     1      -2.660  41.864  27.098  1.00  0.00     0.210 HD
ENDBRANCH  29  30
ENDBRANCH  21  29
ENDBRANCH   1  17
TORSDOF 13
ENDMDL
