MODEL 1
REMARK VINA RESULT:    -4.983      0.000      0.000
REMARK INTER + INTRA:         -15.168
REMARK INTER:                 -13.139
REMARK INTRA:                  -2.030
REMARK UNBOUND:                -2.030
REMARK SMILES CCCCCCCCCCCCCCCCCCCCCCCCCCCCCC(=O)[O-]
REMARK SMILES IDX 16 1 17 2 18 3 19 4 20 5 21 6 22 7 23 8 24 9 25 10 26 11
REMARK SMILES IDX 27 12 28 13 29 14 30 15 31 16 32 17 15 18 14 19 13 20 12 21
REMARK SMILES IDX 11 22 10 23 9 24 8 25 7 26 6 27 5 28 4 29 3 30 2 31 1 32
REMARK H PARENT
REMARK Flexibility Score: inf
ROOT
ATOM      1  C   UNL     1     127.430 124.645 126.816  1.00  0.00     0.000 C 
ENDROOT
BRANCH   1   2
ATOM      2  C   UNL     1     126.640 124.489 128.126  1.00  0.00     0.000 C 
BRANCH   2   3
ATOM      3  C   UNL     1     125.847 123.173 128.185  1.00  0.00     0.000 C 
BRANCH   3   4
ATOM      4  C   UNL     1     124.537 123.311 128.980  1.00  0.00     0.000 C 
BRANCH   4   5
ATOM      5  C   UNL     1     124.533 122.467 130.264  1.00  0.00     0.000 C 
BRANCH   5   6
ATOM      6  C   UNL     1     124.768 120.971 129.992  1.00  0.00     0.000 C 
BRANCH   6   7
ATOM      7  C   UNL     1     124.452 120.094 131.215  1.00  0.00     0.000 C 
BRANCH   7   8
ATOM      8  C   UNL     1     122.960 120.120 131.591  1.00  0.00     0.000 C 
BRANCH   8   9
ATOM      9  C   UNL     1     122.727 120.540 133.051  1.00  0.00     0.000 C 
BRANCH   9  10
ATOM     10  C   UNL     1     122.130 121.953 133.172  1.00  0.00     0.000 C 
BRANCH  10  11
ATOM     11  C   UNL     1     122.918 122.846 134.154  1.00  0.00     0.000 C 
BRANCH  11  12
ATOM     12  C   UNL     1     124.425 122.934 133.845  1.00  0.00     0.000 C 
BRANCH  12  13
ATOM     13  C   UNL     1     125.342 122.993 135.082  1.00  0.00     0.006 C 
BRANCH  13  14
ATOM     14  C   UNL     1     125.638 124.415 135.588  1.00  0.00     0.053 C 
BRANCH  14  15
ATOM     15  C   UNL     1     127.030 124.540 136.127  1.00  0.00     0.041 C 
ATOM     16  O   UNL     1     128.017 124.240 135.406  1.00  0.00    -0.550 OA
ATOM     17  O   UNL     1     127.238 125.026 137.412  1.00  0.00    -0.550 OA
ENDBRANCH  14  15
ENDBRANCH  13  14
ENDBRANCH  12  13
ENDBRANCH  11  12
ENDBRANCH  10  11
ENDBRANCH   9  10
ENDBRANCH   8   9
ENDBRANCH   7   8
ENDBRANCH   6   7
ENDBRANCH   5   6
ENDBRANCH   4   5
ENDBRANCH   3   4
ENDBRANCH   2   3
ENDBRANCH   1   2
BRANCH   1  18
ATOM     18  C   UNL     1     126.520 124.671 125.577  1.00  0.00     0.000 C 
BRANCH  18  19
ATOM     19  C   UNL     1     127.275 125.079 124.300  1.00  0.00     0.000 C 
BRANCH  19  20
ATOM     20  C   UNL     1     126.444 125.999 123.391  1.00  0.00     0.000 C 
BRANCH  20  21
ATOM     21  C   UNL     1     127.319 126.908 122.511  1.00  0.00     0.000 C 
BRANCH  21  22
ATOM     22  C   UNL     1     127.968 128.053 123.305  1.00  0.00     0.000 C 
BRANCH  22  23
ATOM     23  C   UNL     1     128.525 129.160 122.398  1.00  0.00     0.000 C 
BRANCH  23  24
ATOM     24  C   UNL     1     129.153 130.285 123.229  1.00  0.00    -0.000 C 
BRANCH  24  25
ATOM     25  C   UNL     1     128.271 130.639 124.436  1.00  0.00    -0.000 C 
BRANCH  25  26
ATOM     26  C   UNL     1     129.090 131.034 125.674  1.00  0.00    -0.000 C 
BRANCH  26  27
ATOM     27  C   UNL     1     128.240 131.734 126.749  1.00  0.00    -0.000 C 
BRANCH  27  28
ATOM     28  C   UNL     1     128.471 131.158 128.158  1.00  0.00    -0.000 C 
BRANCH  28  29
ATOM     29  C   UNL     1     129.939 130.825 128.489  1.00  0.00    -0.000 C 
BRANCH  29  30
ATOM     30  C   UNL     1     130.668 131.870 129.357  1.00  0.00    -0.000 C 
BRANCH  30  31
ATOM     31  C   UNL     1     131.077 133.154 128.613  1.00  0.00    -0.003 C 
ATOM     32  C   UNL     1     130.694 134.427 129.367  1.00  0.00     0.004 C 
ENDBRANCH  30  31
ENDBRANCH  29  30
ENDBRANCH  28  29
ENDBRANCH  27  28
ENDBRANCH  26  27
ENDBRANCH  25  26
ENDBRANCH  24  25
ENDBRANCH  23  24
ENDBRANCH  22  23
ENDBRANCH  21  22
ENDBRANCH  20  21
ENDBRANCH  19  20
ENDBRANCH  18  19
ENDBRANCH   1  18
TORSDOF 28
ENDMDL
MODEL 2
REMARK VINA RESULT:    -4.964      4.673      9.665
REMARK INTER + INTRA:         -15.118
REMARK INTER:                 -11.111
REMARK INTRA:                  -4.007
REMARK UNBOUND:                -2.030
REMARK SMILES CCCCCCCCCCCCCCCCCCCCCCCCCCCCCC(=O)[O-]
REMARK SMILES IDX 16 1 17 2 18 3 19 4 20 5 21 6 22 7 23 8 24 9 25 10 26 11
REMARK SMILES IDX 27 12 28 13 29 14 30 15 31 16 32 17 15 18 14 19 13 20 12 21
REMARK SMILES IDX 11 22 10 23 9 24 8 25 7 26 6 27 5 28 4 29 3 30 2 31 1 32
REMARK H PARENT
REMARK Flexibility Score: inf
ROOT
ATOM      1  C   UNL     1     127.288 124.667 138.801  1.00  0.00     0.000 C 
ENDROOT
BRANCH   1   2
ATOM      2  C   UNL     1     126.649 125.056 137.457  1.00  0.00     0.000 C 
BRANCH   2   3
ATOM      3  C   UNL     1     126.451 123.850 136.525  1.00  0.00     0.000 C 
BRANCH   3   4
ATOM      4  C   UNL     1     126.837 124.161 135.069  1.00  0.00     0.000 C 
BRANCH   4   5
ATOM      5  C   UNL     1     125.616 124.445 134.181  1.00  0.00     0.000 C 
BRANCH   5   6
ATOM      6  C   UNL     1     124.352 123.708 134.657  1.00  0.00     0.000 C 
BRANCH   6   7
ATOM      7  C   UNL     1     123.745 122.813 133.564  1.00  0.00     0.000 C 
BRANCH   7   8
ATOM      8  C   UNL     1     124.784 121.875 132.925  1.00  0.00     0.000 C 
BRANCH   8   9
ATOM      9  C   UNL     1     124.258 121.188 131.655  1.00  0.00     0.000 C 
BRANCH   9  10
ATOM     10  C   UNL     1     123.921 122.190 130.536  1.00  0.00     0.000 C 
BRANCH  10  11
ATOM     11  C   UNL     1     124.800 121.994 129.282  1.00  0.00     0.000 C 
BRANCH  11  12
ATOM     12  C   UNL     1     124.969 123.270 128.434  1.00  0.00     0.000 C 
BRANCH  12  13
ATOM     13  C   UNL     1     125.646 124.449 129.158  1.00  0.00     0.006 C 
BRANCH  13  14
ATOM     14  C   UNL     1     126.772 125.126 128.359  1.00  0.00     0.053 C 
BRANCH  14  15
ATOM     15  C   UNL     1     127.506 124.151 127.489  1.00  0.00     0.041 C 
ATOM     16  O   UNL     1     127.407 124.222 126.236  1.00  0.00    -0.550 OA
ATOM     17  O   UNL     1     128.330 123.191 128.061  1.00  0.00    -0.550 OA
ENDBRANCH  14  15
ENDBRANCH  13  14
ENDBRANCH  12  13
ENDBRANCH  11  12
ENDBRANCH  10  11
ENDBRANCH   9  10
ENDBRANCH   8   9
ENDBRANCH   7   8
ENDBRANCH   6   7
ENDBRANCH   5   6
ENDBRANCH   4   5
ENDBRANCH   3   4
ENDBRANCH   2   3
ENDBRANCH   1   2
BRANCH   1  18
ATOM     18  C   UNL     1     128.432 125.610 139.205  1.00  0.00     0.000 C 
BRANCH  18  19
ATOM     19  C   UNL     1     128.427 126.920 138.398  1.00  0.00     0.000 C 
BRANCH  19  20
ATOM     20  C   UNL     1     129.363 127.984 138.993  1.00  0.00     0.000 C 
BRANCH  20  21
ATOM     21  C   UNL     1     129.720 129.089 137.983  1.00  0.00     0.000 C 
BRANCH  21  22
ATOM     22  C   UNL     1     129.668 130.495 138.604  1.00  0.00     0.000 C 
BRANCH  22  23
ATOM     23  C   UNL     1     128.961 131.515 137.699  1.00  0.00     0.000 C 
BRANCH  23  24
ATOM     24  C   UNL     1     128.166 130.810 136.594  1.00  0.00    -0.000 C 
BRANCH  24  25
ATOM     25  C   UNL     1     128.533 131.365 135.210  1.00  0.00    -0.000 C 
BRANCH  25  26
ATOM     26  C   UNL     1     129.875 130.825 134.691  1.00  0.00    -0.000 C 
BRANCH  26  27
ATOM     27  C   UNL     1     129.703 129.631 133.735  1.00  0.00    -0.000 C 
BRANCH  27  28
ATOM     28  C   UNL     1     130.039 128.283 134.400  1.00  0.00    -0.000 C 
BRANCH  28  29
ATOM     29  C   UNL     1     128.817 127.453 134.836  1.00  0.00    -0.000 C 
BRANCH  29  30
ATOM     30  C   UNL     1     127.496 127.804 134.121  1.00  0.00    -0.000 C 
BRANCH  30  31
ATOM     31  C   UNL     1     126.292 128.012 135.056  1.00  0.00    -0.003 C 
ATOM     32  C   UNL     1     124.953 127.976 134.320  1.00  0.00     0.004 C 
ENDBRANCH  30  31
ENDBRANCH  29  30
ENDBRANCH  28  29
ENDBRANCH  27  28
ENDBRANCH  26  27
ENDBRANCH  25  26
ENDBRANCH  24  25
ENDBRANCH  23  24
ENDBRANCH  22  23
ENDBRANCH  21  22
ENDBRANCH  20  21
ENDBRANCH  19  20
ENDBRANCH  18  19
ENDBRANCH   1  18
TORSDOF 28
ENDMDL
MODEL 3
REMARK VINA RESULT:    -4.938      4.719     10.759
REMARK INTER + INTRA:         -15.050
REMARK INTER:                 -11.095
REMARK INTRA:                  -3.955
REMARK UNBOUND:                -2.030
REMARK SMILES CCCCCCCCCCCCCCCCCCCCCCCCCCCCCC(=O)[O-]
REMARK SMILES IDX 16 1 17 2 18 3 19 4 20 5 21 6 22 7 23 8 24 9 25 10 26 11
REMARK SMILES IDX 27 12 28 13 29 14 30 15 31 16 32 17 15 18 14 19 13 20 12 21
REMARK SMILES IDX 11 22 10 23 9 24 8 25 7 26 6 27 5 28 4 29 3 30 2 31 1 32
REMARK H PARENT
REMARK Flexibility Score: inf
ROOT
ATOM      1  C   UNL     1     125.732 127.482 134.091  1.00  0.00     0.000 C 
ENDROOT
BRANCH   1   2
ATOM      2  C   UNL     1     126.793 128.240 134.908  1.00  0.00     0.000 C 
BRANCH   2   3
ATOM      3  C   UNL     1     128.220 128.002 134.390  1.00  0.00     0.000 C 
BRANCH   3   4
ATOM      4  C   UNL     1     129.116 127.310 135.431  1.00  0.00     0.000 C 
BRANCH   4   5
ATOM      5  C   UNL     1     128.390 126.185 136.184  1.00  0.00     0.000 C 
BRANCH   5   6
ATOM      6  C   UNL     1     128.524 126.309 137.711  1.00  0.00     0.000 C 
BRANCH   6   7
ATOM      7  C   UNL     1     127.165 126.257 138.428  1.00  0.00     0.000 C 
BRANCH   7   8
ATOM      8  C   UNL     1     126.433 127.611 138.407  1.00  0.00     0.000 C 
BRANCH   8   9
ATOM      9  C   UNL     1     127.094 128.654 139.321  1.00  0.00     0.000 C 
BRANCH   9  10
ATOM     10  C   UNL     1     127.261 130.022 138.635  1.00  0.00     0.000 C 
BRANCH  10  11
ATOM     11  C   UNL     1     128.467 130.058 137.673  1.00  0.00     0.000 C 
BRANCH  11  12
ATOM     12  C   UNL     1     128.715 131.439 137.035  1.00  0.00     0.000 C 
BRANCH  12  13
ATOM     13  C   UNL     1     128.569 131.485 135.502  1.00  0.00     0.006 C 
BRANCH  13  14
ATOM     14  C   UNL     1     129.729 132.185 134.773  1.00  0.00     0.053 C 
BRANCH  14  15
ATOM     15  C   UNL     1     131.025 131.456 134.952  1.00  0.00     0.041 C 
ATOM     16  O   UNL     1     131.048 130.197 134.954  1.00  0.00    -0.550 OA
ATOM     17  O   UNL     1     132.213 132.166 135.076  1.00  0.00    -0.550 OA
ENDBRANCH  14  15
ENDBRANCH  13  14
ENDBRANCH  12  13
ENDBRANCH  11  12
ENDBRANCH  10  11
ENDBRANCH   9  10
ENDBRANCH   8   9
ENDBRANCH   7   8
ENDBRANCH   6   7
ENDBRANCH   5   6
ENDBRANCH   4   5
ENDBRANCH   3   4
ENDBRANCH   2   3
ENDBRANCH   1   2
BRANCH   1  18
ATOM     18  C   UNL     1     124.599 126.926 134.969  1.00  0.00     0.000 C 
BRANCH  18  19
ATOM     19  C   UNL     1     124.898 125.508 135.488  1.00  0.00     0.000 C 
BRANCH  19  20
ATOM     20  C   UNL     1     125.492 124.595 134.404  1.00  0.00     0.000 C 
BRANCH  20  21
ATOM     21  C   UNL     1     125.038 123.132 134.549  1.00  0.00     0.000 C 
BRANCH  21  22
ATOM     22  C   UNL     1     124.077 122.698 133.430  1.00  0.00     0.000 C 
BRANCH  22  23
ATOM     23  C   UNL     1     123.440 121.325 133.697  1.00  0.00     0.000 C 
BRANCH  23  24
ATOM     24  C   UNL     1     122.248 121.083 132.764  1.00  0.00    -0.000 C 
BRANCH  24  25
ATOM     25  C   UNL     1     122.522 119.910 131.812  1.00  0.00    -0.000 C 
BRANCH  25  26
ATOM     26  C   UNL     1     123.985 119.443 131.852  1.00  0.00    -0.000 C 
BRANCH  26  27
ATOM     27  C   UNL     1     124.685 119.566 130.487  1.00  0.00    -0.000 C 
BRANCH  27  28
ATOM     28  C   UNL     1     125.536 120.844 130.368  1.00  0.00    -0.000 C 
BRANCH  28  29
ATOM     29  C   UNL     1     124.763 122.097 129.912  1.00  0.00    -0.000 C 
BRANCH  29  30
ATOM     30  C   UNL     1     124.948 122.478 128.430  1.00  0.00    -0.000 C 
BRANCH  30  31
ATOM     31  C   UNL     1     126.291 123.153 128.099  1.00  0.00    -0.003 C 
ATOM     32  C   UNL     1     126.217 124.679 128.141  1.00  0.00     0.004 C 
ENDBRANCH  30  31
ENDBRANCH  29  30
ENDBRANCH  28  29
ENDBRANCH  27  28
ENDBRANCH  26  27
ENDBRANCH  25  26
ENDBRANCH  24  25
ENDBRANCH  23  24
ENDBRANCH  22  23
ENDBRANCH  21  22
ENDBRANCH  20  21
ENDBRANCH  19  20
ENDBRANCH  18  19
ENDBRANCH   1  18
TORSDOF 28
ENDMDL
MODEL 4
REMARK VINA RESULT:    -4.935      4.544      8.761
REMARK INTER + INTRA:         -15.042
REMARK INTER:                 -11.533
REMARK INTRA:                  -3.510
REMARK UNBOUND:                -2.030
REMARK SMILES CCCCCCCCCCCCCCCCCCCCCCCCCCCCCC(=O)[O-]
REMARK SMILES IDX 16 1 17 2 18 3 19 4 20 5 21 6 22 7 23 8 24 9 25 10 26 11
REMARK SMILES IDX 27 12 28 13 29 14 30 15 31 16 32 17 15 18 14 19 13 20 12 21
REMARK SMILES IDX 11 22 10 23 9 24 8 25 7 26 6 27 5 28 4 29 3 30 2 31 1 32
REMARK H PARENT
REMARK Flexibility Score: inf
ROOT
ATOM      1  C   UNL     1     126.464 124.192 134.673  1.00  0.00     0.000 C 
ENDROOT
BRANCH   1   2
ATOM      2  C   UNL     1     125.423 123.097 134.967  1.00  0.00     0.000 C 
BRANCH   2   3
ATOM      3  C   UNL     1     124.554 122.763 133.745  1.00  0.00     0.000 C 
BRANCH   3   4
ATOM      4  C   UNL     1     123.054 122.976 134.013  1.00  0.00     0.000 C 
BRANCH   4   5
ATOM      5  C   UNL     1     122.225 121.705 133.773  1.00  0.00     0.000 C 
BRANCH   5   6
ATOM      6  C   UNL     1     123.041 120.416 133.974  1.00  0.00     0.000 C 
BRANCH   6   7
ATOM      7  C   UNL     1     122.888 119.433 132.803  1.00  0.00     0.000 C 
BRANCH   7   8
ATOM      8  C   UNL     1     123.373 120.025 131.467  1.00  0.00     0.000 C 
BRANCH   8   9
ATOM      9  C   UNL     1     124.718 119.436 131.014  1.00  0.00     0.000 C 
BRANCH   9  10
ATOM     10  C   UNL     1     125.616 120.476 130.320  1.00  0.00     0.000 C 
BRANCH  10  11
ATOM     11  C   UNL     1     124.815 121.674 129.768  1.00  0.00     0.000 C 
BRANCH  11  12
ATOM     12  C   UNL     1     125.527 122.429 128.628  1.00  0.00     0.000 C 
BRANCH  12  13
ATOM     13  C   UNL     1     127.064 122.326 128.639  1.00  0.00     0.006 C 
BRANCH  13  14
ATOM     14  C   UNL     1     127.769 123.216 127.601  1.00  0.00     0.053 C 
BRANCH  14  15
ATOM     15  C   UNL     1     127.070 124.529 127.422  1.00  0.00     0.041 C 
ATOM     16  O   UNL     1     126.569 124.833 126.308  1.00  0.00    -0.550 OA
ATOM     17  O   UNL     1     126.937 125.399 128.497  1.00  0.00    -0.550 OA
ENDBRANCH  14  15
ENDBRANCH  13  14
ENDBRANCH  12  13
ENDBRANCH  11  12
ENDBRANCH  10  11
ENDBRANCH   9  10
ENDBRANCH   8   9
ENDBRANCH   7   8
ENDBRANCH   6   7
ENDBRANCH   5   6
ENDBRANCH   4   5
ENDBRANCH   3   4
ENDBRANCH   2   3
ENDBRANCH   1   2
BRANCH   1  18
ATOM     18  C   UNL     1     127.555 124.272 135.752  1.00  0.00     0.000 C 
BRANCH  18  19
ATOM     19  C   UNL     1     127.025 124.825 137.087  1.00  0.00     0.000 C 
BRANCH  19  20
ATOM     20  C   UNL     1     127.986 125.835 137.732  1.00  0.00     0.000 C 
BRANCH  20  21
ATOM     21  C   UNL     1     128.397 126.960 136.767  1.00  0.00     0.000 C 
BRANCH  21  22
ATOM     22  C   UNL     1     127.220 127.873 136.388  1.00  0.00     0.000 C 
BRANCH  22  23
ATOM     23  C   UNL     1     126.990 127.942 134.871  1.00  0.00     0.000 C 
BRANCH  23  24
ATOM     24  C   UNL     1     128.275 127.607 134.106  1.00  0.00    -0.000 C 
BRANCH  24  25
ATOM     25  C   UNL     1     128.892 128.867 133.483  1.00  0.00    -0.000 C 
BRANCH  25  26
ATOM     26  C   UNL     1     129.911 129.549 134.409  1.00  0.00    -0.000 C 
BRANCH  26  27
ATOM     27  C   UNL     1     129.654 131.058 134.564  1.00  0.00    -0.000 C 
BRANCH  27  28
ATOM     28  C   UNL     1     128.545 131.372 135.585  1.00  0.00    -0.000 C 
BRANCH  28  29
ATOM     29  C   UNL     1     129.047 131.757 136.990  1.00  0.00    -0.000 C 
BRANCH  29  30
ATOM     30  C   UNL     1     128.350 131.030 138.157  1.00  0.00    -0.000 C 
BRANCH  30  31
ATOM     31  C   UNL     1     129.161 129.877 138.775  1.00  0.00    -0.003 C 
ATOM     32  C   UNL     1     130.656 129.972 138.474  1.00  0.00     0.004 C 
ENDBRANCH  30  31
ENDBRANCH  29  30
ENDBRANCH  28  29
ENDBRANCH  27  28
ENDBRANCH  26  27
ENDBRANCH  25  26
ENDBRANCH  24  25
ENDBRANCH  23  24
ENDBRANCH  22  23
ENDBRANCH  21  22
ENDBRANCH  20  21
ENDBRANCH  19  20
ENDBRANCH  18  19
ENDBRANCH   1  18
TORSDOF 28
ENDMDL
MODEL 5
REMARK VINA RESULT:    -4.860      5.567      9.984
REMARK INTER + INTRA:         -14.846
REMARK INTER:                  -9.392
REMARK INTRA:                  -5.453
REMARK UNBOUND:                -2.030
REMARK SMILES CCCCCCCCCCCCCCCCCCCCCCCCCCCCCC(=O)[O-]
REMARK SMILES IDX 16 1 17 2 18 3 19 4 20 5 21 6 22 7 23 8 24 9 25 10 26 11
REMARK SMILES IDX 27 12 28 13 29 14 30 15 31 16 32 17 15 18 14 19 13 20 12 21
REMARK SMILES IDX 11 22 10 23 9 24 8 25 7 26 6 27 5 28 4 29 3 30 2 31 1 32
REMARK H PARENT
REMARK Flexibility Score: inf
ROOT
ATOM      1  C   UNL     1     126.181 123.392 136.170  1.00  0.00     0.000 C 
ENDROOT
BRANCH   1   2
ATOM      2  C   UNL     1     126.254 123.521 134.639  1.00  0.00     0.000 C 
BRANCH   2   3
ATOM      3  C   UNL     1     124.933 123.146 133.950  1.00  0.00     0.000 C 
BRANCH   3   4
ATOM      4  C   UNL     1     124.077 122.190 134.798  1.00  0.00     0.000 C 
BRANCH   4   5
ATOM      5  C   UNL     1     122.570 122.413 134.600  1.00  0.00     0.000 C 
BRANCH   5   6
ATOM      6  C   UNL     1     121.722 121.244 135.130  1.00  0.00     0.000 C 
BRANCH   6   7
ATOM      7  C   UNL     1     121.289 120.277 134.017  1.00  0.00     0.000 C 
BRANCH   7   8
ATOM      8  C   UNL     1     121.246 120.950 132.633  1.00  0.00     0.000 C 
BRANCH   8   9
ATOM      9  C   UNL     1     122.051 120.179 131.576  1.00  0.00     0.000 C 
BRANCH   9  10
ATOM     10  C   UNL     1     123.404 119.677 132.112  1.00  0.00     0.000 C 
BRANCH  10  11
ATOM     11  C   UNL     1     124.568 119.962 131.139  1.00  0.00     0.000 C 
BRANCH  11  12
ATOM     12  C   UNL     1     124.759 121.456 130.816  1.00  0.00     0.000 C 
BRANCH  12  13
ATOM     13  C   UNL     1     124.730 121.808 129.316  1.00  0.00     0.006 C 
BRANCH  13  14
ATOM     14  C   UNL     1     124.771 123.316 129.014  1.00  0.00     0.053 C 
BRANCH  14  15
ATOM     15  C   UNL     1     126.017 123.707 128.280  1.00  0.00     0.041 C 
ATOM     16  O   UNL     1     126.209 124.907 127.955  1.00  0.00    -0.550 OA
ATOM     17  O   UNL     1     126.985 122.752 127.993  1.00  0.00    -0.550 OA
ENDBRANCH  14  15
ENDBRANCH  13  14
ENDBRANCH  12  13
ENDBRANCH  11  12
ENDBRANCH  10  11
ENDBRANCH   9  10
ENDBRANCH   8   9
ENDBRANCH   7   8
ENDBRANCH   6   7
ENDBRANCH   5   6
ENDBRANCH   4   5
ENDBRANCH   3   4
ENDBRANCH   2   3
ENDBRANCH   1   2
BRANCH   1  18
ATOM     18  C   UNL     1     127.209 124.283 136.886  1.00  0.00     0.000 C 
BRANCH  18  19
ATOM     19  C   UNL     1     126.677 124.844 138.217  1.00  0.00     0.000 C 
BRANCH  19  20
ATOM     20  C   UNL     1     127.756 125.589 139.018  1.00  0.00     0.000 C 
BRANCH  20  21
ATOM     21  C   UNL     1     127.425 127.079 139.214  1.00  0.00     0.000 C 
BRANCH  21  22
ATOM     22  C   UNL     1     127.608 127.899 137.926  1.00  0.00     0.000 C 
BRANCH  22  23
ATOM     23  C   UNL     1     128.975 127.666 137.266  1.00  0.00     0.000 C 
BRANCH  23  24
ATOM     24  C   UNL     1     128.820 127.398 135.764  1.00  0.00    -0.000 C 
BRANCH  24  25
ATOM     25  C   UNL     1     127.548 128.060 135.213  1.00  0.00    -0.000 C 
BRANCH  25  26
ATOM     26  C   UNL     1     127.029 127.377 133.938  1.00  0.00    -0.000 C 
BRANCH  26  27
ATOM     27  C   UNL     1     125.543 126.989 134.037  1.00  0.00    -0.000 C 
BRANCH  27  28
ATOM     28  C   UNL     1     125.041 126.923 135.491  1.00  0.00    -0.000 C 
BRANCH  28  29
ATOM     29  C   UNL     1     123.750 126.106 135.694  1.00  0.00    -0.000 C 
BRANCH  29  30
ATOM     30  C   UNL     1     123.335 125.889 137.163  1.00  0.00    -0.000 C 
BRANCH  30  31
ATOM     31  C   UNL     1     122.425 124.673 137.404  1.00  0.00    -0.003 C 
ATOM     32  C   UNL     1     123.125 123.545 138.162  1.00  0.00     0.004 C 
ENDBRANCH  30  31
ENDBRANCH  29  30
ENDBRANCH  28  29
ENDBRANCH  27  28
ENDBRANCH  26  27
ENDBRANCH  25  26
ENDBRANCH  24  25
ENDBRANCH  23  24
ENDBRANCH  22  23
ENDBRANCH  21  22
ENDBRANCH  20  21
ENDBRANCH  19  20
ENDBRANCH  18  19
ENDBRANCH   1  18
TORSDOF 28
ENDMDL
MODEL 6
REMARK VINA RESULT:    -4.831      6.606     13.558
REMARK INTER + INTRA:         -14.768
REMARK INTER:                 -10.596
REMARK INTRA:                  -4.172
REMARK UNBOUND:                -2.030
REMARK SMILES CCCCCCCCCCCCCCCCCCCCCCCCCCCCCC(=O)[O-]
REMARK SMILES IDX 16 1 17 2 18 3 19 4 20 5 21 6 22 7 23 8 24 9 25 10 26 11
REMARK SMILES IDX 27 12 28 13 29 14 30 15 31 16 32 17 15 18 14 19 13 20 12 21
REMARK SMILES IDX 11 22 10 23 9 24 8 25 7 26 6 27 5 28 4 29 3 30 2 31 1 32
REMARK H PARENT
REMARK Flexibility Score: inf
ROOT
ATOM      1  C   UNL     1     128.632 130.761 138.289  1.00  0.00     0.000 C 
ENDROOT
BRANCH   1   2
ATOM      2  C   UNL     1     128.528 131.392 136.889  1.00  0.00     0.000 C 
BRANCH   2   3
ATOM      3  C   UNL     1     129.674 132.373 136.596  1.00  0.00     0.000 C 
BRANCH   3   4
ATOM      4  C   UNL     1     131.026 131.661 136.410  1.00  0.00     0.000 C 
BRANCH   4   5
ATOM      5  C   UNL     1     132.067 132.545 135.706  1.00  0.00     0.000 C 
BRANCH   5   6
ATOM      6  C   UNL     1     131.428 133.577 134.761  1.00  0.00     0.000 C 
BRANCH   6   7
ATOM      7  C   UNL     1     132.045 133.548 133.354  1.00  0.00     0.000 C 
BRANCH   7   8
ATOM      8  C   UNL     1     133.427 134.224 133.300  1.00  0.00     0.000 C 
BRANCH   8   9
ATOM      9  C   UNL     1     133.480 135.381 132.290  1.00  0.00     0.000 C 
BRANCH   9  10
ATOM     10  C   UNL     1     132.850 136.674 132.838  1.00  0.00     0.000 C 
BRANCH  10  11
ATOM     11  C   UNL     1     132.407 137.637 131.716  1.00  0.00     0.000 C 
BRANCH  11  12
ATOM     12  C   UNL     1     130.924 137.498 131.323  1.00  0.00     0.000 C 
BRANCH  12  13
ATOM     13  C   UNL     1     130.650 136.568 130.126  1.00  0.00     0.006 C 
BRANCH  13  14
ATOM     14  C   UNL     1     130.035 135.210 130.502  1.00  0.00     0.053 C 
BRANCH  14  15
ATOM     15  C   UNL     1     130.572 134.097 129.655  1.00  0.00     0.041 C 
ATOM     16  O   UNL     1     131.676 133.564 129.937  1.00  0.00    -0.550 OA
ATOM     17  O   UNL     1     129.832 133.622 128.579  1.00  0.00    -0.550 OA
ENDBRANCH  14  15
ENDBRANCH  13  14
ENDBRANCH  12  13
ENDBRANCH  11  12
ENDBRANCH  10  11
ENDBRANCH   9  10
ENDBRANCH   8   9
ENDBRANCH   7   8
ENDBRANCH   6   7
ENDBRANCH   5   6
ENDBRANCH   4   5
ENDBRANCH   3   4
ENDBRANCH   2   3
ENDBRANCH   1   2
BRANCH   1  18
ATOM     18  C   UNL     1     127.352 130.012 138.694  1.00  0.00     0.000 C 
BRANCH  18  19
ATOM     19  C   UNL     1     127.590 128.504 138.890  1.00  0.00     0.000 C 
BRANCH  19  20
ATOM     20  C   UNL     1     126.287 127.729 139.143  1.00  0.00     0.000 C 
BRANCH  20  21
ATOM     21  C   UNL     1     126.085 126.571 138.150  1.00  0.00     0.000 C 
BRANCH  21  22
ATOM     22  C   UNL     1     127.385 125.799 137.871  1.00  0.00     0.000 C 
BRANCH  22  23
ATOM     23  C   UNL     1     127.132 124.433 137.215  1.00  0.00     0.000 C 
BRANCH  23  24
ATOM     24  C   UNL     1     127.577 124.438 135.748  1.00  0.00    -0.000 C 
BRANCH  24  25
ATOM     25  C   UNL     1     126.415 124.065 134.817  1.00  0.00    -0.000 C 
BRANCH  25  26
ATOM     26  C   UNL     1     125.697 125.295 134.242  1.00  0.00    -0.000 C 
BRANCH  26  27
ATOM     27  C   UNL     1     126.662 126.454 133.933  1.00  0.00    -0.000 C 
BRANCH  27  28
ATOM     28  C   UNL     1     126.265 127.763 134.640  1.00  0.00    -0.000 C 
BRANCH  28  29
ATOM     29  C   UNL     1     127.448 128.600 135.166  1.00  0.00    -0.000 C 
BRANCH  29  30
ATOM     30  C   UNL     1     128.787 127.844 135.276  1.00  0.00    -0.000 C 
BRANCH  30  31
ATOM     31  C   UNL     1     129.864 128.288 134.270  1.00  0.00    -0.003 C 
ATOM     32  C   UNL     1     129.609 129.684 133.703  1.00  0.00     0.004 C 
ENDBRANCH  30  31
ENDBRANCH  29  30
ENDBRANCH  28  29
ENDBRANCH  27  28
ENDBRANCH  26  27
ENDBRANCH  25  26
ENDBRANCH  24  25
ENDBRANCH  23  24
ENDBRANCH  22  23
ENDBRANCH  21  22
ENDBRANCH  20  21
ENDBRANCH  19  20
ENDBRANCH  18  19
ENDBRANCH   1  18
TORSDOF 28
ENDMDL
MODEL 7
REMARK VINA RESULT:    -4.799      6.585     14.003
REMARK INTER + INTRA:         -14.685
REMARK INTER:                 -11.027
REMARK INTRA:                  -3.658
REMARK UNBOUND:                -2.030
REMARK SMILES CCCCCCCCCCCCCCCCCCCCCCCCCCCCCC(=O)[O-]
REMARK SMILES IDX 16 1 17 2 18 3 19 4 20 5 21 6 22 7 23 8 24 9 25 10 26 11
REMARK SMILES IDX 27 12 28 13 29 14 30 15 31 16 32 17 15 18 14 19 13 20 12 21
REMARK SMILES IDX 11 22 10 23 9 24 8 25 7 26 6 27 5 28 4 29 3 30 2 31 1 32
REMARK H PARENT
REMARK Flexibility Score: inf
ROOT
ATOM      1  C   UNL     1     133.367 133.736 133.135  1.00  0.00     0.000 C 
ENDROOT
BRANCH   1   2
ATOM      2  C   UNL     1     134.651 134.526 133.442  1.00  0.00     0.000 C 
BRANCH   2   3
ATOM      3  C   UNL     1     135.167 135.311 132.227  1.00  0.00     0.000 C 
BRANCH   3   4
ATOM      4  C   UNL     1     135.575 136.751 132.585  1.00  0.00     0.000 C 
BRANCH   4   5
ATOM      5  C   UNL     1     134.565 137.794 132.083  1.00  0.00     0.000 C 
BRANCH   5   6
ATOM      6  C   UNL     1     133.457 138.089 133.108  1.00  0.00     0.000 C 
BRANCH   6   7
ATOM      7  C   UNL     1     132.053 138.057 132.483  1.00  0.00     0.000 C 
BRANCH   7   8
ATOM      8  C   UNL     1     131.952 137.069 131.307  1.00  0.00     0.000 C 
BRANCH   8   9
ATOM      9  C   UNL     1     130.512 136.898 130.800  1.00  0.00     0.000 C 
BRANCH   9  10
ATOM     10  C   UNL     1     130.149 135.426 130.532  1.00  0.00     0.000 C 
BRANCH  10  11
ATOM     11  C   UNL     1     131.270 134.667 129.789  1.00  0.00     0.000 C 
BRANCH  11  12
ATOM     12  C   UNL     1     131.496 133.231 130.301  1.00  0.00     0.000 C 
BRANCH  12  13
ATOM     13  C   UNL     1     130.743 132.135 129.522  1.00  0.00     0.006 C 
BRANCH  13  14
ATOM     14  C   UNL     1     130.061 132.625 128.234  1.00  0.00     0.053 C 
BRANCH  14  15
ATOM     15  C   UNL     1     129.076 131.626 127.707  1.00  0.00     0.041 C 
ATOM     16  O   UNL     1     128.168 131.990 126.915  1.00  0.00    -0.550 OA
ATOM     17  O   UNL     1     129.188 130.286 128.058  1.00  0.00    -0.550 OA
ENDBRANCH  14  15
ENDBRANCH  13  14
ENDBRANCH  12  13
ENDBRANCH  11  12
ENDBRANCH  10  11
ENDBRANCH   9  10
ENDBRANCH   8   9
ENDBRANCH   7   8
ENDBRANCH   6   7
ENDBRANCH   5   6
ENDBRANCH   4   5
ENDBRANCH   3   4
ENDBRANCH   2   3
ENDBRANCH   1   2
BRANCH   1  18
ATOM     18  C   UNL     1     132.121 134.359 133.786  1.00  0.00     0.000 C 
BRANCH  18  19
ATOM     19  C   UNL     1     131.726 133.653 135.095  1.00  0.00     0.000 C 
BRANCH  19  20
ATOM     20  C   UNL     1     131.196 132.229 134.861  1.00  0.00     0.000 C 
BRANCH  20  21
ATOM     21  C   UNL     1     131.964 131.172 135.673  1.00  0.00     0.000 C 
BRANCH  21  22
ATOM     22  C   UNL     1     131.200 130.721 136.928  1.00  0.00     0.000 C 
BRANCH  22  23
ATOM     23  C   UNL     1     131.207 131.782 138.039  1.00  0.00     0.000 C 
BRANCH  23  24
ATOM     24  C   UNL     1     129.795 132.008 138.591  1.00  0.00    -0.000 C 
BRANCH  24  25
ATOM     25  C   UNL     1     128.737 131.359 137.685  1.00  0.00    -0.000 C 
BRANCH  25  26
ATOM     26  C   UNL     1     127.914 130.284 138.411  1.00  0.00    -0.000 C 
BRANCH  26  27
ATOM     27  C   UNL     1     127.233 129.303 137.441  1.00  0.00    -0.000 C 
BRANCH  27  28
ATOM     28  C   UNL     1     127.818 129.371 136.018  1.00  0.00    -0.000 C 
BRANCH  28  29
ATOM     29  C   UNL     1     127.229 128.350 135.025  1.00  0.00    -0.000 C 
BRANCH  29  30
ATOM     30  C   UNL     1     128.138 127.998 133.830  1.00  0.00    -0.000 C 
BRANCH  30  31
ATOM     31  C   UNL     1     129.436 128.819 133.744  1.00  0.00    -0.003 C 
ATOM     32  C   UNL     1     130.675 128.019 134.145  1.00  0.00     0.004 C 
ENDBRANCH  30  31
ENDBRANCH  29  30
ENDBRANCH  28  29
ENDBRANCH  27  28
ENDBRANCH  26  27
ENDBRANCH  25  26
ENDBRANCH  24  25
ENDBRANCH  23  24
ENDBRANCH  22  23
ENDBRANCH  21  22
ENDBRANCH  20  21
ENDBRANCH  19  20
ENDBRANCH  18  19
ENDBRANCH   1  18
TORSDOF 28
ENDMDL
MODEL 8
REMARK VINA RESULT:    -4.796      6.318      8.966
REMARK INTER + INTRA:         -14.676
REMARK INTER:                  -9.117
REMARK INTRA:                  -5.559
REMARK UNBOUND:                -2.030
REMARK SMILES CCCCCCCCCCCCCCCCCCCCCCCCCCCCCC(=O)[O-]
REMARK SMILES IDX 16 1 17 2 18 3 19 4 20 5 21 6 22 7 23 8 24 9 25 10 26 11
REMARK SMILES IDX 27 12 28 13 29 14 30 15 31 16 32 17 15 18 14 19 13 20 12 21
REMARK SMILES IDX 11 22 10 23 9 24 8 25 7 26 6 27 5 28 4 29 3 30 2 31 1 32
REMARK H PARENT
REMARK Flexibility Score: inf
ROOT
ATOM      1  C   UNL     1     127.543 124.369 135.530  1.00  0.00     0.000 C 
ENDROOT
BRANCH   1   2
ATOM      2  C   UNL     1     127.255 124.426 137.041  1.00  0.00     0.000 C 
BRANCH   2   3
ATOM      3  C   UNL     1     127.590 125.794 137.656  1.00  0.00     0.000 C 
BRANCH   3   4
ATOM      4  C   UNL     1     126.334 126.562 138.103  1.00  0.00     0.000 C 
BRANCH   4   5
ATOM      5  C   UNL     1     126.205 126.646 139.631  1.00  0.00     0.000 C 
BRANCH   5   6
ATOM      6  C   UNL     1     125.397 125.479 140.224  1.00  0.00     0.000 C 
BRANCH   6   7
ATOM      7  C   UNL     1     124.010 125.334 139.577  1.00  0.00     0.000 C 
BRANCH   7   8
ATOM      8  C   UNL     1     123.781 123.936 138.975  1.00  0.00     0.000 C 
BRANCH   8   9
ATOM      9  C   UNL     1     123.635 123.967 137.446  1.00  0.00     0.000 C 
BRANCH   9  10
ATOM     10  C   UNL     1     123.711 122.565 136.816  1.00  0.00     0.000 C 
BRANCH  10  11
ATOM     11  C   UNL     1     122.882 122.454 135.518  1.00  0.00     0.000 C 
BRANCH  11  12
ATOM     12  C   UNL     1     123.508 121.531 134.455  1.00  0.00     0.000 C 
BRANCH  12  13
ATOM     13  C   UNL     1     123.274 121.966 132.995  1.00  0.00     0.006 C 
BRANCH  13  14
ATOM     14  C   UNL     1     123.961 121.074 131.947  1.00  0.00     0.053 C 
BRANCH  14  15
ATOM     15  C   UNL     1     124.397 121.855 130.745  1.00  0.00     0.041 C 
ATOM     16  O   UNL     1     124.277 123.107 130.726  1.00  0.00    -0.550 OA
ATOM     17  O   UNL     1     124.972 121.202 129.662  1.00  0.00    -0.550 OA
ENDBRANCH  14  15
ENDBRANCH  13  14
ENDBRANCH  12  13
ENDBRANCH  11  12
ENDBRANCH  10  11
ENDBRANCH   9  10
ENDBRANCH   8   9
ENDBRANCH   7   8
ENDBRANCH   6   7
ENDBRANCH   5   6
ENDBRANCH   4   5
ENDBRANCH   3   4
ENDBRANCH   2   3
ENDBRANCH   1   2
BRANCH   1  18
ATOM     18  C   UNL     1     126.353 123.829 134.722  1.00  0.00     0.000 C 
BRANCH  18  19
ATOM     19  C   UNL     1     125.375 124.939 134.300  1.00  0.00     0.000 C 
BRANCH  19  20
ATOM     20  C   UNL     1     126.095 126.193 133.778  1.00  0.00     0.000 C 
BRANCH  20  21
ATOM     21  C   UNL     1     125.698 127.466 134.546  1.00  0.00     0.000 C 
BRANCH  21  22
ATOM     22  C   UNL     1     126.915 128.311 134.957  1.00  0.00     0.000 C 
BRANCH  22  23
ATOM     23  C   UNL     1     128.179 127.956 134.159  1.00  0.00     0.000 C 
BRANCH  23  24
ATOM     24  C   UNL     1     129.378 127.754 135.093  1.00  0.00    -0.000 C 
BRANCH  24  25
ATOM     25  C   UNL     1     130.632 128.444 134.538  1.00  0.00    -0.000 C 
BRANCH  25  26
ATOM     26  C   UNL     1     131.034 129.685 135.350  1.00  0.00    -0.000 C 
BRANCH  26  27
ATOM     27  C   UNL     1     130.611 131.000 134.671  1.00  0.00    -0.000 C 
BRANCH  27  28
ATOM     28  C   UNL     1     129.980 132.002 135.655  1.00  0.00    -0.000 C 
BRANCH  28  29
ATOM     29  C   UNL     1     128.594 131.596 136.193  1.00  0.00    -0.000 C 
BRANCH  29  30
ATOM     30  C   UNL     1     128.541 131.292 137.704  1.00  0.00    -0.000 C 
BRANCH  30  31
ATOM     31  C   UNL     1     128.141 129.849 138.058  1.00  0.00    -0.003 C 
ATOM     32  C   UNL     1     129.306 129.026 138.607  1.00  0.00     0.004 C 
ENDBRANCH  30  31
ENDBRANCH  29  30
ENDBRANCH  28  29
ENDBRANCH  27  28
ENDBRANCH  26  27
ENDBRANCH  25  26
ENDBRANCH  24  25
ENDBRANCH  23  24
ENDBRANCH  22  23
ENDBRANCH  21  22
ENDBRANCH  20  21
ENDBRANCH  19  20
ENDBRANCH  18  19
ENDBRANCH   1  18
TORSDOF 28
ENDMDL
MODEL 9
REMARK VINA RESULT:    -4.794      6.078     13.411
REMARK INTER + INTRA:         -14.672
REMARK INTER:                  -9.930
REMARK INTRA:                  -4.742
REMARK UNBOUND:                -2.030
REMARK SMILES CCCCCCCCCCCCCCCCCCCCCCCCCCCCCC(=O)[O-]
REMARK SMILES IDX 16 1 17 2 18 3 19 4 20 5 21 6 22 7 23 8 24 9 25 10 26 11
REMARK SMILES IDX 27 12 28 13 29 14 30 15 31 16 32 17 15 18 14 19 13 20 12 21
REMARK SMILES IDX 11 22 10 23 9 24 8 25 7 26 6 27 5 28 4 29 3 30 2 31 1 32
REMARK H PARENT
REMARK Flexibility Score: inf
ROOT
ATOM      1  C   UNL     1     129.962 129.487 134.265  1.00  0.00     0.000 C 
ENDROOT
BRANCH   1   2
ATOM      2  C   UNL     1     130.008 131.021 134.162  1.00  0.00     0.000 C 
BRANCH   2   3
ATOM      3  C   UNL     1     129.141 131.712 135.227  1.00  0.00     0.000 C 
BRANCH   3   4
ATOM      4  C   UNL     1     129.900 132.820 135.976  1.00  0.00     0.000 C 
BRANCH   4   5
ATOM      5  C   UNL     1     130.989 133.477 135.115  1.00  0.00     0.000 C 
BRANCH   5   6
ATOM      6  C   UNL     1     132.289 133.737 135.897  1.00  0.00     0.000 C 
BRANCH   6   7
ATOM      7  C   UNL     1     133.510 133.889 134.976  1.00  0.00     0.000 C 
BRANCH   7   8
ATOM      8  C   UNL     1     133.308 133.211 133.609  1.00  0.00     0.000 C 
BRANCH   8   9
ATOM      9  C   UNL     1     133.425 134.198 132.438  1.00  0.00     0.000 C 
BRANCH   9  10
ATOM     10  C   UNL     1     132.208 135.133 132.326  1.00  0.00     0.000 C 
BRANCH  10  11
ATOM     11  C   UNL     1     131.132 134.591 131.360  1.00  0.00     0.000 C 
BRANCH  11  12
ATOM     12  C   UNL     1     131.709 133.895 130.111  1.00  0.00     0.000 C 
BRANCH  12  13
ATOM     13  C   UNL     1     130.897 132.689 129.603  1.00  0.00     0.006 C 
BRANCH  13  14
ATOM     14  C   UNL     1     130.414 132.814 128.148  1.00  0.00     0.053 C 
BRANCH  14  15
ATOM     15  C   UNL     1     128.924 132.701 128.041  1.00  0.00     0.041 C 
ATOM     16  O   UNL     1     128.395 131.610 127.704  1.00  0.00    -0.550 OA
ATOM     17  O   UNL     1     128.119 133.789 128.353  1.00  0.00    -0.550 OA
ENDBRANCH  14  15
ENDBRANCH  13  14
ENDBRANCH  12  13
ENDBRANCH  11  12
ENDBRANCH  10  11
ENDBRANCH   9  10
ENDBRANCH   8   9
ENDBRANCH   7   8
ENDBRANCH   6   7
ENDBRANCH   5   6
ENDBRANCH   4   5
ENDBRANCH   3   4
ENDBRANCH   2   3
ENDBRANCH   1   2
BRANCH   1  18
ATOM     18  C   UNL     1     130.901 128.940 135.352  1.00  0.00     0.000 C 
BRANCH  18  19
ATOM     19  C   UNL     1     132.073 129.892 135.651  1.00  0.00     0.000 C 
BRANCH  19  20
ATOM     20  C   UNL     1     132.199 130.222 137.147  1.00  0.00     0.000 C 
BRANCH  20  21
ATOM     21  C   UNL     1     130.977 129.759 137.960  1.00  0.00     0.000 C 
BRANCH  21  22
ATOM     22  C   UNL     1     130.481 130.832 138.944  1.00  0.00     0.000 C 
BRANCH  22  23
ATOM     23  C   UNL     1     129.081 130.525 139.496  1.00  0.00     0.000 C 
BRANCH  23  24
ATOM     24  C   UNL     1     128.029 130.574 138.382  1.00  0.00    -0.000 C 
BRANCH  24  25
ATOM     25  C   UNL     1     127.280 129.238 138.272  1.00  0.00    -0.000 C 
BRANCH  25  26
ATOM     26  C   UNL     1     127.534 128.525 136.935  1.00  0.00    -0.000 C 
BRANCH  26  27
ATOM     27  C   UNL     1     128.172 127.136 137.116  1.00  0.00    -0.000 C 
BRANCH  27  28
ATOM     28  C   UNL     1     128.374 126.395 135.782  1.00  0.00    -0.000 C 
BRANCH  28  29
ATOM     29  C   UNL     1     127.287 125.357 135.445  1.00  0.00    -0.000 C 
BRANCH  29  30
ATOM     30  C   UNL     1     126.228 125.824 134.426  1.00  0.00    -0.000 C 
BRANCH  30  31
ATOM     31  C   UNL     1     125.015 126.546 135.040  1.00  0.00    -0.003 C 
ATOM     32  C   UNL     1     124.652 126.022 136.429  1.00  0.00     0.004 C 
ENDBRANCH  30  31
ENDBRANCH  29  30
ENDBRANCH  28  29
ENDBRANCH  27  28
ENDBRANCH  26  27
ENDBRANCH  25  26
ENDBRANCH  24  25
ENDBRANCH  23  24
ENDBRANCH  22  23
ENDBRANCH  21  22
ENDBRANCH  20  21
ENDBRANCH  19  20
ENDBRANCH  18  19
ENDBRANCH   1  18
TORSDOF 28
ENDMDL
