MODEL 1
REMARK VINA RESULT:    -6.773      0.000      0.000
REMARK INTER + INTRA:          -6.773
REMARK INTER:                  -6.773
REMARK INTRA:                   0.000
REMARK UNBOUND:                 0.000
REMARK SMILES C=C1CCC[C@@]2(C)Cc3occ(C)c3C[C@H]12
REMARK SMILES IDX 13 1 12 2 11 3 10 4 9 5 14 6 15 7 16 8 2 9 1 10 3 11 4 12
REMARK SMILES IDX 5 13 6 14 8 15 7 16
REMARK H PARENT
REMARK Flexibility Score: inf
ROOT
ATOM      1  C   UNL     1       1.603  44.109  -3.684  1.00  0.00     0.048 C 
ATOM      2  C   UNL     1       0.421  44.626  -2.931  1.00  0.00    -0.009 A 
ATOM      3  C   UNL     1      -0.865  44.789  -3.420  1.00  0.00     0.198 A 
ATOM      4  O   UNL     1      -1.667  45.157  -2.442  1.00  0.00    -0.469 OA
ATOM      5  C   UNL     1      -0.962  45.226  -1.335  1.00  0.00     0.107 A 
ATOM      6  C   UNL     1       0.351  44.918  -1.585  1.00  0.00    -0.003 A 
ATOM      7  C   UNL     1       1.403  44.770  -0.530  1.00  0.00     0.048 C 
ATOM      8  C   UNL     1       0.944  45.428   0.805  1.00  0.00     0.025 C 
ATOM      9  C   UNL     1       1.851  45.125   2.001  1.00  0.00    -0.073 C 
ATOM     10  C   UNL     1       3.077  44.582   1.885  1.00  0.00     0.008 C 
ATOM     11  C   UNL     1       1.374  45.522   3.379  1.00  0.00     0.031 C 
ATOM     12  C   UNL     1       0.145  46.429   3.304  1.00  0.00     0.005 C 
ATOM     13  C   UNL     1      -1.000  45.781   2.510  1.00  0.00     0.008 C 
ATOM     14  C   UNL     1      -0.560  45.099   1.159  1.00  0.00    -0.019 C 
ATOM     15  C   UNL     1      -1.484  45.618   0.012  1.00  0.00     0.083 C 
ATOM     16  C   UNL     1      -0.757  43.564   1.303  1.00  0.00     0.012 C 
ENDROOT
TORSDOF 0
ENDMDL
MODEL 2
REMARK VINA RESULT:    -6.170      2.058      4.221
REMARK INTER + INTRA:          -6.170
REMARK INTER:                  -6.170
REMARK INTRA:                   0.000
REMARK UNBOUND:                 0.000
REMARK SMILES C=C1CCC[C@@]2(C)Cc3occ(C)c3C[C@H]12
REMARK SMILES IDX 13 1 12 2 11 3 10 4 9 5 14 6 15 7 16 8 2 9 1 10 3 11 4 12
REMARK SMILES IDX 5 13 6 14 8 15 7 16
REMARK H PARENT
REMARK Flexibility Score: inf
ROOT
ATOM      1  C   UNL     1       3.362  45.330   3.069  1.00  0.00     0.048 C 
ATOM      2  C   UNL     1       2.607  45.148   1.794  1.00  0.00    -0.009 A 
ATOM      3  C   UNL     1       3.140  44.850   0.550  1.00  0.00     0.198 A 
ATOM      4  O   UNL     1       2.165  44.652  -0.313  1.00  0.00    -0.469 OA
ATOM      5  C   UNL     1       1.021  44.792   0.317  1.00  0.00     0.107 A 
ATOM      6  C   UNL     1       1.237  45.116   1.633  1.00  0.00    -0.003 A 
ATOM      7  C   UNL     1       0.161  45.218   2.669  1.00  0.00     0.048 C 
ATOM      8  C   UNL     1      -1.240  45.350   2.001  1.00  0.00     0.025 C 
ATOM      9  C   UNL     1      -2.416  45.227   2.973  1.00  0.00    -0.073 C 
ATOM     10  C   UNL     1      -2.282  45.281   4.312  1.00  0.00     0.008 C 
ATOM     11  C   UNL     1      -3.809  45.112   2.400  1.00  0.00     0.031 C 
ATOM     12  C   UNL     1      -3.823  45.418   0.901  1.00  0.00     0.005 C 
ATOM     13  C   UNL     1      -2.849  44.520   0.123  1.00  0.00     0.008 C 
ATOM     14  C   UNL     1      -1.428  44.361   0.784  1.00  0.00    -0.019 C 
ATOM     15  C   UNL     1      -0.339  44.659  -0.295  1.00  0.00     0.083 C 
ATOM     16  C   UNL     1      -1.273  42.888   1.256  1.00  0.00     0.012 C 
ENDROOT
TORSDOF 0
ENDMDL
MODEL 3
REMARK VINA RESULT:    -6.146      1.943      3.579
REMARK INTER + INTRA:          -6.146
REMARK INTER:                  -6.146
REMARK INTRA:                   0.000
REMARK UNBOUND:                 0.000
REMARK SMILES C=C1CCC[C@@]2(C)Cc3occ(C)c3C[C@H]12
REMARK SMILES IDX 13 1 12 2 11 3 10 4 9 5 14 6 15 7 16 8 2 9 1 10 3 11 4 12
REMARK SMILES IDX 5 13 6 14 8 15 7 16
REMARK H PARENT
REMARK Flexibility Score: inf
ROOT
ATOM      1  C   UNL     1      -0.226  44.814  -3.490  1.00  0.00     0.048 C 
ATOM      2  C   UNL     1       0.381  44.716  -2.128  1.00  0.00    -0.009 A 
ATOM      3  C   UNL     1       1.731  44.748  -1.819  1.00  0.00     0.198 A 
ATOM      4  O   UNL     1       1.885  44.752  -0.511  1.00  0.00    -0.469 OA
ATOM      5  C   UNL     1       0.695  44.740   0.045  1.00  0.00     0.107 A 
ATOM      6  C   UNL     1      -0.281  44.704  -0.919  1.00  0.00    -0.003 A 
ATOM      7  C   UNL     1      -1.749  44.815  -0.644  1.00  0.00     0.048 C 
ATOM      8  C   UNL     1      -2.053  44.534   0.858  1.00  0.00     0.025 C 
ATOM      9  C   UNL     1      -3.490  44.851   1.281  1.00  0.00    -0.073 C 
ATOM     10  C   UNL     1      -4.487  45.083   0.406  1.00  0.00     0.008 C 
ATOM     11  C   UNL     1      -3.824  44.832   2.754  1.00  0.00     0.031 C 
ATOM     12  C   UNL     1      -2.690  44.216   3.575  1.00  0.00     0.005 C 
ATOM     13  C   UNL     1      -1.353  44.937   3.340  1.00  0.00     0.008 C 
ATOM     14  C   UNL     1      -1.027  45.241   1.829  1.00  0.00    -0.019 C 
ATOM     15  C   UNL     1       0.415  44.730   1.515  1.00  0.00     0.083 C 
ATOM     16  C   UNL     1      -1.066  46.782   1.624  1.00  0.00     0.012 C 
ENDROOT
TORSDOF 0
ENDMDL
MODEL 4
REMARK VINA RESULT:    -5.950      2.827      5.682
REMARK INTER + INTRA:          -5.950
REMARK INTER:                  -5.950
REMARK INTRA:                   0.000
REMARK UNBOUND:                 0.000
REMARK SMILES C=C1CCC[C@@]2(C)Cc3occ(C)c3C[C@H]12
REMARK SMILES IDX 13 1 12 2 11 3 10 4 9 5 14 6 15 7 16 8 2 9 1 10 3 11 4 12
REMARK SMILES IDX 5 13 6 14 8 15 7 16
REMARK H PARENT
REMARK Flexibility Score: inf
ROOT
ATOM      1  C   UNL     1      -2.678  46.113   7.029  1.00  0.00     0.048 C 
ATOM      2  C   UNL     1      -2.891  45.425   5.720  1.00  0.00    -0.009 A 
ATOM      3  C   UNL     1      -4.081  44.898   5.245  1.00  0.00     0.198 A 
ATOM      4  O   UNL     1      -3.915  44.473   4.010  1.00  0.00    -0.469 OA
ATOM      5  C   UNL     1      -2.674  44.715   3.653  1.00  0.00     0.107 A 
ATOM      6  C   UNL     1      -1.985  45.296   4.688  1.00  0.00    -0.003 A 
ATOM      7  C   UNL     1      -0.587  45.824   4.586  1.00  0.00     0.048 C 
ATOM      8  C   UNL     1       0.131  45.248   3.330  1.00  0.00     0.025 C 
ATOM      9  C   UNL     1       1.476  45.908   3.015  1.00  0.00    -0.073 C 
ATOM     10  C   UNL     1       2.130  46.711   3.876  1.00  0.00     0.008 C 
ATOM     11  C   UNL     1       2.142  45.583   1.698  1.00  0.00     0.031 C 
ATOM     12  C   UNL     1       1.458  44.406   1.003  1.00  0.00     0.005 C 
ATOM     13  C   UNL     1      -0.044  44.654   0.795  1.00  0.00     0.008 C 
ATOM     14  C   UNL     1      -0.792  45.247   2.048  1.00  0.00    -0.019 C 
ATOM     15  C   UNL     1      -2.061  44.381   2.329  1.00  0.00     0.083 C 
ATOM     16  C   UNL     1      -1.242  46.695   1.706  1.00  0.00     0.012 C 
ENDROOT
TORSDOF 0
ENDMDL
MODEL 5
REMARK VINA RESULT:    -5.752      2.261      5.638
REMARK INTER + INTRA:          -5.752
REMARK INTER:                  -5.752
REMARK INTRA:                   0.000
REMARK UNBOUND:                 0.000
REMARK SMILES C=C1CCC[C@@]2(C)Cc3occ(C)c3C[C@H]12
REMARK SMILES IDX 13 1 12 2 11 3 10 4 9 5 14 6 15 7 16 8 2 9 1 10 3 11 4 12
REMARK SMILES IDX 5 13 6 14 8 15 7 16
REMARK H PARENT
REMARK Flexibility Score: inf
ROOT
ATOM      1  C   UNL     1      -0.119  46.744   5.793  1.00  0.00     0.048 C 
ATOM      2  C   UNL     1       0.784  46.391   4.657  1.00  0.00    -0.009 A 
ATOM      3  C   UNL     1       2.156  46.205   4.716  1.00  0.00     0.198 A 
ATOM      4  O   UNL     1       2.597  45.792   3.545  1.00  0.00    -0.469 OA
ATOM      5  C   UNL     1       1.571  45.687   2.732  1.00  0.00     0.107 A 
ATOM      6  C   UNL     1       0.415  46.062   3.369  1.00  0.00    -0.003 A 
ATOM      7  C   UNL     1      -0.956  45.938   2.782  1.00  0.00     0.048 C 
ATOM      8  C   UNL     1      -0.882  45.758   1.236  1.00  0.00     0.025 C 
ATOM      9  C   UNL     1      -2.215  45.391   0.579  1.00  0.00    -0.073 C 
ATOM     10  C   UNL     1      -3.403  45.485   1.207  1.00  0.00     0.008 C 
ATOM     11  C   UNL     1      -2.206  44.973  -0.872  1.00  0.00     0.031 C 
ATOM     12  C   UNL     1      -0.853  45.255  -1.526  1.00  0.00     0.005 C 
ATOM     13  C   UNL     1       0.302  44.581  -0.770  1.00  0.00     0.008 C 
ATOM     14  C   UNL     1       0.244  44.741   0.796  1.00  0.00    -0.019 C 
ATOM     15  C   UNL     1       1.630  45.258   1.299  1.00  0.00     0.083 C 
ATOM     16  C   UNL     1      -0.021  43.340   1.418  1.00  0.00     0.012 C 
ENDROOT
TORSDOF 0
ENDMDL
MODEL 6
REMARK VINA RESULT:    -5.598     11.249     13.776
REMARK INTER + INTRA:          -5.598
REMARK INTER:                  -5.598
REMARK INTRA:                   0.000
REMARK UNBOUND:                 0.000
REMARK SMILES C=C1CCC[C@@]2(C)Cc3occ(C)c3C[C@H]12
REMARK SMILES IDX 13 1 12 2 11 3 10 4 9 5 14 6 15 7 16 8 2 9 1 10 3 11 4 12
REMARK SMILES IDX 5 13 6 14 8 15 7 16
REMARK H PARENT
REMARK Flexibility Score: inf
ROOT
ATOM      1  C   UNL     1       5.891  41.906   7.457  1.00  0.00     0.048 C 
ATOM      2  C   UNL     1       5.662  41.337   8.819  1.00  0.00    -0.009 A 
ATOM      3  C   UNL     1       4.743  41.778   9.758  1.00  0.00     0.198 A 
ATOM      4  O   UNL     1       4.746  40.965  10.794  1.00  0.00    -0.469 OA
ATOM      5  C   UNL     1       5.615  40.007  10.565  1.00  0.00     0.107 A 
ATOM      6  C   UNL     1       6.226  40.197   9.352  1.00  0.00    -0.003 A 
ATOM      7  C   UNL     1       7.171  39.225   8.717  1.00  0.00     0.048 C 
ATOM      8  C   UNL     1       7.710  38.210   9.769  1.00  0.00     0.025 C 
ATOM      9  C   UNL     1       8.497  37.040   9.170  1.00  0.00    -0.073 C 
ATOM     10  C   UNL     1       8.936  37.014   7.898  1.00  0.00     0.008 C 
ATOM     11  C   UNL     1       8.864  35.888  10.076  1.00  0.00     0.031 C 
ATOM     12  C   UNL     1       8.607  36.227  11.544  1.00  0.00     0.005 C 
ATOM     13  C   UNL     1       7.151  36.655  11.788  1.00  0.00     0.008 C 
ATOM     14  C   UNL     1       6.579  37.674  10.732  1.00  0.00    -0.019 C 
ATOM     15  C   UNL     1       5.938  38.878  11.493  1.00  0.00     0.083 C 
ATOM     16  C   UNL     1       5.470  36.954   9.913  1.00  0.00     0.012 C 
ENDROOT
TORSDOF 0
ENDMDL
MODEL 7
REMARK VINA RESULT:    -5.412     10.812     13.002
REMARK INTER + INTRA:          -5.412
REMARK INTER:                  -5.412
REMARK INTRA:                   0.000
REMARK UNBOUND:                 0.000
REMARK SMILES C=C1CCC[C@@]2(C)Cc3occ(C)c3C[C@H]12
REMARK SMILES IDX 13 1 12 2 11 3 10 4 9 5 14 6 15 7 16 8 2 9 1 10 3 11 4 12
REMARK SMILES IDX 5 13 6 14 8 15 7 16
REMARK H PARENT
REMARK Flexibility Score: inf
ROOT
ATOM      1  C   UNL     1       6.169  43.087  10.851  1.00  0.00     0.048 C 
ATOM      2  C   UNL     1       6.180  42.354   9.549  1.00  0.00    -0.009 A 
ATOM      3  C   UNL     1       6.359  42.903   8.290  1.00  0.00     0.198 A 
ATOM      4  O   UNL     1       6.424  41.941   7.393  1.00  0.00    -0.469 OA
ATOM      5  C   UNL     1       6.311  40.789   8.015  1.00  0.00     0.107 A 
ATOM      6  C   UNL     1       6.142  40.988   9.362  1.00  0.00    -0.003 A 
ATOM      7  C   UNL     1       6.114  39.894  10.384  1.00  0.00     0.048 C 
ATOM      8  C   UNL     1       5.856  38.513   9.709  1.00  0.00     0.025 C 
ATOM      9  C   UNL     1       6.041  37.312  10.640  1.00  0.00    -0.073 C 
ATOM     10  C   UNL     1       6.141  37.419  11.979  1.00  0.00     0.008 C 
ATOM     11  C   UNL     1       6.039  35.929  10.033  1.00  0.00     0.031 C 
ATOM     12  C   UNL     1       5.569  35.959   8.578  1.00  0.00     0.005 C 
ATOM     13  C   UNL     1       6.413  36.917   7.722  1.00  0.00     0.008 C 
ATOM     14  C   UNL     1       6.697  38.316   8.386  1.00  0.00    -0.019 C 
ATOM     15  C   UNL     1       6.323  39.440   7.367  1.00  0.00     0.083 C 
ATOM     16  C   UNL     1       8.218  38.409   8.695  1.00  0.00     0.012 C 
ENDROOT
TORSDOF 0
ENDMDL
MODEL 8
REMARK VINA RESULT:    -5.397     11.213     13.800
REMARK INTER + INTRA:          -5.397
REMARK INTER:                  -5.397
REMARK INTRA:                   0.000
REMARK UNBOUND:                 0.000
REMARK SMILES C=C1CCC[C@@]2(C)Cc3occ(C)c3C[C@H]12
REMARK SMILES IDX 13 1 12 2 11 3 10 4 9 5 14 6 15 7 16 8 2 9 1 10 3 11 4 12
REMARK SMILES IDX 5 13 6 14 8 15 7 16
REMARK H PARENT
REMARK Flexibility Score: inf
ROOT
ATOM      1  C   UNL     1       5.422  42.254   7.580  1.00  0.00     0.048 C 
ATOM      2  C   UNL     1       6.157  42.042   8.863  1.00  0.00    -0.009 A 
ATOM      3  C   UNL     1       6.554  43.018   9.762  1.00  0.00     0.198 A 
ATOM      4  O   UNL     1       7.073  42.451  10.831  1.00  0.00    -0.469 OA
ATOM      5  C   UNL     1       7.016  41.148  10.675  1.00  0.00     0.107 A 
ATOM      6  C   UNL     1       6.466  40.836   9.457  1.00  0.00    -0.003 A 
ATOM      7  C   UNL     1       6.131  39.448   9.008  1.00  0.00     0.048 C 
ATOM      8  C   UNL     1       6.873  38.390   9.879  1.00  0.00     0.025 C 
ATOM      9  C   UNL     1       6.414  36.948   9.647  1.00  0.00    -0.073 C 
ATOM     10  C   UNL     1       5.650  36.571   8.604  1.00  0.00     0.008 C 
ATOM     11  C   UNL     1       6.903  35.880  10.597  1.00  0.00     0.031 C 
ATOM     12  C   UNL     1       8.024  36.404  11.496  1.00  0.00     0.005 C 
ATOM     13  C   UNL     1       7.596  37.657  12.277  1.00  0.00     0.008 C 
ATOM     14  C   UNL     1       6.834  38.737  11.420  1.00  0.00    -0.019 C 
ATOM     15  C   UNL     1       7.509  40.126  11.652  1.00  0.00     0.083 C 
ATOM     16  C   UNL     1       5.364  38.806  11.921  1.00  0.00     0.012 C 
ENDROOT
TORSDOF 0
ENDMDL
MODEL 9
REMARK VINA RESULT:    -5.383     13.183     15.058
REMARK INTER + INTRA:          -5.383
REMARK INTER:                  -5.383
REMARK INTRA:                   0.000
REMARK UNBOUND:                 0.000
REMARK SMILES C=C1CCC[C@@]2(C)Cc3occ(C)c3C[C@H]12
REMARK SMILES IDX 13 1 12 2 11 3 10 4 9 5 14 6 15 7 16 8 2 9 1 10 3 11 4 12
REMARK SMILES IDX 5 13 6 14 8 15 7 16
REMARK H PARENT
REMARK Flexibility Score: inf
ROOT
ATOM      1  C   UNL     1      11.916  39.262   9.147  1.00  0.00     0.048 C 
ATOM      2  C   UNL     1      10.861  39.108  10.193  1.00  0.00    -0.009 A 
ATOM      3  C   UNL     1      10.867  39.662  11.463  1.00  0.00     0.198 A 
ATOM      4  O   UNL     1       9.722  39.406  12.062  1.00  0.00    -0.469 OA
ATOM      5  C   UNL     1       8.965  38.724  11.232  1.00  0.00     0.107 A 
ATOM      6  C   UNL     1       9.632  38.498  10.055  1.00  0.00    -0.003 A 
ATOM      7  C   UNL     1       9.021  37.868   8.841  1.00  0.00     0.048 C 
ATOM      8  C   UNL     1       7.709  37.114   9.211  1.00  0.00     0.025 C 
ATOM      9  C   UNL     1       6.894  36.638   8.005  1.00  0.00    -0.073 C 
ATOM     10  C   UNL     1       7.376  36.611   6.748  1.00  0.00     0.008 C 
ATOM     11  C   UNL     1       5.503  36.103   8.248  1.00  0.00     0.031 C 
ATOM     12  C   UNL     1       5.245  35.875   9.738  1.00  0.00     0.005 C 
ATOM     13  C   UNL     1       5.478  37.151  10.563  1.00  0.00     0.008 C 
ATOM     14  C   UNL     1       6.793  37.937  10.201  1.00  0.00    -0.019 C 
ATOM     15  C   UNL     1       7.585  38.222  11.517  1.00  0.00     0.083 C 
ATOM     16  C   UNL     1       6.388  39.294   9.559  1.00  0.00     0.012 C 
ENDROOT
TORSDOF 0
ENDMDL
