MODEL 1
REMARK VINA RESULT:    -4.570      0.000      0.000
REMARK INTER + INTRA:          -5.318
REMARK INTER:                  -5.238
REMARK INTRA:                  -0.080
REMARK UNBOUND:                -0.080
REMARK SMILES COc1cc(C(=O)[O-])ccc1O
REMARK SMILES IDX 5 1 9 2 4 3 10 4 3 5 11 6 6 7 7 8 8 9 2 10 1 11 12 12
REMARK H PARENT 12 13
REMARK Flexibility Score: inf
ROOT
ATOM      1  C   UNL     1      19.455  22.713  20.967  1.00  0.00     0.001 A 
ATOM      2  C   UNL     1      20.839  22.802  21.185  1.00  0.00     0.014 A 
ATOM      3  C   UNL     1      18.978  22.548  19.655  1.00  0.00     0.060 A 
ATOM      4  C   UNL     1      21.730  22.728  20.112  1.00  0.00     0.051 A 
ATOM      5  C   UNL     1      19.873  22.472  18.568  1.00  0.00     0.161 A 
ATOM      6  C   UNL     1      21.256  22.564  18.808  1.00  0.00     0.157 A 
ENDROOT
BRANCH   1   7
ATOM      7  C   UNL     1      18.508  22.791  22.103  1.00  0.00     0.072 C 
ATOM      8  O   UNL     1      18.745  23.545  23.085  1.00  0.00    -0.545 OA
ATOM      9  O   UNL     1      17.343  22.032  22.103  1.00  0.00    -0.545 OA
ENDBRANCH   1   7
BRANCH   5  10
ATOM     10  O   UNL     1      19.425  22.308  17.247  1.00  0.00    -0.493 OA
ATOM     11  C   UNL     1      18.238  21.616  16.875  1.00  0.00     0.278 C 
ENDBRANCH   5  10
BRANCH   6  12
ATOM     12  O   UNL     1      22.175  22.494  17.762  1.00  0.00    -0.504 OA
ATOM     13  H   UNL     1      22.802  21.707  17.646  1.00  0.00     0.293 HD
ENDBRANCH   6  12
TORSDOF 3
ENDMDL
MODEL 2
REMARK VINA RESULT:    -4.380      1.357      2.887
REMARK INTER + INTRA:          -5.100
REMARK INTER:                  -5.020
REMARK INTRA:                  -0.080
REMARK UNBOUND:                -0.080
REMARK SMILES COc1cc(C(=O)[O-])ccc1O
REMARK SMILES IDX 5 1 9 2 4 3 10 4 3 5 11 6 6 7 7 8 8 9 2 10 1 11 12 12
REMARK H PARENT 12 13
REMARK Flexibility Score: inf
ROOT
ATOM      1  C   UNL     1      19.057  22.405  20.840  1.00  0.00     0.001 A 
ATOM      2  C   UNL     1      18.834  22.908  19.548  1.00  0.00     0.014 A 
ATOM      3  C   UNL     1      20.333  21.915  21.172  1.00  0.00     0.060 A 
ATOM      4  C   UNL     1      19.865  22.921  18.606  1.00  0.00     0.051 A 
ATOM      5  C   UNL     1      21.378  21.927  20.225  1.00  0.00     0.161 A 
ATOM      6  C   UNL     1      21.133  22.434  18.937  1.00  0.00     0.157 A 
ENDROOT
BRANCH   1   7
ATOM      7  C   UNL     1      17.967  22.390  21.840  1.00  0.00     0.072 C 
ATOM      8  O   UNL     1      16.875  21.811  21.590  1.00  0.00    -0.545 OA
ATOM      9  O   UNL     1      18.130  23.015  23.071  1.00  0.00    -0.545 OA
ENDBRANCH   1   7
BRANCH   5  10
ATOM     10  O   UNL     1      22.662  21.444  20.529  1.00  0.00    -0.493 OA
ATOM     11  C   UNL     1      22.925  20.293  21.324  1.00  0.00     0.278 C 
ENDBRANCH   5  10
BRANCH   6  12
ATOM     12  O   UNL     1      22.137  22.464  17.970  1.00  0.00    -0.504 OA
ATOM     13  H   UNL     1      23.118  22.540  18.213  1.00  0.00     0.293 HD
ENDBRANCH   6  12
TORSDOF 3
ENDMDL
MODEL 3
REMARK VINA RESULT:    -4.219      6.750      7.542
REMARK INTER + INTRA:          -4.915
REMARK INTER:                  -4.818
REMARK INTRA:                  -0.097
REMARK UNBOUND:                -0.080
REMARK SMILES COc1cc(C(=O)[O-])ccc1O
REMARK SMILES IDX 5 1 9 2 4 3 10 4 3 5 11 6 6 7 7 8 8 9 2 10 1 11 12 12
REMARK H PARENT 12 13
REMARK Flexibility Score: inf
ROOT
ATOM      1  C   UNL     1      23.141  16.881  20.526  1.00  0.00     0.001 A 
ATOM      2  C   UNL     1      23.726  17.829  21.381  1.00  0.00     0.014 A 
ATOM      3  C   UNL     1      23.859  16.441  19.400  1.00  0.00     0.060 A 
ATOM      4  C   UNL     1      25.003  18.328  21.115  1.00  0.00     0.051 A 
ATOM      5  C   UNL     1      25.148  16.940  19.128  1.00  0.00     0.161 A 
ATOM      6  C   UNL     1      25.716  17.890  19.996  1.00  0.00     0.157 A 
ENDROOT
BRANCH   1   7
ATOM      7  C   UNL     1      21.788  16.351  20.806  1.00  0.00     0.072 C 
ATOM      8  O   UNL     1      20.922  16.287  19.892  1.00  0.00    -0.545 OA
ATOM      9  O   UNL     1      21.451  15.914  22.082  1.00  0.00    -0.545 OA
ENDBRANCH   1   7
BRANCH   5  10
ATOM     10  O   UNL     1      25.888  16.519  18.010  1.00  0.00    -0.493 OA
ATOM     11  C   UNL     1      26.705  15.354  17.974  1.00  0.00     0.278 C 
ENDBRANCH   5  10
BRANCH   6  12
ATOM     12  O   UNL     1      26.989  18.410  19.763  1.00  0.00    -0.504 OA
ATOM     13  H   UNL     1      27.735  17.853  19.364  1.00  0.00     0.293 HD
ENDBRANCH   6  12
TORSDOF 3
ENDMDL
MODEL 4
REMARK VINA RESULT:    -4.214      1.959      2.336
REMARK INTER + INTRA:          -4.910
REMARK INTER:                  -4.825
REMARK INTRA:                  -0.086
REMARK UNBOUND:                -0.080
REMARK SMILES COc1cc(C(=O)[O-])ccc1O
REMARK SMILES IDX 5 1 9 2 4 3 10 4 3 5 11 6 6 7 7 8 8 9 2 10 1 11 12 12
REMARK H PARENT 12 13
REMARK Flexibility Score: inf
ROOT
ATOM      1  C   UNL     1      18.549  22.601  20.841  1.00  0.00     0.001 A 
ATOM      2  C   UNL     1      19.173  23.471  21.750  1.00  0.00     0.014 A 
ATOM      3  C   UNL     1      18.752  22.792  19.463  1.00  0.00     0.060 A 
ATOM      4  C   UNL     1      19.983  24.511  21.290  1.00  0.00     0.051 A 
ATOM      5  C   UNL     1      19.569  23.840  18.994  1.00  0.00     0.161 A 
ATOM      6  C   UNL     1      20.184  24.701  19.921  1.00  0.00     0.157 A 
ENDROOT
BRANCH   1   7
ATOM      7  C   UNL     1      17.690  21.497  21.326  1.00  0.00     0.072 C 
ATOM      8  O   UNL     1      16.957  21.652  22.339  1.00  0.00    -0.545 OA
ATOM      9  O   UNL     1      17.680  20.271  20.669  1.00  0.00    -0.545 OA
ENDBRANCH   1   7
BRANCH   5  10
ATOM     10  O   UNL     1      19.789  24.055  17.623  1.00  0.00    -0.493 OA
ATOM     11  C   UNL     1      20.855  23.479  16.875  1.00  0.00     0.278 C 
ENDBRANCH   5  10
BRANCH   6  12
ATOM     12  O   UNL     1      21.000  25.750  19.499  1.00  0.00    -0.504 OA
ATOM     13  H   UNL     1      20.633  26.552  19.000  1.00  0.00     0.293 HD
ENDBRANCH   6  12
TORSDOF 3
ENDMDL
MODEL 5
REMARK VINA RESULT:    -4.188      1.211      4.319
REMARK INTER + INTRA:          -4.880
REMARK INTER:                  -4.780
REMARK INTRA:                  -0.100
REMARK UNBOUND:                -0.080
REMARK SMILES COc1cc(C(=O)[O-])ccc1O
REMARK SMILES IDX 5 1 9 2 4 3 10 4 3 5 11 6 6 7 7 8 8 9 2 10 1 11 12 12
REMARK H PARENT 12 13
REMARK Flexibility Score: inf
ROOT
ATOM      1  C   UNL     1      19.911  22.893  19.492  1.00  0.00     0.001 A 
ATOM      2  C   UNL     1      20.522  23.708  20.459  1.00  0.00     0.014 A 
ATOM      3  C   UNL     1      18.723  22.217  19.820  1.00  0.00     0.060 A 
ATOM      4  C   UNL     1      19.956  23.843  21.728  1.00  0.00     0.051 A 
ATOM      5  C   UNL     1      18.147  22.351  21.100  1.00  0.00     0.161 A 
ATOM      6  C   UNL     1      18.775  23.171  22.054  1.00  0.00     0.157 A 
ENDROOT
BRANCH   1   7
ATOM      7  C   UNL     1      20.508  22.747  18.146  1.00  0.00     0.072 C 
ATOM      8  O   UNL     1      21.755  22.634  18.006  1.00  0.00    -0.545 OA
ATOM      9  O   UNL     1      19.700  22.733  17.014  1.00  0.00    -0.545 OA
ENDBRANCH   1   7
BRANCH   5  10
ATOM     10  O   UNL     1      16.961  21.686  21.455  1.00  0.00    -0.493 OA
ATOM     11  C   UNL     1      16.876  20.304  21.786  1.00  0.00     0.278 C 
ENDBRANCH   5  10
BRANCH   6  12
ATOM     12  O   UNL     1      18.240  23.331  23.332  1.00  0.00    -0.504 OA
ATOM     13  H   UNL     1      17.463  22.775  23.665  1.00  0.00     0.293 HD
ENDBRANCH   6  12
TORSDOF 3
ENDMDL
MODEL 6
REMARK VINA RESULT:    -4.186      1.965      4.223
REMARK INTER + INTRA:          -4.878
REMARK INTER:                  -4.800
REMARK INTRA:                  -0.078
REMARK UNBOUND:                -0.080
REMARK SMILES COc1cc(C(=O)[O-])ccc1O
REMARK SMILES IDX 5 1 9 2 4 3 10 4 3 5 11 6 6 7 7 8 8 9 2 10 1 11 12 12
REMARK H PARENT 12 13
REMARK Flexibility Score: inf
ROOT
ATOM      1  C   UNL     1      18.978  22.318  18.783  1.00  0.00     0.001 A 
ATOM      2  C   UNL     1      19.623  23.404  18.169  1.00  0.00     0.014 A 
ATOM      3  C   UNL     1      18.760  22.349  20.172  1.00  0.00     0.060 A 
ATOM      4  C   UNL     1      20.042  24.498  18.928  1.00  0.00     0.051 A 
ATOM      5  C   UNL     1      19.180  23.452  20.942  1.00  0.00     0.161 A 
ATOM      6  C   UNL     1      19.825  24.528  20.308  1.00  0.00     0.157 A 
ENDROOT
BRANCH   1   7
ATOM      7  C   UNL     1      18.532  21.157  17.981  1.00  0.00     0.072 C 
ATOM      8  O   UNL     1      17.950  21.326  16.876  1.00  0.00    -0.545 OA
ATOM      9  O   UNL     1      18.750  19.860  18.436  1.00  0.00    -0.545 OA
ENDBRANCH   1   7
BRANCH   5  10
ATOM     10  O   UNL     1      18.976  23.510  22.331  1.00  0.00    -0.493 OA
ATOM     11  C   UNL     1      18.000  22.750  23.037  1.00  0.00     0.278 C 
ENDBRANCH   5  10
BRANCH   6  12
ATOM     12  O   UNL     1      20.258  25.639  21.033  1.00  0.00    -0.504 OA
ATOM     13  H   UNL     1      21.048  25.596  21.665  1.00  0.00     0.293 HD
ENDBRANCH   6  12
TORSDOF 3
ENDMDL
MODEL 7
REMARK VINA RESULT:    -4.148      2.380      4.129
REMARK INTER + INTRA:          -4.834
REMARK INTER:                  -4.751
REMARK INTRA:                  -0.083
REMARK UNBOUND:                -0.080
REMARK SMILES COc1cc(C(=O)[O-])ccc1O
REMARK SMILES IDX 5 1 9 2 4 3 10 4 3 5 11 6 6 7 7 8 8 9 2 10 1 11 12 12
REMARK H PARENT 12 13
REMARK Flexibility Score: inf
ROOT
ATOM      1  C   UNL     1      19.006  22.066  18.284  1.00  0.00     0.001 A 
ATOM      2  C   UNL     1      18.831  23.285  17.611  1.00  0.00     0.014 A 
ATOM      3  C   UNL     1      19.836  22.023  19.418  1.00  0.00     0.060 A 
ATOM      4  C   UNL     1      19.474  24.440  18.061  1.00  0.00     0.051 A 
ATOM      5  C   UNL     1      20.488  23.186  19.877  1.00  0.00     0.161 A 
ATOM      6  C   UNL     1      20.300  24.397  19.188  1.00  0.00     0.157 A 
ENDROOT
BRANCH   1   7
ATOM      7  C   UNL     1      18.325  20.840  17.809  1.00  0.00     0.072 C 
ATOM      8  O   UNL     1      17.480  20.897  16.875  1.00  0.00    -0.545 OA
ATOM      9  O   UNL     1      18.607  19.607  18.387  1.00  0.00    -0.545 OA
ENDBRANCH   1   7
BRANCH   5  10
ATOM     10  O   UNL     1      21.324  23.173  21.006  1.00  0.00    -0.493 OA
ATOM     11  C   UNL     1      22.079  22.047  21.440  1.00  0.00     0.278 C 
ENDBRANCH   5  10
BRANCH   6  12
ATOM     12  O   UNL     1      20.926  25.571  19.608  1.00  0.00    -0.504 OA
ATOM     13  H   UNL     1      20.498  26.201  20.275  1.00  0.00     0.293 HD
ENDBRANCH   6  12
TORSDOF 3
ENDMDL
MODEL 8
REMARK VINA RESULT:    -4.116      2.451      2.690
REMARK INTER + INTRA:          -4.798
REMARK INTER:                  -4.718
REMARK INTRA:                  -0.080
REMARK UNBOUND:                -0.080
REMARK SMILES COc1cc(C(=O)[O-])ccc1O
REMARK SMILES IDX 5 1 9 2 4 3 10 4 3 5 11 6 6 7 7 8 8 9 2 10 1 11 12 12
REMARK H PARENT 12 13
REMARK Flexibility Score: inf
ROOT
ATOM      1  C   UNL     1      20.902  22.594  19.865  1.00  0.00     0.001 A 
ATOM      2  C   UNL     1      21.317  23.922  19.672  1.00  0.00     0.014 A 
ATOM      3  C   UNL     1      19.891  22.067  19.042  1.00  0.00     0.060 A 
ATOM      4  C   UNL     1      20.733  24.707  18.677  1.00  0.00     0.051 A 
ATOM      5  C   UNL     1      19.299  22.856  18.035  1.00  0.00     0.161 A 
ATOM      6  C   UNL     1      19.729  24.184  17.859  1.00  0.00     0.157 A 
ENDROOT
BRANCH   1   7
ATOM      7  C   UNL     1      21.519  21.758  20.919  1.00  0.00     0.072 C 
ATOM      8  O   UNL     1      22.309  22.267  21.760  1.00  0.00    -0.545 OA
ATOM      9  O   UNL     1      21.237  20.399  20.998  1.00  0.00    -0.545 OA
ENDBRANCH   1   7
BRANCH   5  10
ATOM     10  O   UNL     1      18.287  22.356  17.198  1.00  0.00    -0.493 OA
ATOM     11  C   UNL     1      17.815  21.013  17.213  1.00  0.00     0.278 C 
ENDBRANCH   5  10
BRANCH   6  12
ATOM     12  O   UNL     1      19.169  24.998  16.875  1.00  0.00    -0.504 OA
ATOM     13  H   UNL     1      18.823  25.928  17.077  1.00  0.00     0.293 HD
ENDBRANCH   6  12
TORSDOF 3
ENDMDL
