MODEL 1
REMARK VINA RESULT:    -5.966      0.000      0.000
REMARK INTER + INTRA:         -11.160
REMARK INTER:                 -10.500
REMARK INTRA:                  -0.661
REMARK UNBOUND:                -0.661
REMARK SMILES CCCCCCC=CCCCCCCCC(=O)[O-]
REMARK SMILES IDX 10 1 11 2 12 3 13 4 14 5 15 6 16 7 17 8 18 9 9 10 8 11 7 12
REMARK SMILES IDX 6 13 5 14 4 15 3 16 2 17 1 18
REMARK H PARENT
REMARK Flexibility Score: inf
ROOT
ATOM      1  C   UNL     1      26.278  -1.418 -16.836  1.00  0.00     0.004 C 
ENDROOT
BRANCH   1   2
ATOM      2  C   UNL     1      27.628  -1.698 -16.148  1.00  0.00     0.000 C 
BRANCH   2   3
ATOM      3  C   UNL     1      28.323  -0.418 -15.653  1.00  0.00     0.000 C 
BRANCH   3   4
ATOM      4  C   UNL     1      29.599  -0.708 -14.840  1.00  0.00     0.000 C 
BRANCH   4   5
ATOM      5  C   UNL     1      30.915  -0.558 -15.626  1.00  0.00     0.006 C 
BRANCH   5   6
ATOM      6  C   UNL     1      30.764   0.305 -16.886  1.00  0.00     0.053 C 
BRANCH   6   7
ATOM      7  C   UNL     1      31.126  -0.484 -18.106  1.00  0.00     0.041 C 
ATOM      8  O   UNL     1      32.286  -0.402 -18.592  1.00  0.00    -0.550 OA
ATOM      9  O   UNL     1      30.198  -1.346 -18.678  1.00  0.00    -0.550 OA
ENDBRANCH   6   7
ENDBRANCH   5   6
ENDBRANCH   4   5
ENDBRANCH   3   4
ENDBRANCH   2   3
ENDBRANCH   1   2
BRANCH   1  10
ATOM     10  C   UNL     1      25.216  -0.777 -15.926  1.00  0.00     0.027 C 
BRANCH  10  11
ATOM     11  C   UNL     1      24.096  -0.133 -16.700  1.00  0.00    -0.031 C 
ATOM     12  C   UNL     1      23.166   0.622 -16.096  1.00  0.00    -0.031 C 
BRANCH  12  13
ATOM     13  C   UNL     1      22.049   1.266 -16.875  1.00  0.00     0.027 C 
BRANCH  13  14
ATOM     14  C   UNL     1      20.668   0.966 -16.273  1.00  0.00     0.004 C 
BRANCH  14  15
ATOM     15  C   UNL     1      19.524   1.450 -17.183  1.00  0.00     0.000 C 
BRANCH  15  16
ATOM     16  C   UNL     1      18.210   1.664 -16.416  1.00  0.00    -0.000 C 
BRANCH  16  17
ATOM     17  C   UNL     1      17.825   0.454 -15.552  1.00  0.00    -0.003 C 
ATOM     18  C   UNL     1      17.031  -0.567 -16.361  1.00  0.00     0.004 C 
ENDBRANCH  16  17
ENDBRANCH  15  16
ENDBRANCH  14  15
ENDBRANCH  13  14
ENDBRANCH  12  13
ENDBRANCH  10  11
ENDBRANCH   1  10
TORSDOF 13
ENDMDL
MODEL 2
REMARK VINA RESULT:    -5.827      4.728     10.595
REMARK INTER + INTRA:         -10.917
REMARK INTER:                 -10.313
REMARK INTRA:                  -0.604
REMARK UNBOUND:                -0.661
REMARK SMILES CCCCCCC=CCCCCCCCC(=O)[O-]
REMARK SMILES IDX 10 1 11 2 12 3 13 4 14 5 15 6 16 7 17 8 18 9 9 10 8 11 7 12
REMARK SMILES IDX 6 13 5 14 4 15 3 16 2 17 1 18
REMARK H PARENT
REMARK Flexibility Score: inf
ROOT
ATOM      1  C   UNL     1      22.637   0.621 -16.312  1.00  0.00     0.004 C 
ENDROOT
BRANCH   1   2
ATOM      2  C   UNL     1      21.832   1.658 -17.117  1.00  0.00     0.000 C 
BRANCH   2   3
ATOM      3  C   UNL     1      20.368   1.765 -16.658  1.00  0.00     0.000 C 
BRANCH   3   4
ATOM      4  C   UNL     1      20.021   0.769 -15.534  1.00  0.00     0.000 C 
BRANCH   4   5
ATOM      5  C   UNL     1      18.515   0.525 -15.328  1.00  0.00     0.006 C 
BRANCH   5   6
ATOM      6  C   UNL     1      17.640   1.339 -16.290  1.00  0.00     0.053 C 
BRANCH   6   7
ATOM      7  C   UNL     1      16.797   0.427 -17.127  1.00  0.00     0.041 C 
ATOM      8  O   UNL     1      15.578   0.264 -16.855  1.00  0.00    -0.550 OA
ATOM      9  O   UNL     1      17.346  -0.205 -18.236  1.00  0.00    -0.550 OA
ENDBRANCH   6   7
ENDBRANCH   5   6
ENDBRANCH   4   5
ENDBRANCH   3   4
ENDBRANCH   2   3
ENDBRANCH   1   2
BRANCH   1  10
ATOM     10  C   UNL     1      23.759  -0.074 -17.103  1.00  0.00     0.027 C 
BRANCH  10  11
ATOM     11  C   UNL     1      24.883  -0.552 -16.223  1.00  0.00    -0.031 C 
ATOM     12  C   UNL     1      26.015  -1.057 -16.738  1.00  0.00    -0.031 C 
BRANCH  12  13
ATOM     13  C   UNL     1      27.138  -1.533 -15.855  1.00  0.00     0.027 C 
BRANCH  13  14
ATOM     14  C   UNL     1      28.402  -0.673 -16.000  1.00  0.00     0.004 C 
BRANCH  14  15
ATOM     15  C   UNL     1      29.232  -0.642 -14.704  1.00  0.00     0.000 C 
BRANCH  15  16
ATOM     16  C   UNL     1      30.700  -0.261 -14.952  1.00  0.00    -0.000 C 
BRANCH  16  17
ATOM     17  C   UNL     1      31.229  -0.784 -16.295  1.00  0.00    -0.003 C 
ATOM     18  C   UNL     1      32.731  -0.546 -16.423  1.00  0.00     0.004 C 
ENDBRANCH  16  17
ENDBRANCH  15  16
ENDBRANCH  14  15
ENDBRANCH  13  14
ENDBRANCH  12  13
ENDBRANCH  10  11
ENDBRANCH   1  10
TORSDOF 13
ENDMDL
MODEL 3
REMARK VINA RESULT:    -5.753      5.391     10.517
REMARK INTER + INTRA:         -10.786
REMARK INTER:                 -10.090
REMARK INTRA:                  -0.696
REMARK UNBOUND:                -0.661
REMARK SMILES CCCCCCC=CCCCCCCCC(=O)[O-]
REMARK SMILES IDX 10 1 11 2 12 3 13 4 14 5 15 6 16 7 17 8 18 9 9 10 8 11 7 12
REMARK SMILES IDX 6 13 5 14 4 15 3 16 2 17 1 18
REMARK H PARENT
REMARK Flexibility Score: inf
ROOT
ATOM      1  C   UNL     1      22.853   0.387 -16.821  1.00  0.00     0.004 C 
ENDROOT
BRANCH   1   2
ATOM      2  C   UNL     1      21.843   1.425 -16.296  1.00  0.00     0.000 C 
BRANCH   2   3
ATOM      3  C   UNL     1      20.386   1.062 -16.630  1.00  0.00     0.000 C 
BRANCH   3   4
ATOM      4  C   UNL     1      19.432   1.267 -15.437  1.00  0.00     0.000 C 
BRANCH   4   5
ATOM      5  C   UNL     1      18.329   0.202 -15.301  1.00  0.00     0.006 C 
BRANCH   5   6
ATOM      6  C   UNL     1      17.586  -0.062 -16.618  1.00  0.00     0.053 C 
BRANCH   6   7
ATOM      7  C   UNL     1      16.164   0.395 -16.516  1.00  0.00     0.041 C 
ATOM      8  O   UNL     1      15.442   0.455 -17.547  1.00  0.00    -0.550 OA
ATOM      9  O   UNL     1      15.621   0.709 -15.276  1.00  0.00    -0.550 OA
ENDBRANCH   6   7
ENDBRANCH   5   6
ENDBRANCH   4   5
ENDBRANCH   3   4
ENDBRANCH   2   3
ENDBRANCH   1   2
BRANCH   1  10
ATOM     10  C   UNL     1      23.942  -0.016 -15.811  1.00  0.00     0.027 C 
BRANCH  10  11
ATOM     11  C   UNL     1      24.831  -1.118 -16.322  1.00  0.00    -0.031 C 
ATOM     12  C   UNL     1      26.158  -0.954 -16.439  1.00  0.00    -0.031 C 
BRANCH  12  13
ATOM     13  C   UNL     1      27.045  -2.060 -16.949  1.00  0.00     0.027 C 
BRANCH  13  14
ATOM     14  C   UNL     1      28.167  -1.538 -17.859  1.00  0.00     0.004 C 
BRANCH  14  15
ATOM     15  C   UNL     1      29.531  -1.527 -17.145  1.00  0.00     0.000 C 
BRANCH  15  16
ATOM     16  C   UNL     1      30.103  -0.109 -16.988  1.00  0.00    -0.000 C 
BRANCH  16  17
ATOM     17  C   UNL     1      30.373   0.261 -15.522  1.00  0.00    -0.003 C 
ATOM     18  C   UNL     1      29.443  -0.503 -14.583  1.00  0.00     0.004 C 
ENDBRANCH  16  17
ENDBRANCH  15  16
ENDBRANCH  14  15
ENDBRANCH  13  14
ENDBRANCH  12  13
ENDBRANCH  10  11
ENDBRANCH   1  10
TORSDOF 13
ENDMDL
MODEL 4
REMARK VINA RESULT:    -5.727      5.337     11.134
REMARK INTER + INTRA:         -10.741
REMARK INTER:                 -10.370
REMARK INTRA:                  -0.371
REMARK UNBOUND:                -0.661
REMARK SMILES CCCCCCC=CCCCCCCCC(=O)[O-]
REMARK SMILES IDX 10 1 11 2 12 3 13 4 14 5 15 6 16 7 17 8 18 9 9 10 8 11 7 12
REMARK SMILES IDX 6 13 5 14 4 15 3 16 2 17 1 18
REMARK H PARENT
REMARK Flexibility Score: inf
ROOT
ATOM      1  C   UNL     1      23.317   0.490 -16.703  1.00  0.00     0.004 C 
ENDROOT
BRANCH   1   2
ATOM      2  C   UNL     1      22.063   1.006 -15.973  1.00  0.00     0.000 C 
BRANCH   2   3
ATOM      3  C   UNL     1      20.825   1.070 -16.883  1.00  0.00     0.000 C 
BRANCH   3   4
ATOM      4  C   UNL     1      19.539   1.437 -16.117  1.00  0.00     0.000 C 
BRANCH   4   5
ATOM      5  C   UNL     1      18.258   0.763 -16.641  1.00  0.00     0.006 C 
BRANCH   5   6
ATOM      6  C   UNL     1      17.195   0.571 -15.551  1.00  0.00     0.053 C 
BRANCH   6   7
ATOM      7  C   UNL     1      15.822   0.685 -16.136  1.00  0.00     0.041 C 
ATOM      8  O   UNL     1      15.635   0.466 -17.363  1.00  0.00    -0.550 OA
ATOM      9  O   UNL     1      14.740   0.987 -15.318  1.00  0.00    -0.550 OA
ENDBRANCH   6   7
ENDBRANCH   5   6
ENDBRANCH   4   5
ENDBRANCH   3   4
ENDBRANCH   2   3
ENDBRANCH   1   2
BRANCH   1  10
ATOM     10  C   UNL     1      24.209  -0.442 -15.865  1.00  0.00     0.027 C 
BRANCH  10  11
ATOM     11  C   UNL     1      25.420  -0.923 -16.620  1.00  0.00    -0.031 C 
ATOM     12  C   UNL     1      26.602  -1.106 -16.011  1.00  0.00    -0.031 C 
BRANCH  12  13
ATOM     13  C   UNL     1      27.810  -1.590 -16.768  1.00  0.00     0.027 C 
BRANCH  13  14
ATOM     14  C   UNL     1      29.121  -1.317 -16.016  1.00  0.00     0.004 C 
BRANCH  14  15
ATOM     15  C   UNL     1      30.358  -1.652 -16.869  1.00  0.00     0.000 C 
BRANCH  15  16
ATOM     16  C   UNL     1      31.012  -0.401 -17.477  1.00  0.00    -0.000 C 
BRANCH  16  17
ATOM     17  C   UNL     1      31.949   0.315 -16.493  1.00  0.00    -0.003 C 
ATOM     18  C   UNL     1      33.048  -0.622 -16.002  1.00  0.00     0.004 C 
ENDBRANCH  16  17
ENDBRANCH  15  16
ENDBRANCH  14  15
ENDBRANCH  13  14
ENDBRANCH  12  13
ENDBRANCH  10  11
ENDBRANCH   1  10
TORSDOF 13
ENDMDL
MODEL 5
REMARK VINA RESULT:    -5.686      4.533      9.629
REMARK INTER + INTRA:         -10.668
REMARK INTER:                  -9.592
REMARK INTRA:                  -1.076
REMARK UNBOUND:                -0.661
REMARK SMILES CCCCCCC=CCCCCCCCC(=O)[O-]
REMARK SMILES IDX 10 1 11 2 12 3 13 4 14 5 15 6 16 7 17 8 18 9 9 10 8 11 7 12
REMARK SMILES IDX 6 13 5 14 4 15 3 16 2 17 1 18
REMARK H PARENT
REMARK Flexibility Score: inf
ROOT
ATOM      1  C   UNL     1      24.926  -1.242 -15.983  1.00  0.00     0.004 C 
ENDROOT
BRANCH   1   2
ATOM      2  C   UNL     1      23.991  -0.384 -16.855  1.00  0.00     0.000 C 
BRANCH   2   3
ATOM      3  C   UNL     1      23.301   0.741 -16.065  1.00  0.00     0.000 C 
BRANCH   3   4
ATOM      4  C   UNL     1      22.696   1.826 -16.976  1.00  0.00     0.000 C 
BRANCH   4   5
ATOM      5  C   UNL     1      21.158   1.888 -16.976  1.00  0.00     0.006 C 
BRANCH   5   6
ATOM      6  C   UNL     1      20.518   0.859 -16.033  1.00  0.00     0.053 C 
BRANCH   6   7
ATOM      7  C   UNL     1      19.052   1.125 -15.889  1.00  0.00     0.041 C 
ATOM      8  O   UNL     1      18.460   1.875 -16.711  1.00  0.00    -0.550 OA
ATOM      9  O   UNL     1      18.329   0.507 -14.876  1.00  0.00    -0.550 OA
ENDBRANCH   6   7
ENDBRANCH   5   6
ENDBRANCH   4   5
ENDBRANCH   3   4
ENDBRANCH   2   3
ENDBRANCH   1   2
BRANCH   1  10
ATOM     10  C   UNL     1      26.326  -1.471 -16.577  1.00  0.00     0.027 C 
BRANCH  10  11
ATOM     11  C   UNL     1      27.409  -0.759 -15.810  1.00  0.00    -0.031 C 
ATOM     12  C   UNL     1      28.625  -1.301 -15.641  1.00  0.00    -0.031 C 
BRANCH  12  13
ATOM     13  C   UNL     1      29.706  -0.586 -14.874  1.00  0.00     0.027 C 
BRANCH  13  14
ATOM     14  C   UNL     1      30.513   0.375 -15.759  1.00  0.00     0.004 C 
BRANCH  14  15
ATOM     15  C   UNL     1      31.394  -0.375 -16.773  1.00  0.00     0.000 C 
BRANCH  15  16
ATOM     16  C   UNL     1      31.050  -0.024 -18.229  1.00  0.00    -0.000 C 
BRANCH  16  17
ATOM     17  C   UNL     1      30.248  -1.129 -18.932  1.00  0.00    -0.003 C 
ATOM     18  C   UNL     1      28.874  -0.623 -19.360  1.00  0.00     0.004 C 
ENDBRANCH  16  17
ENDBRANCH  15  16
ENDBRANCH  14  15
ENDBRANCH  13  14
ENDBRANCH  12  13
ENDBRANCH  10  11
ENDBRANCH   1  10
TORSDOF 13
ENDMDL
MODEL 6
REMARK VINA RESULT:    -5.583      1.365      3.307
REMARK INTER + INTRA:         -10.487
REMARK INTER:                  -9.405
REMARK INTRA:                  -1.082
REMARK UNBOUND:                -0.661
REMARK SMILES CCCCCCC=CCCCCCCCC(=O)[O-]
REMARK SMILES IDX 10 1 11 2 12 3 13 4 14 5 15 6 16 7 17 8 18 9 9 10 8 11 7 12
REMARK SMILES IDX 6 13 5 14 4 15 3 16 2 17 1 18
REMARK H PARENT
REMARK Flexibility Score: inf
ROOT
ATOM      1  C   UNL     1      22.884   0.827 -17.195  1.00  0.00     0.004 C 
ENDROOT
BRANCH   1   2
ATOM      2  C   UNL     1      23.811   0.184 -16.146  1.00  0.00     0.000 C 
BRANCH   2   3
ATOM      3  C   UNL     1      24.745  -0.880 -16.748  1.00  0.00     0.000 C 
BRANCH   3   4
ATOM      4  C   UNL     1      25.982  -1.152 -15.870  1.00  0.00     0.000 C 
BRANCH   4   5
ATOM      5  C   UNL     1      27.242  -1.584 -16.642  1.00  0.00     0.006 C 
BRANCH   5   6
ATOM      6  C   UNL     1      28.544  -1.200 -15.925  1.00  0.00     0.053 C 
BRANCH   6   7
ATOM      7  C   UNL     1      29.685  -1.172 -16.893  1.00  0.00     0.041 C 
ATOM      8  O   UNL     1      30.844  -1.491 -16.516  1.00  0.00    -0.550 OA
ATOM      9  O   UNL     1      29.460  -0.841 -18.224  1.00  0.00    -0.550 OA
ENDBRANCH   6   7
ENDBRANCH   5   6
ENDBRANCH   4   5
ENDBRANCH   3   4
ENDBRANCH   2   3
ENDBRANCH   1   2
BRANCH   1  10
ATOM     10  C   UNL     1      21.905   1.872 -16.630  1.00  0.00     0.027 C 
BRANCH  10  11
ATOM     11  C   UNL     1      20.711   2.093 -17.520  1.00  0.00    -0.031 C 
ATOM     12  C   UNL     1      20.320   1.172 -18.415  1.00  0.00    -0.031 C 
BRANCH  12  13
ATOM     13  C   UNL     1      19.124   1.396 -19.302  1.00  0.00     0.027 C 
BRANCH  13  14
ATOM     14  C   UNL     1      17.815   1.501 -18.506  1.00  0.00     0.004 C 
BRANCH  14  15
ATOM     15  C   UNL     1      17.151   0.127 -18.303  1.00  0.00     0.000 C 
BRANCH  15  16
ATOM     16  C   UNL     1      17.293  -0.391 -16.863  1.00  0.00    -0.000 C 
BRANCH  16  17
ATOM     17  C   UNL     1      17.467   0.742 -15.841  1.00  0.00    -0.003 C 
ATOM     18  C   UNL     1      18.672   0.488 -14.940  1.00  0.00     0.004 C 
ENDBRANCH  16  17
ENDBRANCH  15  16
ENDBRANCH  14  15
ENDBRANCH  13  14
ENDBRANCH  12  13
ENDBRANCH  10  11
ENDBRANCH   1  10
TORSDOF 13
ENDMDL
MODEL 7
REMARK VINA RESULT:    -5.575      2.041      4.298
REMARK INTER + INTRA:         -10.473
REMARK INTER:                  -9.148
REMARK INTRA:                  -1.326
REMARK UNBOUND:                -0.661
REMARK SMILES CCCCCCC=CCCCCCCCC(=O)[O-]
REMARK SMILES IDX 10 1 11 2 12 3 13 4 14 5 15 6 16 7 17 8 18 9 9 10 8 11 7 12
REMARK SMILES IDX 6 13 5 14 4 15 3 16 2 17 1 18
REMARK H PARENT
REMARK Flexibility Score: inf
ROOT
ATOM      1  C   UNL     1      30.227  -0.016 -15.186  1.00  0.00     0.004 C 
ENDROOT
BRANCH   1   2
ATOM      2  C   UNL     1      31.137  -0.783 -16.163  1.00  0.00     0.000 C 
BRANCH   2   3
ATOM      3  C   UNL     1      31.759   0.126 -17.237  1.00  0.00     0.000 C 
BRANCH   3   4
ATOM      4  C   UNL     1      30.877   0.253 -18.495  1.00  0.00     0.000 C 
BRANCH   4   5
ATOM      5  C   UNL     1      30.347  -1.081 -19.051  1.00  0.00     0.006 C 
BRANCH   5   6
ATOM      6  C   UNL     1      28.892  -0.993 -19.532  1.00  0.00     0.053 C 
BRANCH   6   7
ATOM      7  C   UNL     1      28.525  -2.216 -20.313  1.00  0.00     0.041 C 
ATOM      8  O   UNL     1      27.327  -2.602 -20.359  1.00  0.00    -0.550 OA
ATOM      9  O   UNL     1      29.498  -2.903 -21.028  1.00  0.00    -0.550 OA
ENDBRANCH   6   7
ENDBRANCH   5   6
ENDBRANCH   4   5
ENDBRANCH   3   4
ENDBRANCH   2   3
ENDBRANCH   1   2
BRANCH   1  10
ATOM     10  C   UNL     1      28.894  -0.716 -14.867  1.00  0.00     0.027 C 
BRANCH  10  11
ATOM     11  C   UNL     1      28.055  -0.958 -16.094  1.00  0.00    -0.031 C 
ATOM     12  C   UNL     1      26.805  -1.438 -16.009  1.00  0.00    -0.031 C 
BRANCH  12  13
ATOM     13  C   UNL     1      25.968  -1.677 -17.238  1.00  0.00     0.027 C 
BRANCH  13  14
ATOM     14  C   UNL     1      24.748  -0.747 -17.305  1.00  0.00     0.004 C 
BRANCH  14  15
ATOM     15  C   UNL     1      24.281  -0.305 -15.907  1.00  0.00     0.000 C 
BRANCH  15  16
ATOM     16  C   UNL     1      23.245   0.829 -15.961  1.00  0.00    -0.000 C 
BRANCH  16  17
ATOM     17  C   UNL     1      22.333   0.740 -17.193  1.00  0.00    -0.003 C 
ATOM     18  C   UNL     1      20.900   1.129 -16.844  1.00  0.00     0.004 C 
ENDBRANCH  16  17
ENDBRANCH  15  16
ENDBRANCH  14  15
ENDBRANCH  13  14
ENDBRANCH  12  13
ENDBRANCH  10  11
ENDBRANCH   1  10
TORSDOF 13
ENDMDL
MODEL 8
REMARK VINA RESULT:    -5.521      6.040      9.312
REMARK INTER + INTRA:         -10.377
REMARK INTER:                  -9.192
REMARK INTRA:                  -1.185
REMARK UNBOUND:                -0.661
REMARK SMILES CCCCCCC=CCCCCCCCC(=O)[O-]
REMARK SMILES IDX 10 1 11 2 12 3 13 4 14 5 15 6 16 7 17 8 18 9 9 10 8 11 7 12
REMARK SMILES IDX 6 13 5 14 4 15 3 16 2 17 1 18
REMARK H PARENT
REMARK Flexibility Score: inf
ROOT
ATOM      1  C   UNL     1      27.611  -1.957 -18.702  1.00  0.00     0.004 C 
ENDROOT
BRANCH   1   2
ATOM      2  C   UNL     1      26.816  -1.827 -20.015  1.00  0.00     0.000 C 
BRANCH   2   3
ATOM      3  C   UNL     1      26.937  -3.070 -20.912  1.00  0.00     0.000 C 
BRANCH   3   4
ATOM      4  C   UNL     1      25.601  -3.822 -21.073  1.00  0.00     0.000 C 
BRANCH   4   5
ATOM      5  C   UNL     1      25.548  -4.801 -22.260  1.00  0.00     0.006 C 
BRANCH   5   6
ATOM      6  C   UNL     1      24.299  -4.615 -23.133  1.00  0.00     0.053 C 
BRANCH   6   7
ATOM      7  C   UNL     1      23.062  -4.903 -22.342  1.00  0.00     0.041 C 
ATOM      8  O   UNL     1      22.798  -6.083 -21.984  1.00  0.00    -0.550 OA
ATOM      9  O   UNL     1      22.224  -3.864 -21.958  1.00  0.00    -0.550 OA
ENDBRANCH   6   7
ENDBRANCH   5   6
ENDBRANCH   4   5
ENDBRANCH   3   4
ENDBRANCH   2   3
ENDBRANCH   1   2
BRANCH   1  10
ATOM     10  C   UNL     1      26.747  -1.974 -17.429  1.00  0.00     0.027 C 
BRANCH  10  11
ATOM     11  C   UNL     1      27.348  -1.170 -16.306  1.00  0.00    -0.031 C 
ATOM     12  C   UNL     1      28.645  -1.279 -15.978  1.00  0.00    -0.031 C 
BRANCH  12  13
ATOM     13  C   UNL     1      29.243  -0.472 -14.856  1.00  0.00     0.027 C 
BRANCH  13  14
ATOM     14  C   UNL     1      30.778  -0.448 -14.905  1.00  0.00     0.004 C 
BRANCH  14  15
ATOM     15  C   UNL     1      31.305   0.438 -16.048  1.00  0.00     0.000 C 
BRANCH  15  16
ATOM     16  C   UNL     1      32.034  -0.369 -17.133  1.00  0.00    -0.000 C 
BRANCH  16  17
ATOM     17  C   UNL     1      31.279  -0.381 -18.470  1.00  0.00    -0.003 C 
ATOM     18  C   UNL     1      30.278   0.769 -18.545  1.00  0.00     0.004 C 
ENDBRANCH  16  17
ENDBRANCH  15  16
ENDBRANCH  14  15
ENDBRANCH  13  14
ENDBRANCH  12  13
ENDBRANCH  10  11
ENDBRANCH   1  10
TORSDOF 13
ENDMDL
MODEL 9
REMARK VINA RESULT:    -5.515      4.049      7.544
REMARK INTER + INTRA:         -10.367
REMARK INTER:                  -8.668
REMARK INTRA:                  -1.699
REMARK UNBOUND:                -0.661
REMARK SMILES CCCCCCC=CCCCCCCCC(=O)[O-]
REMARK SMILES IDX 10 1 11 2 12 3 13 4 14 5 15 6 16 7 17 8 18 9 9 10 8 11 7 12
REMARK SMILES IDX 6 13 5 14 4 15 3 16 2 17 1 18
REMARK H PARENT
REMARK Flexibility Score: inf
ROOT
ATOM      1  C   UNL     1      30.221   0.285 -16.663  1.00  0.00     0.004 C 
ENDROOT
BRANCH   1   2
ATOM      2  C   UNL     1      29.705  -0.741 -15.637  1.00  0.00     0.000 C 
BRANCH   2   3
ATOM      3  C   UNL     1      28.170  -0.783 -15.554  1.00  0.00     0.000 C 
BRANCH   3   4
ATOM      4  C   UNL     1      27.553  -1.862 -16.464  1.00  0.00     0.000 C 
BRANCH   4   5
ATOM      5  C   UNL     1      26.166  -1.513 -17.035  1.00  0.00     0.006 C 
BRANCH   5   6
ATOM      6  C   UNL     1      25.152  -1.129 -15.949  1.00  0.00     0.053 C 
BRANCH   6   7
ATOM      7  C   UNL     1      24.187  -0.111 -16.473  1.00  0.00     0.041 C 
ATOM      8  O   UNL     1      23.906  -0.077 -17.701  1.00  0.00    -0.550 OA
ATOM      9  O   UNL     1      23.562   0.770 -15.599  1.00  0.00    -0.550 OA
ENDBRANCH   6   7
ENDBRANCH   5   6
ENDBRANCH   4   5
ENDBRANCH   3   4
ENDBRANCH   2   3
ENDBRANCH   1   2
BRANCH   1  10
ATOM     10  C   UNL     1      31.145  -0.300 -17.745  1.00  0.00     0.027 C 
BRANCH  10  11
ATOM     11  C   UNL     1      30.391  -1.039 -18.818  1.00  0.00    -0.031 C 
ATOM     12  C   UNL     1      29.229  -0.579 -19.306  1.00  0.00    -0.031 C 
BRANCH  12  13
ATOM     13  C   UNL     1      28.478  -1.321 -20.381  1.00  0.00     0.027 C 
BRANCH  13  14
ATOM     14  C   UNL     1      29.143  -2.658 -20.743  1.00  0.00     0.004 C 
BRANCH  14  15
ATOM     15  C   UNL     1      28.107  -3.743 -21.085  1.00  0.00     0.000 C 
BRANCH  15  16
ATOM     16  C   UNL     1      26.944  -3.787 -20.082  1.00  0.00    -0.000 C 
BRANCH  16  17
ATOM     17  C   UNL     1      25.570  -3.781 -20.767  1.00  0.00    -0.003 C 
ATOM     18  C   UNL     1      25.649  -3.138 -22.149  1.00  0.00     0.004 C 
ENDBRANCH  16  17
ENDBRANCH  15  16
ENDBRANCH  14  15
ENDBRANCH  13  14
ENDBRANCH  12  13
ENDBRANCH  10  11
ENDBRANCH   1  10
TORSDOF 13
ENDMDL
