MODEL 1
REMARK VINA RESULT:    -2.210      0.000      0.000
REMARK INTER + INTRA:          -2.275
REMARK INTER:                  -2.275
REMARK INTRA:                   0.000
REMARK UNBOUND:                 0.000
REMARK SMILES O=c1ccc2ccc(O)cc2o1
REMARK SMILES IDX 6 1 7 2 8 3 10 4 11 5 5 6 4 7 3 8 2 9 1 10 12 11 9 12
REMARK H PARENT 9 13
REMARK Flexibility Score: inf
ROOT
ATOM      1  C   UNL     1      20.375 -29.186  -1.240  1.00  0.00     0.016 A 
ATOM      2  C   UNL     1      20.675 -28.045  -1.992  1.00  0.00     0.047 A 
ATOM      3  C   UNL     1      20.914 -26.821  -1.356  1.00  0.00     0.119 A 
ATOM      4  C   UNL     1      20.853 -26.736   0.043  1.00  0.00     0.094 A 
ATOM      5  C   UNL     1      20.554 -27.872   0.804  1.00  0.00     0.142 A 
ATOM      6  C   UNL     1      20.313 -29.105   0.158  1.00  0.00     0.018 A 
ATOM      7  C   UNL     1      20.016 -30.222   0.944  1.00  0.00     0.019 A 
ATOM      8  C   UNL     1      19.967 -30.088   2.332  1.00  0.00     0.094 A 
ATOM      9  C   UNL     1      20.216 -28.835   2.902  1.00  0.00     0.336 A 
ATOM     10  O   UNL     1      20.176 -28.695   4.153  1.00  0.00    -0.246 OA
ATOM     11  O   UNL     1      20.497 -27.789   2.131  1.00  0.00    -0.423 OA
ENDROOT
BRANCH   3  12
ATOM     12  O   UNL     1      21.212 -25.697  -2.122  1.00  0.00    -0.508 OA
ATOM     13  H   UNL     1      20.884 -24.774  -1.859  1.00  0.00     0.293 HD
ENDBRANCH   3  12
TORSDOF 1
ENDMDL
MODEL 2
REMARK VINA RESULT:    -2.202      7.887      8.805
REMARK INTER + INTRA:          -2.266
REMARK INTER:                  -2.266
REMARK INTRA:                   0.000
REMARK UNBOUND:                 0.000
REMARK SMILES O=c1ccc2ccc(O)cc2o1
REMARK SMILES IDX 6 1 7 2 8 3 10 4 11 5 5 6 4 7 3 8 2 9 1 10 12 11 9 12
REMARK H PARENT 9 13
REMARK Flexibility Score: inf
ROOT
ATOM      1  C   UNL     1      14.310 -33.596   0.887  1.00  0.00     0.016 A 
ATOM      2  C   UNL     1      13.225 -33.546   0.006  1.00  0.00     0.047 A 
ATOM      3  C   UNL     1      13.315 -34.130  -1.263  1.00  0.00     0.119 A 
ATOM      4  C   UNL     1      14.500 -34.770  -1.655  1.00  0.00     0.094 A 
ATOM      5  C   UNL     1      15.592 -34.826  -0.781  1.00  0.00     0.142 A 
ATOM      6  C   UNL     1      15.496 -34.235   0.499  1.00  0.00     0.018 A 
ATOM      7  C   UNL     1      16.602 -34.306   1.350  1.00  0.00     0.019 A 
ATOM      8  C   UNL     1      17.759 -34.953   0.916  1.00  0.00     0.094 A 
ATOM      9  C   UNL     1      17.782 -35.515  -0.366  1.00  0.00     0.336 A 
ATOM     10  O   UNL     1      18.817 -36.103  -0.775  1.00  0.00    -0.246 OA
ATOM     11  O   UNL     1      16.715 -35.433  -1.155  1.00  0.00    -0.423 OA
ENDROOT
BRANCH   3  12
ATOM     12  O   UNL     1      12.223 -34.069  -2.125  1.00  0.00    -0.508 OA
ATOM     13  H   UNL     1      11.397 -33.527  -1.898  1.00  0.00     0.293 HD
ENDBRANCH   3  12
TORSDOF 1
ENDMDL
MODEL 3
REMARK VINA RESULT:    -2.120      7.057      7.601
REMARK INTER + INTRA:          -2.182
REMARK INTER:                  -2.182
REMARK INTRA:                   0.000
REMARK UNBOUND:                 0.000
REMARK SMILES O=c1ccc2ccc(O)cc2o1
REMARK SMILES IDX 6 1 7 2 8 3 10 4 11 5 5 6 4 7 3 8 2 9 1 10 12 11 9 12
REMARK H PARENT 9 13
REMARK Flexibility Score: inf
ROOT
ATOM      1  C   UNL     1      12.047 -30.385   0.521  1.00  0.00     0.016 A 
ATOM      2  C   UNL     1      12.199 -29.091   0.012  1.00  0.00     0.047 A 
ATOM      3  C   UNL     1      13.079 -28.189   0.621  1.00  0.00     0.119 A 
ATOM      4  C   UNL     1      13.814 -28.583   1.749  1.00  0.00     0.094 A 
ATOM      5  C   UNL     1      13.670 -29.876   2.266  1.00  0.00     0.142 A 
ATOM      6  C   UNL     1      12.780 -30.783   1.648  1.00  0.00     0.018 A 
ATOM      7  C   UNL     1      12.657 -32.067   2.187  1.00  0.00     0.019 A 
ATOM      8  C   UNL     1      13.409 -32.413   3.309  1.00  0.00     0.094 A 
ATOM      9  C   UNL     1      14.270 -31.462   3.869  1.00  0.00     0.336 A 
ATOM     10  O   UNL     1      14.956 -31.756   4.882  1.00  0.00    -0.246 OA
ATOM     11  O   UNL     1      14.369 -30.248   3.336  1.00  0.00    -0.423 OA
ENDROOT
BRANCH   3  12
ATOM     12  O   UNL     1      13.216 -26.906   0.099  1.00  0.00    -0.508 OA
ATOM     13  H   UNL     1      13.728 -26.184   0.594  1.00  0.00     0.293 HD
ENDBRANCH   3  12
TORSDOF 1
ENDMDL
MODEL 4
REMARK VINA RESULT:    -2.114      1.880      2.316
REMARK INTER + INTRA:          -2.175
REMARK INTER:                  -2.175
REMARK INTRA:                   0.000
REMARK UNBOUND:                 0.000
REMARK SMILES O=c1ccc2ccc(O)cc2o1
REMARK SMILES IDX 6 1 7 2 8 3 10 4 11 5 5 6 4 7 3 8 2 9 1 10 12 11 9 12
REMARK H PARENT 9 13
REMARK Flexibility Score: inf
ROOT
ATOM      1  C   UNL     1      21.853 -30.754  -0.629  1.00  0.00     0.016 A 
ATOM      2  C   UNL     1      21.508 -29.732  -1.520  1.00  0.00     0.047 A 
ATOM      3  C   UNL     1      20.453 -28.862  -1.225  1.00  0.00     0.119 A 
ATOM      4  C   UNL     1      19.734 -29.013  -0.030  1.00  0.00     0.094 A 
ATOM      5  C   UNL     1      20.071 -30.033   0.868  1.00  0.00     0.142 A 
ATOM      6  C   UNL     1      21.137 -30.909   0.567  1.00  0.00     0.018 A 
ATOM      7  C   UNL     1      21.450 -31.918   1.482  1.00  0.00     0.019 A 
ATOM      8  C   UNL     1      20.708 -32.029   2.658  1.00  0.00     0.094 A 
ATOM      9  C   UNL     1      19.665 -31.125   2.889  1.00  0.00     0.336 A 
ATOM     10  O   UNL     1      18.983 -31.210   3.945  1.00  0.00    -0.246 OA
ATOM     11  O   UNL     1      19.388 -30.174   2.002  1.00  0.00    -0.423 OA
ENDROOT
BRANCH   3  12
ATOM     12  O   UNL     1      20.126 -27.851  -2.125  1.00  0.00    -0.508 OA
ATOM     13  H   UNL     1      19.386 -27.968  -2.808  1.00  0.00     0.293 HD
ENDBRANCH   3  12
TORSDOF 1
ENDMDL
MODEL 5
REMARK VINA RESULT:    -2.100      0.785      4.227
REMARK INTER + INTRA:          -2.161
REMARK INTER:                  -2.161
REMARK INTRA:                   0.000
REMARK UNBOUND:                 0.000
REMARK SMILES O=c1ccc2ccc(O)cc2o1
REMARK SMILES IDX 6 1 7 2 8 3 10 4 11 5 5 6 4 7 3 8 2 9 1 10 12 11 9 12
REMARK H PARENT 9 13
REMARK Flexibility Score: inf
ROOT
ATOM      1  C   UNL     1      19.933 -29.965   0.799  1.00  0.00     0.016 A 
ATOM      2  C   UNL     1      19.817 -29.805   2.184  1.00  0.00     0.047 A 
ATOM      3  C   UNL     1      20.131 -28.580   2.784  1.00  0.00     0.119 A 
ATOM      4  C   UNL     1      20.565 -27.505   1.993  1.00  0.00     0.094 A 
ATOM      5  C   UNL     1      20.685 -27.656   0.607  1.00  0.00     0.142 A 
ATOM      6  C   UNL     1      20.367 -28.894   0.005  1.00  0.00     0.018 A 
ATOM      7  C   UNL     1      20.496 -29.015  -1.381  1.00  0.00     0.019 A 
ATOM      8  C   UNL     1      20.931 -27.919  -2.125  1.00  0.00     0.094 A 
ATOM      9  C   UNL     1      21.229 -26.723  -1.461  1.00  0.00     0.336 A 
ATOM     10  O   UNL     1      21.623 -25.723  -2.117  1.00  0.00    -0.246 OA
ATOM     11  O   UNL     1      21.097 -26.635  -0.141  1.00  0.00    -0.423 OA
ENDROOT
BRANCH   3  12
ATOM     12  O   UNL     1      20.009 -28.440   4.164  1.00  0.00    -0.508 OA
ATOM     13  H   UNL     1      19.101 -28.370   4.611  1.00  0.00     0.293 HD
ENDBRANCH   3  12
TORSDOF 1
ENDMDL
MODEL 6
REMARK VINA RESULT:    -2.094      7.114      8.177
REMARK INTER + INTRA:          -2.156
REMARK INTER:                  -2.156
REMARK INTRA:                   0.000
REMARK UNBOUND:                 0.000
REMARK SMILES O=c1ccc2ccc(O)cc2o1
REMARK SMILES IDX 6 1 7 2 8 3 10 4 11 5 5 6 4 7 3 8 2 9 1 10 12 11 9 12
REMARK H PARENT 9 13
REMARK Flexibility Score: inf
ROOT
ATOM      1  C   UNL     1      16.053 -35.364  -0.829  1.00  0.00     0.016 A 
ATOM      2  C   UNL     1      14.919 -35.365  -1.649  1.00  0.00     0.047 A 
ATOM      3  C   UNL     1      13.790 -34.618  -1.295  1.00  0.00     0.119 A 
ATOM      4  C   UNL     1      13.792 -33.864  -0.113  1.00  0.00     0.094 A 
ATOM      5  C   UNL     1      14.921 -33.856   0.715  1.00  0.00     0.142 A 
ATOM      6  C   UNL     1      16.059 -34.612   0.354  1.00  0.00     0.018 A 
ATOM      7  C   UNL     1      17.171 -34.585   1.200  1.00  0.00     0.019 A 
ATOM      8  C   UNL     1      17.127 -33.820   2.365  1.00  0.00     0.094 A 
ATOM      9  C   UNL     1      15.965 -33.097   2.658  1.00  0.00     0.336 A 
ATOM     10  O   UNL     1      15.906 -32.401   3.706  1.00  0.00    -0.246 OA
ATOM     11  O   UNL     1      14.921 -33.140   1.836  1.00  0.00    -0.423 OA
ENDROOT
BRANCH   3  12
ATOM     12  O   UNL     1      12.671 -34.632  -2.125  1.00  0.00    -0.508 OA
ATOM     13  H   UNL     1      11.777 -34.268  -1.815  1.00  0.00     0.293 HD
ENDBRANCH   3  12
TORSDOF 1
ENDMDL
MODEL 7
REMARK VINA RESULT:    -2.079      8.003      8.660
REMARK INTER + INTRA:          -2.140
REMARK INTER:                  -2.140
REMARK INTRA:                   0.000
REMARK UNBOUND:                 0.000
REMARK SMILES O=c1ccc2ccc(O)cc2o1
REMARK SMILES IDX 6 1 7 2 8 3 10 4 11 5 5 6 4 7 3 8 2 9 1 10 12 11 9 12
REMARK H PARENT 9 13
REMARK Flexibility Score: inf
ROOT
ATOM      1  C   UNL     1      15.253 -35.187  -2.044  1.00  0.00     0.016 A 
ATOM      2  C   UNL     1      16.525 -35.717  -1.802  1.00  0.00     0.047 A 
ATOM      3  C   UNL     1      17.157 -35.507  -0.571  1.00  0.00     0.119 A 
ATOM      4  C   UNL     1      16.513 -34.762   0.428  1.00  0.00     0.094 A 
ATOM      5  C   UNL     1      15.240 -34.228   0.196  1.00  0.00     0.142 A 
ATOM      6  C   UNL     1      14.606 -34.441  -1.049  1.00  0.00     0.018 A 
ATOM      7  C   UNL     1      13.336 -33.895  -1.251  1.00  0.00     0.019 A 
ATOM      8  C   UNL     1      12.735 -33.162  -0.228  1.00  0.00     0.094 A 
ATOM      9  C   UNL     1      13.424 -32.991   0.978  1.00  0.00     0.336 A 
ATOM     10  O   UNL     1      12.897 -32.332   1.913  1.00  0.00    -0.246 OA
ATOM     11  O   UNL     1      14.631 -33.522   1.145  1.00  0.00    -0.423 OA
ENDROOT
BRANCH   3  12
ATOM     12  O   UNL     1      18.423 -36.044  -0.350  1.00  0.00    -0.508 OA
ATOM     13  H   UNL     1      18.795 -36.783  -0.935  1.00  0.00     0.293 HD
ENDBRANCH   3  12
TORSDOF 1
ENDMDL
MODEL 8
REMARK VINA RESULT:    -2.037      3.322      4.018
REMARK INTER + INTRA:          -2.096
REMARK INTER:                  -2.096
REMARK INTRA:                   0.000
REMARK UNBOUND:                 0.000
REMARK SMILES O=c1ccc2ccc(O)cc2o1
REMARK SMILES IDX 6 1 7 2 8 3 10 4 11 5 5 6 4 7 3 8 2 9 1 10 12 11 9 12
REMARK H PARENT 9 13
REMARK Flexibility Score: inf
ROOT
ATOM      1  C   UNL     1      20.116 -30.038   0.858  1.00  0.00     0.016 A 
ATOM      2  C   UNL     1      19.750 -29.024  -0.032  1.00  0.00     0.047 A 
ATOM      3  C   UNL     1      20.423 -28.875  -1.251  1.00  0.00     0.119 A 
ATOM      4  C   UNL     1      21.470 -29.747  -1.583  1.00  0.00     0.094 A 
ATOM      5  C   UNL     1      21.843 -30.766  -0.698  1.00  0.00     0.142 A 
ATOM      6  C   UNL     1      21.162 -30.913   0.531  1.00  0.00     0.018 A 
ATOM      7  C   UNL     1      21.557 -31.938   1.394  1.00  0.00     0.019 A 
ATOM      8  C   UNL     1      22.603 -32.781   1.020  1.00  0.00     0.094 A 
ATOM      9  C   UNL     1      23.233 -32.576  -0.213  1.00  0.00     0.336 A 
ATOM     10  O   UNL     1      24.180 -33.327  -0.567  1.00  0.00    -0.246 OA
ATOM     11  O   UNL     1      22.837 -31.592  -1.015  1.00  0.00    -0.423 OA
ENDROOT
BRANCH   3  12
ATOM     12  O   UNL     1      20.043 -27.859  -2.124  1.00  0.00    -0.508 OA
ATOM     13  H   UNL     1      19.068 -27.672  -2.329  1.00  0.00     0.293 HD
ENDBRANCH   3  12
TORSDOF 1
ENDMDL
MODEL 9
REMARK VINA RESULT:    -2.020      8.141      8.829
REMARK INTER + INTRA:          -2.079
REMARK INTER:                  -2.079
REMARK INTRA:                   0.000
REMARK UNBOUND:                 0.000
REMARK SMILES O=c1ccc2ccc(O)cc2o1
REMARK SMILES IDX 6 1 7 2 8 3 10 4 11 5 5 6 4 7 3 8 2 9 1 10 12 11 9 12
REMARK H PARENT 9 13
REMARK Flexibility Score: inf
ROOT
ATOM      1  C   UNL     1      16.967 -34.583   0.922  1.00  0.00     0.016 A 
ATOM      2  C   UNL     1      17.686 -35.344  -0.005  1.00  0.00     0.047 A 
ATOM      3  C   UNL     1      17.095 -35.730  -1.214  1.00  0.00     0.119 A 
ATOM      4  C   UNL     1      15.774 -35.353  -1.498  1.00  0.00     0.094 A 
ATOM      5  C   UNL     1      15.046 -34.592  -0.576  1.00  0.00     0.142 A 
ATOM      6  C   UNL     1      15.647 -34.204   0.642  1.00  0.00     0.018 A 
ATOM      7  C   UNL     1      14.896 -33.444   1.543  1.00  0.00     0.019 A 
ATOM      8  C   UNL     1      13.586 -33.093   1.216  1.00  0.00     0.094 A 
ATOM      9  C   UNL     1      13.057 -33.513  -0.009  1.00  0.00     0.336 A 
ATOM     10  O   UNL     1      11.876 -33.206  -0.321  1.00  0.00    -0.246 OA
ATOM     11  O   UNL     1      13.794 -34.235  -0.848  1.00  0.00    -0.423 OA
ENDROOT
BRANCH   3  12
ATOM     12  O   UNL     1      17.827 -36.488  -2.125  1.00  0.00    -0.508 OA
ATOM     13  H   UNL     1      17.748 -37.498  -2.159  1.00  0.00     0.293 HD
ENDBRANCH   3  12
TORSDOF 1
ENDMDL
