MODEL 1
REMARK VINA RESULT:    -5.296      0.000      0.000
REMARK INTER + INTRA:          -8.772
REMARK INTER:                  -8.083
REMARK INTRA:                  -0.689
REMARK UNBOUND:                -0.689
REMARK SMILES CCCCCCCCCC=CC(=O)[O-]
REMARK SMILES IDX 7 1 8 2 9 3 10 4 11 5 12 6 13 7 14 8 6 9 5 10 4 11 3 12 2 13
REMARK SMILES IDX 1 14
REMARK H PARENT
REMARK Flexibility Score: inf
ROOT
ATOM      1  C   UNL     1     -12.931  11.527   7.840  1.00  0.00     0.000 C 
ENDROOT
BRANCH   1   2
ATOM      2  C   UNL     1     -11.856  10.654   7.168  1.00  0.00     0.004 C 
BRANCH   2   3
ATOM      3  C   UNL     1     -11.822  10.815   5.641  1.00  0.00     0.027 C 
BRANCH   3   4
ATOM      4  C   UNL     1     -10.785  11.820   5.225  1.00  0.00    -0.025 C 
ATOM      5  C   UNL     1     -10.622  12.165   3.945  1.00  0.00     0.020 C 
BRANCH   5   6
ATOM      6  C   UNL     1      -9.622  13.159   3.526  1.00  0.00     0.064 C 
ATOM      7  O   UNL     1      -8.507  13.203   4.110  1.00  0.00    -0.545 OA
ATOM      8  O   UNL     1      -9.887  14.053   2.495  1.00  0.00    -0.545 OA
ENDBRANCH   5   6
ENDBRANCH   3   4
ENDBRANCH   2   3
ENDBRANCH   1   2
BRANCH   1   9
ATOM      9  C   UNL     1     -12.388  12.690   8.690  1.00  0.00     0.000 C 
BRANCH   9  10
ATOM     10  C   UNL     1     -10.937  12.469   9.150  1.00  0.00     0.000 C 
BRANCH  10  11
ATOM     11  C   UNL     1      -9.987  13.572   8.633  1.00  0.00    -0.000 C 
BRANCH  11  12
ATOM     12  C   UNL     1      -9.477  14.516   9.739  1.00  0.00    -0.000 C 
BRANCH  12  13
ATOM     13  C   UNL     1      -7.947  14.582   9.870  1.00  0.00    -0.003 C 
ATOM     14  C   UNL     1      -7.433  13.923  11.150  1.00  0.00     0.004 C 
ENDBRANCH  12  13
ENDBRANCH  11  12
ENDBRANCH  10  11
ENDBRANCH   9  10
ENDBRANCH   1   9
TORSDOF 9
ENDMDL
MODEL 2
REMARK VINA RESULT:    -5.275      0.880      1.508
REMARK INTER + INTRA:          -8.739
REMARK INTER:                  -8.165
REMARK INTRA:                  -0.573
REMARK UNBOUND:                -0.689
REMARK SMILES CCCCCCCCCC=CC(=O)[O-]
REMARK SMILES IDX 7 1 8 2 9 3 10 4 11 5 12 6 13 7 14 8 6 9 5 10 4 11 3 12 2 13
REMARK SMILES IDX 1 14
REMARK H PARENT
REMARK Flexibility Score: inf
ROOT
ATOM      1  C   UNL     1     -11.986  12.145   8.440  1.00  0.00     0.000 C 
ENDROOT
BRANCH   1   2
ATOM      2  C   UNL     1     -12.004  10.635   8.139  1.00  0.00     0.004 C 
BRANCH   2   3
ATOM      3  C   UNL     1     -12.028  10.325   6.635  1.00  0.00     0.027 C 
BRANCH   3   4
ATOM      4  C   UNL     1     -11.347  11.408   5.848  1.00  0.00    -0.025 C 
ATOM      5  C   UNL     1     -10.973  11.219   4.579  1.00  0.00     0.020 C 
BRANCH   5   6
ATOM      6  C   UNL     1     -10.320  12.276   3.792  1.00  0.00     0.064 C 
ATOM      7  O   UNL     1     -10.748  12.547   2.639  1.00  0.00    -0.545 OA
ATOM      8  O   UNL     1      -9.236  12.982   4.300  1.00  0.00    -0.545 OA
ENDBRANCH   5   6
ENDBRANCH   3   4
ENDBRANCH   2   3
ENDBRANCH   1   2
BRANCH   1   9
ATOM      9  C   UNL     1     -10.856  12.607   9.379  1.00  0.00     0.000 C 
BRANCH   9  10
ATOM     10  C   UNL     1      -9.985  13.717   8.767  1.00  0.00     0.000 C 
BRANCH  10  11
ATOM     11  C   UNL     1      -9.915  14.969   9.669  1.00  0.00    -0.000 C 
BRANCH  11  12
ATOM     12  C   UNL     1      -8.478  15.393  10.027  1.00  0.00    -0.000 C 
BRANCH  12  13
ATOM     13  C   UNL     1      -7.573  14.247  10.506  1.00  0.00    -0.003 C 
ATOM     14  C   UNL     1      -7.233  14.342  11.993  1.00  0.00     0.004 C 
ENDBRANCH  12  13
ENDBRANCH  11  12
ENDBRANCH  10  11
ENDBRANCH   9  10
ENDBRANCH   1   9
TORSDOF 9
ENDMDL
MODEL 3
REMARK VINA RESULT:    -5.232      2.849      5.299
REMARK INTER + INTRA:          -8.674
REMARK INTER:                  -8.023
REMARK INTRA:                  -0.651
REMARK UNBOUND:                -0.689
REMARK SMILES CCCCCCCCCC=CC(=O)[O-]
REMARK SMILES IDX 7 1 8 2 9 3 10 4 11 5 12 6 13 7 14 8 6 9 5 10 4 11 3 12 2 13
REMARK SMILES IDX 1 14
REMARK H PARENT
REMARK Flexibility Score: inf
ROOT
ATOM      1  C   UNL     1     -12.526  11.148   6.415  1.00  0.00     0.000 C 
ENDROOT
BRANCH   1   2
ATOM      2  C   UNL     1     -12.639  11.415   7.927  1.00  0.00     0.004 C 
BRANCH   2   3
ATOM      3  C   UNL     1     -11.271  11.548   8.614  1.00  0.00     0.027 C 
BRANCH   3   4
ATOM      4  C   UNL     1     -11.115  12.899   9.252  1.00  0.00    -0.025 C 
ATOM      5  C   UNL     1     -10.067  13.682   8.980  1.00  0.00     0.020 C 
BRANCH   5   6
ATOM      6  C   UNL     1      -9.910  15.013   9.586  1.00  0.00     0.064 C 
ATOM      7  O   UNL     1      -8.920  15.245  10.329  1.00  0.00    -0.545 OA
ATOM      8  O   UNL     1     -10.838  16.021   9.353  1.00  0.00    -0.545 OA
ENDBRANCH   5   6
ENDBRANCH   3   4
ENDBRANCH   2   3
ENDBRANCH   1   2
BRANCH   1   9
ATOM      9  C   UNL     1     -11.195  11.584   5.775  1.00  0.00     0.000 C 
BRANCH   9  10
ATOM     10  C   UNL     1     -11.020  11.061   4.339  1.00  0.00     0.000 C 
BRANCH  10  11
ATOM     11  C   UNL     1     -10.023  11.914   3.524  1.00  0.00    -0.000 C 
BRANCH  11  12
ATOM     12  C   UNL     1      -9.356  13.035   4.344  1.00  0.00    -0.000 C 
BRANCH  12  13
ATOM     13  C   UNL     1      -7.891  13.316   3.973  1.00  0.00    -0.003 C 
ATOM     14  C   UNL     1      -7.237  12.155   3.222  1.00  0.00     0.004 C 
ENDBRANCH  12  13
ENDBRANCH  11  12
ENDBRANCH  10  11
ENDBRANCH   9  10
ENDBRANCH   1   9
TORSDOF 9
ENDMDL
MODEL 4
REMARK VINA RESULT:    -5.197      4.512      6.456
REMARK INTER + INTRA:          -8.621
REMARK INTER:                  -7.888
REMARK INTRA:                  -0.733
REMARK UNBOUND:                -0.689
REMARK SMILES CCCCCCCCCC=CC(=O)[O-]
REMARK SMILES IDX 7 1 8 2 9 3 10 4 11 5 12 6 13 7 14 8 6 9 5 10 4 11 3 12 2 13
REMARK SMILES IDX 1 14
REMARK H PARENT
REMARK Flexibility Score: inf
ROOT
ATOM      1  C   UNL     1     -10.117  12.490   3.410  1.00  0.00     0.000 C 
ENDROOT
BRANCH   1   2
ATOM      2  C   UNL     1     -10.735  11.222   4.023  1.00  0.00     0.004 C 
BRANCH   2   3
ATOM      3  C   UNL     1     -11.303  11.454   5.432  1.00  0.00     0.027 C 
BRANCH   3   4
ATOM      4  C   UNL     1     -12.054  10.247   5.919  1.00  0.00    -0.025 C 
ATOM      5  C   UNL     1     -12.385  10.103   7.206  1.00  0.00     0.020 C 
BRANCH   5   6
ATOM      6  C   UNL     1     -13.133   8.935   7.693  1.00  0.00     0.064 C 
ATOM      7  O   UNL     1     -13.956   8.362   6.932  1.00  0.00    -0.545 OA
ATOM      8  O   UNL     1     -12.946   8.451   8.983  1.00  0.00    -0.545 OA
ENDBRANCH   5   6
ENDBRANCH   3   4
ENDBRANCH   2   3
ENDBRANCH   1   2
BRANCH   1   9
ATOM      9  C   UNL     1      -9.298  13.353   4.388  1.00  0.00     0.000 C 
BRANCH   9  10
ATOM     10  C   UNL     1      -7.783  13.263   4.143  1.00  0.00     0.000 C 
BRANCH  10  11
ATOM     11  C   UNL     1      -7.434  13.257   2.638  1.00  0.00    -0.000 C 
BRANCH  11  12
ATOM     12  C   UNL     1      -6.225  12.367   2.289  1.00  0.00    -0.000 C 
BRANCH  12  13
ATOM     13  C   UNL     1      -6.152  11.049   3.075  1.00  0.00    -0.003 C 
ATOM     14  C   UNL     1      -7.115   9.987   2.544  1.00  0.00     0.004 C 
ENDBRANCH  12  13
ENDBRANCH  11  12
ENDBRANCH  10  11
ENDBRANCH   9  10
ENDBRANCH   1   9
TORSDOF 9
ENDMDL
MODEL 5
REMARK VINA RESULT:    -5.197      2.722      4.471
REMARK INTER + INTRA:          -8.620
REMARK INTER:                  -7.693
REMARK INTRA:                  -0.927
REMARK UNBOUND:                -0.689
REMARK SMILES CCCCCCCCCC=CC(=O)[O-]
REMARK SMILES IDX 7 1 8 2 9 3 10 4 11 5 12 6 13 7 14 8 6 9 5 10 4 11 3 12 2 13
REMARK SMILES IDX 1 14
REMARK H PARENT
REMARK Flexibility Score: inf
ROOT
ATOM      1  C   UNL     1     -10.133  15.187   9.369  1.00  0.00     0.000 C 
ENDROOT
BRANCH   1   2
ATOM      2  C   UNL     1      -9.783  13.768   8.887  1.00  0.00     0.004 C 
BRANCH   2   3
ATOM      3  C   UNL     1     -10.912  12.756   9.134  1.00  0.00     0.027 C 
BRANCH   3   4
ATOM      4  C   UNL     1     -11.147  11.899   7.923  1.00  0.00    -0.025 C 
ATOM      5  C   UNL     1     -12.004  10.874   7.948  1.00  0.00     0.020 C 
BRANCH   5   6
ATOM      6  C   UNL     1     -12.254  10.037   6.765  1.00  0.00     0.064 C 
ATOM      7  O   UNL     1     -11.830  10.410   5.639  1.00  0.00    -0.545 OA
ATOM      8  O   UNL     1     -12.952   8.839   6.869  1.00  0.00    -0.545 OA
ENDBRANCH   5   6
ENDBRANCH   3   4
ENDBRANCH   2   3
ENDBRANCH   1   2
BRANCH   1   9
ATOM      9  C   UNL     1      -9.087  15.838  10.292  1.00  0.00     0.000 C 
BRANCH   9  10
ATOM     10  C   UNL     1      -7.825  14.977  10.468  1.00  0.00     0.000 C 
BRANCH  10  11
ATOM     11  C   UNL     1      -7.343  14.941  11.936  1.00  0.00    -0.000 C 
BRANCH  11  12
ATOM     12  C   UNL     1      -7.840  13.710  12.718  1.00  0.00    -0.000 C 
BRANCH  12  13
ATOM     13  C   UNL     1      -7.941  12.421  11.888  1.00  0.00    -0.003 C 
ATOM     14  C   UNL     1      -9.169  11.582  12.242  1.00  0.00     0.004 C 
ENDBRANCH  12  13
ENDBRANCH  11  12
ENDBRANCH  10  11
ENDBRANCH   9  10
ENDBRANCH   1   9
TORSDOF 9
ENDMDL
MODEL 6
REMARK VINA RESULT:    -5.076      2.551      5.696
REMARK INTER + INTRA:          -8.436
REMARK INTER:                  -7.857
REMARK INTRA:                  -0.579
REMARK UNBOUND:                -0.689
REMARK SMILES CCCCCCCCCC=CC(=O)[O-]
REMARK SMILES IDX 7 1 8 2 9 3 10 4 11 5 12 6 13 7 14 8 6 9 5 10 4 11 3 12 2 13
REMARK SMILES IDX 1 14
REMARK H PARENT
REMARK Flexibility Score: inf
ROOT
ATOM      1  C   UNL     1     -10.866  11.496   5.268  1.00  0.00     0.000 C 
ENDROOT
BRANCH   1   2
ATOM      2  C   UNL     1     -12.047  10.852   6.016  1.00  0.00     0.004 C 
BRANCH   2   3
ATOM      3  C   UNL     1     -12.020  11.129   7.527  1.00  0.00     0.027 C 
BRANCH   3   4
ATOM      4  C   UNL     1     -10.945  12.117   7.878  1.00  0.00    -0.025 C 
ATOM      5  C   UNL     1     -10.881  12.679   9.089  1.00  0.00     0.020 C 
BRANCH   5   6
ATOM      6  C   UNL     1      -9.824  13.636   9.450  1.00  0.00     0.064 C 
ATOM      7  O   UNL     1      -9.395  14.444   8.584  1.00  0.00    -0.545 OA
ATOM      8  O   UNL     1      -9.291  13.665  10.734  1.00  0.00    -0.545 OA
ENDBRANCH   5   6
ENDBRANCH   3   4
ENDBRANCH   2   3
ENDBRANCH   1   2
BRANCH   1   9
ATOM      9  C   UNL     1     -10.869  11.284   3.743  1.00  0.00     0.000 C 
BRANCH   9  10
ATOM     10  C   UNL     1     -10.346  12.505   2.967  1.00  0.00     0.000 C 
BRANCH  10  11
ATOM     11  C   UNL     1      -9.437  13.403   3.836  1.00  0.00    -0.000 C 
BRANCH  11  12
ATOM     12  C   UNL     1      -7.934  13.112   3.662  1.00  0.00    -0.000 C 
BRANCH  12  13
ATOM     13  C   UNL     1      -7.352  13.538   2.305  1.00  0.00    -0.003 C 
ATOM     14  C   UNL     1      -7.845  14.913   1.854  1.00  0.00     0.004 C 
ENDBRANCH  12  13
ENDBRANCH  11  12
ENDBRANCH  10  11
ENDBRANCH   9  10
ENDBRANCH   1   9
TORSDOF 9
ENDMDL
MODEL 7
REMARK VINA RESULT:    -5.046      3.924      6.431
REMARK INTER + INTRA:          -8.390
REMARK INTER:                  -7.411
REMARK INTRA:                  -0.979
REMARK UNBOUND:                -0.689
REMARK SMILES CCCCCCCCCC=CC(=O)[O-]
REMARK SMILES IDX 7 1 8 2 9 3 10 4 11 5 12 6 13 7 14 8 6 9 5 10 4 11 3 12 2 13
REMARK SMILES IDX 1 14
REMARK H PARENT
REMARK Flexibility Score: inf
ROOT
ATOM      1  C   UNL     1      -9.930  13.360   3.197  1.00  0.00     0.000 C 
ENDROOT
BRANCH   1   2
ATOM      2  C   UNL     1     -10.942  12.201   3.164  1.00  0.00     0.004 C 
BRANCH   2   3
ATOM      3  C   UNL     1     -10.640  11.113   4.206  1.00  0.00     0.027 C 
BRANCH   3   4
ATOM      4  C   UNL     1     -11.758  10.992   5.202  1.00  0.00    -0.025 C 
ATOM      5  C   UNL     1     -11.563  11.230   6.503  1.00  0.00     0.020 C 
BRANCH   5   6
ATOM      6  C   UNL     1     -12.653  11.130   7.486  1.00  0.00     0.064 C 
ATOM      7  O   UNL     1     -13.081   9.996   7.825  1.00  0.00    -0.545 OA
ATOM      8  O   UNL     1     -13.218  12.269   8.047  1.00  0.00    -0.545 OA
ENDBRANCH   5   6
ENDBRANCH   3   4
ENDBRANCH   2   3
ENDBRANCH   1   2
BRANCH   1   9
ATOM      9  C   UNL     1      -8.971  13.352   4.402  1.00  0.00     0.000 C 
BRANCH   9  10
ATOM     10  C   UNL     1      -7.490  13.323   3.989  1.00  0.00     0.000 C 
BRANCH  10  11
ATOM     11  C   UNL     1      -7.197  12.225   2.943  1.00  0.00    -0.000 C 
BRANCH  11  12
ATOM     12  C   UNL     1      -6.466  12.745   1.691  1.00  0.00    -0.000 C 
BRANCH  12  13
ATOM     13  C   UNL     1      -7.388  13.113   0.517  1.00  0.00    -0.003 C 
ATOM     14  C   UNL     1      -7.723  14.604   0.472  1.00  0.00     0.004 C 
ENDBRANCH  12  13
ENDBRANCH  11  12
ENDBRANCH  10  11
ENDBRANCH   9  10
ENDBRANCH   1   9
TORSDOF 9
ENDMDL
MODEL 8
REMARK VINA RESULT:    -5.045      1.725      3.134
REMARK INTER + INTRA:          -8.389
REMARK INTER:                  -7.734
REMARK INTRA:                  -0.655
REMARK UNBOUND:                -0.689
REMARK SMILES CCCCCCCCCC=CC(=O)[O-]
REMARK SMILES IDX 7 1 8 2 9 3 10 4 11 5 12 6 13 7 14 8 6 9 5 10 4 11 3 12 2 13
REMARK SMILES IDX 1 14
REMARK H PARENT
REMARK Flexibility Score: inf
ROOT
ATOM      1  C   UNL     1     -11.339  11.107   4.968  1.00  0.00     0.000 C 
ENDROOT
BRANCH   1   2
ATOM      2  C   UNL     1     -10.512  12.009   4.035  1.00  0.00     0.004 C 
BRANCH   2   3
ATOM      3  C   UNL     1      -9.582  12.965   4.796  1.00  0.00     0.027 C 
BRANCH   3   4
ATOM      4  C   UNL     1      -8.324  13.230   4.019  1.00  0.00    -0.025 C 
ATOM      5  C   UNL     1      -8.358  13.533   2.718  1.00  0.00     0.020 C 
BRANCH   5   6
ATOM      6  C   UNL     1      -7.135  13.811   1.950  1.00  0.00     0.064 C 
ATOM      7  O   UNL     1      -6.961  14.954   1.450  1.00  0.00    -0.545 OA
ATOM      8  O   UNL     1      -6.166  12.831   1.766  1.00  0.00    -0.545 OA
ENDBRANCH   5   6
ENDBRANCH   3   4
ENDBRANCH   2   3
ENDBRANCH   1   2
BRANCH   1   9
ATOM      9  C   UNL     1     -11.194  11.417   6.469  1.00  0.00     0.000 C 
BRANCH   9  10
ATOM     10  C   UNL     1     -12.543  11.459   7.206  1.00  0.00     0.000 C 
BRANCH  10  11
ATOM     11  C   UNL     1     -12.458  12.242   8.535  1.00  0.00    -0.000 C 
BRANCH  11  12
ATOM     12  C   UNL     1     -11.016  12.466   9.029  1.00  0.00    -0.000 C 
BRANCH  12  13
ATOM     13  C   UNL     1     -10.659  13.933   9.319  1.00  0.00    -0.003 C 
ATOM     14  C   UNL     1      -9.258  14.308   8.836  1.00  0.00     0.004 C 
ENDBRANCH  12  13
ENDBRANCH  11  12
ENDBRANCH  10  11
ENDBRANCH   9  10
ENDBRANCH   1   9
TORSDOF 9
ENDMDL
MODEL 9
REMARK VINA RESULT:    -5.035      4.006      6.922
REMARK INTER + INTRA:          -8.373
REMARK INTER:                  -7.628
REMARK INTRA:                  -0.745
REMARK UNBOUND:                -0.689
REMARK SMILES CCCCCCCCCC=CC(=O)[O-]
REMARK SMILES IDX 7 1 8 2 9 3 10 4 11 5 12 6 13 7 14 8 6 9 5 10 4 11 3 12 2 13
REMARK SMILES IDX 1 14
REMARK H PARENT
REMARK Flexibility Score: inf
ROOT
ATOM      1  C   UNL     1      -9.359  14.123   8.425  1.00  0.00     0.000 C 
ENDROOT
BRANCH   1   2
ATOM      2  C   UNL     1      -8.121  14.651   9.172  1.00  0.00     0.004 C 
BRANCH   2   3
ATOM      3  C   UNL     1      -8.311  14.688  10.695  1.00  0.00     0.027 C 
BRANCH   3   4
ATOM      4  C   UNL     1      -7.407  13.703  11.379  1.00  0.00    -0.025 C 
ATOM      5  C   UNL     1      -7.870  12.542  11.852  1.00  0.00     0.020 C 
BRANCH   5   6
ATOM      6  C   UNL     1      -6.992  11.562  12.509  1.00  0.00     0.064 C 
ATOM      7  O   UNL     1      -5.883  11.935  12.976  1.00  0.00    -0.545 OA
ATOM      8  O   UNL     1      -7.366  10.228  12.625  1.00  0.00    -0.545 OA
ENDBRANCH   5   6
ENDBRANCH   3   4
ENDBRANCH   2   3
ENDBRANCH   1   2
BRANCH   1   9
ATOM      9  C   UNL     1     -10.559  13.770   9.324  1.00  0.00     0.000 C 
BRANCH   9  10
ATOM     10  C   UNL     1     -10.924  12.277   9.276  1.00  0.00     0.000 C 
BRANCH  10  11
ATOM     11  C   UNL     1     -12.031  11.979   8.240  1.00  0.00    -0.000 C 
BRANCH  11  12
ATOM     12  C   UNL     1     -11.970  10.551   7.666  1.00  0.00    -0.000 C 
BRANCH  12  13
ATOM     13  C   UNL     1     -12.137  10.466   6.140  1.00  0.00    -0.003 C 
ATOM     14  C   UNL     1     -11.193  11.403   5.387  1.00  0.00     0.004 C 
ENDBRANCH  12  13
ENDBRANCH  11  12
ENDBRANCH  10  11
ENDBRANCH   9  10
ENDBRANCH   1   9
TORSDOF 9
ENDMDL
