MODEL 1
REMARK VINA RESULT:    22.770      0.000      0.000
REMARK INTER + INTRA:          27.173
REMARK INTER:                  27.429
REMARK INTRA:                  -0.256
REMARK UNBOUND:                -0.256
REMARK SMILES O=c1c(O)c(-c2ccc(O)c(O)c2)oc2cc(O)cc(O)c12
REMARK SMILES IDX 5 1 3 2 2 3 1 4 22 5 20 6 19 7 17 8 16 9 15 10 14 11 6 12
REMARK SMILES IDX 7 13 8 14 9 15 13 16 11 17 10 18 12 20 4 22 21 24 18 26
REMARK H PARENT 10 19 12 21 4 23 21 25 18 27
REMARK Flexibility Score: inf
ROOT
ATOM      1  C   UNL     1      -1.594  12.913 -25.640  1.00  0.00     0.180 A 
ATOM      2  C   UNL     1      -2.424  14.001 -25.961  1.00  0.00     0.208 A 
ATOM      3  C   UNL     1      -1.838  15.196 -26.411  1.00  0.00     0.238 A 
ATOM      4  O   UNL     1      -2.589  16.148 -26.749  1.00  0.00    -0.285 OA
ATOM      5  C   UNL     1      -0.430  15.292 -26.519  1.00  0.00     0.111 A 
ATOM      6  C   UNL     1       0.273  16.466 -26.925  1.00  0.00     0.134 A 
ATOM      7  C   UNL     1       1.659  16.408 -27.122  1.00  0.00     0.093 A 
ATOM      8  C   UNL     1       2.374  15.239 -26.865  1.00  0.00     0.123 A 
ATOM      9  C   UNL     1       1.704  14.103 -26.410  1.00  0.00     0.094 A 
ATOM     10  C   UNL     1       0.318  14.119 -26.239  1.00  0.00     0.146 A 
ATOM     11  O   UNL     1      -0.281  13.013 -25.814  1.00  0.00    -0.452 OA
ENDROOT
BRANCH   1  12
ATOM     12  C   UNL     1      -2.136  11.631 -25.136  1.00  0.00     0.025 A 
ATOM     13  C   UNL     1      -2.749  10.740 -26.032  1.00  0.00     0.016 A 
ATOM     14  C   UNL     1      -3.248   9.515 -25.582  1.00  0.00     0.051 A 
ATOM     15  C   UNL     1      -3.128   9.157 -24.233  1.00  0.00     0.157 A 
ATOM     16  C   UNL     1      -1.999  11.258 -23.786  1.00  0.00     0.062 A 
ATOM     17  C   UNL     1      -2.498  10.028 -23.335  1.00  0.00     0.158 A 
BRANCH  15  18
ATOM     18  O   UNL     1      -3.627   7.936 -23.779  1.00  0.00    -0.504 OA
ATOM     19  H   UNL     1      -4.388   7.465 -24.254  1.00  0.00     0.293 HD
ENDBRANCH  15  18
BRANCH  17  20
ATOM     20  O   UNL     1      -2.368   9.663 -21.996  1.00  0.00    -0.504 OA
ATOM     21  H   UNL     1      -3.164   9.354 -21.450  1.00  0.00     0.293 HD
ENDBRANCH  17  20
ENDBRANCH   1  12
BRANCH   2  22
ATOM     22  O   UNL     1      -3.813  13.877 -25.869  1.00  0.00    -0.502 OA
ATOM     23  H   UNL     1      -4.416  14.661 -25.651  1.00  0.00     0.293 HD
ENDBRANCH   2  22
BRANCH   6  24
ATOM     24  O   UNL     1      -0.333  17.711 -27.121  1.00  0.00    -0.507 OA
ATOM     25  H   UNL     1      -1.050  18.100 -26.527  1.00  0.00     0.293 HD
ENDBRANCH   6  24
BRANCH   8  26
ATOM     26  O   UNL     1       3.754  15.223 -27.056  1.00  0.00    -0.508 OA
ATOM     27  H   UNL     1       4.265  14.353 -27.148  1.00  0.00     0.293 HD
ENDBRANCH   8  26
TORSDOF 6
ENDMDL
MODEL 2
REMARK VINA RESULT:    22.804      3.425      4.892
REMARK INTER + INTRA:          27.215
REMARK INTER:                  26.664
REMARK INTRA:                   0.551
REMARK UNBOUND:                -0.256
REMARK SMILES O=c1c(O)c(-c2ccc(O)c(O)c2)oc2cc(O)cc(O)c12
REMARK SMILES IDX 5 1 3 2 2 3 1 4 22 5 20 6 19 7 17 8 16 9 15 10 14 11 6 12
REMARK SMILES IDX 7 13 8 14 9 15 13 16 11 17 10 18 12 20 4 22 21 24 18 26
REMARK H PARENT 10 19 12 21 4 23 21 25 18 27
REMARK Flexibility Score: inf
ROOT
ATOM      1  C   UNL     1       1.508  13.799 -26.943  1.00  0.00     0.180 A 
ATOM      2  C   UNL     1       0.102  13.794 -26.939  1.00  0.00     0.208 A 
ATOM      3  C   UNL     1      -0.584  15.019 -26.893  1.00  0.00     0.238 A 
ATOM      4  O   UNL     1      -1.841  15.010 -26.944  1.00  0.00    -0.285 OA
ATOM      5  C   UNL     1       0.143  16.232 -26.835  1.00  0.00     0.111 A 
ATOM      6  C   UNL     1      -0.447  17.527 -26.744  1.00  0.00     0.134 A 
ATOM      7  C   UNL     1       0.366  18.665 -26.824  1.00  0.00     0.093 A 
ATOM      8  C   UNL     1       1.752  18.553 -26.926  1.00  0.00     0.123 A 
ATOM      9  C   UNL     1       2.345  17.290 -26.955  1.00  0.00     0.094 A 
ATOM     10  C   UNL     1       1.557  16.137 -26.914  1.00  0.00     0.146 A 
ATOM     11  O   UNL     1       2.161  14.956 -26.954  1.00  0.00    -0.452 OA
ENDROOT
BRANCH   1  12
ATOM     12  C   UNL     1       2.300  12.549 -26.966  1.00  0.00     0.025 A 
ATOM     13  C   UNL     1       1.640  11.313 -27.055  1.00  0.00     0.016 A 
ATOM     14  C   UNL     1       2.369  10.122 -27.100  1.00  0.00     0.051 A 
ATOM     15  C   UNL     1       3.768  10.151 -27.073  1.00  0.00     0.157 A 
ATOM     16  C   UNL     1       3.707  12.574 -26.959  1.00  0.00     0.062 A 
ATOM     17  C   UNL     1       4.439  11.378 -27.007  1.00  0.00     0.158 A 
BRANCH  15  18
ATOM     18  O   UNL     1       4.500   8.964 -27.115  1.00  0.00    -0.504 OA
ATOM     19  H   UNL     1       5.072   8.723 -27.916  1.00  0.00     0.293 HD
ENDBRANCH  15  18
BRANCH  17  20
ATOM     20  O   UNL     1       5.833  11.404 -26.993  1.00  0.00    -0.504 OA
ATOM     21  H   UNL     1       6.377  10.570 -26.804  1.00  0.00     0.293 HD
ENDBRANCH  17  20
ENDBRANCH   1  12
BRANCH   2  22
ATOM     22  O   UNL     1      -0.596  12.586 -27.020  1.00  0.00    -0.502 OA
ATOM     23  H   UNL     1      -1.595  12.545 -27.184  1.00  0.00     0.293 HD
ENDBRANCH   2  22
BRANCH   6  24
ATOM     24  O   UNL     1      -1.814  17.750 -26.548  1.00  0.00    -0.507 OA
ATOM     25  H   UNL     1      -2.496  17.026 -26.385  1.00  0.00     0.293 HD
ENDBRANCH   6  24
BRANCH   8  26
ATOM     26  O   UNL     1       2.531  19.707 -26.988  1.00  0.00    -0.508 OA
ATOM     27  H   UNL     1       2.293  20.474 -27.604  1.00  0.00     0.293 HD
ENDBRANCH   8  26
TORSDOF 6
ENDMDL
MODEL 3
REMARK VINA RESULT:    25.528      3.451      6.959
REMARK INTER + INTRA:          30.495
REMARK INTER:                  30.020
REMARK INTRA:                   0.475
REMARK UNBOUND:                -0.256
REMARK SMILES O=c1c(O)c(-c2ccc(O)c(O)c2)oc2cc(O)cc(O)c12
REMARK SMILES IDX 5 1 3 2 2 3 1 4 22 5 20 6 19 7 17 8 16 9 15 10 14 11 6 12
REMARK SMILES IDX 7 13 8 14 9 15 13 16 11 17 10 18 12 20 4 22 21 24 18 26
REMARK H PARENT 10 19 12 21 4 23 21 25 18 27
REMARK Flexibility Score: inf
ROOT
ATOM      1  C   UNL     1       1.936  13.229 -26.950  1.00  0.00     0.180 A 
ATOM      2  C   UNL     1       3.299  13.574 -26.970  1.00  0.00     0.208 A 
ATOM      3  C   UNL     1       4.261  12.550 -26.962  1.00  0.00     0.238 A 
ATOM      4  O   UNL     1       5.477  12.864 -27.035  1.00  0.00    -0.285 OA
ATOM      5  C   UNL     1       3.849  11.197 -26.919  1.00  0.00     0.111 A 
ATOM      6  C   UNL     1       4.736  10.081 -26.868  1.00  0.00     0.134 A 
ATOM      7  C   UNL     1       4.220   8.782 -26.959  1.00  0.00     0.093 A 
ATOM      8  C   UNL     1       2.846   8.558 -27.035  1.00  0.00     0.123 A 
ATOM      9  C   UNL     1       1.965   9.640 -27.026  1.00  0.00     0.094 A 
ATOM     10  C   UNL     1       2.452  10.948 -26.972  1.00  0.00     0.146 A 
ATOM     11  O   UNL     1       1.581  11.950 -26.975  1.00  0.00    -0.452 OA
ENDROOT
BRANCH   1  12
ATOM     12  C   UNL     1       0.866  14.251 -26.931  1.00  0.00     0.025 A 
ATOM     13  C   UNL     1      -0.467  13.854 -26.736  1.00  0.00     0.016 A 
ATOM     14  C   UNL     1      -1.491  14.804 -26.693  1.00  0.00     0.051 A 
ATOM     15  C   UNL     1      -1.194  16.166 -26.830  1.00  0.00     0.157 A 
ATOM     16  C   UNL     1       1.160  15.622 -27.047  1.00  0.00     0.062 A 
ATOM     17  C   UNL     1       0.133  16.576 -27.002  1.00  0.00     0.158 A 
BRANCH  15  18
ATOM     18  O   UNL     1      -2.213  17.117 -26.790  1.00  0.00    -0.504 OA
ATOM     19  H   UNL     1      -2.051  18.079 -27.066  1.00  0.00     0.293 HD
ENDBRANCH  15  18
BRANCH  17  20
ATOM     20  O   UNL     1       0.426  17.934 -27.124  1.00  0.00    -0.504 OA
ATOM     21  H   UNL     1      -0.305  18.626 -27.234  1.00  0.00     0.293 HD
ENDBRANCH  17  20
ENDBRANCH   1  12
BRANCH   2  22
ATOM     22  O   UNL     1       3.684  14.915 -27.035  1.00  0.00    -0.502 OA
ATOM     23  H   UNL     1       3.189  15.596 -27.598  1.00  0.00     0.293 HD
ENDBRANCH   2  22
BRANCH   6  24
ATOM     24  O   UNL     1       6.120  10.191 -26.700  1.00  0.00    -0.507 OA
ATOM     25  H   UNL     1       6.807   9.739 -27.284  1.00  0.00     0.293 HD
ENDBRANCH   6  24
BRANCH   8  26
ATOM     26  O   UNL     1       2.366   7.251 -27.109  1.00  0.00    -0.508 OA
ATOM     27  H   UNL     1       1.378   7.044 -27.023  1.00  0.00     0.293 HD
ENDBRANCH   8  26
TORSDOF 6
ENDMDL
