MODEL 1
REMARK VINA RESULT:    -5.543      0.000      0.000
REMARK INTER + INTRA:         -12.036
REMARK INTER:                  -9.593
REMARK INTRA:                  -2.443
REMARK UNBOUND:                -2.443
REMARK SMILES OC[C@@H]1O[C@H](O)[C@H](O)[C@@H](O)[C@@H]1O[C@@H]1O[C@H](CO)[C@@H](O[C@@H]2O[C@H](CO)[C@H](O)[C@@H](O)[C@@H]2O)[C@@H](O)[C@@H]1O
REMARK SMILES IDX 18 1 15 2 14 3 13 4 33 5 31 6 19 7 20 8 22 9 25 10 21 11
REMARK SMILES IDX 27 12 29 13 23 14 24 15 26 17 28 19 30 21 16 23 17 24 32 26
REMARK SMILES IDX 34 28 12 30 11 31 3 32 9 33 4 34 7 35 5 36 2 37 1 38 10 40
REMARK SMILES IDX 8 42 6 44
REMARK H PARENT 24 16 26 18 28 20 30 22 17 25 32 27 34 29 1 39 10 41 8 43 6 45
REMARK Flexibility Score: inf
ROOT
ATOM      1  C   UNL     1     -20.344  -3.832  18.103  1.00  0.00     0.184 C 
ATOM      2  C   UNL     1     -21.145  -4.979  18.780  1.00  0.00     0.178 C 
ATOM      3  O   UNL     1     -21.739  -5.898  17.868  1.00  0.00    -0.341 OA
ATOM      4  C   UNL     1     -22.554  -5.293  16.876  1.00  0.00     0.282 C 
ATOM      5  C   UNL     1     -21.732  -4.368  15.958  1.00  0.00     0.202 C 
ATOM      6  C   UNL     1     -20.899  -3.324  16.739  1.00  0.00     0.180 C 
ENDROOT
BRANCH   1   7
ATOM      7  O   UNL     1     -18.924  -3.982  18.165  1.00  0.00    -0.341 OA
BRANCH   7   8
ATOM      8  C   UNL     1     -18.376  -5.140  18.790  1.00  0.00     0.282 C 
ATOM      9  C   UNL     1     -17.165  -6.062  20.536  1.00  0.00     0.178 C 
ATOM     10  C   UNL     1     -15.899  -6.474  19.744  1.00  0.00     0.177 C 
ATOM     11  O   UNL     1     -17.684  -4.860  19.995  1.00  0.00    -0.341 OA
ATOM     12  C   UNL     1     -16.052  -6.135  18.233  1.00  0.00     0.179 C 
ATOM     13  C   UNL     1     -17.538  -6.023  17.800  1.00  0.00     0.202 C 
BRANCH   9  14
ATOM     14  C   UNL     1     -16.929  -5.893  22.046  1.00  0.00     0.191 C 
BRANCH  14  15
ATOM     15  O   UNL     1     -16.057  -6.891  22.516  1.00  0.00    -0.394 OA
ATOM     16  H   UNL     1     -15.401  -7.055  21.791  1.00  0.00     0.210 HD
ENDBRANCH  14  15
ENDBRANCH   9  14
BRANCH  10  17
ATOM     17  O   UNL     1     -14.770  -5.813  20.263  1.00  0.00    -0.387 OA
ATOM     18  H   UNL     1     -14.493  -6.322  21.072  1.00  0.00     0.211 HD
ENDBRANCH  10  17
BRANCH  12  19
ATOM     19  O   UNL     1     -15.408  -7.124  17.471  1.00  0.00    -0.387 OA
ATOM     20  H   UNL     1     -16.050  -7.880  17.373  1.00  0.00     0.211 HD
ENDBRANCH  12  19
BRANCH  13  21
ATOM     21  O   UNL     1     -17.625  -5.546  16.481  1.00  0.00    -0.385 OA
ATOM     22  H   UNL     1     -18.319  -4.838  16.483  1.00  0.00     0.211 HD
ENDBRANCH  13  21
ENDBRANCH   7   8
ENDBRANCH   1   7
BRANCH   2  23
ATOM     23  C   UNL     1     -22.121  -4.477  19.863  1.00  0.00     0.191 C 
BRANCH  23  24
ATOM     24  O   UNL     1     -22.440  -3.131  19.638  1.00  0.00    -0.394 OA
ATOM     25  H   UNL     1     -23.422  -3.104  19.475  1.00  0.00     0.210 HD
ENDBRANCH  23  24
ENDBRANCH   2  23
BRANCH   6  26
ATOM     26  O   UNL     1     -19.859  -2.854  15.920  1.00  0.00    -0.387 OA
ATOM     27  H   UNL     1     -20.016  -1.882  15.798  1.00  0.00     0.211 HD
ENDBRANCH   6  26
BRANCH   5  28
ATOM     28  O   UNL     1     -22.560  -3.738  15.009  1.00  0.00    -0.385 OA
ATOM     29  H   UNL     1     -21.989  -3.226  14.384  1.00  0.00     0.211 HD
ENDBRANCH   5  28
BRANCH   4  30
ATOM     30  O   UNL     1     -23.630  -4.579  17.467  1.00  0.00    -0.341 OA
BRANCH  30  31
ATOM     31  C   UNL     1     -24.903  -5.173  17.253  1.00  0.00     0.184 C 
ATOM     32  C   UNL     1     -25.930  -4.051  16.936  1.00  0.00     0.178 C 
ATOM     33  C   UNL     1     -25.330  -5.978  18.497  1.00  0.00     0.180 C 
ATOM     34  O   UNL     1     -27.272  -4.524  16.860  1.00  0.00    -0.342 OA
ATOM     35  C   UNL     1     -26.791  -6.423  18.350  1.00  0.00     0.201 C 
ATOM     36  C   UNL     1     -27.706  -5.224  18.022  1.00  0.00     0.279 C 
BRANCH  32  37
ATOM     37  C   UNL     1     -25.804  -2.794  17.831  1.00  0.00     0.191 C 
BRANCH  37  38
ATOM     38  O   UNL     1     -24.632  -2.080  17.528  1.00  0.00    -0.394 OA
ATOM     39  H   UNL     1     -23.966  -2.312  18.232  1.00  0.00     0.210 HD
ENDBRANCH  37  38
ENDBRANCH  32  37
BRANCH  33  40
ATOM     40  O   UNL     1     -24.525  -7.125  18.627  1.00  0.00    -0.387 OA
ATOM     41  H   UNL     1     -23.724  -6.874  19.158  1.00  0.00     0.211 HD
ENDBRANCH  33  40
BRANCH  35  42
ATOM     42  O   UNL     1     -27.235  -7.095  19.501  1.00  0.00    -0.385 OA
ATOM     43  H   UNL     1     -26.600  -6.880  20.241  1.00  0.00     0.211 HD
ENDBRANCH  35  42
BRANCH  36  44
ATOM     44  O   UNL     1     -27.827  -4.355  19.122  1.00  0.00    -0.366 OA
ATOM     45  H   UNL     1     -27.561  -3.453  18.804  1.00  0.00     0.213 HD
ENDBRANCH  36  44
ENDBRANCH  30  31
ENDBRANCH   4  30
TORSDOF 18
ENDMDL
MODEL 2
REMARK VINA RESULT:    -5.335      1.482      8.446
REMARK INTER + INTRA:         -11.677
REMARK INTER:                  -9.174
REMARK INTRA:                  -2.503
REMARK UNBOUND:                -2.443
REMARK SMILES OC[C@@H]1O[C@H](O)[C@H](O)[C@@H](O)[C@@H]1O[C@@H]1O[C@H](CO)[C@@H](O[C@@H]2O[C@H](CO)[C@H](O)[C@@H](O)[C@@H]2O)[C@@H](O)[C@@H]1O
REMARK SMILES IDX 18 1 15 2 14 3 13 4 33 5 31 6 19 7 20 8 22 9 25 10 21 11
REMARK SMILES IDX 27 12 29 13 23 14 24 15 26 17 28 19 30 21 16 23 17 24 32 26
REMARK SMILES IDX 34 28 12 30 11 31 3 32 9 33 4 34 7 35 5 36 2 37 1 38 10 40
REMARK SMILES IDX 8 42 6 44
REMARK H PARENT 24 16 26 18 28 20 30 22 17 25 32 27 34 29 1 39 10 41 8 43 6 45
REMARK Flexibility Score: inf
ROOT
ATOM      1  C   UNL     1     -21.432  -4.807  16.651  1.00  0.00     0.184 C 
ATOM      2  C   UNL     1     -21.284  -5.466  18.050  1.00  0.00     0.178 C 
ATOM      3  O   UNL     1     -20.890  -4.568  19.083  1.00  0.00    -0.341 OA
ATOM      4  C   UNL     1     -19.713  -3.828  18.798  1.00  0.00     0.282 C 
ATOM      5  C   UNL     1     -19.911  -2.902  17.582  1.00  0.00     0.202 C 
ATOM      6  C   UNL     1     -20.444  -3.644  16.335  1.00  0.00     0.180 C 
ENDROOT
BRANCH   1   7
ATOM      7  O   UNL     1     -22.783  -4.588  16.238  1.00  0.00    -0.341 OA
BRANCH   7   8
ATOM      8  C   UNL     1     -23.833  -4.750  17.188  1.00  0.00     0.282 C 
ATOM      9  C   UNL     1     -25.894  -5.661  17.724  1.00  0.00     0.178 C 
ATOM     10  C   UNL     1     -26.725  -4.353  17.740  1.00  0.00     0.177 C 
ATOM     11  O   UNL     1     -24.895  -5.567  16.725  1.00  0.00    -0.341 OA
ATOM     12  C   UNL     1     -25.825  -3.117  17.450  1.00  0.00     0.179 C 
ATOM     13  C   UNL     1     -24.332  -3.384  17.777  1.00  0.00     0.202 C 
BRANCH   9  14
ATOM     14  C   UNL     1     -26.733  -6.930  17.504  1.00  0.00     0.191 C 
BRANCH  14  15
ATOM     15  O   UNL     1     -26.969  -7.125  16.131  1.00  0.00    -0.394 OA
ATOM     16  H   UNL     1     -26.108  -6.948  15.671  1.00  0.00     0.210 HD
ENDBRANCH  14  15
ENDBRANCH   9  14
BRANCH  10  17
ATOM     17  O   UNL     1     -27.752  -4.424  16.781  1.00  0.00    -0.387 OA
ATOM     18  H   UNL     1     -28.235  -3.555  16.819  1.00  0.00     0.211 HD
ENDBRANCH  10  17
BRANCH  12  19
ATOM     19  O   UNL     1     -26.289  -2.024  18.202  1.00  0.00    -0.387 OA
ATOM     20  H   UNL     1     -27.284  -2.035  18.149  1.00  0.00     0.211 HD
ENDBRANCH  12  19
BRANCH  13  21
ATOM     21  O   UNL     1     -23.539  -2.310  17.339  1.00  0.00    -0.385 OA
ATOM     22  H   UNL     1     -22.600  -2.548  17.553  1.00  0.00     0.211 HD
ENDBRANCH  13  21
ENDBRANCH   7   8
ENDBRANCH   1   7
BRANCH   2  23
ATOM     23  C   UNL     1     -20.454  -6.764  18.021  1.00  0.00     0.191 C 
BRANCH  23  24
ATOM     24  O   UNL     1     -19.643  -6.793  16.879  1.00  0.00    -0.394 OA
ATOM     25  H   UNL     1     -18.732  -7.046  17.192  1.00  0.00     0.210 HD
ENDBRANCH  23  24
ENDBRANCH   2  23
BRANCH   6  26
ATOM     26  O   UNL     1     -21.029  -2.716  15.457  1.00  0.00    -0.387 OA
ATOM     27  H   UNL     1     -21.312  -1.944  16.013  1.00  0.00     0.211 HD
ENDBRANCH   6  26
BRANCH   5  28
ATOM     28  O   UNL     1     -18.722  -2.209  17.280  1.00  0.00    -0.385 OA
ATOM     29  H   UNL     1     -18.396  -2.514  16.397  1.00  0.00     0.211 HD
ENDBRANCH   5  28
BRANCH   4  30
ATOM     30  O   UNL     1     -18.607  -4.693  18.589  1.00  0.00    -0.341 OA
BRANCH  30  31
ATOM     31  C   UNL     1     -17.618  -4.622  19.608  1.00  0.00     0.184 C 
ATOM     32  C   UNL     1     -16.214  -4.647  18.944  1.00  0.00     0.178 C 
ATOM     33  C   UNL     1     -17.786  -5.796  20.594  1.00  0.00     0.180 C 
ATOM     34  O   UNL     1     -15.149  -4.740  19.887  1.00  0.00    -0.342 OA
ATOM     35  C   UNL     1     -16.587  -5.843  21.551  1.00  0.00     0.201 C 
ATOM     36  C   UNL     1     -15.255  -5.849  20.773  1.00  0.00     0.279 C 
BRANCH  32  37
ATOM     37  C   UNL     1     -16.066  -5.674  17.794  1.00  0.00     0.191 C 
BRANCH  37  38
ATOM     38  O   UNL     1     -16.964  -6.741  17.960  1.00  0.00    -0.394 OA
ATOM     39  H   UNL     1     -16.671  -7.239  18.772  1.00  0.00     0.210 HD
ENDBRANCH  37  38
ENDBRANCH  32  37
BRANCH  33  40
ATOM     40  O   UNL     1     -18.957  -5.623  21.353  1.00  0.00    -0.387 OA
ATOM     41  H   UNL     1     -18.947  -6.298  22.082  1.00  0.00     0.211 HD
ENDBRANCH  33  40
BRANCH  35  42
ATOM     42  O   UNL     1     -16.671  -6.949  22.415  1.00  0.00    -0.385 OA
ATOM     43  H   UNL     1     -16.425  -7.762  21.890  1.00  0.00     0.211 HD
ENDBRANCH  35  42
BRANCH  36  44
ATOM     44  O   UNL     1     -15.066  -7.065  20.088  1.00  0.00    -0.366 OA
ATOM     45  H   UNL     1     -15.020  -6.844  19.122  1.00  0.00     0.213 HD
ENDBRANCH  36  44
ENDBRANCH  30  31
ENDBRANCH   4  30
TORSDOF 18
ENDMDL
MODEL 3
REMARK VINA RESULT:    -5.245      5.321      9.175
REMARK INTER + INTRA:         -11.522
REMARK INTER:                  -8.870
REMARK INTRA:                  -2.652
REMARK UNBOUND:                -2.443
REMARK SMILES OC[C@@H]1O[C@H](O)[C@H](O)[C@@H](O)[C@@H]1O[C@@H]1O[C@H](CO)[C@@H](O[C@@H]2O[C@H](CO)[C@H](O)[C@@H](O)[C@@H]2O)[C@@H](O)[C@@H]1O
REMARK SMILES IDX 18 1 15 2 14 3 13 4 33 5 31 6 19 7 20 8 22 9 25 10 21 11
REMARK SMILES IDX 27 12 29 13 23 14 24 15 26 17 28 19 30 21 16 23 17 24 32 26
REMARK SMILES IDX 34 28 12 30 11 31 3 32 9 33 4 34 7 35 5 36 2 37 1 38 10 40
REMARK SMILES IDX 8 42 6 44
REMARK H PARENT 24 16 26 18 28 20 30 22 17 25 32 27 34 29 1 39 10 41 8 43 6 45
REMARK Flexibility Score: inf
ROOT
ATOM      1  C   UNL     1     -19.410  -4.537  22.812  1.00  0.00     0.184 C 
ATOM      2  C   UNL     1     -18.701  -5.743  22.135  1.00  0.00     0.178 C 
ATOM      3  O   UNL     1     -17.290  -5.778  22.327  1.00  0.00    -0.341 OA
ATOM      4  C   UNL     1     -16.619  -4.584  21.956  1.00  0.00     0.282 C 
ATOM      5  C   UNL     1     -17.063  -3.394  22.827  1.00  0.00     0.202 C 
ATOM      6  C   UNL     1     -18.598  -3.208  22.862  1.00  0.00     0.180 C 
ENDROOT
BRANCH   1   7
ATOM      7  O   UNL     1     -20.121  -4.862  24.009  1.00  0.00    -0.341 OA
BRANCH   7   8
ATOM      8  C   UNL     1     -21.525  -4.629  24.067  1.00  0.00     0.282 C 
ATOM      9  C   UNL     1     -23.280  -3.263  24.715  1.00  0.00     0.178 C 
ATOM     10  C   UNL     1     -23.864  -4.158  25.836  1.00  0.00     0.177 C 
ATOM     11  O   UNL     1     -21.871  -3.405  24.691  1.00  0.00    -0.341 OA
ATOM     12  C   UNL     1     -23.070  -5.491  25.957  1.00  0.00     0.179 C 
ATOM     13  C   UNL     1     -22.319  -5.851  24.648  1.00  0.00     0.202 C 
BRANCH   9  14
ATOM     14  C   UNL     1     -23.652  -1.777  24.845  1.00  0.00     0.191 C 
BRANCH  14  15
ATOM     15  O   UNL     1     -22.785  -1.136  25.748  1.00  0.00    -0.394 OA
ATOM     16  H   UNL     1     -23.100  -1.374  26.657  1.00  0.00     0.210 HD
ENDBRANCH  14  15
ENDBRANCH   9  14
BRANCH  10  17
ATOM     17  O   UNL     1     -23.827  -3.474  27.066  1.00  0.00    -0.387 OA
ATOM     18  H   UNL     1     -23.520  -4.132  27.746  1.00  0.00     0.211 HD
ENDBRANCH  10  17
BRANCH  12  19
ATOM     19  O   UNL     1     -23.956  -6.526  26.298  1.00  0.00    -0.387 OA
ATOM     20  H   UNL     1     -23.927  -6.620  27.290  1.00  0.00     0.211 HD
ENDBRANCH  12  19
BRANCH  13  21
ATOM     21  O   UNL     1     -21.481  -6.960  24.858  1.00  0.00    -0.385 OA
ATOM     22  H   UNL     1     -21.408  -7.426  23.985  1.00  0.00     0.211 HD
ENDBRANCH  13  21
ENDBRANCH   7   8
ENDBRANCH   1   7
BRANCH   2  23
ATOM     23  C   UNL     1     -19.122  -5.942  20.665  1.00  0.00     0.191 C 
BRANCH  23  24
ATOM     24  O   UNL     1     -18.491  -7.074  20.131  1.00  0.00    -0.394 OA
ATOM     25  H   UNL     1     -19.134  -7.468  19.481  1.00  0.00     0.210 HD
ENDBRANCH  23  24
ENDBRANCH   2  23
BRANCH   6  26
ATOM     26  O   UNL     1     -18.948  -2.451  23.993  1.00  0.00    -0.387 OA
ATOM     27  H   UNL     1     -19.936  -2.370  23.982  1.00  0.00     0.211 HD
ENDBRANCH   6  26
BRANCH   5  28
ATOM     28  O   UNL     1     -16.426  -2.206  22.418  1.00  0.00    -0.385 OA
ATOM     29  H   UNL     1     -17.118  -1.522  22.244  1.00  0.00     0.211 HD
ENDBRANCH   5  28
BRANCH   4  30
ATOM     30  O   UNL     1     -16.819  -4.295  20.580  1.00  0.00    -0.341 OA
BRANCH  30  31
ATOM     31  C   UNL     1     -15.633  -4.361  19.798  1.00  0.00     0.184 C 
ATOM     32  C   UNL     1     -15.352  -2.955  19.200  1.00  0.00     0.178 C 
ATOM     33  C   UNL     1     -15.788  -5.416  18.685  1.00  0.00     0.180 C 
ATOM     34  O   UNL     1     -14.272  -2.948  18.269  1.00  0.00    -0.342 OA
ATOM     35  C   UNL     1     -14.605  -5.321  17.713  1.00  0.00     0.201 C 
ATOM     36  C   UNL     1     -14.420  -3.878  17.202  1.00  0.00     0.279 C 
BRANCH  32  37
ATOM     37  C   UNL     1     -16.604  -2.232  18.645  1.00  0.00     0.191 C 
BRANCH  37  38
ATOM     38  O   UNL     1     -17.335  -1.633  19.684  1.00  0.00    -0.394 OA
ATOM     39  H   UNL     1     -17.270  -2.243  20.469  1.00  0.00     0.210 HD
ENDBRANCH  37  38
ENDBRANCH  32  37
BRANCH  33  40
ATOM     40  O   UNL     1     -15.804  -6.707  19.245  1.00  0.00    -0.387 OA
ATOM     41  H   UNL     1     -16.753  -6.988  19.330  1.00  0.00     0.211 HD
ENDBRANCH  33  40
BRANCH  35  42
ATOM     42  O   UNL     1     -14.753  -6.220  16.643  1.00  0.00    -0.385 OA
ATOM     43  H   UNL     1     -15.522  -6.821  16.858  1.00  0.00     0.211 HD
ENDBRANCH  35  42
BRANCH  36  44
ATOM     44  O   UNL     1     -15.470  -3.500  16.342  1.00  0.00    -0.366 OA
ATOM     45  H   UNL     1     -15.050  -3.198  15.495  1.00  0.00     0.213 HD
ENDBRANCH  36  44
ENDBRANCH  30  31
ENDBRANCH   4  30
TORSDOF 18
ENDMDL
MODEL 4
REMARK VINA RESULT:    -5.135      4.639      9.241
REMARK INTER + INTRA:         -11.331
REMARK INTER:                  -8.360
REMARK INTRA:                  -2.970
REMARK UNBOUND:                -2.443
REMARK SMILES OC[C@@H]1O[C@H](O)[C@H](O)[C@@H](O)[C@@H]1O[C@@H]1O[C@H](CO)[C@@H](O[C@@H]2O[C@H](CO)[C@H](O)[C@@H](O)[C@@H]2O)[C@@H](O)[C@@H]1O
REMARK SMILES IDX 18 1 15 2 14 3 13 4 33 5 31 6 19 7 20 8 22 9 25 10 21 11
REMARK SMILES IDX 27 12 29 13 23 14 24 15 26 17 28 19 30 21 16 23 17 24 32 26
REMARK SMILES IDX 34 28 12 30 11 31 3 32 9 33 4 34 7 35 5 36 2 37 1 38 10 40
REMARK SMILES IDX 8 42 6 44
REMARK H PARENT 24 16 26 18 28 20 30 22 17 25 32 27 34 29 1 39 10 41 8 43 6 45
REMARK Flexibility Score: inf
ROOT
ATOM      1  C   UNL     1     -17.377  -3.313  18.810  1.00  0.00     0.184 C 
ATOM      2  C   UNL     1     -16.321  -2.212  18.516  1.00  0.00     0.178 C 
ATOM      3  O   UNL     1     -15.178  -2.252  19.365  1.00  0.00    -0.341 OA
ATOM      4  C   UNL     1     -15.480  -2.240  20.752  1.00  0.00     0.282 C 
ATOM      5  C   UNL     1     -16.272  -3.495  21.167  1.00  0.00     0.202 C 
ATOM      6  C   UNL     1     -17.533  -3.729  20.303  1.00  0.00     0.180 C 
ENDROOT
BRANCH   1   7
ATOM      7  O   UNL     1     -17.386  -4.393  17.873  1.00  0.00    -0.341 OA
BRANCH   7   8
ATOM      8  C   UNL     1     -18.521  -4.572  17.030  1.00  0.00     0.282 C 
ATOM      9  C   UNL     1     -20.513  -3.741  16.190  1.00  0.00     0.178 C 
ATOM     10  C   UNL     1     -21.486  -4.712  16.905  1.00  0.00     0.177 C 
ATOM     11  O   UNL     1     -19.414  -3.471  17.041  1.00  0.00    -0.341 OA
ATOM     12  C   UNL     1     -20.706  -5.752  17.761  1.00  0.00     0.179 C 
ATOM     13  C   UNL     1     -19.245  -5.942  17.273  1.00  0.00     0.202 C 
BRANCH   9  14
ATOM     14  C   UNL     1     -21.164  -2.421  15.747  1.00  0.00     0.191 C 
BRANCH  14  15
ATOM     15  O   UNL     1     -22.362  -2.677  15.054  1.00  0.00    -0.394 OA
ATOM     16  H   UNL     1     -22.451  -1.962  14.374  1.00  0.00     0.210 HD
ENDBRANCH  14  15
ENDBRANCH   9  14
BRANCH  10  17
ATOM     17  O   UNL     1     -22.368  -3.990  17.729  1.00  0.00    -0.387 OA
ATOM     18  H   UNL     1     -23.001  -3.520  17.122  1.00  0.00     0.211 HD
ENDBRANCH  10  17
BRANCH  12  19
ATOM     19  O   UNL     1     -21.385  -6.982  17.721  1.00  0.00    -0.387 OA
ATOM     20  H   UNL     1     -21.095  -7.448  16.889  1.00  0.00     0.211 HD
ENDBRANCH  12  19
BRANCH  13  21
ATOM     21  O   UNL     1     -18.534  -6.751  18.175  1.00  0.00    -0.385 OA
ATOM     22  H   UNL     1     -18.761  -7.690  17.949  1.00  0.00     0.211 HD
ENDBRANCH  13  21
ENDBRANCH   7   8
ENDBRANCH   1   7
BRANCH   2  23
ATOM     23  C   UNL     1     -16.937  -0.805  18.387  1.00  0.00     0.191 C 
BRANCH  23  24
ATOM     24  O   UNL     1     -15.932   0.142  18.149  1.00  0.00    -0.394 OA
ATOM     25  H   UNL     1     -15.831   0.657  18.995  1.00  0.00     0.210 HD
ENDBRANCH  23  24
ENDBRANCH   2  23
BRANCH   6  26
ATOM     26  O   UNL     1     -17.925  -5.074  20.410  1.00  0.00    -0.387 OA
ATOM     27  H   UNL     1     -17.230  -5.607  19.944  1.00  0.00     0.211 HD
ENDBRANCH   6  26
BRANCH   5  28
ATOM     28  O   UNL     1     -16.606  -3.447  22.535  1.00  0.00    -0.385 OA
ATOM     29  H   UNL     1     -16.517  -4.357  22.912  1.00  0.00     0.211 HD
ENDBRANCH   5  28
BRANCH   4  30
ATOM     30  O   UNL     1     -16.189  -1.063  21.107  1.00  0.00    -0.341 OA
BRANCH  30  31
ATOM     31  C   UNL     1     -15.488  -0.217  22.009  1.00  0.00     0.184 C 
ATOM     32  C   UNL     1     -16.258  -0.179  23.358  1.00  0.00     0.178 C 
ATOM     33  C   UNL     1     -15.349   1.197  21.411  1.00  0.00     0.180 C 
ATOM     34  O   UNL     1     -15.724   0.767  24.281  1.00  0.00    -0.342 OA
ATOM     35  C   UNL     1     -14.799   2.157  22.474  1.00  0.00     0.201 C 
ATOM     36  C   UNL     1     -15.637   2.092  23.768  1.00  0.00     0.279 C 
BRANCH  32  37
ATOM     37  C   UNL     1     -17.795  -0.053  23.217  1.00  0.00     0.191 C 
BRANCH  37  38
ATOM     38  O   UNL     1     -18.380  -1.310  22.993  1.00  0.00    -0.394 OA
ATOM     39  H   UNL     1     -19.192  -1.153  22.437  1.00  0.00     0.210 HD
ENDBRANCH  37  38
ENDBRANCH  32  37
BRANCH  33  40
ATOM     40  O   UNL     1     -14.454   1.174  20.325  1.00  0.00    -0.387 OA
ATOM     41  H   UNL     1     -14.959   1.440  19.512  1.00  0.00     0.211 HD
ENDBRANCH  33  40
BRANCH  35  42
ATOM     42  O   UNL     1     -14.730   3.473  21.984  1.00  0.00    -0.385 OA
ATOM     43  H   UNL     1     -15.004   3.451  21.024  1.00  0.00     0.211 HD
ENDBRANCH  35  42
BRANCH  36  44
ATOM     44  O   UNL     1     -16.917   2.648  23.578  1.00  0.00    -0.366 OA
ATOM     45  H   UNL     1     -17.252   2.903  24.477  1.00  0.00     0.213 HD
ENDBRANCH  36  44
ENDBRANCH  30  31
ENDBRANCH   4  30
TORSDOF 18
ENDMDL
MODEL 5
REMARK VINA RESULT:    -5.103      6.139      9.582
REMARK INTER + INTRA:         -11.274
REMARK INTER:                  -8.715
REMARK INTRA:                  -2.559
REMARK UNBOUND:                -2.443
REMARK SMILES OC[C@@H]1O[C@H](O)[C@H](O)[C@@H](O)[C@@H]1O[C@@H]1O[C@H](CO)[C@@H](O[C@@H]2O[C@H](CO)[C@H](O)[C@@H](O)[C@@H]2O)[C@@H](O)[C@@H]1O
REMARK SMILES IDX 18 1 15 2 14 3 13 4 33 5 31 6 19 7 20 8 22 9 25 10 21 11
REMARK SMILES IDX 27 12 29 13 23 14 24 15 26 17 28 19 30 21 16 23 17 24 32 26
REMARK SMILES IDX 34 28 12 30 11 31 3 32 9 33 4 34 7 35 5 36 2 37 1 38 10 40
REMARK SMILES IDX 8 42 6 44
REMARK H PARENT 24 16 26 18 28 20 30 22 17 25 32 27 34 29 1 39 10 41 8 43 6 45
REMARK Flexibility Score: inf
ROOT
ATOM      1  C   UNL     1     -16.635   0.663  20.365  1.00  0.00     0.184 C 
ATOM      2  C   UNL     1     -15.235   0.203  19.871  1.00  0.00     0.178 C 
ATOM      3  O   UNL     1     -15.089   0.186  18.455  1.00  0.00    -0.341 OA
ATOM      4  C   UNL     1     -16.083  -0.562  17.773  1.00  0.00     0.282 C 
ATOM      5  C   UNL     1     -17.484   0.048  17.975  1.00  0.00     0.202 C 
ATOM      6  C   UNL     1     -17.842   0.265  19.464  1.00  0.00     0.180 C 
ENDROOT
BRANCH   1   7
ATOM      7  O   UNL     1     -16.674   1.995  20.883  1.00  0.00    -0.341 OA
BRANCH   7   8
ATOM      8  C   UNL     1     -16.003   2.284  22.106  1.00  0.00     0.282 C 
ATOM      9  C   UNL     1     -15.483   1.659  24.275  1.00  0.00     0.178 C 
ATOM     10  C   UNL     1     -16.308   2.733  25.027  1.00  0.00     0.177 C 
ATOM     11  O   UNL     1     -16.170   1.283  23.095  1.00  0.00    -0.341 OA
ATOM     12  C   UNL     1     -17.015   3.693  24.027  1.00  0.00     0.179 C 
ATOM     13  C   UNL     1     -16.315   3.725  22.642  1.00  0.00     0.202 C 
BRANCH   9  14
ATOM     14  C   UNL     1     -15.172   0.410  25.116  1.00  0.00     0.191 C 
BRANCH  14  15
ATOM     15  O   UNL     1     -14.739   0.785  26.401  1.00  0.00    -0.394 OA
ATOM     16  H   UNL     1     -15.106   0.110  27.028  1.00  0.00     0.210 HD
ENDBRANCH  14  15
ENDBRANCH   9  14
BRANCH  10  17
ATOM     17  O   UNL     1     -17.270   2.115  25.847  1.00  0.00    -0.387 OA
ATOM     18  H   UNL     1     -16.923   1.206  26.053  1.00  0.00     0.211 HD
ENDBRANCH  10  17
BRANCH  12  19
ATOM     19  O   UNL     1     -17.045   4.987  24.574  1.00  0.00    -0.387 OA
ATOM     20  H   UNL     1     -17.931   5.380  24.343  1.00  0.00     0.211 HD
ENDBRANCH  12  19
BRANCH  13  21
ATOM     21  O   UNL     1     -17.083   4.463  21.726  1.00  0.00    -0.385 OA
ATOM     22  H   UNL     1     -17.218   3.878  20.937  1.00  0.00     0.211 HD
ENDBRANCH  13  21
ENDBRANCH   7   8
ENDBRANCH   1   7
BRANCH   2  23
ATOM     23  C   UNL     1     -14.751  -1.093  20.551  1.00  0.00     0.191 C 
BRANCH  23  24
ATOM     24  O   UNL     1     -15.457  -1.306  21.742  1.00  0.00    -0.394 OA
ATOM     25  H   UNL     1     -15.039  -2.100  22.173  1.00  0.00     0.210 HD
ENDBRANCH  23  24
ENDBRANCH   2  23
BRANCH   6  26
ATOM     26  O   UNL     1     -18.872   1.215  19.560  1.00  0.00    -0.387 OA
ATOM     27  H   UNL     1     -19.640   0.848  19.050  1.00  0.00     0.211 HD
ENDBRANCH   6  26
BRANCH   5  28
ATOM     28  O   UNL     1     -18.467  -0.730  17.333  1.00  0.00    -0.385 OA
ATOM     29  H   UNL     1     -18.421  -1.652  17.690  1.00  0.00     0.211 HD
ENDBRANCH   5  28
BRANCH   4  30
ATOM     30  O   UNL     1     -16.068  -1.921  18.184  1.00  0.00    -0.341 OA
BRANCH  30  31
ATOM     31  C   UNL     1     -15.627  -2.823  17.178  1.00  0.00     0.184 C 
ATOM     32  C   UNL     1     -16.763  -3.842  16.888  1.00  0.00     0.178 C 
ATOM     33  C   UNL     1     -14.342  -3.541  17.635  1.00  0.00     0.180 C 
ATOM     34  O   UNL     1     -16.365  -4.889  16.007  1.00  0.00    -0.342 OA
ATOM     35  C   UNL     1     -14.001  -4.669  16.653  1.00  0.00     0.201 C 
ATOM     36  C   UNL     1     -15.211  -5.602  16.438  1.00  0.00     0.279 C 
BRANCH  32  37
ATOM     37  C   UNL     1     -17.477  -4.383  18.151  1.00  0.00     0.191 C 
BRANCH  37  38
ATOM     38  O   UNL     1     -18.421  -3.457  18.626  1.00  0.00    -0.394 OA
ATOM     39  H   UNL     1     -19.107  -3.354  17.909  1.00  0.00     0.210 HD
ENDBRANCH  37  38
ENDBRANCH  32  37
BRANCH  33  40
ATOM     40  O   UNL     1     -13.267  -2.633  17.662  1.00  0.00    -0.387 OA
ATOM     41  H   UNL     1     -13.644  -1.722  17.784  1.00  0.00     0.211 HD
ENDBRANCH  33  40
BRANCH  35  42
ATOM     42  O   UNL     1     -12.876  -5.394  17.082  1.00  0.00    -0.385 OA
ATOM     43  H   UNL     1     -12.827  -5.315  18.076  1.00  0.00     0.211 HD
ENDBRANCH  35  42
BRANCH  36  44
ATOM     44  O   UNL     1     -15.485  -6.361  17.592  1.00  0.00    -0.366 OA
ATOM     45  H   UNL     1     -14.625  -6.464  18.076  1.00  0.00     0.213 HD
ENDBRANCH  36  44
ENDBRANCH  30  31
ENDBRANCH   4  30
TORSDOF 18
ENDMDL
MODEL 6
REMARK VINA RESULT:    -5.080     14.673     17.700
REMARK INTER + INTRA:         -11.235
REMARK INTER:                  -8.019
REMARK INTRA:                  -3.216
REMARK UNBOUND:                -2.443
REMARK SMILES OC[C@@H]1O[C@H](O)[C@H](O)[C@@H](O)[C@@H]1O[C@@H]1O[C@H](CO)[C@@H](O[C@@H]2O[C@H](CO)[C@H](O)[C@@H](O)[C@@H]2O)[C@@H](O)[C@@H]1O
REMARK SMILES IDX 18 1 15 2 14 3 13 4 33 5 31 6 19 7 20 8 22 9 25 10 21 11
REMARK SMILES IDX 27 12 29 13 23 14 24 15 26 17 28 19 30 21 16 23 17 24 32 26
REMARK SMILES IDX 34 28 12 30 11 31 3 32 9 33 4 34 7 35 5 36 2 37 1 38 10 40
REMARK SMILES IDX 8 42 6 44
REMARK H PARENT 24 16 26 18 28 20 30 22 17 25 32 27 34 29 1 39 10 41 8 43 6 45
REMARK Flexibility Score: inf
ROOT
ATOM      1  C   UNL     1     -15.822   5.260  30.387  1.00  0.00     0.184 C 
ATOM      2  C   UNL     1     -14.583   6.180  30.195  1.00  0.00     0.178 C 
ATOM      3  O   UNL     1     -14.713   7.470  30.784  1.00  0.00    -0.341 OA
ATOM      4  C   UNL     1     -15.877   8.179  30.389  1.00  0.00     0.282 C 
ATOM      5  C   UNL     1     -17.160   7.455  30.841  1.00  0.00     0.202 C 
ATOM      6  C   UNL     1     -17.207   5.973  30.400  1.00  0.00     0.180 C 
ENDROOT
BRANCH   1   7
ATOM      7  O   UNL     1     -15.654   4.237  31.371  1.00  0.00    -0.341 OA
BRANCH   7   8
ATOM      8  C   UNL     1     -15.528   2.882  30.949  1.00  0.00     0.282 C 
ATOM      9  C   UNL     1     -15.322   1.360  29.216  1.00  0.00     0.178 C 
ATOM     10  C   UNL     1     -16.718   0.697  29.326  1.00  0.00     0.177 C 
ATOM     11  O   UNL     1     -15.430   2.733  29.543  1.00  0.00    -0.341 OA
ATOM     12  C   UNL     1     -17.530   1.301  30.509  1.00  0.00     0.179 C 
ATOM     13  C   UNL     1     -16.616   1.947  31.584  1.00  0.00     0.202 C 
BRANCH   9  14
ATOM     14  C   UNL     1     -14.666   1.204  27.834  1.00  0.00     0.191 C 
BRANCH  14  15
ATOM     15  O   UNL     1     -15.025   2.279  27.001  1.00  0.00    -0.394 OA
ATOM     16  H   UNL     1     -14.818   1.997  26.074  1.00  0.00     0.210 HD
ENDBRANCH  14  15
ENDBRANCH   9  14
BRANCH  10  17
ATOM     17  O   UNL     1     -17.431   0.873  28.126  1.00  0.00    -0.387 OA
ATOM     18  H   UNL     1     -18.365   1.097  28.383  1.00  0.00     0.211 HD
ENDBRANCH  10  17
BRANCH  12  19
ATOM     19  O   UNL     1     -18.312   0.291  31.094  1.00  0.00    -0.387 OA
ATOM     20  H   UNL     1     -19.086   0.740  31.533  1.00  0.00     0.211 HD
ENDBRANCH  12  19
BRANCH  13  21
ATOM     21  O   UNL     1     -17.393   2.628  32.536  1.00  0.00    -0.385 OA
ATOM     22  H   UNL     1     -18.214   2.927  32.067  1.00  0.00     0.211 HD
ENDBRANCH  13  21
ENDBRANCH   7   8
ENDBRANCH   1   7
BRANCH   2  23
ATOM     23  C   UNL     1     -14.083   6.222  28.737  1.00  0.00     0.191 C 
BRANCH  23  24
ATOM     24  O   UNL     1     -14.419   5.032  28.077  1.00  0.00    -0.394 OA
ATOM     25  H   UNL     1     -13.828   4.984  27.278  1.00  0.00     0.210 HD
ENDBRANCH  23  24
ENDBRANCH   2  23
BRANCH   6  26
ATOM     26  O   UNL     1     -18.120   5.277  31.209  1.00  0.00    -0.387 OA
ATOM     27  H   UNL     1     -17.663   5.117  32.074  1.00  0.00     0.211 HD
ENDBRANCH   6  26
BRANCH   5  28
ATOM     28  O   UNL     1     -18.306   8.144  30.401  1.00  0.00    -0.385 OA
ATOM     29  H   UNL     1     -18.407   8.966  30.943  1.00  0.00     0.211 HD
ENDBRANCH   5  28
BRANCH   4  30
ATOM     30  O   UNL     1     -15.892   8.388  28.984  1.00  0.00    -0.341 OA
BRANCH  30  31
ATOM     31  C   UNL     1     -15.682   9.740  28.599  1.00  0.00     0.184 C 
ATOM     32  C   UNL     1     -16.940  10.244  27.840  1.00  0.00     0.178 C 
ATOM     33  C   UNL     1     -14.422   9.851  27.718  1.00  0.00     0.180 C 
ATOM     34  O   UNL     1     -16.770  11.540  27.271  1.00  0.00    -0.342 OA
ATOM     35  C   UNL     1     -14.330  11.262  27.122  1.00  0.00     0.201 C 
ATOM     36  C   UNL     1     -15.641  11.651  26.410  1.00  0.00     0.279 C 
BRANCH  32  37
ATOM     37  C   UNL     1     -17.524   9.233  26.823  1.00  0.00     0.191 C 
BRANCH  37  38
ATOM     38  O   UNL     1     -18.316   8.272  27.472  1.00  0.00    -0.394 OA
ATOM     39  H   UNL     1     -17.832   7.404  27.399  1.00  0.00     0.210 HD
ENDBRANCH  37  38
ENDBRANCH  32  37
BRANCH  33  40
ATOM     40  O   UNL     1     -13.271   9.618  28.493  1.00  0.00    -0.387 OA
ATOM     41  H   UNL     1     -13.473   8.871  29.117  1.00  0.00     0.211 HD
ENDBRANCH  33  40
BRANCH  35  42
ATOM     42  O   UNL     1     -13.231  11.375  26.253  1.00  0.00    -0.385 OA
ATOM     43  H   UNL     1     -12.964  10.452  25.983  1.00  0.00     0.211 HD
ENDBRANCH  35  42
BRANCH  36  44
ATOM     44  O   UNL     1     -15.827  10.903  25.232  1.00  0.00    -0.366 OA
ATOM     45  H   UNL     1     -15.109  10.218  25.213  1.00  0.00     0.213 HD
ENDBRANCH  36  44
ENDBRANCH  30  31
ENDBRANCH   4  30
TORSDOF 18
ENDMDL
MODEL 7
REMARK VINA RESULT:    -5.056     16.297     18.953
REMARK INTER + INTRA:         -11.194
REMARK INTER:                  -7.997
REMARK INTRA:                  -3.197
REMARK UNBOUND:                -2.443
REMARK SMILES OC[C@@H]1O[C@H](O)[C@H](O)[C@@H](O)[C@@H]1O[C@@H]1O[C@H](CO)[C@@H](O[C@@H]2O[C@H](CO)[C@H](O)[C@@H](O)[C@@H]2O)[C@@H](O)[C@@H]1O
REMARK SMILES IDX 18 1 15 2 14 3 13 4 33 5 31 6 19 7 20 8 22 9 25 10 21 11
REMARK SMILES IDX 27 12 29 13 23 14 24 15 26 17 28 19 30 21 16 23 17 24 32 26
REMARK SMILES IDX 34 28 12 30 11 31 3 32 9 33 4 34 7 35 5 36 2 37 1 38 10 40
REMARK SMILES IDX 8 42 6 44
REMARK H PARENT 24 16 26 18 28 20 30 22 17 25 32 27 34 29 1 39 10 41 8 43 6 45
REMARK Flexibility Score: inf
ROOT
ATOM      1  C   UNL     1     -16.094  11.432  24.622  1.00  0.00     0.184 C 
ATOM      2  C   UNL     1     -17.002  11.460  25.882  1.00  0.00     0.178 C 
ATOM      3  O   UNL     1     -16.383  12.012  27.040  1.00  0.00    -0.341 OA
ATOM      4  C   UNL     1     -15.143  11.413  27.382  1.00  0.00     0.282 C 
ATOM      5  C   UNL     1     -14.088  11.633  26.280  1.00  0.00     0.202 C 
ATOM      6  C   UNL     1     -14.575  11.196  24.879  1.00  0.00     0.180 C 
ENDROOT
BRANCH   1   7
ATOM      7  O   UNL     1     -16.398  12.434  23.648  1.00  0.00    -0.341 OA
BRANCH   7   8
ATOM      8  C   UNL     1     -17.124  12.067  22.479  1.00  0.00     0.282 C 
ATOM      9  C   UNL     1     -18.408  10.500  21.355  1.00  0.00     0.178 C 
ATOM     10  C   UNL     1     -17.382  10.102  20.265  1.00  0.00     0.177 C 
ATOM     11  O   UNL     1     -17.722  10.785  22.561  1.00  0.00    -0.341 OA
ATOM     12  C   UNL     1     -16.070  10.929  20.406  1.00  0.00     0.179 C 
ATOM     13  C   UNL     1     -16.293  12.265  21.163  1.00  0.00     0.202 C 
BRANCH   9  14
ATOM     14  C   UNL     1     -19.490   9.438  21.611  1.00  0.00     0.191 C 
BRANCH  14  15
ATOM     15  O   UNL     1     -19.054   8.525  22.587  1.00  0.00    -0.394 OA
ATOM     16  H   UNL     1     -19.328   8.899  23.464  1.00  0.00     0.210 HD
ENDBRANCH  14  15
ENDBRANCH   9  14
BRANCH  10  17
ATOM     17  O   UNL     1     -17.086   8.730  20.360  1.00  0.00    -0.387 OA
ATOM     18  H   UNL     1     -17.947   8.268  20.547  1.00  0.00     0.211 HD
ENDBRANCH  10  17
BRANCH  12  19
ATOM     19  O   UNL     1     -15.549  11.187  19.127  1.00  0.00    -0.387 OA
ATOM     20  H   UNL     1     -16.159  10.750  18.471  1.00  0.00     0.211 HD
ENDBRANCH  12  19
BRANCH  13  21
ATOM     21  O   UNL     1     -15.060  12.889  21.418  1.00  0.00    -0.385 OA
ATOM     22  H   UNL     1     -15.180  13.849  21.197  1.00  0.00     0.211 HD
ENDBRANCH  13  21
ENDBRANCH   7   8
ENDBRANCH   1   7
BRANCH   2  23
ATOM     23  C   UNL     1     -17.706  10.114  26.149  1.00  0.00     0.191 C 
BRANCH  23  24
ATOM     24  O   UNL     1     -17.636   9.299  25.011  1.00  0.00    -0.394 OA
ATOM     25  H   UNL     1     -18.244   8.531  25.184  1.00  0.00     0.210 HD
ENDBRANCH  23  24
ENDBRANCH   2  23
BRANCH   6  26
ATOM     26  O   UNL     1     -13.797  11.832  23.898  1.00  0.00    -0.387 OA
ATOM     27  H   UNL     1     -13.883  11.286  23.074  1.00  0.00     0.211 HD
ENDBRANCH   6  26
BRANCH   5  28
ATOM     28  O   UNL     1     -12.878  10.994  26.610  1.00  0.00    -0.385 OA
ATOM     29  H   UNL     1     -12.939  10.665  27.541  1.00  0.00     0.211 HD
ENDBRANCH   5  28
BRANCH   4  30
ATOM     30  O   UNL     1     -15.303  10.028  27.648  1.00  0.00    -0.341 OA
BRANCH  30  31
ATOM     31  C   UNL     1     -15.171   9.685  29.021  1.00  0.00     0.184 C 
ATOM     32  C   UNL     1     -13.906   8.799  29.194  1.00  0.00     0.178 C 
ATOM     33  C   UNL     1     -16.434   8.948  29.509  1.00  0.00     0.180 C 
ATOM     34  O   UNL     1     -13.769   8.268  30.509  1.00  0.00    -0.342 OA
ATOM     35  C   UNL     1     -16.193   8.383  30.915  1.00  0.00     0.201 C 
ATOM     36  C   UNL     1     -14.904   7.536  30.960  1.00  0.00     0.279 C 
BRANCH  32  37
ATOM     37  C   UNL     1     -13.731   7.711  28.105  1.00  0.00     0.191 C 
BRANCH  37  38
ATOM     38  O   UNL     1     -12.978   8.202  27.025  1.00  0.00    -0.394 OA
ATOM     39  H   UNL     1     -13.560   8.140  26.218  1.00  0.00     0.210 HD
ENDBRANCH  37  38
ENDBRANCH  32  37
BRANCH  33  40
ATOM     40  O   UNL     1     -17.519   9.842  29.567  1.00  0.00    -0.387 OA
ATOM     41  H   UNL     1     -17.332  10.585  28.935  1.00  0.00     0.211 HD
ENDBRANCH  33  40
BRANCH  35  42
ATOM     42  O   UNL     1     -17.300   7.640  31.360  1.00  0.00    -0.385 OA
ATOM     43  H   UNL     1     -17.358   7.750  32.351  1.00  0.00     0.211 HD
ENDBRANCH  35  42
BRANCH  36  44
ATOM     44  O   UNL     1     -15.053   6.336  30.239  1.00  0.00    -0.366 OA
ATOM     45  H   UNL     1     -16.018   6.254  30.019  1.00  0.00     0.213 HD
ENDBRANCH  36  44
ENDBRANCH  30  31
ENDBRANCH   4  30
TORSDOF 18
ENDMDL
MODEL 8
REMARK VINA RESULT:    -5.013     14.356     17.041
REMARK INTER + INTRA:         -11.119
REMARK INTER:                  -7.920
REMARK INTRA:                  -3.199
REMARK UNBOUND:                -2.443
REMARK SMILES OC[C@@H]1O[C@H](O)[C@H](O)[C@@H](O)[C@@H]1O[C@@H]1O[C@H](CO)[C@@H](O[C@@H]2O[C@H](CO)[C@H](O)[C@@H](O)[C@@H]2O)[C@@H](O)[C@@H]1O
REMARK SMILES IDX 18 1 15 2 14 3 13 4 33 5 31 6 19 7 20 8 22 9 25 10 21 11
REMARK SMILES IDX 27 12 29 13 23 14 24 15 26 17 28 19 30 21 16 23 17 24 32 26
REMARK SMILES IDX 34 28 12 30 11 31 3 32 9 33 4 34 7 35 5 36 2 37 1 38 10 40
REMARK SMILES IDX 8 42 6 44
REMARK H PARENT 24 16 26 18 28 20 30 22 17 25 32 27 34 29 1 39 10 41 8 43 6 45
REMARK Flexibility Score: inf
ROOT
ATOM      1  C   UNL     1     -15.292   6.771  29.419  1.00  0.00     0.184 C 
ATOM      2  C   UNL     1     -15.967   6.337  30.750  1.00  0.00     0.178 C 
ATOM      3  O   UNL     1     -15.423   5.153  31.325  1.00  0.00    -0.341 OA
ATOM      4  C   UNL     1     -15.385   4.040  30.446  1.00  0.00     0.282 C 
ATOM      5  C   UNL     1     -14.460   4.304  29.242  1.00  0.00     0.202 C 
ATOM      6  C   UNL     1     -14.794   5.618  28.498  1.00  0.00     0.180 C 
ENDROOT
BRANCH   1   7
ATOM      7  O   UNL     1     -14.401   7.883  29.540  1.00  0.00    -0.341 OA
BRANCH   7   8
ATOM      8  C   UNL     1     -14.796   9.148  29.018  1.00  0.00     0.282 C 
ATOM      9  C   UNL     1     -16.487  10.534  28.253  1.00  0.00     0.178 C 
ATOM     10  C   UNL     1     -16.091  10.575  26.757  1.00  0.00     0.177 C 
ATOM     11  O   UNL     1     -16.189   9.254  28.781  1.00  0.00    -0.341 OA
ATOM     12  C   UNL     1     -14.795   9.752  26.500  1.00  0.00     0.179 C 
ATOM     13  C   UNL     1     -13.936   9.589  27.782  1.00  0.00     0.202 C 
BRANCH   9  14
ATOM     14  C   UNL     1     -17.963  10.875  28.517  1.00  0.00     0.191 C 
BRANCH  14  15
ATOM     15  O   UNL     1     -18.741   9.703  28.512  1.00  0.00    -0.394 OA
ATOM     16  H   UNL     1     -19.687   9.995  28.443  1.00  0.00     0.210 HD
ENDBRANCH  14  15
ENDBRANCH   9  14
BRANCH  10  17
ATOM     17  O   UNL     1     -17.138  10.064  25.967  1.00  0.00    -0.387 OA
ATOM     18  H   UNL     1     -16.784   9.246  25.525  1.00  0.00     0.211 HD
ENDBRANCH  10  17
BRANCH  12  19
ATOM     19  O   UNL     1     -14.039  10.382  25.498  1.00  0.00    -0.387 OA
ATOM     20  H   UNL     1     -13.295   9.763  25.261  1.00  0.00     0.211 HD
ENDBRANCH  12  19
BRANCH  13  21
ATOM     21  O   UNL     1     -12.875   8.699  27.546  1.00  0.00    -0.385 OA
ATOM     22  H   UNL     1     -13.272   7.895  27.120  1.00  0.00     0.211 HD
ENDBRANCH  13  21
ENDBRANCH   7   8
ENDBRANCH   1   7
BRANCH   2  23
ATOM     23  C   UNL     1     -17.506   6.326  30.671  1.00  0.00     0.191 C 
BRANCH  23  24
ATOM     24  O   UNL     1     -17.986   7.617  30.413  1.00  0.00    -0.394 OA
ATOM     25  H   UNL     1     -17.535   7.918  29.579  1.00  0.00     0.210 HD
ENDBRANCH  23  24
ENDBRANCH   2  23
BRANCH   6  26
ATOM     26  O   UNL     1     -13.676   6.023  27.749  1.00  0.00    -0.387 OA
ATOM     27  H   UNL     1     -13.905   5.867  26.796  1.00  0.00     0.211 HD
ENDBRANCH   6  26
BRANCH   5  28
ATOM     28  O   UNL     1     -14.469   3.211  28.353  1.00  0.00    -0.385 OA
ATOM     29  H   UNL     1     -13.548   3.068  28.021  1.00  0.00     0.211 HD
ENDBRANCH   5  28
BRANCH   4  30
ATOM     30  O   UNL     1     -16.690   3.696  30.005  1.00  0.00    -0.341 OA
BRANCH  30  31
ATOM     31  C   UNL     1     -17.169   2.463  30.524  1.00  0.00     0.184 C 
ATOM     32  C   UNL     1     -17.391   1.476  29.345  1.00  0.00     0.178 C 
ATOM     33  C   UNL     1     -18.475   2.689  31.311  1.00  0.00     0.180 C 
ATOM     34  O   UNL     1     -18.021   0.261  29.742  1.00  0.00    -0.342 OA
ATOM     35  C   UNL     1     -19.103   1.336  31.672  1.00  0.00     0.201 C 
ATOM     36  C   UNL     1     -19.258   0.445  30.422  1.00  0.00     0.279 C 
BRANCH  32  37
ATOM     37  C   UNL     1     -18.067   2.105  28.102  1.00  0.00     0.191 C 
BRANCH  37  38
ATOM     38  O   UNL     1     -17.139   2.845  27.350  1.00  0.00    -0.394 OA
ATOM     39  H   UNL     1     -16.516   2.187  26.935  1.00  0.00     0.210 HD
ENDBRANCH  37  38
ENDBRANCH  32  37
BRANCH  33  40
ATOM     40  O   UNL     1     -18.205   3.387  32.502  1.00  0.00    -0.387 OA
ATOM     41  H   UNL     1     -17.273   3.729  32.447  1.00  0.00     0.211 HD
ENDBRANCH  33  40
BRANCH  35  42
ATOM     42  O   UNL     1     -20.336   1.507  32.324  1.00  0.00    -0.385 OA
ATOM     43  H   UNL     1     -21.057   1.266  31.676  1.00  0.00     0.211 HD
ENDBRANCH  35  42
BRANCH  36  44
ATOM     44  O   UNL     1     -20.246   0.946  29.553  1.00  0.00    -0.366 OA
ATOM     45  H   UNL     1     -19.792   1.153  28.695  1.00  0.00     0.213 HD
ENDBRANCH  36  44
ENDBRANCH  30  31
ENDBRANCH   4  30
TORSDOF 18
ENDMDL
MODEL 9
REMARK VINA RESULT:    -4.920     15.213     18.026
REMARK INTER + INTRA:         -10.958
REMARK INTER:                  -8.643
REMARK INTRA:                  -2.315
REMARK UNBOUND:                -2.443
REMARK SMILES OC[C@@H]1O[C@H](O)[C@H](O)[C@@H](O)[C@@H]1O[C@@H]1O[C@H](CO)[C@@H](O[C@@H]2O[C@H](CO)[C@H](O)[C@@H](O)[C@@H]2O)[C@@H](O)[C@@H]1O
REMARK SMILES IDX 18 1 15 2 14 3 13 4 33 5 31 6 19 7 20 8 22 9 25 10 21 11
REMARK SMILES IDX 27 12 29 13 23 14 24 15 26 17 28 19 30 21 16 23 17 24 32 26
REMARK SMILES IDX 34 28 12 30 11 31 3 32 9 33 4 34 7 35 5 36 2 37 1 38 10 40
REMARK SMILES IDX 8 42 6 44
REMARK H PARENT 24 16 26 18 28 20 30 22 17 25 32 27 34 29 1 39 10 41 8 43 6 45
REMARK Flexibility Score: inf
ROOT
ATOM      1  C   UNL     1     -15.078   6.072  29.494  1.00  0.00     0.184 C 
ATOM      2  C   UNL     1     -14.678   6.592  28.084  1.00  0.00     0.178 C 
ATOM      3  O   UNL     1     -13.662   7.590  28.093  1.00  0.00    -0.341 OA
ATOM      4  C   UNL     1     -13.942   8.702  28.929  1.00  0.00     0.282 C 
ATOM      5  C   UNL     1     -14.037   8.284  30.409  1.00  0.00     0.202 C 
ATOM      6  C   UNL     1     -15.025   7.118  30.647  1.00  0.00     0.180 C 
ENDROOT
BRANCH   1   7
ATOM      7  O   UNL     1     -14.560   4.780  29.819  1.00  0.00    -0.341 OA
BRANCH   7   8
ATOM      8  C   UNL     1     -15.198   3.623  29.284  1.00  0.00     0.282 C 
ATOM      9  C   UNL     1     -16.576   1.791  29.615  1.00  0.00     0.178 C 
ATOM     10  C   UNL     1     -15.508   0.676  29.491  1.00  0.00     0.177 C 
ATOM     11  O   UNL     1     -15.995   2.928  30.227  1.00  0.00    -0.341 OA
ATOM     12  C   UNL     1     -14.108   1.277  29.176  1.00  0.00     0.179 C 
ATOM     13  C   UNL     1     -14.201   2.681  28.522  1.00  0.00     0.202 C 
BRANCH   9  14
ATOM     14  C   UNL     1     -17.833   1.367  30.391  1.00  0.00     0.191 C 
BRANCH  14  15
ATOM     15  O   UNL     1     -17.635   1.544  31.772  1.00  0.00    -0.394 OA
ATOM     16  H   UNL     1     -18.198   0.865  32.226  1.00  0.00     0.210 HD
ENDBRANCH  14  15
ENDBRANCH   9  14
BRANCH  10  17
ATOM     17  O   UNL     1     -15.445  -0.065  30.686  1.00  0.00    -0.387 OA
ATOM     18  H   UNL     1     -15.597   0.580  31.427  1.00  0.00     0.211 HD
ENDBRANCH  10  17
BRANCH  12  19
ATOM     19  O   UNL     1     -13.410   0.402  28.327  1.00  0.00    -0.387 OA
ATOM     20  H   UNL     1     -14.001  -0.386  28.173  1.00  0.00     0.211 HD
ENDBRANCH  12  19
BRANCH  13  21
ATOM     21  O   UNL     1     -12.923   3.255  28.418  1.00  0.00    -0.385 OA
ATOM     22  H   UNL     1     -12.626   3.112  27.482  1.00  0.00     0.211 HD
ENDBRANCH  13  21
ENDBRANCH   7   8
ENDBRANCH   1   7
BRANCH   2  23
ATOM     23  C   UNL     1     -15.893   6.964  27.212  1.00  0.00     0.191 C 
BRANCH  23  24
ATOM     24  O   UNL     1     -16.983   7.308  28.022  1.00  0.00    -0.394 OA
ATOM     25  H   UNL     1     -17.358   6.450  28.360  1.00  0.00     0.210 HD
ENDBRANCH  23  24
ENDBRANCH   2  23
BRANCH   6  26
ATOM     26  O   UNL     1     -14.724   6.498  31.871  1.00  0.00    -0.387 OA
ATOM     27  H   UNL     1     -13.756   6.285  31.847  1.00  0.00     0.211 HD
ENDBRANCH   6  26
BRANCH   5  28
ATOM     28  O   UNL     1     -14.363   9.388  31.222  1.00  0.00    -0.385 OA
ATOM     29  H   UNL     1     -15.247   9.733  30.944  1.00  0.00     0.211 HD
ENDBRANCH   5  28
BRANCH   4  30
ATOM     30  O   UNL     1     -15.132   9.359  28.519  1.00  0.00    -0.341 OA
BRANCH  30  31
ATOM     31  C   UNL     1     -14.922  10.671  28.014  1.00  0.00     0.184 C 
ATOM     32  C   UNL     1     -16.018  11.609  28.591  1.00  0.00     0.178 C 
ATOM     33  C   UNL     1     -14.958  10.659  26.473  1.00  0.00     0.180 C 
ATOM     34  O   UNL     1     -15.994  12.916  28.022  1.00  0.00    -0.342 OA
ATOM     35  C   UNL     1     -14.961  12.099  25.943  1.00  0.00     0.201 C 
ATOM     36  C   UNL     1     -16.081  12.930  26.601  1.00  0.00     0.279 C 
BRANCH  32  37
ATOM     37  C   UNL     1     -17.443  11.002  28.598  1.00  0.00     0.191 C 
BRANCH  37  38
ATOM     38  O   UNL     1     -17.544   9.977  29.553  1.00  0.00    -0.394 OA
ATOM     39  H   UNL     1     -17.109   9.173  29.158  1.00  0.00     0.210 HD
ENDBRANCH  37  38
ENDBRANCH  32  37
BRANCH  33  40
ATOM     40  O   UNL     1     -13.821  10.000  25.970  1.00  0.00    -0.387 OA
ATOM     41  H   UNL     1     -13.165  10.695  25.700  1.00  0.00     0.211 HD
ENDBRANCH  33  40
BRANCH  35  42
ATOM     42  O   UNL     1     -15.070  12.125  24.542  1.00  0.00    -0.385 OA
ATOM     43  H   UNL     1     -15.899  12.631  24.314  1.00  0.00     0.211 HD
ENDBRANCH  35  42
BRANCH  36  44
ATOM     44  O   UNL     1     -17.353  12.511  26.166  1.00  0.00    -0.366 OA
ATOM     45  H   UNL     1     -17.218  11.672  25.655  1.00  0.00     0.213 HD
ENDBRANCH  36  44
ENDBRANCH  30  31
ENDBRANCH   4  30
TORSDOF 18
ENDMDL
