MODEL 1
REMARK VINA RESULT:    -4.083      0.000      0.000
REMARK INTER + INTRA:          -4.203
REMARK INTER:                  -4.203
REMARK INTRA:                   0.000
REMARK UNBOUND:                 0.000
REMARK SMILES O=c1ccc2ccc(O)cc2o1
REMARK SMILES IDX 6 1 7 2 8 3 10 4 11 5 5 6 4 7 3 8 2 9 1 10 12 11 9 12
REMARK H PARENT 9 13
REMARK Flexibility Score: inf
ROOT
ATOM      1  C   UNL     1      25.693  40.034  -1.463  1.00  0.00     0.016 A 
ATOM      2  C   UNL     1      26.959  39.986  -2.057  1.00  0.00     0.047 A 
ATOM      3  C   UNL     1      27.986  39.238  -1.471  1.00  0.00     0.119 A 
ATOM      4  C   UNL     1      27.748  38.530  -0.284  1.00  0.00     0.094 A 
ATOM      5  C   UNL     1      26.485  38.571   0.316  1.00  0.00     0.142 A 
ATOM      6  C   UNL     1      25.451  39.328  -0.277  1.00  0.00     0.018 A 
ATOM      7  C   UNL     1      24.200  39.350   0.346  1.00  0.00     0.019 A 
ATOM      8  C   UNL     1      24.009  38.631   1.526  1.00  0.00     0.094 A 
ATOM      9  C   UNL     1      25.080  37.903   2.056  1.00  0.00     0.336 A 
ATOM     10  O   UNL     1      24.928  37.247   3.120  1.00  0.00    -0.246 OA
ATOM     11  O   UNL     1      26.261  37.898   1.444  1.00  0.00    -0.423 OA
ENDROOT
BRANCH   3  12
ATOM     12  O   UNL     1      29.240  39.202  -2.078  1.00  0.00    -0.508 OA
ATOM     13  H   UNL     1      30.068  39.550  -1.606  1.00  0.00     0.293 HD
ENDBRANCH   3  12
TORSDOF 1
ENDMDL
MODEL 2
REMARK VINA RESULT:    -4.046      2.221      4.364
REMARK INTER + INTRA:          -4.164
REMARK INTER:                  -4.164
REMARK INTRA:                   0.000
REMARK UNBOUND:                 0.000
REMARK SMILES O=c1ccc2ccc(O)cc2o1
REMARK SMILES IDX 6 1 7 2 8 3 10 4 11 5 5 6 4 7 3 8 2 9 1 10 12 11 9 12
REMARK H PARENT 9 13
REMARK Flexibility Score: inf
ROOT
ATOM      1  C   UNL     1      24.069  40.340   1.619  1.00  0.00     0.016 A 
ATOM      2  C   UNL     1      24.252  40.705   2.957  1.00  0.00     0.047 A 
ATOM      3  C   UNL     1      25.531  40.696   3.524  1.00  0.00     0.119 A 
ATOM      4  C   UNL     1      26.638  40.319   2.748  1.00  0.00     0.094 A 
ATOM      5  C   UNL     1      26.465  39.954   1.409  1.00  0.00     0.142 A 
ATOM      6  C   UNL     1      25.172  39.964   0.841  1.00  0.00     0.018 A 
ATOM      7  C   UNL     1      25.030  39.593  -0.500  1.00  0.00     0.019 A 
ATOM      8  C   UNL     1      26.160  39.226  -1.232  1.00  0.00     0.094 A 
ATOM      9  C   UNL     1      27.409  39.240  -0.602  1.00  0.00     0.336 A 
ATOM     10  O   UNL     1      28.440  38.913  -1.246  1.00  0.00    -0.246 OA
ATOM     11  O   UNL     1      27.517  39.597   0.675  1.00  0.00    -0.423 OA
ENDROOT
BRANCH   3  12
ATOM     12  O   UNL     1      25.693  41.063   4.858  1.00  0.00    -0.508 OA
ATOM     13  H   UNL     1      25.403  40.453   5.615  1.00  0.00     0.293 HD
ENDBRANCH   3  12
TORSDOF 1
ENDMDL
MODEL 3
REMARK VINA RESULT:    -4.009     15.490     17.460
REMARK INTER + INTRA:          -4.126
REMARK INTER:                  -4.126
REMARK INTRA:                   0.000
REMARK UNBOUND:                 0.000
REMARK SMILES O=c1ccc2ccc(O)cc2o1
REMARK SMILES IDX 6 1 7 2 8 3 10 4 11 5 5 6 4 7 3 8 2 9 1 10 12 11 9 12
REMARK H PARENT 9 13
REMARK Flexibility Score: inf
ROOT
ATOM      1  C   UNL     1      43.872  32.124   1.628  1.00  0.00     0.016 A 
ATOM      2  C   UNL     1      43.763  31.776   2.979  1.00  0.00     0.047 A 
ATOM      3  C   UNL     1      42.523  31.830   3.624  1.00  0.00     0.119 A 
ATOM      4  C   UNL     1      41.381  32.233   2.916  1.00  0.00     0.094 A 
ATOM      5  C   UNL     1      41.481  32.581   1.565  1.00  0.00     0.142 A 
ATOM      6  C   UNL     1      42.734  32.526   0.916  1.00  0.00     0.018 A 
ATOM      7  C   UNL     1      42.802  32.881  -0.434  1.00  0.00     0.019 A 
ATOM      8  C   UNL     1      41.640  33.275  -1.098  1.00  0.00     0.094 A 
ATOM      9  C   UNL     1      40.433  33.305  -0.391  1.00  0.00     0.336 A 
ATOM     10  O   UNL     1      39.374  33.658  -0.973  1.00  0.00    -0.246 OA
ATOM     11  O   UNL     1      40.395  32.963   0.894  1.00  0.00    -0.423 OA
ENDROOT
BRANCH   3  12
ATOM     12  O   UNL     1      42.435  31.480   4.970  1.00  0.00    -0.508 OA
ATOM     13  H   UNL     1      42.903  30.658   5.336  1.00  0.00     0.293 HD
ENDBRANCH   3  12
TORSDOF 1
ENDMDL
MODEL 4
REMARK VINA RESULT:    -3.983     14.715     16.722
REMARK INTER + INTRA:          -4.099
REMARK INTER:                  -4.099
REMARK INTRA:                   0.000
REMARK UNBOUND:                 0.000
REMARK SMILES O=c1ccc2ccc(O)cc2o1
REMARK SMILES IDX 6 1 7 2 8 3 10 4 11 5 5 6 4 7 3 8 2 9 1 10 12 11 9 12
REMARK H PARENT 9 13
REMARK Flexibility Score: inf
ROOT
ATOM      1  C   UNL     1      41.884  32.300  -1.662  1.00  0.00     0.016 A 
ATOM      2  C   UNL     1      40.567  32.394  -2.125  1.00  0.00     0.047 A 
ATOM      3  C   UNL     1      39.652  33.238  -1.485  1.00  0.00     0.119 A 
ATOM      4  C   UNL     1      40.055  33.995  -0.375  1.00  0.00     0.094 A 
ATOM      5  C   UNL     1      41.371  33.908   0.094  1.00  0.00     0.142 A 
ATOM      6  C   UNL     1      42.291  33.055  -0.555  1.00  0.00     0.018 A 
ATOM      7  C   UNL     1      43.598  32.989  -0.062  1.00  0.00     0.019 A 
ATOM      8  C   UNL     1      43.953  33.760   1.044  1.00  0.00     0.094 A 
ATOM      9  C   UNL     1      42.988  34.583   1.635  1.00  0.00     0.336 A 
ATOM     10  O   UNL     1      43.289  35.287   2.634  1.00  0.00    -0.246 OA
ATOM     11  O   UNL     1      41.751  34.628   1.148  1.00  0.00    -0.423 OA
ENDROOT
BRANCH   3  12
ATOM     12  O   UNL     1      38.345  33.319  -1.961  1.00  0.00    -0.508 OA
ATOM     13  H   UNL     1      37.838  32.493  -2.259  1.00  0.00     0.293 HD
ENDBRANCH   3  12
TORSDOF 1
ENDMDL
MODEL 5
REMARK VINA RESULT:    -3.958      2.699      3.246
REMARK INTER + INTRA:          -4.073
REMARK INTER:                  -4.073
REMARK INTRA:                   0.000
REMARK UNBOUND:                 0.000
REMARK SMILES O=c1ccc2ccc(O)cc2o1
REMARK SMILES IDX 6 1 7 2 8 3 10 4 11 5 5 6 4 7 3 8 2 9 1 10 12 11 9 12
REMARK H PARENT 9 13
REMARK Flexibility Score: inf
ROOT
ATOM      1  C   UNL     1      27.651  39.264   1.056  1.00  0.00     0.016 A 
ATOM      2  C   UNL     1      27.331  39.072  -0.292  1.00  0.00     0.047 A 
ATOM      3  C   UNL     1      26.070  39.435  -0.778  1.00  0.00     0.119 A 
ATOM      4  C   UNL     1      25.120  39.995   0.088  1.00  0.00     0.094 A 
ATOM      5  C   UNL     1      25.431  40.191   1.438  1.00  0.00     0.142 A 
ATOM      6  C   UNL     1      26.705  39.824   1.925  1.00  0.00     0.018 A 
ATOM      7  C   UNL     1      26.985  40.032   3.279  1.00  0.00     0.019 A 
ATOM      8  C   UNL     1      26.009  40.592   4.103  1.00  0.00     0.094 A 
ATOM      9  C   UNL     1      24.769  40.932   3.550  1.00  0.00     0.336 A 
ATOM     10  O   UNL     1      23.876  41.439   4.277  1.00  0.00    -0.246 OA
ATOM     11  O   UNL     1      24.527  40.724   2.259  1.00  0.00    -0.423 OA
ENDROOT
BRANCH   3  12
ATOM     12  O   UNL     1      25.771  39.236  -2.125  1.00  0.00    -0.508 OA
ATOM     13  H   UNL     1      24.919  39.599  -2.538  1.00  0.00     0.293 HD
ENDBRANCH   3  12
TORSDOF 1
ENDMDL
MODEL 6
REMARK VINA RESULT:    -3.949      2.120      2.176
REMARK INTER + INTRA:          -4.065
REMARK INTER:                  -4.065
REMARK INTRA:                   0.000
REMARK UNBOUND:                 0.000
REMARK SMILES O=c1ccc2ccc(O)cc2o1
REMARK SMILES IDX 6 1 7 2 8 3 10 4 11 5 5 6 4 7 3 8 2 9 1 10 12 11 9 12
REMARK H PARENT 9 13
REMARK Flexibility Score: inf
ROOT
ATOM      1  C   UNL     1      25.128  39.603  -0.450  1.00  0.00     0.016 A 
ATOM      2  C   UNL     1      26.253  39.171  -1.161  1.00  0.00     0.047 A 
ATOM      3  C   UNL     1      27.500  39.091  -0.530  1.00  0.00     0.119 A 
ATOM      4  C   UNL     1      27.625  39.443   0.822  1.00  0.00     0.094 A 
ATOM      5  C   UNL     1      26.505  39.876   1.540  1.00  0.00     0.142 A 
ATOM      6  C   UNL     1      25.248  39.956   0.900  1.00  0.00     0.018 A 
ATOM      7  C   UNL     1      24.148  40.393   1.644  1.00  0.00     0.019 A 
ATOM      8  C   UNL     1      24.320  40.733   2.986  1.00  0.00     0.094 A 
ATOM      9  C   UNL     1      25.595  40.628   3.554  1.00  0.00     0.336 A 
ATOM     10  O   UNL     1      25.770  40.930   4.763  1.00  0.00    -0.246 OA
ATOM     11  O   UNL     1      26.626  40.210   2.824  1.00  0.00    -0.423 OA
ENDROOT
BRANCH   3  12
ATOM     12  O   UNL     1      28.608  38.657  -1.255  1.00  0.00    -0.508 OA
ATOM     13  H   UNL     1      28.935  39.158  -2.074  1.00  0.00     0.293 HD
ENDBRANCH   3  12
TORSDOF 1
ENDMDL
MODEL 7
REMARK VINA RESULT:    -3.927      5.930      7.009
REMARK INTER + INTRA:          -4.042
REMARK INTER:                  -4.042
REMARK INTRA:                   0.000
REMARK UNBOUND:                 0.000
REMARK SMILES O=c1ccc2ccc(O)cc2o1
REMARK SMILES IDX 6 1 7 2 8 3 10 4 11 5 5 6 4 7 3 8 2 9 1 10 12 11 9 12
REMARK H PARENT 9 13
REMARK Flexibility Score: inf
ROOT
ATOM      1  C   UNL     1      24.167  43.338   6.174  1.00  0.00     0.016 A 
ATOM      2  C   UNL     1      24.876  44.497   6.507  1.00  0.00     0.047 A 
ATOM      3  C   UNL     1      25.976  44.898   5.740  1.00  0.00     0.119 A 
ATOM      4  C   UNL     1      26.371  44.137   4.630  1.00  0.00     0.094 A 
ATOM      5  C   UNL     1      25.667  42.976   4.289  1.00  0.00     0.142 A 
ATOM      6  C   UNL     1      24.558  42.575   5.066  1.00  0.00     0.018 A 
ATOM      7  C   UNL     1      23.875  41.411   4.700  1.00  0.00     0.019 A 
ATOM      8  C   UNL     1      24.304  40.686   3.589  1.00  0.00     0.094 A 
ATOM      9  C   UNL     1      25.411  41.144   2.866  1.00  0.00     0.336 A 
ATOM     10  O   UNL     1      25.813  40.504   1.860  1.00  0.00    -0.246 OA
ATOM     11  O   UNL     1      26.044  42.255   3.235  1.00  0.00    -0.423 OA
ENDROOT
BRANCH   3  12
ATOM     12  O   UNL     1      26.669  46.056   6.088  1.00  0.00    -0.508 OA
ATOM     13  H   UNL     1      26.958  46.234   7.044  1.00  0.00     0.293 HD
ENDBRANCH   3  12
TORSDOF 1
ENDMDL
MODEL 8
REMARK VINA RESULT:    -3.897     15.275     17.043
REMARK INTER + INTRA:          -4.010
REMARK INTER:                  -4.010
REMARK INTRA:                   0.000
REMARK UNBOUND:                 0.000
REMARK SMILES O=c1ccc2ccc(O)cc2o1
REMARK SMILES IDX 6 1 7 2 8 3 10 4 11 5 5 6 4 7 3 8 2 9 1 10 12 11 9 12
REMARK H PARENT 9 13
REMARK Flexibility Score: inf
ROOT
ATOM      1  C   UNL     1      42.604  32.629  -0.642  1.00  0.00     0.016 A 
ATOM      2  C   UNL     1      41.434  32.964  -1.332  1.00  0.00     0.047 A 
ATOM      3  C   UNL     1      40.261  33.267  -0.630  1.00  0.00     0.119 A 
ATOM      4  C   UNL     1      40.257  33.236   0.773  1.00  0.00     0.094 A 
ATOM      5  C   UNL     1      41.423  32.903   1.471  1.00  0.00     0.142 A 
ATOM      6  C   UNL     1      42.604  32.598   0.759  1.00  0.00     0.018 A 
ATOM      7  C   UNL     1      43.752  32.267   1.485  1.00  0.00     0.019 A 
ATOM      8  C   UNL     1      43.700  32.250   2.879  1.00  0.00     0.094 A 
ATOM      9  C   UNL     1      42.495  32.564   3.516  1.00  0.00     0.336 A 
ATOM     10  O   UNL     1      42.428  32.553   4.773  1.00  0.00    -0.246 OA
ATOM     11  O   UNL     1      41.416  32.874   2.802  1.00  0.00    -0.423 OA
ENDROOT
BRANCH   3  12
ATOM     12  O   UNL     1      39.106  33.599  -1.335  1.00  0.00    -0.508 OA
ATOM     13  H   UNL     1      38.372  34.159  -0.916  1.00  0.00     0.293 HD
ENDBRANCH   3  12
TORSDOF 1
ENDMDL
