MODEL 1
REMARK VINA RESULT:    -5.483      0.000      0.000
REMARK INTER + INTRA:          -6.417
REMARK INTER:                  -6.284
REMARK INTRA:                  -0.133
REMARK UNBOUND:                -0.133
REMARK SMILES O=C([O-])C=Cc1ccc(O)cc1
REMARK SMILES IDX 6 1 7 2 12 3 8 4 11 5 9 6 5 7 4 8 2 9 1 10 3 11 10 12
REMARK H PARENT 10 13
REMARK Flexibility Score: inf
ROOT
ATOM      1  C   UNL     1      10.625   9.450  13.597  1.00  0.00    -0.025 A 
ATOM      2  C   UNL     1      10.196   9.848  14.882  1.00  0.00     0.012 A 
ATOM      3  C   UNL     1       9.659   9.022  12.668  1.00  0.00     0.012 A 
ATOM      4  C   UNL     1       8.839   9.815  15.218  1.00  0.00     0.047 A 
ATOM      5  C   UNL     1       8.304   8.992  13.009  1.00  0.00     0.047 A 
ATOM      6  C   UNL     1       7.889   9.388  14.282  1.00  0.00     0.115 A 
ENDROOT
BRANCH   1   7
ATOM      7  C   UNL     1      12.051   9.458  13.171  1.00  0.00     0.010 C 
ATOM      8  C   UNL     1      13.100   9.443  14.007  1.00  0.00     0.025 C 
BRANCH   8   9
ATOM      9  C   UNL     1      14.490   9.453  13.521  1.00  0.00     0.064 C 
ATOM     10  O   UNL     1      15.120  10.534  13.364  1.00  0.00    -0.545 OA
ATOM     11  O   UNL     1      15.120   8.250  13.228  1.00  0.00    -0.545 OA
ENDBRANCH   8   9
ENDBRANCH   1   7
BRANCH   6  12
ATOM     12  O   UNL     1       6.536   9.353  14.609  1.00  0.00    -0.508 OA
ATOM     13  H   UNL     1       6.223   9.134  15.547  1.00  0.00     0.293 HD
ENDBRANCH   6  12
TORSDOF 3
ENDMDL
MODEL 2
REMARK VINA RESULT:    -5.466      0.113      1.401
REMARK INTER + INTRA:          -6.398
REMARK INTER:                  -6.252
REMARK INTRA:                  -0.146
REMARK UNBOUND:                -0.133
REMARK SMILES O=C([O-])C=Cc1ccc(O)cc1
REMARK SMILES IDX 6 1 7 2 12 3 8 4 11 5 9 6 5 7 4 8 2 9 1 10 3 11 10 12
REMARK H PARENT 10 13
REMARK Flexibility Score: inf
ROOT
ATOM      1  C   UNL     1      10.595   9.409  13.430  1.00  0.00    -0.025 A 
ATOM      2  C   UNL     1       9.592   8.962  12.544  1.00  0.00     0.012 A 
ATOM      3  C   UNL     1      10.212   9.853  14.709  1.00  0.00     0.012 A 
ATOM      4  C   UNL     1       8.248   8.962  12.933  1.00  0.00     0.047 A 
ATOM      5  C   UNL     1       8.869   9.850  15.095  1.00  0.00     0.047 A 
ATOM      6  C   UNL     1       7.883   9.405  14.210  1.00  0.00     0.115 A 
ENDROOT
BRANCH   1   7
ATOM      7  C   UNL     1      12.041   9.437  13.083  1.00  0.00     0.010 C 
ATOM      8  C   UNL     1      13.044   9.447  13.976  1.00  0.00     0.025 C 
BRANCH   8   9
ATOM      9  C   UNL     1      14.458   9.476  13.566  1.00  0.00     0.064 C 
ATOM     10  O   UNL     1      15.074  10.566  13.421  1.00  0.00    -0.545 OA
ATOM     11  O   UNL     1      15.126   8.281  13.332  1.00  0.00    -0.545 OA
ENDBRANCH   8   9
ENDBRANCH   1   7
BRANCH   6  12
ATOM     12  O   UNL     1       6.549   9.408  14.607  1.00  0.00    -0.508 OA
ATOM     13  H   UNL     1       6.284   9.556  15.573  1.00  0.00     0.293 HD
ENDBRANCH   6  12
TORSDOF 3
ENDMDL
MODEL 3
REMARK VINA RESULT:    -5.007      1.817      2.310
REMARK INTER + INTRA:          -5.872
REMARK INTER:                  -5.738
REMARK INTRA:                  -0.134
REMARK UNBOUND:                -0.133
REMARK SMILES O=C([O-])C=Cc1ccc(O)cc1
REMARK SMILES IDX 6 1 7 2 12 3 8 4 11 5 9 6 5 7 4 8 2 9 1 10 3 11 10 12
REMARK H PARENT 10 13
REMARK Flexibility Score: inf
ROOT
ATOM      1  C   UNL     1      12.052  10.248  13.541  1.00  0.00    -0.025 A 
ATOM      2  C   UNL     1      12.012  11.578  14.013  1.00  0.00     0.012 A 
ATOM      3  C   UNL     1      11.003   9.378  13.894  1.00  0.00     0.012 A 
ATOM      4  C   UNL     1      10.950  12.016  14.813  1.00  0.00     0.047 A 
ATOM      5  C   UNL     1       9.945   9.821  14.692  1.00  0.00     0.047 A 
ATOM      6  C   UNL     1       9.914  11.139  15.154  1.00  0.00     0.115 A 
ENDROOT
BRANCH   1   7
ATOM      7  C   UNL     1      13.148   9.715  12.689  1.00  0.00     0.010 C 
ATOM      8  C   UNL     1      14.149   8.935  13.127  1.00  0.00     0.025 C 
BRANCH   8   9
ATOM      9  C   UNL     1      15.207   8.440  12.230  1.00  0.00     0.064 C 
ATOM     10  O   UNL     1      15.841   9.223  11.473  1.00  0.00    -0.545 OA
ATOM     11  O   UNL     1      15.512   7.084  12.218  1.00  0.00    -0.545 OA
ENDBRANCH   8   9
ENDBRANCH   1   7
BRANCH   6  12
ATOM     12  O   UNL     1       8.854  11.566  15.949  1.00  0.00    -0.508 OA
ATOM     13  H   UNL     1       8.713  11.202  16.883  1.00  0.00     0.293 HD
ENDBRANCH   6  12
TORSDOF 3
ENDMDL
MODEL 4
REMARK VINA RESULT:    -4.764      1.629      5.959
REMARK INTER + INTRA:          -5.594
REMARK INTER:                  -5.455
REMARK INTRA:                  -0.139
REMARK UNBOUND:                -0.133
REMARK SMILES O=C([O-])C=Cc1ccc(O)cc1
REMARK SMILES IDX 6 1 7 2 12 3 8 4 11 5 9 6 5 7 4 8 2 9 1 10 3 11 10 12
REMARK H PARENT 10 13
REMARK Flexibility Score: inf
ROOT
ATOM      1  C   UNL     1      12.492   9.778  12.938  1.00  0.00    -0.025 A 
ATOM      2  C   UNL     1      12.813   9.709  11.565  1.00  0.00     0.012 A 
ATOM      3  C   UNL     1      13.448   9.342  13.874  1.00  0.00     0.012 A 
ATOM      4  C   UNL     1      14.056   9.219  11.150  1.00  0.00     0.047 A 
ATOM      5  C   UNL     1      14.689   8.854  13.455  1.00  0.00     0.047 A 
ATOM      6  C   UNL     1      14.997   8.791  12.094  1.00  0.00     0.115 A 
ENDROOT
BRANCH   1   7
ATOM      7  C   UNL     1      11.191  10.286  13.449  1.00  0.00     0.010 C 
ATOM      8  C   UNL     1      10.380   9.614  14.281  1.00  0.00     0.025 C 
BRANCH   8   9
ATOM      9  C   UNL     1       9.101  10.175  14.751  1.00  0.00     0.064 C 
ATOM     10  O   UNL     1       8.004   9.615  14.481  1.00  0.00    -0.545 OA
ATOM     11  O   UNL     1       9.103  11.342  15.505  1.00  0.00    -0.545 OA
ENDBRANCH   8   9
ENDBRANCH   1   7
BRANCH   6  12
ATOM     12  O   UNL     1      16.237   8.302  11.690  1.00  0.00    -0.508 OA
ATOM     13  H   UNL     1      16.355   7.821  10.807  1.00  0.00     0.293 HD
ENDBRANCH   6  12
TORSDOF 3
ENDMDL
MODEL 5
REMARK VINA RESULT:    -4.684      1.253      2.150
REMARK INTER + INTRA:          -5.501
REMARK INTER:                  -5.371
REMARK INTRA:                  -0.130
REMARK UNBOUND:                -0.133
REMARK SMILES O=C([O-])C=Cc1ccc(O)cc1
REMARK SMILES IDX 6 1 7 2 12 3 8 4 11 5 9 6 5 7 4 8 2 9 1 10 3 11 10 12
REMARK H PARENT 10 13
REMARK Flexibility Score: inf
ROOT
ATOM      1  C   UNL     1      11.455   9.889  13.338  1.00  0.00    -0.025 A 
ATOM      2  C   UNL     1      10.416   9.353  12.546  1.00  0.00     0.012 A 
ATOM      3  C   UNL     1      11.213  10.101  14.708  1.00  0.00     0.012 A 
ATOM      4  C   UNL     1       9.176   9.043  13.116  1.00  0.00     0.047 A 
ATOM      5  C   UNL     1       9.974   9.789  15.273  1.00  0.00     0.047 A 
ATOM      6  C   UNL     1       8.953   9.259  14.481  1.00  0.00     0.115 A 
ENDROOT
BRANCH   1   7
ATOM      7  C   UNL     1      12.795  10.242  12.800  1.00  0.00     0.010 C 
ATOM      8  C   UNL     1      13.719   9.354  12.400  1.00  0.00     0.025 C 
BRANCH   8   9
ATOM      9  C   UNL     1      15.031   9.770  11.875  1.00  0.00     0.064 C 
ATOM     10  O   UNL     1      15.899   8.920  11.539  1.00  0.00    -0.545 OA
ATOM     11  O   UNL     1      15.319  11.124  11.751  1.00  0.00    -0.545 OA
ENDBRANCH   8   9
ENDBRANCH   1   7
BRANCH   6  12
ATOM     12  O   UNL     1       7.722   8.953  15.056  1.00  0.00    -0.508 OA
ATOM     13  H   UNL     1       7.331   9.517  15.802  1.00  0.00     0.293 HD
ENDBRANCH   6  12
TORSDOF 3
ENDMDL
MODEL 6
REMARK VINA RESULT:    -4.396      5.024      7.115
REMARK INTER + INTRA:          -5.171
REMARK INTER:                  -5.032
REMARK INTRA:                  -0.139
REMARK UNBOUND:                -0.133
REMARK SMILES O=C([O-])C=Cc1ccc(O)cc1
REMARK SMILES IDX 6 1 7 2 12 3 8 4 11 5 9 6 5 7 4 8 2 9 1 10 3 11 10 12
REMARK H PARENT 10 13
REMARK Flexibility Score: inf
ROOT
ATOM      1  C   UNL     1      15.623   5.853  12.734  1.00  0.00    -0.025 A 
ATOM      2  C   UNL     1      15.192   4.783  11.920  1.00  0.00     0.012 A 
ATOM      3  C   UNL     1      16.120   5.563  14.018  1.00  0.00     0.012 A 
ATOM      4  C   UNL     1      15.262   3.465  12.385  1.00  0.00     0.047 A 
ATOM      5  C   UNL     1      16.188   4.245  14.478  1.00  0.00     0.047 A 
ATOM      6  C   UNL     1      15.761   3.193  13.664  1.00  0.00     0.115 A 
ENDROOT
BRANCH   1   7
ATOM      7  C   UNL     1      15.576   7.277  12.306  1.00  0.00     0.010 C 
ATOM      8  C   UNL     1      14.983   8.265  12.993  1.00  0.00     0.025 C 
BRANCH   8   9
ATOM      9  C   UNL     1      14.971   9.657  12.513  1.00  0.00     0.064 C 
ATOM     10  O   UNL     1      16.042  10.258  12.226  1.00  0.00    -0.545 OA
ATOM     11  O   UNL     1      13.759  10.322  12.374  1.00  0.00    -0.545 OA
ENDBRANCH   8   9
ENDBRANCH   1   7
BRANCH   6  12
ATOM     12  O   UNL     1      15.834   1.884  14.135  1.00  0.00    -0.508 OA
ATOM     13  H   UNL     1      16.146   1.125  13.542  1.00  0.00     0.293 HD
ENDBRANCH   6  12
TORSDOF 3
ENDMDL
MODEL 7
REMARK VINA RESULT:    -4.223     11.941     13.487
REMARK INTER + INTRA:          -4.973
REMARK INTER:                  -4.825
REMARK INTRA:                  -0.149
REMARK UNBOUND:                -0.133
REMARK SMILES O=C([O-])C=Cc1ccc(O)cc1
REMARK SMILES IDX 6 1 7 2 12 3 8 4 11 5 9 6 5 7 4 8 2 9 1 10 3 11 10 12
REMARK H PARENT 10 13
REMARK Flexibility Score: inf
ROOT
ATOM      1  C   UNL     1       4.746   6.312  24.486  1.00  0.00    -0.025 A 
ATOM      2  C   UNL     1       5.131   5.011  24.097  1.00  0.00     0.012 A 
ATOM      3  C   UNL     1       3.930   7.059  23.618  1.00  0.00     0.012 A 
ATOM      4  C   UNL     1       4.707   4.481  22.873  1.00  0.00     0.047 A 
ATOM      5  C   UNL     1       3.508   6.526  22.397  1.00  0.00     0.047 A 
ATOM      6  C   UNL     1       3.894   5.237  22.021  1.00  0.00     0.115 A 
ENDROOT
BRANCH   1   7
ATOM      7  C   UNL     1       5.160   6.938  25.771  1.00  0.00     0.010 C 
ATOM      8  C   UNL     1       4.748   8.139  26.205  1.00  0.00     0.025 C 
BRANCH   8   9
ATOM      9  C   UNL     1       5.197   8.705  27.489  1.00  0.00     0.064 C 
ATOM     10  O   UNL     1       4.708   8.311  28.582  1.00  0.00    -0.545 OA
ATOM     11  O   UNL     1       6.175   9.691  27.496  1.00  0.00    -0.545 OA
ENDBRANCH   8   9
ENDBRANCH   1   7
BRANCH   6  12
ATOM     12  O   UNL     1       3.467   4.718  20.801  1.00  0.00    -0.508 OA
ATOM     13  H   UNL     1       2.590   4.220  20.716  1.00  0.00     0.293 HD
ENDBRANCH   6  12
TORSDOF 3
ENDMDL
MODEL 8
REMARK VINA RESULT:    -4.147     15.883     16.680
REMARK INTER + INTRA:          -4.886
REMARK INTER:                  -4.754
REMARK INTRA:                  -0.132
REMARK UNBOUND:                -0.133
REMARK SMILES O=C([O-])C=Cc1ccc(O)cc1
REMARK SMILES IDX 6 1 7 2 12 3 8 4 11 5 9 6 5 7 4 8 2 9 1 10 3 11 10 12
REMARK H PARENT 10 13
REMARK Flexibility Score: inf
ROOT
ATOM      1  C   UNL     1      17.433  -5.637  16.624  1.00  0.00    -0.025 A 
ATOM      2  C   UNL     1      16.475  -4.908  17.362  1.00  0.00     0.012 A 
ATOM      3  C   UNL     1      17.003  -6.749  15.878  1.00  0.00     0.012 A 
ATOM      4  C   UNL     1      15.129  -5.288  17.348  1.00  0.00     0.047 A 
ATOM      5  C   UNL     1      15.657  -7.125  15.866  1.00  0.00     0.047 A 
ATOM      6  C   UNL     1      14.716  -6.397  16.599  1.00  0.00     0.115 A 
ENDROOT
BRANCH   1   7
ATOM      7  C   UNL     1      18.880  -5.291  16.594  1.00  0.00     0.010 C 
ATOM      8  C   UNL     1      19.542  -4.677  17.587  1.00  0.00     0.025 C 
BRANCH   8   9
ATOM      9  C   UNL     1      20.977  -4.361  17.495  1.00  0.00     0.064 C 
ATOM     10  O   UNL     1      21.816  -4.903  18.263  1.00  0.00    -0.545 OA
ATOM     11  O   UNL     1      21.415  -3.446  16.545  1.00  0.00    -0.545 OA
ENDBRANCH   8   9
ENDBRANCH   1   7
BRANCH   6  12
ATOM     12  O   UNL     1      13.378  -6.782  16.579  1.00  0.00    -0.508 OA
ATOM     13  H   UNL     1      12.881  -7.015  17.430  1.00  0.00     0.293 HD
ENDBRANCH   6  12
TORSDOF 3
ENDMDL
MODEL 9
REMARK VINA RESULT:    -4.079     12.562     13.258
REMARK INTER + INTRA:          -4.808
REMARK INTER:                  -4.664
REMARK INTRA:                  -0.144
REMARK UNBOUND:                -0.133
REMARK SMILES O=C([O-])C=Cc1ccc(O)cc1
REMARK SMILES IDX 6 1 7 2 12 3 8 4 11 5 9 6 5 7 4 8 2 9 1 10 3 11 10 12
REMARK H PARENT 10 13
REMARK Flexibility Score: inf
ROOT
ATOM      1  C   UNL     1       4.368   5.199  23.528  1.00  0.00    -0.025 A 
ATOM      2  C   UNL     1       4.777   3.859  23.700  1.00  0.00     0.012 A 
ATOM      3  C   UNL     1       3.544   5.515  22.431  1.00  0.00     0.012 A 
ATOM      4  C   UNL     1       4.369   2.870  22.797  1.00  0.00     0.047 A 
ATOM      5  C   UNL     1       3.139   4.524  21.533  1.00  0.00     0.047 A 
ATOM      6  C   UNL     1       3.548   3.200  21.712  1.00  0.00     0.115 A 
ENDROOT
BRANCH   1   7
ATOM      7  C   UNL     1       4.764   6.300  24.446  1.00  0.00     0.010 C 
ATOM      8  C   UNL     1       3.962   7.307  24.826  1.00  0.00     0.025 C 
BRANCH   8   9
ATOM      9  C   UNL     1       4.416   8.369  25.740  1.00  0.00     0.064 C 
ATOM     10  O   UNL     1       5.211   8.121  26.686  1.00  0.00    -0.545 OA
ATOM     11  O   UNL     1       3.958   9.668  25.557  1.00  0.00    -0.545 OA
ENDBRANCH   8   9
ENDBRANCH   1   7
BRANCH   6  12
ATOM     12  O   UNL     1       3.137   2.224  20.809  1.00  0.00    -0.508 OA
ATOM     13  H   UNL     1       2.806   2.464  19.883  1.00  0.00     0.293 HD
ENDBRANCH   6  12
TORSDOF 3
ENDMDL
