MODEL 1
REMARK VINA RESULT:    -6.324      0.000      0.000
REMARK INTER + INTRA:         -10.812
REMARK INTER:                  -8.728
REMARK INTRA:                  -2.084
REMARK UNBOUND:                -2.084
REMARK SMILES CC[C@@H](CC[C@@H](C)[C@@H]1CC[C@H]2[C@H]3CC=C4C[C@H](O)CC[C@@]4(C)[C@@H]3CC[C@]21C)C(C)C
REMARK SMILES IDX 5 1 4 2 3 3 2 4 1 5 28 6 29 7 30 8 6 9 7 10 8 11 9 12 26 13
REMARK SMILES IDX 10 14 11 15 25 16 27 17 12 18 24 19 23 20 13 21 21 22 14 23
REMARK SMILES IDX 15 24 20 25 22 26 16 27 19 28 17 29 18 30
REMARK H PARENT 18 31
REMARK Flexibility Score: inf
ROOT
ATOM      1  C   UNL     1     130.867 142.857 106.841  1.00  0.00     0.004 C 
ENDROOT
BRANCH   1   2
ATOM      2  C   UNL     1     130.121 143.275 105.547  1.00  0.00     0.004 C 
BRANCH   2   3
ATOM      3  C   UNL     1     128.668 142.713 105.452  1.00  0.00    -0.009 C 
BRANCH   3   4
ATOM      4  C   UNL     1     127.617 143.854 105.354  1.00  0.00     0.000 C 
ATOM      5  C   UNL     1     128.240 145.250 105.383  1.00  0.00     0.004 C 
ENDBRANCH   3   4
BRANCH   3   6
ATOM      6  C   UNL     1     128.378 141.731 106.635  1.00  0.00    -0.014 C 
ATOM      7  C   UNL     1     127.253 142.216 107.565  1.00  0.00     0.007 C 
ATOM      8  C   UNL     1     128.090 140.299 106.155  1.00  0.00     0.007 C 
ENDBRANCH   3   6
ENDBRANCH   2   3
ENDBRANCH   1   2
BRANCH   1   9
ATOM      9  C   UNL     1     131.158 144.046 107.804  1.00  0.00    -0.011 C 
ATOM     10  C   UNL     1     131.695 145.223 106.962  1.00  0.00     0.008 C 
BRANCH   9  11
ATOM     11  C   UNL     1     129.876 144.378 108.674  1.00  0.00    -0.002 C 
ATOM     12  C   UNL     1     129.536 145.888 108.751  1.00  0.00     0.005 C 
ATOM     13  C   UNL     1     129.976 143.970 110.193  1.00  0.00    -0.026 C 
ATOM     14  C   UNL     1     130.097 146.413 110.070  1.00  0.00     0.005 C 
ATOM     15  C   UNL     1     130.654 145.200 110.835  1.00  0.00    -0.001 C 
ATOM     16  C   UNL     1     128.532 143.791 110.767  1.00  0.00     0.007 C 
ATOM     17  C   UNL     1     130.786 142.672 110.479  1.00  0.00     0.012 C 
ATOM     18  C   UNL     1     130.535 145.275 112.391  1.00  0.00     0.000 C 
ATOM     19  C   UNL     1     128.486 143.769 112.297  1.00  0.00     0.005 C 
ATOM     20  C   UNL     1     129.092 145.056 112.912  1.00  0.00     0.003 C 
ATOM     21  C   UNL     1     131.110 146.598 112.924  1.00  0.00     0.031 C 
ATOM     22  C   UNL     1     129.025 145.078 114.494  1.00  0.00    -0.008 C 
ATOM     23  C   UNL     1     130.881 146.795 114.393  1.00  0.00    -0.027 C 
ATOM     24  C   UNL     1     129.856 146.237 115.069  1.00  0.00    -0.065 C 
ATOM     25  C   UNL     1     127.539 145.271 114.930  1.00  0.00     0.014 C 
ATOM     26  C   UNL     1     129.571 143.756 115.105  1.00  0.00     0.016 C 
ATOM     27  C   UNL     1     129.647 146.641 116.518  1.00  0.00     0.063 C 
ATOM     28  C   UNL     1     127.365 145.573 116.426  1.00  0.00     0.033 C 
ATOM     29  C   UNL     1     128.159 146.822 116.830  1.00  0.00     0.118 C 
BRANCH  29  30
ATOM     30  O   UNL     1     128.008 147.056 118.205  1.00  0.00    -0.393 OA
ATOM     31  H   UNL     1     128.922 147.156 118.581  1.00  0.00     0.210 HD
ENDBRANCH  29  30
ENDBRANCH   9  11
ENDBRANCH   1   9
TORSDOF 7
ENDMDL
MODEL 2
REMARK VINA RESULT:    -6.079      1.847      3.121
REMARK INTER + INTRA:         -10.473
REMARK INTER:                  -8.811
REMARK INTRA:                  -1.661
REMARK UNBOUND:                -2.084
REMARK SMILES CC[C@@H](CC[C@@H](C)[C@@H]1CC[C@H]2[C@H]3CC=C4C[C@H](O)CC[C@@]4(C)[C@@H]3CC[C@]21C)C(C)C
REMARK SMILES IDX 5 1 4 2 3 3 2 4 1 5 28 6 29 7 30 8 6 9 7 10 8 11 9 12 26 13
REMARK SMILES IDX 10 14 11 15 25 16 27 17 12 18 24 19 23 20 13 21 21 22 14 23
REMARK SMILES IDX 15 24 20 25 22 26 16 27 19 28 17 29 18 30
REMARK H PARENT 18 31
REMARK Flexibility Score: inf
ROOT
ATOM      1  C   UNL     1     129.738 145.377 108.026  1.00  0.00     0.004 C 
ENDROOT
BRANCH   1   2
ATOM      2  C   UNL     1     128.949 145.593 106.709  1.00  0.00     0.004 C 
BRANCH   2   3
ATOM      3  C   UNL     1     128.826 144.306 105.835  1.00  0.00    -0.009 C 
BRANCH   3   4
ATOM      4  C   UNL     1     127.568 144.351 104.922  1.00  0.00     0.000 C 
ATOM      5  C   UNL     1     126.877 145.715 104.917  1.00  0.00     0.004 C 
ENDBRANCH   3   4
BRANCH   3   6
ATOM      6  C   UNL     1     128.871 143.024 106.730  1.00  0.00    -0.014 C 
ATOM      7  C   UNL     1     127.477 142.458 107.051  1.00  0.00     0.007 C 
ATOM      8  C   UNL     1     129.768 141.925 106.139  1.00  0.00     0.007 C 
ENDBRANCH   3   6
ENDBRANCH   2   3
ENDBRANCH   1   2
BRANCH   1   9
ATOM      9  C   UNL     1     128.864 145.526 109.307  1.00  0.00    -0.011 C 
ATOM     10  C   UNL     1     127.401 145.747 108.866  1.00  0.00     0.008 C 
BRANCH   9  11
ATOM     11  C   UNL     1     129.089 144.291 110.275  1.00  0.00    -0.002 C 
ATOM     12  C   UNL     1     127.791 143.530 110.644  1.00  0.00     0.005 C 
ATOM     13  C   UNL     1     129.691 144.649 111.686  1.00  0.00    -0.026 C 
ATOM     14  C   UNL     1     127.344 144.034 112.014  1.00  0.00     0.005 C 
ATOM     15  C   UNL     1     128.436 144.992 112.518  1.00  0.00    -0.001 C 
ATOM     16  C   UNL     1     130.396 143.384 112.275  1.00  0.00     0.007 C 
ATOM     17  C   UNL     1     130.707 145.829 111.693  1.00  0.00     0.012 C 
ATOM     18  C   UNL     1     128.659 145.005 114.064  1.00  0.00     0.000 C 
ATOM     19  C   UNL     1     130.683 143.491 113.774  1.00  0.00     0.005 C 
ATOM     20  C   UNL     1     129.393 143.747 114.593  1.00  0.00     0.003 C 
ATOM     21  C   UNL     1     127.330 145.213 114.810  1.00  0.00     0.031 C 
ATOM     22  C   UNL     1     129.653 143.826 116.153  1.00  0.00    -0.008 C 
ATOM     23  C   UNL     1     127.458 145.077 116.299  1.00  0.00    -0.027 C 
ATOM     24  C   UNL     1     128.407 144.329 116.900  1.00  0.00    -0.065 C 
ATOM     25  C   UNL     1     130.000 142.397 116.677  1.00  0.00     0.014 C 
ATOM     26  C   UNL     1     130.826 144.792 116.486  1.00  0.00     0.016 C 
ATOM     27  C   UNL     1     128.331 144.149 118.406  1.00  0.00     0.063 C 
ATOM     28  C   UNL     1     130.017 142.284 118.209  1.00  0.00     0.033 C 
ATOM     29  C   UNL     1     128.669 142.710 118.806  1.00  0.00     0.118 C 
BRANCH  29  30
ATOM     30  O   UNL     1     128.723 142.628 120.205  1.00  0.00    -0.393 OA
ATOM     31  H   UNL     1     129.679 142.709 120.461  1.00  0.00     0.210 HD
ENDBRANCH  29  30
ENDBRANCH   9  11
ENDBRANCH   1   9
TORSDOF 7
ENDMDL
MODEL 3
REMARK VINA RESULT:    -6.052      5.031      7.593
REMARK INTER + INTRA:         -10.436
REMARK INTER:                  -8.367
REMARK INTRA:                  -2.069
REMARK UNBOUND:                -2.084
REMARK SMILES CC[C@@H](CC[C@@H](C)[C@@H]1CC[C@H]2[C@H]3CC=C4C[C@H](O)CC[C@@]4(C)[C@@H]3CC[C@]21C)C(C)C
REMARK SMILES IDX 5 1 4 2 3 3 2 4 1 5 28 6 29 7 30 8 6 9 7 10 8 11 9 12 26 13
REMARK SMILES IDX 10 14 11 15 25 16 27 17 12 18 24 19 23 20 13 21 21 22 14 23
REMARK SMILES IDX 15 24 20 25 22 26 16 27 19 28 17 29 18 30
REMARK H PARENT 18 31
REMARK Flexibility Score: inf
ROOT
ATOM      1  C   UNL     1     127.567 142.489 105.676  1.00  0.00     0.004 C 
ENDROOT
BRANCH   1   2
ATOM      2  C   UNL     1     127.311 142.249 107.186  1.00  0.00     0.004 C 
BRANCH   2   3
ATOM      3  C   UNL     1     127.787 140.849 107.687  1.00  0.00    -0.009 C 
BRANCH   3   4
ATOM      4  C   UNL     1     128.621 140.961 108.994  1.00  0.00     0.000 C 
ATOM      5  C   UNL     1     128.367 142.261 109.760  1.00  0.00     0.004 C 
ENDBRANCH   3   4
BRANCH   3   6
ATOM      6  C   UNL     1     128.550 140.087 106.554  1.00  0.00    -0.014 C 
ATOM      7  C   UNL     1     129.908 139.525 107.007  1.00  0.00     0.007 C 
ATOM      8  C   UNL     1     127.700 138.975 105.917  1.00  0.00     0.007 C 
ENDBRANCH   3   6
ENDBRANCH   2   3
ENDBRANCH   1   2
BRANCH   1   9
ATOM      9  C   UNL     1     128.490 143.710 105.386  1.00  0.00    -0.011 C 
ATOM     10  C   UNL     1     127.593 144.905 104.997  1.00  0.00     0.008 C 
BRANCH   9  11
ATOM     11  C   UNL     1     129.457 143.974 106.613  1.00  0.00    -0.002 C 
ATOM     12  C   UNL     1     129.580 145.465 107.015  1.00  0.00     0.005 C 
ATOM     13  C   UNL     1     130.958 143.554 106.382  1.00  0.00    -0.026 C 
ATOM     14  C   UNL     1     130.861 146.001 106.380  1.00  0.00     0.005 C 
ATOM     15  C   UNL     1     131.565 144.807 105.714  1.00  0.00    -0.001 C 
ATOM     16  C   UNL     1     131.636 143.303 107.769  1.00  0.00     0.007 C 
ATOM     17  C   UNL     1     131.165 142.291 105.495  1.00  0.00     0.012 C 
ATOM     18  C   UNL     1     133.128 144.859 105.719  1.00  0.00     0.000 C 
ATOM     19  C   UNL     1     133.164 143.262 107.700  1.00  0.00     0.005 C 
ATOM     20  C   UNL     1     133.751 144.568 107.108  1.00  0.00     0.003 C 
ATOM     21  C   UNL     1     133.635 146.201 105.166  1.00  0.00     0.031 C 
ATOM     22  C   UNL     1     135.334 144.570 107.057  1.00  0.00    -0.008 C 
ATOM     23  C   UNL     1     135.120 146.371 105.293  1.00  0.00    -0.027 C 
ATOM     24  C   UNL     1     135.862 145.759 106.239  1.00  0.00    -0.065 C 
ATOM     25  C   UNL     1     135.882 144.690 108.514  1.00  0.00     0.014 C 
ATOM     26  C   UNL     1     135.884 143.267 106.408  1.00  0.00     0.016 C 
ATOM     27  C   UNL     1     137.328 146.138 106.356  1.00  0.00     0.063 C 
ATOM     28  C   UNL     1     137.391 144.967 108.589  1.00  0.00     0.033 C 
ATOM     29  C   UNL     1     137.753 146.247 107.823  1.00  0.00     0.118 C 
BRANCH  29  30
ATOM     30  O   UNL     1     139.138 146.459 107.882  1.00  0.00    -0.393 OA
ATOM     31  H   UNL     1     139.553 145.817 107.247  1.00  0.00     0.210 HD
ENDBRANCH  29  30
ENDBRANCH   9  11
ENDBRANCH   1   9
TORSDOF 7
ENDMDL
MODEL 4
REMARK VINA RESULT:    -5.897      6.745     10.133
REMARK INTER + INTRA:         -10.222
REMARK INTER:                  -9.335
REMARK INTRA:                  -0.887
REMARK UNBOUND:                -2.084
REMARK SMILES CC[C@@H](CC[C@@H](C)[C@@H]1CC[C@H]2[C@H]3CC=C4C[C@H](O)CC[C@@]4(C)[C@@H]3CC[C@]21C)C(C)C
REMARK SMILES IDX 5 1 4 2 3 3 2 4 1 5 28 6 29 7 30 8 6 9 7 10 8 11 9 12 26 13
REMARK SMILES IDX 10 14 11 15 25 16 27 17 12 18 24 19 23 20 13 21 21 22 14 23
REMARK SMILES IDX 15 24 20 25 22 26 16 27 19 28 17 29 18 30
REMARK H PARENT 18 31
REMARK Flexibility Score: inf
ROOT
ATOM      1  C   UNL     1     131.411 145.367 106.006  1.00  0.00     0.004 C 
ENDROOT
BRANCH   1   2
ATOM      2  C   UNL     1     130.081 144.574 106.073  1.00  0.00     0.004 C 
BRANCH   2   3
ATOM      3  C   UNL     1     128.841 145.459 106.413  1.00  0.00    -0.009 C 
BRANCH   3   4
ATOM      4  C   UNL     1     128.653 145.616 107.949  1.00  0.00     0.000 C 
ATOM      5  C   UNL     1     127.185 145.717 108.367  1.00  0.00     0.004 C 
ENDBRANCH   3   4
BRANCH   3   6
ATOM      6  C   UNL     1     127.559 144.909 105.706  1.00  0.00    -0.014 C 
ATOM      7  C   UNL     1     126.880 145.941 104.789  1.00  0.00     0.007 C 
ATOM      8  C   UNL     1     127.825 143.606 104.935  1.00  0.00     0.007 C 
ENDBRANCH   3   6
ENDBRANCH   2   3
ENDBRANCH   1   2
BRANCH   1   9
ATOM      9  C   UNL     1     132.678 144.467 106.105  1.00  0.00    -0.011 C 
ATOM     10  C   UNL     1     132.299 143.051 105.619  1.00  0.00     0.008 C 
BRANCH   9  11
ATOM     11  C   UNL     1     133.891 145.134 105.333  1.00  0.00    -0.002 C 
ATOM     12  C   UNL     1     134.575 144.203 104.300  1.00  0.00     0.005 C 
ATOM     13  C   UNL     1     135.097 145.582 106.244  1.00  0.00    -0.026 C 
ATOM     14  C   UNL     1     135.818 143.620 104.969  1.00  0.00     0.005 C 
ATOM     15  C   UNL     1     135.948 144.298 106.343  1.00  0.00    -0.001 C 
ATOM     16  C   UNL     1     135.900 146.704 105.508  1.00  0.00     0.007 C 
ATOM     17  C   UNL     1     134.702 146.103 107.657  1.00  0.00     0.012 C 
ATOM     18  C   UNL     1     137.410 144.519 106.848  1.00  0.00     0.000 C 
ATOM     19  C   UNL     1     137.286 146.950 106.108  1.00  0.00     0.005 C 
ATOM     20  C   UNL     1     138.151 145.664 106.113  1.00  0.00     0.003 C 
ATOM     21  C   UNL     1     138.220 143.214 106.778  1.00  0.00     0.031 C 
ATOM     22  C   UNL     1     139.605 145.896 106.695  1.00  0.00    -0.008 C 
ATOM     23  C   UNL     1     139.673 143.400 107.100  1.00  0.00    -0.027 C 
ATOM     24  C   UNL     1     140.334 144.562 106.918  1.00  0.00    -0.065 C 
ATOM     25  C   UNL     1     140.426 146.742 105.671  1.00  0.00     0.014 C 
ATOM     26  C   UNL     1     139.560 146.645 108.058  1.00  0.00     0.016 C 
ATOM     27  C   UNL     1     141.837 144.573 107.136  1.00  0.00     0.063 C 
ATOM     28  C   UNL     1     141.927 146.817 105.988  1.00  0.00     0.033 C 
ATOM     29  C   UNL     1     142.541 145.413 106.067  1.00  0.00     0.118 C 
BRANCH  29  30
ATOM     30  O   UNL     1     143.903 145.509 106.388  1.00  0.00    -0.393 OA
ATOM     31  H   UNL     1     144.368 144.790 105.885  1.00  0.00     0.210 HD
ENDBRANCH  29  30
ENDBRANCH   9  11
ENDBRANCH   1   9
TORSDOF 7
ENDMDL
MODEL 5
REMARK VINA RESULT:    -5.462      8.182     12.628
REMARK INTER + INTRA:          -9.621
REMARK INTER:                  -8.204
REMARK INTRA:                  -1.417
REMARK UNBOUND:                -2.084
REMARK SMILES CC[C@@H](CC[C@@H](C)[C@@H]1CC[C@H]2[C@H]3CC=C4C[C@H](O)CC[C@@]4(C)[C@@H]3CC[C@]21C)C(C)C
REMARK SMILES IDX 5 1 4 2 3 3 2 4 1 5 28 6 29 7 30 8 6 9 7 10 8 11 9 12 26 13
REMARK SMILES IDX 10 14 11 15 25 16 27 17 12 18 24 19 23 20 13 21 21 22 14 23
REMARK SMILES IDX 15 24 20 25 22 26 16 27 19 28 17 29 18 30
REMARK H PARENT 18 31
REMARK Flexibility Score: inf
ROOT
ATOM      1  C   UNL     1     129.355 129.425 106.605  1.00  0.00     0.004 C 
ENDROOT
BRANCH   1   2
ATOM      2  C   UNL     1     130.537 128.783 105.836  1.00  0.00     0.004 C 
BRANCH   2   3
ATOM      3  C   UNL     1     131.936 129.312 106.281  1.00  0.00    -0.009 C 
BRANCH   3   4
ATOM      4  C   UNL     1     133.083 128.676 105.446  1.00  0.00     0.000 C 
ATOM      5  C   UNL     1     133.981 129.712 104.769  1.00  0.00     0.004 C 
ENDBRANCH   3   4
BRANCH   3   6
ATOM      6  C   UNL     1     132.137 129.115 107.820  1.00  0.00    -0.014 C 
ATOM      7  C   UNL     1     133.365 128.257 108.168  1.00  0.00     0.007 C 
ATOM      8  C   UNL     1     132.186 130.449 108.583  1.00  0.00     0.007 C 
ENDBRANCH   3   6
ENDBRANCH   2   3
ENDBRANCH   1   2
BRANCH   1   9
ATOM      9  C   UNL     1     128.806 130.720 105.937  1.00  0.00    -0.011 C 
ATOM     10  C   UNL     1     127.645 130.320 105.002  1.00  0.00     0.008 C 
BRANCH   9  11
ATOM     11  C   UNL     1     128.434 131.796 107.039  1.00  0.00    -0.002 C 
ATOM     12  C   UNL     1     126.949 132.235 107.021  1.00  0.00     0.005 C 
ATOM     13  C   UNL     1     129.200 133.168 106.919  1.00  0.00    -0.026 C 
ATOM     14  C   UNL     1     126.875 133.554 106.256  1.00  0.00     0.005 C 
ATOM     15  C   UNL     1     128.321 133.967 105.933  1.00  0.00    -0.001 C 
ATOM     16  C   UNL     1     129.212 133.868 108.317  1.00  0.00     0.007 C 
ATOM     17  C   UNL     1     130.667 133.066 106.405  1.00  0.00     0.012 C 
ATOM     18  C   UNL     1     128.593 135.505 105.911  1.00  0.00     0.000 C 
ATOM     19  C   UNL     1     129.585 135.351 108.250  1.00  0.00     0.005 C 
ATOM     20  C   UNL     1     128.631 136.146 107.322  1.00  0.00     0.003 C 
ATOM     21  C   UNL     1     127.578 136.231 105.012  1.00  0.00     0.031 C 
ATOM     22  C   UNL     1     128.968 137.691 107.261  1.00  0.00    -0.008 C 
ATOM     23  C   UNL     1     127.691 137.726 105.077  1.00  0.00    -0.027 C 
ATOM     24  C   UNL     1     128.172 138.391 106.148  1.00  0.00    -0.065 C 
ATOM     25  C   UNL     1     128.585 138.343 108.627  1.00  0.00     0.014 C 
ATOM     26  C   UNL     1     130.480 137.932 106.985  1.00  0.00     0.016 C 
ATOM     27  C   UNL     1     128.087 139.907 106.147  1.00  0.00     0.063 C 
ATOM     28  C   UNL     1     128.616 139.878 108.613  1.00  0.00     0.033 C 
ATOM     29  C   UNL     1     127.686 140.436 107.527  1.00  0.00     0.118 C 
BRANCH  29  30
ATOM     30  O   UNL     1     127.757 141.837 107.516  1.00  0.00    -0.393 OA
ATOM     31  H   UNL     1     127.778 142.131 108.465  1.00  0.00     0.210 HD
ENDBRANCH  29  30
ENDBRANCH   9  11
ENDBRANCH   1   9
TORSDOF 7
ENDMDL
MODEL 6
REMARK VINA RESULT:    -5.449     14.089     15.972
REMARK INTER + INTRA:          -9.604
REMARK INTER:                  -8.474
REMARK INTRA:                  -1.130
REMARK UNBOUND:                -2.084
REMARK SMILES CC[C@@H](CC[C@@H](C)[C@@H]1CC[C@H]2[C@H]3CC=C4C[C@H](O)CC[C@@]4(C)[C@@H]3CC[C@]21C)C(C)C
REMARK SMILES IDX 5 1 4 2 3 3 2 4 1 5 28 6 29 7 30 8 6 9 7 10 8 11 9 12 26 13
REMARK SMILES IDX 10 14 11 15 25 16 27 17 12 18 24 19 23 20 13 21 21 22 14 23
REMARK SMILES IDX 15 24 20 25 22 26 16 27 19 28 17 29 18 30
REMARK H PARENT 18 31
REMARK Flexibility Score: inf
ROOT
ATOM      1  C   UNL     1     143.452 145.440 110.167  1.00  0.00     0.004 C 
ENDROOT
BRANCH   1   2
ATOM      2  C   UNL     1     142.659 144.739 109.034  1.00  0.00     0.004 C 
BRANCH   2   3
ATOM      3  C   UNL     1     143.559 144.208 107.875  1.00  0.00    -0.009 C 
BRANCH   3   4
ATOM      4  C   UNL     1     144.865 143.559 108.414  1.00  0.00     0.000 C 
ATOM      5  C   UNL     1     144.870 142.034 108.302  1.00  0.00     0.004 C 
ENDBRANCH   3   4
BRANCH   3   6
ATOM      6  C   UNL     1     143.839 145.338 106.831  1.00  0.00    -0.014 C 
ATOM      7  C   UNL     1     144.874 144.938 105.765  1.00  0.00     0.007 C 
ATOM      8  C   UNL     1     142.555 145.850 106.159  1.00  0.00     0.007 C 
ENDBRANCH   3   6
ENDBRANCH   2   3
ENDBRANCH   1   2
BRANCH   1   9
ATOM      9  C   UNL     1     143.185 144.838 111.578  1.00  0.00    -0.011 C 
ATOM     10  C   UNL     1     142.679 143.391 111.394  1.00  0.00     0.008 C 
BRANCH   9  11
ATOM     11  C   UNL     1     144.471 144.983 112.492  1.00  0.00    -0.002 C 
ATOM     12  C   UNL     1     145.257 143.663 112.696  1.00  0.00     0.005 C 
ATOM     13  C   UNL     1     144.191 145.448 113.972  1.00  0.00    -0.026 C 
ATOM     14  C   UNL     1     144.832 143.086 114.044  1.00  0.00     0.005 C 
ATOM     15  C   UNL     1     143.900 144.118 114.700  1.00  0.00    -0.001 C 
ATOM     16  C   UNL     1     145.485 146.107 114.552  1.00  0.00     0.007 C 
ATOM     17  C   UNL     1     143.009 146.448 114.139  1.00  0.00     0.012 C 
ATOM     18  C   UNL     1     143.973 144.197 116.259  1.00  0.00     0.000 C 
ATOM     19  C   UNL     1     145.461 146.253 116.075  1.00  0.00     0.005 C 
ATOM     20  C   UNL     1     145.257 144.890 116.783  1.00  0.00     0.003 C 
ATOM     21  C   UNL     1     143.813 142.802 116.888  1.00  0.00     0.031 C 
ATOM     22  C   UNL     1     145.264 145.003 118.363  1.00  0.00    -0.008 C 
ATOM     23  C   UNL     1     144.033 142.793 118.372  1.00  0.00    -0.027 C 
ATOM     24  C   UNL     1     144.809 143.688 119.016  1.00  0.00    -0.065 C 
ATOM     25  C   UNL     1     146.719 145.312 118.836  1.00  0.00     0.014 C 
ATOM     26  C   UNL     1     144.314 146.131 118.856  1.00  0.00     0.016 C 
ATOM     27  C   UNL     1     145.074 143.474 120.497  1.00  0.00     0.063 C 
ATOM     28  C   UNL     1     146.918 145.188 120.354  1.00  0.00     0.033 C 
ATOM     29  C   UNL     1     146.531 143.787 120.845  1.00  0.00     0.118 C 
BRANCH  29  30
ATOM     30  O   UNL     1     146.692 143.711 122.237  1.00  0.00    -0.393 OA
ATOM     31  H   UNL     1     146.439 144.598 122.604  1.00  0.00     0.210 HD
ENDBRANCH  29  30
ENDBRANCH   9  11
ENDBRANCH   1   9
TORSDOF 7
ENDMDL
MODEL 7
REMARK VINA RESULT:    -5.434     15.753     18.782
REMARK INTER + INTRA:          -9.583
REMARK INTER:                  -7.634
REMARK INTRA:                  -1.949
REMARK UNBOUND:                -2.084
REMARK SMILES CC[C@@H](CC[C@@H](C)[C@@H]1CC[C@H]2[C@H]3CC=C4C[C@H](O)CC[C@@]4(C)[C@@H]3CC[C@]21C)C(C)C
REMARK SMILES IDX 5 1 4 2 3 3 2 4 1 5 28 6 29 7 30 8 6 9 7 10 8 11 9 12 26 13
REMARK SMILES IDX 10 14 11 15 25 16 27 17 12 18 24 19 23 20 13 21 21 22 14 23
REMARK SMILES IDX 15 24 20 25 22 26 16 27 19 28 17 29 18 30
REMARK H PARENT 18 31
REMARK Flexibility Score: inf
ROOT
ATOM      1  C   UNL     1     145.622 140.975 107.176  1.00  0.00     0.004 C 
ENDROOT
BRANCH   1   2
ATOM      2  C   UNL     1     145.248 141.071 105.675  1.00  0.00     0.004 C 
BRANCH   2   3
ATOM      3  C   UNL     1     144.473 142.374 105.304  1.00  0.00    -0.009 C 
BRANCH   3   4
ATOM      4  C   UNL     1     144.654 143.476 106.385  1.00  0.00     0.000 C 
ATOM      5  C   UNL     1     144.850 144.872 105.793  1.00  0.00     0.004 C 
ENDBRANCH   3   4
BRANCH   3   6
ATOM      6  C   UNL     1     142.968 142.058 105.018  1.00  0.00    -0.014 C 
ATOM      7  C   UNL     1     142.760 140.750 104.234  1.00  0.00     0.007 C 
ATOM      8  C   UNL     1     142.114 142.053 106.297  1.00  0.00     0.007 C 
ENDBRANCH   3   6
ENDBRANCH   2   3
ENDBRANCH   1   2
BRANCH   1   9
ATOM      9  C   UNL     1     145.101 139.680 107.867  1.00  0.00    -0.011 C 
ATOM     10  C   UNL     1     144.096 140.095 108.964  1.00  0.00     0.008 C 
BRANCH   9  11
ATOM     11  C   UNL     1     144.530 138.670 106.788  1.00  0.00    -0.002 C 
ATOM     12  C   UNL     1     143.031 138.325 106.972  1.00  0.00     0.005 C 
ATOM     13  C   UNL     1     145.211 137.249 106.776  1.00  0.00    -0.026 C 
ATOM     14  C   UNL     1     142.960 136.987 107.703  1.00  0.00     0.005 C 
ATOM     15  C   UNL     1     144.403 136.473 107.839  1.00  0.00    -0.001 C 
ATOM     16  C   UNL     1     145.010 136.600 105.368  1.00  0.00     0.007 C 
ATOM     17  C   UNL     1     146.731 137.240 107.113  1.00  0.00     0.012 C 
ATOM     18  C   UNL     1     144.572 134.920 107.784  1.00  0.00     0.000 C 
ATOM     19  C   UNL     1     145.288 135.095 105.349  1.00  0.00     0.005 C 
ATOM     20  C   UNL     1     144.400 134.330 106.362  1.00  0.00     0.003 C 
ATOM     21  C   UNL     1     143.625 134.228 108.778  1.00  0.00     0.031 C 
ATOM     22  C   UNL     1     144.638 132.765 106.339  1.00  0.00    -0.008 C 
ATOM     23  C   UNL     1     143.629 132.733 108.659  1.00  0.00    -0.027 C 
ATOM     24  C   UNL     1     143.934 132.077 107.520  1.00  0.00    -0.065 C 
ATOM     25  C   UNL     1     144.053 132.188 105.011  1.00  0.00     0.014 C 
ATOM     26  C   UNL     1     146.153 132.419 106.424  1.00  0.00     0.016 C 
ATOM     27  C   UNL     1     143.749 130.570 107.488  1.00  0.00     0.063 C 
ATOM     28  C   UNL     1     143.982 130.654 104.979  1.00  0.00     0.033 C 
ATOM     29  C   UNL     1     143.152 130.117 106.152  1.00  0.00     0.118 C 
BRANCH  29  30
ATOM     30  O   UNL     1     143.130 128.716 106.116  1.00  0.00    -0.393 OA
ATOM     31  H   UNL     1     142.669 128.414 106.943  1.00  0.00     0.210 HD
ENDBRANCH  29  30
ENDBRANCH   9  11
ENDBRANCH   1   9
TORSDOF 7
ENDMDL
MODEL 8
REMARK VINA RESULT:    -5.427      5.300      9.507
REMARK INTER + INTRA:          -9.574
REMARK INTER:                  -7.958
REMARK INTRA:                  -1.616
REMARK UNBOUND:                -2.084
REMARK SMILES CC[C@@H](CC[C@@H](C)[C@@H]1CC[C@H]2[C@H]3CC=C4C[C@H](O)CC[C@@]4(C)[C@@H]3CC[C@]21C)C(C)C
REMARK SMILES IDX 5 1 4 2 3 3 2 4 1 5 28 6 29 7 30 8 6 9 7 10 8 11 9 12 26 13
REMARK SMILES IDX 10 14 11 15 25 16 27 17 12 18 24 19 23 20 13 21 21 22 14 23
REMARK SMILES IDX 15 24 20 25 22 26 16 27 19 28 17 29 18 30
REMARK H PARENT 18 31
REMARK Flexibility Score: inf
ROOT
ATOM      1  C   UNL     1     129.149 134.097 105.399  1.00  0.00     0.004 C 
ENDROOT
BRANCH   1   2
ATOM      2  C   UNL     1     129.654 133.387 106.681  1.00  0.00     0.004 C 
BRANCH   2   3
ATOM      3  C   UNL     1     129.307 131.866 106.733  1.00  0.00    -0.009 C 
BRANCH   3   4
ATOM      4  C   UNL     1     128.740 131.360 105.377  1.00  0.00     0.000 C 
ATOM      5  C   UNL     1     127.337 130.763 105.497  1.00  0.00     0.004 C 
ENDBRANCH   3   4
BRANCH   3   6
ATOM      6  C   UNL     1     128.353 131.558 107.933  1.00  0.00    -0.014 C 
ATOM      7  C   UNL     1     128.802 130.349 108.772  1.00  0.00     0.007 C 
ATOM      8  C   UNL     1     128.132 132.781 108.838  1.00  0.00     0.007 C 
ENDBRANCH   3   6
ENDBRANCH   2   3
ENDBRANCH   1   2
BRANCH   1   9
ATOM      9  C   UNL     1     128.264 135.346 105.686  1.00  0.00    -0.011 C 
ATOM     10  C   UNL     1     126.875 134.852 106.146  1.00  0.00     0.008 C 
BRANCH   9  11
ATOM     11  C   UNL     1     128.995 136.319 106.700  1.00  0.00    -0.002 C 
ATOM     12  C   UNL     1     128.136 136.720 107.926  1.00  0.00     0.005 C 
ATOM     13  C   UNL     1     129.413 137.716 106.102  1.00  0.00    -0.026 C 
ATOM     14  C   UNL     1     127.539 138.094 107.631  1.00  0.00     0.005 C 
ATOM     15  C   UNL     1     128.141 138.568 106.298  1.00  0.00    -0.001 C 
ATOM     16  C   UNL     1     130.589 138.302 106.950  1.00  0.00     0.007 C 
ATOM     17  C   UNL     1     129.846 137.693 104.606  1.00  0.00     0.012 C 
ATOM     18  C   UNL     1     128.360 140.110 106.169  1.00  0.00     0.000 C 
ATOM     19  C   UNL     1     130.826 139.794 106.709  1.00  0.00     0.005 C 
ATOM     20  C   UNL     1     129.558 140.636 107.000  1.00  0.00     0.003 C 
ATOM     21  C   UNL     1     127.076 140.880 106.521  1.00  0.00     0.031 C 
ATOM     22  C   UNL     1     129.783 142.189 106.795  1.00  0.00    -0.008 C 
ATOM     23  C   UNL     1     127.269 142.366 106.568  1.00  0.00    -0.027 C 
ATOM     24  C   UNL     1     128.451 142.955 106.844  1.00  0.00    -0.065 C 
ATOM     25  C   UNL     1     130.700 142.719 107.943  1.00  0.00     0.014 C 
ATOM     26  C   UNL     1     130.453 142.491 105.424  1.00  0.00     0.016 C 
ATOM     27  C   UNL     1     128.478 144.464 107.016  1.00  0.00     0.063 C 
ATOM     28  C   UNL     1     130.783 144.251 108.014  1.00  0.00     0.033 C 
ATOM     29  C   UNL     1     129.389 144.870 108.177  1.00  0.00     0.118 C 
BRANCH  29  30
ATOM     30  O   UNL     1     129.492 146.268 108.208  1.00  0.00    -0.393 OA
ATOM     31  H   UNL     1     130.111 146.527 107.475  1.00  0.00     0.210 HD
ENDBRANCH  29  30
ENDBRANCH   9  11
ENDBRANCH   1   9
TORSDOF 7
ENDMDL
MODEL 9
REMARK VINA RESULT:    -5.426      1.082      1.835
REMARK INTER + INTRA:          -9.572
REMARK INTER:                  -8.039
REMARK INTRA:                  -1.533
REMARK UNBOUND:                -2.084
REMARK SMILES CC[C@@H](CC[C@@H](C)[C@@H]1CC[C@H]2[C@H]3CC=C4C[C@H](O)CC[C@@]4(C)[C@@H]3CC[C@]21C)C(C)C
REMARK SMILES IDX 5 1 4 2 3 3 2 4 1 5 28 6 29 7 30 8 6 9 7 10 8 11 9 12 26 13
REMARK SMILES IDX 10 14 11 15 25 16 27 17 12 18 24 19 23 20 13 21 21 22 14 23
REMARK SMILES IDX 15 24 20 25 22 26 16 27 19 28 17 29 18 30
REMARK H PARENT 18 31
REMARK Flexibility Score: inf
ROOT
ATOM      1  C   UNL     1     130.385 143.047 107.611  1.00  0.00     0.004 C 
ENDROOT
BRANCH   1   2
ATOM      2  C   UNL     1     129.507 143.509 106.421  1.00  0.00     0.004 C 
BRANCH   2   3
ATOM      3  C   UNL     1     127.975 143.463 106.718  1.00  0.00    -0.009 C 
BRANCH   3   4
ATOM      4  C   UNL     1     127.292 142.249 106.028  1.00  0.00     0.000 C 
ATOM      5  C   UNL     1     127.208 141.015 106.927  1.00  0.00     0.004 C 
ENDBRANCH   3   4
BRANCH   3   6
ATOM      6  C   UNL     1     127.299 144.823 106.343  1.00  0.00    -0.014 C 
ATOM      7  C   UNL     1     126.883 145.654 107.569  1.00  0.00     0.007 C 
ATOM      8  C   UNL     1     128.166 145.670 105.397  1.00  0.00     0.007 C 
ENDBRANCH   3   6
ENDBRANCH   2   3
ENDBRANCH   1   2
BRANCH   1   9
ATOM      9  C   UNL     1     130.911 144.221 108.490  1.00  0.00    -0.011 C 
ATOM     10  C   UNL     1     131.536 145.277 107.554  1.00  0.00     0.008 C 
BRANCH   9  11
ATOM     11  C   UNL     1     129.758 144.764 109.432  1.00  0.00    -0.002 C 
ATOM     12  C   UNL     1     129.794 146.296 109.661  1.00  0.00     0.005 C 
ATOM     13  C   UNL     1     129.773 144.196 110.902  1.00  0.00    -0.026 C 
ATOM     14  C   UNL     1     130.482 146.538 111.002  1.00  0.00     0.005 C 
ATOM     15  C   UNL     1     130.736 145.158 111.631  1.00  0.00    -0.001 C 
ATOM     16  C   UNL     1     128.336 144.313 111.508  1.00  0.00     0.007 C 
ATOM     17  C   UNL     1     130.248 142.720 111.038  1.00  0.00     0.012 C 
ATOM     18  C   UNL     1     130.658 145.105 113.191  1.00  0.00     0.000 C 
ATOM     19  C   UNL     1     128.304 144.152 113.029  1.00  0.00     0.005 C 
ATOM     20  C   UNL     1     129.211 145.188 113.740  1.00  0.00     0.003 C 
ATOM     21  C   UNL     1     131.543 146.192 113.824  1.00  0.00     0.031 C 
ATOM     22  C   UNL     1     129.170 145.070 115.319  1.00  0.00    -0.008 C 
ATOM     23  C   UNL     1     131.385 146.292 115.313  1.00  0.00    -0.027 C 
ATOM     24  C   UNL     1     130.263 145.933 115.969  1.00  0.00    -0.065 C 
ATOM     25  C   UNL     1     127.780 145.570 115.823  1.00  0.00     0.014 C 
ATOM     26  C   UNL     1     129.386 143.601 115.785  1.00  0.00     0.016 C 
ATOM     27  C   UNL     1     130.176 146.230 117.456  1.00  0.00     0.063 C 
ATOM     28  C   UNL     1     127.702 145.756 117.346  1.00  0.00     0.033 C 
ATOM     29  C   UNL     1     128.780 146.731 117.836  1.00  0.00     0.118 C 
BRANCH  29  30
ATOM     30  O   UNL     1     128.706 146.858 119.231  1.00  0.00    -0.393 OA
ATOM     31  H   UNL     1     129.571 146.533 119.595  1.00  0.00     0.210 HD
ENDBRANCH  29  30
ENDBRANCH   9  11
ENDBRANCH   1   9
TORSDOF 7
ENDMDL
