MODEL 1
REMARK VINA RESULT:    -0.105      0.000      0.000
REMARK INTER + INTRA:          -1.174
REMARK INTER:                  -0.192
REMARK INTRA:                  -0.983
REMARK UNBOUND:                -0.983
REMARK SMILES CCCCCC=CCC=CCCCCCCCC(=O)[O-]
REMARK SMILES IDX 11 1 12 2 13 3 14 4 15 5 16 6 17 7 18 8 19 9 20 10 10 11
REMARK SMILES IDX 9 12 8 13 7 14 6 15 5 16 4 17 3 18 2 19 1 20
REMARK H PARENT
REMARK Flexibility Score: inf
ROOT
ATOM      1  C   UNL     1      -9.068  50.594  -2.731  1.00  0.00     0.027 C 
ENDROOT
BRANCH   1   2
ATOM      2  C   UNL     1      -7.958  50.015  -1.846  1.00  0.00     0.004 C 
BRANCH   2   3
ATOM      3  C   UNL     1      -6.792  51.007  -1.710  1.00  0.00     0.000 C 
BRANCH   3   4
ATOM      4  C   UNL     1      -6.866  51.835  -0.418  1.00  0.00     0.000 C 
BRANCH   4   5
ATOM      5  C   UNL     1      -5.711  51.534   0.550  1.00  0.00     0.000 C 
BRANCH   5   6
ATOM      6  C   UNL     1      -4.387  52.086   0.010  1.00  0.00     0.006 C 
BRANCH   6   7
ATOM      7  C   UNL     1      -3.190  51.380   0.654  1.00  0.00     0.053 C 
BRANCH   7   8
ATOM      8  C   UNL     1      -1.908  51.882   0.068  1.00  0.00     0.041 C 
ATOM      9  O   UNL     1      -0.909  52.081   0.810  1.00  0.00    -0.550 OA
ATOM     10  O   UNL     1      -1.798  52.081  -1.302  1.00  0.00    -0.550 OA
ENDBRANCH   7   8
ENDBRANCH   6   7
ENDBRANCH   5   6
ENDBRANCH   4   5
ENDBRANCH   3   4
ENDBRANCH   2   3
ENDBRANCH   1   2
BRANCH   1  11
ATOM     11  C   UNL     1      -8.602  50.755  -4.152  1.00  0.00    -0.031 C 
ATOM     12  C   UNL     1      -8.306  51.962  -4.661  1.00  0.00    -0.027 C 
BRANCH  12  13
ATOM     13  C   UNL     1      -7.826  52.125  -6.077  1.00  0.00     0.054 C 
BRANCH  13  14
ATOM     14  C   UNL     1      -6.319  52.108  -6.152  1.00  0.00    -0.027 C 
ATOM     15  C   UNL     1      -5.612  52.125  -7.297  1.00  0.00    -0.031 C 
BRANCH  15  16
ATOM     16  C   UNL     1      -6.219  52.091  -8.677  1.00  0.00     0.027 C 
BRANCH  16  17
ATOM     17  C   UNL     1      -5.531  51.028  -9.546  1.00  0.00     0.004 C 
BRANCH  17  18
ATOM     18  C   UNL     1      -6.363  49.745  -9.684  1.00  0.00     0.000 C 
BRANCH  18  19
ATOM     19  C   UNL     1      -7.867  50.024  -9.830  1.00  0.00    -0.003 C 
ATOM     20  C   UNL     1      -8.693  48.866  -9.277  1.00  0.00     0.004 C 
ENDBRANCH  18  19
ENDBRANCH  17  18
ENDBRANCH  16  17
ENDBRANCH  15  16
ENDBRANCH  13  14
ENDBRANCH  12  13
ENDBRANCH   1  11
TORSDOF 14
ENDMDL
MODEL 2
REMARK VINA RESULT:     0.768      2.886      8.341
REMARK INTER + INTRA:           0.413
REMARK INTER:                   1.176
REMARK INTRA:                  -0.762
REMARK UNBOUND:                -0.983
REMARK SMILES CCCCCC=CCC=CCCCCCCCC(=O)[O-]
REMARK SMILES IDX 11 1 12 2 13 3 14 4 15 5 16 6 17 7 18 8 19 9 20 10 10 11
REMARK SMILES IDX 9 12 8 13 7 14 6 15 5 16 4 17 3 18 2 19 1 20
REMARK H PARENT
REMARK Flexibility Score: inf
ROOT
ATOM      1  C   UNL     1      -9.121  51.149  -2.038  1.00  0.00     0.027 C 
ENDROOT
BRANCH   1   2
ATOM      2  C   UNL     1      -8.621  52.065  -3.161  1.00  0.00     0.004 C 
BRANCH   2   3
ATOM      3  C   UNL     1      -8.362  51.266  -4.447  1.00  0.00     0.000 C 
BRANCH   3   4
ATOM      4  C   UNL     1      -7.742  52.122  -5.562  1.00  0.00     0.000 C 
BRANCH   4   5
ATOM      5  C   UNL     1      -6.974  51.285  -6.597  1.00  0.00     0.000 C 
BRANCH   5   6
ATOM      6  C   UNL     1      -5.643  51.954  -6.962  1.00  0.00     0.006 C 
BRANCH   6   7
ATOM      7  C   UNL     1      -5.167  51.516  -8.350  1.00  0.00     0.053 C 
BRANCH   7   8
ATOM      8  C   UNL     1      -3.782  50.953  -8.275  1.00  0.00     0.041 C 
ATOM      9  O   UNL     1      -2.878  51.395  -9.032  1.00  0.00    -0.550 OA
ATOM     10  O   UNL     1      -3.476  49.978  -7.335  1.00  0.00    -0.550 OA
ENDBRANCH   7   8
ENDBRANCH   6   7
ENDBRANCH   5   6
ENDBRANCH   4   5
ENDBRANCH   3   4
ENDBRANCH   2   3
ENDBRANCH   1   2
BRANCH   1  11
ATOM     11  C   UNL     1      -7.981  50.659  -1.188  1.00  0.00    -0.031 C 
ATOM     12  C   UNL     1      -6.964  51.465  -0.845  1.00  0.00    -0.027 C 
BRANCH  12  13
ATOM     13  C   UNL     1      -5.830  50.982   0.017  1.00  0.00     0.054 C 
BRANCH  13  14
ATOM     14  C   UNL     1      -4.923  52.117   0.420  1.00  0.00    -0.027 C 
ATOM     15  C   UNL     1      -3.582  52.030   0.502  1.00  0.00    -0.031 C 
BRANCH  15  16
ATOM     16  C   UNL     1      -2.792  50.767   0.271  1.00  0.00     0.027 C 
BRANCH  16  17
ATOM     17  C   UNL     1      -1.505  51.068  -0.512  1.00  0.00     0.004 C 
BRANCH  17  18
ATOM     18  C   UNL     1      -0.471  51.839   0.322  1.00  0.00     0.000 C 
BRANCH  18  19
ATOM     19  C   UNL     1      -0.281  51.250   1.728  1.00  0.00    -0.003 C 
ATOM     20  C   UNL     1       0.735  52.062   2.527  1.00  0.00     0.004 C 
ENDBRANCH  18  19
ENDBRANCH  17  18
ENDBRANCH  16  17
ENDBRANCH  15  16
ENDBRANCH  13  14
ENDBRANCH  12  13
ENDBRANCH   1  11
TORSDOF 14
ENDMDL
MODEL 3
REMARK VINA RESULT:     1.349      3.880      9.087
REMARK INTER + INTRA:           1.471
REMARK INTER:                   1.828
REMARK INTRA:                  -0.357
REMARK UNBOUND:                -0.983
REMARK SMILES CCCCCC=CCC=CCCCCCCCC(=O)[O-]
REMARK SMILES IDX 11 1 12 2 13 3 14 4 15 5 16 6 17 7 18 8 19 9 20 10 10 11
REMARK SMILES IDX 9 12 8 13 7 14 6 15 5 16 4 17 3 18 2 19 1 20
REMARK H PARENT
REMARK Flexibility Score: inf
ROOT
ATOM      1  C   UNL     1      -9.117  51.134  -2.036  1.00  0.00     0.027 C 
ENDROOT
BRANCH   1   2
ATOM      2  C   UNL     1      -8.717  52.068  -3.183  1.00  0.00     0.004 C 
BRANCH   2   3
ATOM      3  C   UNL     1      -8.879  51.369  -4.542  1.00  0.00     0.000 C 
BRANCH   3   4
ATOM      4  C   UNL     1      -8.175  52.120  -5.683  1.00  0.00     0.000 C 
BRANCH   4   5
ATOM      5  C   UNL     1      -7.796  51.201  -6.855  1.00  0.00     0.000 C 
BRANCH   5   6
ATOM      6  C   UNL     1      -6.543  51.718  -7.571  1.00  0.00     0.006 C 
BRANCH   6   7
ATOM      7  C   UNL     1      -6.595  51.407  -9.070  1.00  0.00     0.053 C 
BRANCH   7   8
ATOM      8  C   UNL     1      -7.982  51.019  -9.477  1.00  0.00     0.041 C 
ATOM      9  O   UNL     1      -8.750  51.871  -9.997  1.00  0.00    -0.550 OA
ATOM     10  O   UNL     1      -8.409  49.705  -9.331  1.00  0.00    -0.550 OA
ENDBRANCH   7   8
ENDBRANCH   6   7
ENDBRANCH   5   6
ENDBRANCH   4   5
ENDBRANCH   3   4
ENDBRANCH   2   3
ENDBRANCH   1   2
BRANCH   1  11
ATOM     11  C   UNL     1      -7.909  50.648  -1.283  1.00  0.00    -0.031 C 
ATOM     12  C   UNL     1      -6.848  51.442  -1.072  1.00  0.00    -0.027 C 
BRANCH  12  13
ATOM     13  C   UNL     1      -5.645  50.963  -0.307  1.00  0.00     0.054 C 
BRANCH  13  14
ATOM     14  C   UNL     1      -4.783  52.117   0.143  1.00  0.00    -0.027 C 
ATOM     15  C   UNL     1      -3.438  52.125   0.105  1.00  0.00    -0.031 C 
BRANCH  15  16
ATOM     16  C   UNL     1      -2.588  50.956  -0.325  1.00  0.00     0.027 C 
BRANCH  16  17
ATOM     17  C   UNL     1      -1.097  51.321  -0.270  1.00  0.00     0.004 C 
BRANCH  17  18
ATOM     18  C   UNL     1      -0.729  52.125   0.987  1.00  0.00     0.000 C 
BRANCH  18  19
ATOM     19  C   UNL     1      -0.548  51.238   2.228  1.00  0.00    -0.003 C 
ATOM     20  C   UNL     1       0.041  52.037   3.388  1.00  0.00     0.004 C 
ENDBRANCH  18  19
ENDBRANCH  17  18
ENDBRANCH  16  17
ENDBRANCH  15  16
ENDBRANCH  13  14
ENDBRANCH  12  13
ENDBRANCH   1  11
TORSDOF 14
ENDMDL
MODEL 4
REMARK VINA RESULT:     1.570      2.594      7.885
REMARK INTER + INTRA:           1.872
REMARK INTER:                   2.636
REMARK INTRA:                  -0.764
REMARK UNBOUND:                -0.983
REMARK SMILES CCCCCC=CCC=CCCCCCCCC(=O)[O-]
REMARK SMILES IDX 11 1 12 2 13 3 14 4 15 5 16 6 17 7 18 8 19 9 20 10 10 11
REMARK SMILES IDX 9 12 8 13 7 14 6 15 5 16 4 17 3 18 2 19 1 20
REMARK H PARENT
REMARK Flexibility Score: inf
ROOT
ATOM      1  C   UNL     1      -8.006  50.084  -6.038  1.00  0.00     0.027 C 
ENDROOT
BRANCH   1   2
ATOM      2  C   UNL     1      -8.365  50.538  -7.457  1.00  0.00     0.004 C 
BRANCH   2   3
ATOM      3  C   UNL     1      -7.161  50.395  -8.401  1.00  0.00     0.000 C 
BRANCH   3   4
ATOM      4  C   UNL     1      -7.144  51.461  -9.508  1.00  0.00     0.000 C 
BRANCH   4   5
ATOM      5  C   UNL     1      -5.734  51.998  -9.796  1.00  0.00     0.000 C 
BRANCH   5   6
ATOM      6  C   UNL     1      -4.911  52.095  -8.506  1.00  0.00     0.006 C 
BRANCH   6   7
ATOM      7  C   UNL     1      -3.410  52.119  -8.808  1.00  0.00     0.053 C 
BRANCH   7   8
ATOM      8  C   UNL     1      -2.645  51.441  -7.715  1.00  0.00     0.041 C 
ATOM      9  O   UNL     1      -3.248  50.733  -6.866  1.00  0.00    -0.550 OA
ATOM     10  O   UNL     1      -1.260  51.548  -7.663  1.00  0.00    -0.550 OA
ENDBRANCH   7   8
ENDBRANCH   6   7
ENDBRANCH   5   6
ENDBRANCH   4   5
ENDBRANCH   3   4
ENDBRANCH   2   3
ENDBRANCH   1   2
BRANCH   1  11
ATOM     11  C   UNL     1      -8.480  51.077  -5.013  1.00  0.00    -0.031 C 
ATOM     12  C   UNL     1      -8.663  50.728  -3.729  1.00  0.00    -0.027 C 
BRANCH  12  13
ATOM     13  C   UNL     1      -9.122  51.723  -2.699  1.00  0.00     0.054 C 
BRANCH  13  14
ATOM     14  C   UNL     1      -8.994  51.167  -1.303  1.00  0.00    -0.027 C 
ATOM     15  C   UNL     1      -7.907  51.310  -0.522  1.00  0.00    -0.031 C 
BRANCH  15  16
ATOM     16  C   UNL     1      -6.629  51.984  -0.951  1.00  0.00     0.027 C 
BRANCH  16  17
ATOM     17  C   UNL     1      -5.666  52.125   0.237  1.00  0.00     0.004 C 
BRANCH  17  18
ATOM     18  C   UNL     1      -4.355  51.349   0.033  1.00  0.00     0.000 C 
BRANCH  18  19
ATOM     19  C   UNL     1      -3.127  52.109   0.556  1.00  0.00    -0.003 C 
ATOM     20  C   UNL     1      -1.839  51.530  -0.024  1.00  0.00     0.004 C 
ENDBRANCH  18  19
ENDBRANCH  17  18
ENDBRANCH  16  17
ENDBRANCH  15  16
ENDBRANCH  13  14
ENDBRANCH  12  13
ENDBRANCH   1  11
TORSDOF 14
ENDMDL
MODEL 5
REMARK VINA RESULT:     1.690      4.576      5.612
REMARK INTER + INTRA:           2.090
REMARK INTER:                   2.688
REMARK INTRA:                  -0.598
REMARK UNBOUND:                -0.983
REMARK SMILES CCCCCC=CCC=CCCCCCCCC(=O)[O-]
REMARK SMILES IDX 11 1 12 2 13 3 14 4 15 5 16 6 17 7 18 8 19 9 20 10 10 11
REMARK SMILES IDX 9 12 8 13 7 14 6 15 5 16 4 17 3 18 2 19 1 20
REMARK H PARENT
REMARK Flexibility Score: inf
ROOT
ATOM      1  C   UNL     1      -8.990  49.287  -1.734  1.00  0.00     0.027 C 
ENDROOT
BRANCH   1   2
ATOM      2  C   UNL     1      -8.189  48.250  -0.938  1.00  0.00     0.004 C 
BRANCH   2   3
ATOM      3  C   UNL     1      -7.398  47.328  -1.878  1.00  0.00     0.000 C 
BRANCH   3   4
ATOM      4  C   UNL     1      -7.208  45.916  -1.302  1.00  0.00     0.000 C 
BRANCH   4   5
ATOM      5  C   UNL     1      -6.291  45.038  -2.167  1.00  0.00     0.000 C 
BRANCH   5   6
ATOM      6  C   UNL     1      -6.341  43.576  -1.709  1.00  0.00     0.006 C 
BRANCH   6   7
ATOM      7  C   UNL     1      -5.079  42.820  -2.135  1.00  0.00     0.053 C 
BRANCH   7   8
ATOM      8  C   UNL     1      -3.985  43.018  -1.133  1.00  0.00     0.041 C 
ATOM      9  O   UNL     1      -4.101  42.550   0.030  1.00  0.00    -0.550 OA
ATOM     10  O   UNL     1      -2.816  43.674  -1.498  1.00  0.00    -0.550 OA
ENDBRANCH   7   8
ENDBRANCH   6   7
ENDBRANCH   5   6
ENDBRANCH   4   5
ENDBRANCH   3   4
ENDBRANCH   2   3
ENDBRANCH   1   2
BRANCH   1  11
ATOM     11  C   UNL     1      -8.089  50.115  -2.609  1.00  0.00    -0.031 C 
ATOM     12  C   UNL     1      -8.564  50.785  -3.671  1.00  0.00    -0.027 C 
BRANCH  12  13
ATOM     13  C   UNL     1      -7.669  51.626  -4.538  1.00  0.00     0.054 C 
BRANCH  13  14
ATOM     14  C   UNL     1      -8.320  51.939  -5.862  1.00  0.00    -0.027 C 
ATOM     15  C   UNL     1      -7.652  52.125  -7.016  1.00  0.00    -0.031 C 
BRANCH  15  16
ATOM     16  C   UNL     1      -6.150  52.117  -7.146  1.00  0.00     0.027 C 
BRANCH  16  17
ATOM     17  C   UNL     1      -5.734  52.066  -8.623  1.00  0.00     0.004 C 
BRANCH  17  18
ATOM     18  C   UNL     1      -4.534  51.139  -8.869  1.00  0.00     0.000 C 
BRANCH  18  19
ATOM     19  C   UNL     1      -3.185  51.861  -8.727  1.00  0.00    -0.003 C 
ATOM     20  C   UNL     1      -2.550  51.569  -7.370  1.00  0.00     0.004 C 
ENDBRANCH  18  19
ENDBRANCH  17  18
ENDBRANCH  16  17
ENDBRANCH  15  16
ENDBRANCH  13  14
ENDBRANCH  12  13
ENDBRANCH   1  11
TORSDOF 14
ENDMDL
MODEL 6
REMARK VINA RESULT:     1.814      4.199      4.940
REMARK INTER + INTRA:           2.316
REMARK INTER:                   3.258
REMARK INTRA:                  -0.942
REMARK UNBOUND:                -0.983
REMARK SMILES CCCCCC=CCC=CCCCCCCCC(=O)[O-]
REMARK SMILES IDX 11 1 12 2 13 3 14 4 15 5 16 6 17 7 18 8 19 9 20 10 10 11
REMARK SMILES IDX 9 12 8 13 7 14 6 15 5 16 4 17 3 18 2 19 1 20
REMARK H PARENT
REMARK Flexibility Score: inf
ROOT
ATOM      1  C   UNL     1      -8.857  49.636  -2.624  1.00  0.00     0.027 C 
ENDROOT
BRANCH   1   2
ATOM      2  C   UNL     1      -7.723  49.191  -1.694  1.00  0.00     0.004 C 
BRANCH   2   3
ATOM      3  C   UNL     1      -8.007  47.799  -1.109  1.00  0.00     0.000 C 
BRANCH   3   4
ATOM      4  C   UNL     1      -6.769  46.889  -1.116  1.00  0.00     0.000 C 
BRANCH   4   5
ATOM      5  C   UNL     1      -7.113  45.417  -1.390  1.00  0.00     0.000 C 
BRANCH   5   6
ATOM      6  C   UNL     1      -6.118  44.797  -2.377  1.00  0.00     0.006 C 
BRANCH   6   7
ATOM      7  C   UNL     1      -5.811  43.342  -2.012  1.00  0.00     0.053 C 
BRANCH   7   8
ATOM      8  C   UNL     1      -4.500  43.246  -1.297  1.00  0.00     0.041 C 
ATOM      9  O   UNL     1      -3.654  44.172  -1.401  1.00  0.00    -0.550 OA
ATOM     10  O   UNL     1      -4.233  42.159  -0.473  1.00  0.00    -0.550 OA
ENDBRANCH   7   8
ENDBRANCH   6   7
ENDBRANCH   5   6
ENDBRANCH   4   5
ENDBRANCH   3   4
ENDBRANCH   2   3
ENDBRANCH   1   2
BRANCH   1  11
ATOM     11  C   UNL     1      -8.328  50.035  -3.974  1.00  0.00    -0.031 C 
ATOM     12  C   UNL     1      -8.468  51.286  -4.441  1.00  0.00    -0.027 C 
BRANCH  12  13
ATOM     13  C   UNL     1      -7.926  51.691  -5.785  1.00  0.00     0.054 C 
BRANCH  13  14
ATOM     14  C   UNL     1      -6.432  51.894  -5.738  1.00  0.00    -0.027 C 
ATOM     15  C   UNL     1      -5.658  52.116  -6.816  1.00  0.00    -0.031 C 
BRANCH  15  16
ATOM     16  C   UNL     1      -6.156  52.124  -8.239  1.00  0.00     0.027 C 
BRANCH  16  17
ATOM     17  C   UNL     1      -5.372  51.117  -9.094  1.00  0.00     0.004 C 
BRANCH  17  18
ATOM     18  C   UNL     1      -6.219  49.904  -9.508  1.00  0.00     0.000 C 
BRANCH  18  19
ATOM     19  C   UNL     1      -7.709  50.245  -9.665  1.00  0.00    -0.003 C 
ATOM     20  C   UNL     1      -8.582  49.030  -9.360  1.00  0.00     0.004 C 
ENDBRANCH  18  19
ENDBRANCH  17  18
ENDBRANCH  16  17
ENDBRANCH  15  16
ENDBRANCH  13  14
ENDBRANCH  12  13
ENDBRANCH   1  11
TORSDOF 14
ENDMDL
MODEL 7
REMARK VINA RESULT:     2.266      3.090      8.001
REMARK INTER + INTRA:           3.138
REMARK INTER:                   3.975
REMARK INTRA:                  -0.837
REMARK UNBOUND:                -0.983
REMARK SMILES CCCCCC=CCC=CCCCCCCCC(=O)[O-]
REMARK SMILES IDX 11 1 12 2 13 3 14 4 15 5 16 6 17 7 18 8 19 9 20 10 10 11
REMARK SMILES IDX 9 12 8 13 7 14 6 15 5 16 4 17 3 18 2 19 1 20
REMARK H PARENT
REMARK Flexibility Score: inf
ROOT
ATOM      1  C   UNL     1      -8.954  52.112  -2.300  1.00  0.00     0.027 C 
ENDROOT
BRANCH   1   2
ATOM      2  C   UNL     1      -7.863  52.124  -3.376  1.00  0.00     0.004 C 
BRANCH   2   3
ATOM      3  C   UNL     1      -8.462  51.869  -4.768  1.00  0.00     0.000 C 
BRANCH   3   4
ATOM      4  C   UNL     1      -7.436  52.054  -5.898  1.00  0.00     0.000 C 
BRANCH   4   5
ATOM      5  C   UNL     1      -8.025  51.768  -7.288  1.00  0.00     0.000 C 
BRANCH   5   6
ATOM      6  C   UNL     1      -6.992  52.044  -8.387  1.00  0.00     0.006 C 
BRANCH   6   7
ATOM      7  C   UNL     1      -5.568  52.035  -7.822  1.00  0.00     0.053 C 
BRANCH   7   8
ATOM      8  C   UNL     1      -4.627  51.378  -8.783  1.00  0.00     0.041 C 
ATOM      9  O   UNL     1      -3.475  51.038  -8.406  1.00  0.00    -0.550 OA
ATOM     10  O   UNL     1      -5.040  51.094 -10.078  1.00  0.00    -0.550 OA
ENDBRANCH   7   8
ENDBRANCH   6   7
ENDBRANCH   5   6
ENDBRANCH   4   5
ENDBRANCH   3   4
ENDBRANCH   2   3
ENDBRANCH   1   2
BRANCH   1  11
ATOM     11  C   UNL     1      -8.750  50.981  -1.330  1.00  0.00    -0.031 C 
ATOM     12  C   UNL     1      -8.259  49.796  -1.727  1.00  0.00    -0.027 C 
BRANCH  12  13
ATOM     13  C   UNL     1      -8.039  48.668  -0.757  1.00  0.00     0.054 C 
BRANCH  13  14
ATOM     14  C   UNL     1      -6.570  48.404  -0.543  1.00  0.00    -0.027 C 
ATOM     15  C   UNL     1      -5.743  49.209   0.151  1.00  0.00    -0.031 C 
BRANCH  15  16
ATOM     16  C   UNL     1      -6.145  50.529   0.758  1.00  0.00     0.027 C 
BRANCH  16  17
ATOM     17  C   UNL     1      -5.094  51.607   0.455  1.00  0.00     0.004 C 
BRANCH  17  18
ATOM     18  C   UNL     1      -3.679  51.029   0.304  1.00  0.00     0.000 C 
BRANCH  18  19
ATOM     19  C   UNL     1      -2.584  52.102   0.407  1.00  0.00    -0.003 C 
ATOM     20  C   UNL     1      -1.722  52.125  -0.852  1.00  0.00     0.004 C 
ENDBRANCH  18  19
ENDBRANCH  17  18
ENDBRANCH  16  17
ENDBRANCH  15  16
ENDBRANCH  13  14
ENDBRANCH  12  13
ENDBRANCH   1  11
TORSDOF 14
ENDMDL
