MODEL 1
REMARK VINA RESULT:    -4.323      0.000      0.000
REMARK INTER + INTRA:          -4.952
REMARK INTER:                  -4.702
REMARK INTRA:                  -0.250
REMARK UNBOUND:                -0.250
REMARK SMILES O=C([O-])c1ccccc1O
REMARK SMILES IDX 4 1 9 2 5 3 8 4 6 5 7 6 2 7 1 8 3 9 10 10
REMARK H PARENT 10 11
REMARK Flexibility Score: inf
ROOT
ATOM      1  C   UNL     1       9.436 -26.849  31.991  1.00  0.00     0.039 A 
ATOM      2  C   UNL     1       9.262 -25.444  32.033  1.00  0.00     0.124 A 
ATOM      3  C   UNL     1      10.375 -27.391  31.091  1.00  0.00     0.014 A 
ATOM      4  C   UNL     1      10.019 -24.621  31.184  1.00  0.00     0.047 A 
ATOM      5  C   UNL     1      11.120 -26.558  30.252  1.00  0.00     0.001 A 
ATOM      6  C   UNL     1      10.943 -25.176  30.298  1.00  0.00     0.004 A 
ENDROOT
BRANCH   1   7
ATOM      7  C   UNL     1       8.661 -27.763  32.868  1.00  0.00     0.075 C 
ATOM      8  O   UNL     1       8.507 -27.513  34.093  1.00  0.00    -0.545 OA
ATOM      9  O   UNL     1       8.088 -28.917  32.345  1.00  0.00    -0.545 OA
ENDBRANCH   1   7
BRANCH   2  10
ATOM     10  O   UNL     1       8.345 -24.864  32.909  1.00  0.00    -0.507 OA
ATOM     11  H   UNL     1       7.574 -25.393  33.301  1.00  0.00     0.293 HD
ENDBRANCH   2  10
TORSDOF 2
ENDMDL
MODEL 2
REMARK VINA RESULT:    -4.300      2.055      3.541
REMARK INTER + INTRA:          -4.927
REMARK INTER:                  -4.678
REMARK INTRA:                  -0.249
REMARK UNBOUND:                -0.250
REMARK SMILES O=C([O-])c1ccccc1O
REMARK SMILES IDX 4 1 9 2 5 3 8 4 6 5 7 6 2 7 1 8 3 9 10 10
REMARK H PARENT 10 11
REMARK Flexibility Score: inf
ROOT
ATOM      1  C   UNL     1      10.113 -26.282  31.083  1.00  0.00     0.039 A 
ATOM      2  C   UNL     1       9.265 -25.929  32.160  1.00  0.00     0.124 A 
ATOM      3  C   UNL     1      10.204 -27.636  30.704  1.00  0.00     0.014 A 
ATOM      4  C   UNL     1       8.536 -26.925  32.830  1.00  0.00     0.047 A 
ATOM      5  C   UNL     1       9.472 -28.615  31.380  1.00  0.00     0.001 A 
ATOM      6  C   UNL     1       8.640 -28.261  32.441  1.00  0.00     0.004 A 
ENDROOT
BRANCH   1   7
ATOM      7  C   UNL     1      10.905 -25.267  30.342  1.00  0.00     0.075 C 
ATOM      8  O   UNL     1      12.148 -25.397  30.191  1.00  0.00    -0.545 OA
ATOM      9  O   UNL     1      10.280 -24.150  29.799  1.00  0.00    -0.545 OA
ENDBRANCH   1   7
BRANCH   2  10
ATOM     10  O   UNL     1       9.144 -24.601  32.569  1.00  0.00    -0.507 OA
ATOM     11  H   UNL     1       8.244 -24.196  32.801  1.00  0.00     0.293 HD
ENDBRANCH   2  10
TORSDOF 2
ENDMDL
MODEL 3
REMARK VINA RESULT:    -4.292      1.949      4.208
REMARK INTER + INTRA:          -4.918
REMARK INTER:                  -4.704
REMARK INTRA:                  -0.214
REMARK UNBOUND:                -0.250
REMARK SMILES O=C([O-])c1ccccc1O
REMARK SMILES IDX 4 1 9 2 5 3 8 4 6 5 7 6 2 7 1 8 3 9 10 10
REMARK H PARENT 10 11
REMARK Flexibility Score: inf
ROOT
ATOM      1  C   UNL     1       9.295 -27.386  32.204  1.00  0.00     0.039 A 
ATOM      2  C   UNL     1       9.549 -28.609  31.537  1.00  0.00     0.124 A 
ATOM      3  C   UNL     1       8.414 -27.383  33.304  1.00  0.00     0.014 A 
ATOM      4  C   UNL     1       8.926 -29.787  31.977  1.00  0.00     0.047 A 
ATOM      5  C   UNL     1       7.801 -28.563  33.729  1.00  0.00     0.001 A 
ATOM      6  C   UNL     1       8.056 -29.764  33.067  1.00  0.00     0.004 A 
ENDROOT
BRANCH   1   7
ATOM      7  C   UNL     1       9.929 -26.113  31.779  1.00  0.00     0.075 C 
ATOM      8  O   UNL     1      11.026 -26.108  31.161  1.00  0.00    -0.545 OA
ATOM      9  O   UNL     1       9.316 -24.896  32.059  1.00  0.00    -0.545 OA
ENDBRANCH   1   7
BRANCH   2  10
ATOM     10  O   UNL     1      10.415 -28.660  30.445  1.00  0.00    -0.507 OA
ATOM     11  H   UNL     1      10.549 -27.862  29.834  1.00  0.00     0.293 HD
ENDBRANCH   2  10
TORSDOF 2
ENDMDL
MODEL 4
REMARK VINA RESULT:    -4.286      2.114      3.571
REMARK INTER + INTRA:          -4.911
REMARK INTER:                  -4.662
REMARK INTRA:                  -0.250
REMARK UNBOUND:                -0.250
REMARK SMILES O=C([O-])c1ccccc1O
REMARK SMILES IDX 4 1 9 2 5 3 8 4 6 5 7 6 2 7 1 8 3 9 10 10
REMARK H PARENT 10 11
REMARK Flexibility Score: inf
ROOT
ATOM      1  C   UNL     1      10.134 -25.959  31.066  1.00  0.00     0.039 A 
ATOM      2  C   UNL     1       9.312 -25.590  32.158  1.00  0.00     0.124 A 
ATOM      3  C   UNL     1      10.197 -27.316  30.692  1.00  0.00     0.014 A 
ATOM      4  C   UNL     1       8.581 -26.572  32.846  1.00  0.00     0.047 A 
ATOM      5  C   UNL     1       9.464 -28.281  31.386  1.00  0.00     0.001 A 
ATOM      6  C   UNL     1       8.658 -27.910  32.461  1.00  0.00     0.004 A 
ENDROOT
BRANCH   1   7
ATOM      7  C   UNL     1      10.926 -24.959  30.306  1.00  0.00     0.075 C 
ATOM      8  O   UNL     1      10.387 -23.921  29.840  1.00  0.00    -0.545 OA
ATOM      9  O   UNL     1      12.287 -25.156  30.097  1.00  0.00    -0.545 OA
ENDBRANCH   1   7
BRANCH   2  10
ATOM     10  O   UNL     1       9.218 -24.258  32.563  1.00  0.00    -0.507 OA
ATOM     11  H   UNL     1       8.384 -23.708  32.393  1.00  0.00     0.293 HD
ENDBRANCH   2  10
TORSDOF 2
ENDMDL
MODEL 5
REMARK VINA RESULT:    -4.124      1.300      2.501
REMARK INTER + INTRA:          -4.736
REMARK INTER:                  -4.511
REMARK INTRA:                  -0.225
REMARK UNBOUND:                -0.250
REMARK SMILES O=C([O-])c1ccccc1O
REMARK SMILES IDX 4 1 9 2 5 3 8 4 6 5 7 6 2 7 1 8 3 9 10 10
REMARK H PARENT 10 11
REMARK Flexibility Score: inf
ROOT
ATOM      1  C   UNL     1       9.118 -27.352  32.157  1.00  0.00     0.039 A 
ATOM      2  C   UNL     1       9.959 -27.673  31.065  1.00  0.00     0.124 A 
ATOM      3  C   UNL     1       8.940 -25.998  32.503  1.00  0.00     0.014 A 
ATOM      4  C   UNL     1      10.598 -26.648  30.350  1.00  0.00     0.047 A 
ATOM      5  C   UNL     1       9.582 -24.989  31.783  1.00  0.00     0.001 A 
ATOM      6  C   UNL     1      10.410 -25.312  30.708  1.00  0.00     0.004 A 
ENDROOT
BRANCH   1   7
ATOM      7  C   UNL     1       8.419 -28.399  32.945  1.00  0.00     0.075 C 
ATOM      8  O   UNL     1       8.080 -29.492  32.418  1.00  0.00    -0.545 OA
ATOM      9  O   UNL     1       8.126 -28.188  34.288  1.00  0.00    -0.545 OA
ENDBRANCH   1   7
BRANCH   2  10
ATOM     10  O   UNL     1      10.163 -29.000  30.687  1.00  0.00    -0.507 OA
ATOM     11  H   UNL     1      10.937 -29.545  31.051  1.00  0.00     0.293 HD
ENDBRANCH   2  10
TORSDOF 2
ENDMDL
MODEL 6
REMARK VINA RESULT:    -4.003      2.619      4.252
REMARK INTER + INTRA:          -4.603
REMARK INTER:                  -4.356
REMARK INTRA:                  -0.247
REMARK UNBOUND:                -0.250
REMARK SMILES O=C([O-])c1ccccc1O
REMARK SMILES IDX 4 1 9 2 5 3 8 4 6 5 7 6 2 7 1 8 3 9 10 10
REMARK H PARENT 10 11
REMARK Flexibility Score: inf
ROOT
ATOM      1  C   UNL     1      10.495 -25.857  30.915  1.00  0.00     0.039 A 
ATOM      2  C   UNL     1      10.387 -27.268  30.954  1.00  0.00     0.124 A 
ATOM      3  C   UNL     1       9.635 -25.087  31.722  1.00  0.00     0.014 A 
ATOM      4  C   UNL     1       9.433 -27.872  31.788  1.00  0.00     0.047 A 
ATOM      5  C   UNL     1       8.690 -25.702  32.546  1.00  0.00     0.001 A 
ATOM      6  C   UNL     1       8.589 -27.093  32.579  1.00  0.00     0.004 A 
ENDROOT
BRANCH   1   7
ATOM      7  C   UNL     1      11.489 -25.169  30.052  1.00  0.00     0.075 C 
ATOM      8  O   UNL     1      12.712 -25.459  30.111  1.00  0.00    -0.545 OA
ATOM      9  O   UNL     1      11.078 -24.187  29.156  1.00  0.00    -0.545 OA
ENDBRANCH   1   7
BRANCH   2  10
ATOM     10  O   UNL     1      11.219 -28.070  30.174  1.00  0.00    -0.507 OA
ATOM     11  H   UNL     1      11.866 -28.730  30.590  1.00  0.00     0.293 HD
ENDBRANCH   2  10
TORSDOF 2
ENDMDL
MODEL 7
REMARK VINA RESULT:    -3.949      2.188      3.385
REMARK INTER + INTRA:          -4.545
REMARK INTER:                  -4.303
REMARK INTRA:                  -0.242
REMARK UNBOUND:                -0.250
REMARK SMILES O=C([O-])c1ccccc1O
REMARK SMILES IDX 4 1 9 2 5 3 8 4 6 5 7 6 2 7 1 8 3 9 10 10
REMARK H PARENT 10 11
REMARK Flexibility Score: inf
ROOT
ATOM      1  C   UNL     1      10.610 -25.125  30.503  1.00  0.00     0.039 A 
ATOM      2  C   UNL     1      11.924 -25.634  30.368  1.00  0.00     0.124 A 
ATOM      3  C   UNL     1      10.083 -24.320  29.473  1.00  0.00     0.014 A 
ATOM      4  C   UNL     1      12.676 -25.330  29.221  1.00  0.00     0.047 A 
ATOM      5  C   UNL     1      10.844 -24.027  28.339  1.00  0.00     0.001 A 
ATOM      6  C   UNL     1      12.138 -24.531  28.213  1.00  0.00     0.004 A 
ENDROOT
BRANCH   1   7
ATOM      7  C   UNL     1       9.774 -25.417  31.695  1.00  0.00     0.075 C 
ATOM      8  O   UNL     1       9.517 -26.602  32.034  1.00  0.00    -0.545 OA
ATOM      9  O   UNL     1       9.259 -24.377  32.461  1.00  0.00    -0.545 OA
ENDBRANCH   1   7
BRANCH   2  10
ATOM     10  O   UNL     1      12.486 -26.435  31.361  1.00  0.00    -0.507 OA
ATOM     11  H   UNL     1      12.018 -26.592  32.247  1.00  0.00     0.293 HD
ENDBRANCH   2  10
TORSDOF 2
ENDMDL
MODEL 8
REMARK VINA RESULT:    -3.935      3.713      5.469
REMARK INTER + INTRA:          -4.529
REMARK INTER:                  -4.319
REMARK INTRA:                  -0.211
REMARK UNBOUND:                -0.250
REMARK SMILES O=C([O-])c1ccccc1O
REMARK SMILES IDX 4 1 9 2 5 3 8 4 6 5 7 6 2 7 1 8 3 9 10 10
REMARK H PARENT 10 11
REMARK Flexibility Score: inf
ROOT
ATOM      1  C   UNL     1       8.780 -29.969  33.831  1.00  0.00     0.039 A 
ATOM      2  C   UNL     1       9.556 -31.000  34.413  1.00  0.00     0.124 A 
ATOM      3  C   UNL     1       7.886 -30.296  32.793  1.00  0.00     0.014 A 
ATOM      4  C   UNL     1       9.425 -32.319  33.951  1.00  0.00     0.047 A 
ATOM      5  C   UNL     1       7.767 -31.613  32.343  1.00  0.00     0.001 A 
ATOM      6  C   UNL     1       8.535 -32.623  32.920  1.00  0.00     0.004 A 
ENDROOT
BRANCH   1   7
ATOM      7  C   UNL     1       8.880 -28.559  34.285  1.00  0.00     0.075 C 
ATOM      8  O   UNL     1       8.508 -28.219  35.438  1.00  0.00    -0.545 OA
ATOM      9  O   UNL     1       9.393 -27.584  33.435  1.00  0.00    -0.545 OA
ENDBRANCH   1   7
BRANCH   2  10
ATOM     10  O   UNL     1      10.453 -30.723  35.445  1.00  0.00    -0.507 OA
ATOM     11  H   UNL     1      10.911 -29.822  35.525  1.00  0.00     0.293 HD
ENDBRANCH   2  10
TORSDOF 2
ENDMDL
MODEL 9
REMARK VINA RESULT:    -3.837      4.604      5.594
REMARK INTER + INTRA:          -4.423
REMARK INTER:                  -4.168
REMARK INTRA:                  -0.255
REMARK UNBOUND:                -0.250
REMARK SMILES O=C([O-])c1ccccc1O
REMARK SMILES IDX 4 1 9 2 5 3 8 4 6 5 7 6 2 7 1 8 3 9 10 10
REMARK H PARENT 10 11
REMARK Flexibility Score: inf
ROOT
ATOM      1  C   UNL     1       9.092 -31.332  33.814  1.00  0.00     0.039 A 
ATOM      2  C   UNL     1       9.704 -30.477  34.762  1.00  0.00     0.124 A 
ATOM      3  C   UNL     1       8.125 -30.796  32.940  1.00  0.00     0.014 A 
ATOM      4  C   UNL     1       9.342 -29.122  34.817  1.00  0.00     0.047 A 
ATOM      5  C   UNL     1       7.775 -29.446  33.007  1.00  0.00     0.001 A 
ATOM      6  C   UNL     1       8.382 -28.610  33.944  1.00  0.00     0.004 A 
ENDROOT
BRANCH   1   7
ATOM      7  C   UNL     1       9.440 -32.772  33.715  1.00  0.00     0.075 C 
ATOM      8  O   UNL     1       9.647 -33.315  32.598  1.00  0.00    -0.545 OA
ATOM      9  O   UNL     1       9.545 -33.549  34.864  1.00  0.00    -0.545 OA
ENDBRANCH   1   7
BRANCH   2  10
ATOM     10  O   UNL     1      10.667 -30.964  35.646  1.00  0.00    -0.507 OA
ATOM     11  H   UNL     1      10.691 -31.938  35.923  1.00  0.00     0.293 HD
ENDBRANCH   2  10
TORSDOF 2
ENDMDL
